MODEL 1
REMARK VINA RESULT:    -4.526      0.000      0.000
REMARK INTER + INTRA:          -4.813
REMARK INTER:                  -4.790
REMARK INTRA:                  -0.023
REMARK UNBOUND:                -0.023
REMARK SMILES O=C([O-])c1cccnc1
REMARK SMILES IDX 4 1 5 2 9 3 6 4 8 5 7 6 2 7 1 8 3 9
REMARK H PARENT
REMARK Flexibility Score: inf
ROOT
ATOM      1  C   UNL     1       2.160  21.319 -19.745  1.00  0.00     0.016 A 
ATOM      2  C   UNL     1       1.715  19.988 -19.743  1.00  0.00     0.013 A 
ATOM      3  C   UNL     1       3.215  21.670 -20.606  1.00  0.00     0.120 A 
ATOM      4  C   UNL     1       2.315  19.047 -20.582  1.00  0.00     0.021 A 
ATOM      5  N   UNL     1       3.782  20.734 -21.412  1.00  0.00    -0.264 NA
ATOM      6  C   UNL     1       3.359  19.442 -21.418  1.00  0.00     0.111 A 
ENDROOT
BRANCH   1   7
ATOM      7  C   UNL     1       1.532  22.326 -18.861  1.00  0.00     0.073 C 
ATOM      8  O   UNL     1       0.345  22.181 -18.467  1.00  0.00    -0.545 OA
ATOM      9  O   UNL     1       2.246  23.447 -18.455  1.00  0.00    -0.545 OA
ENDBRANCH   1   7
TORSDOF 1
ENDMDL
MODEL 2
REMARK VINA RESULT:    -4.414      2.693      3.772
REMARK INTER + INTRA:          -4.695
REMARK INTER:                  -4.676
REMARK INTRA:                  -0.019
REMARK UNBOUND:                -0.023
REMARK SMILES O=C([O-])c1cccnc1
REMARK SMILES IDX 4 1 5 2 9 3 6 4 8 5 7 6 2 7 1 8 3 9
REMARK H PARENT
REMARK Flexibility Score: inf
ROOT
ATOM      1  C   UNL     1       2.431  21.276 -19.631  1.00  0.00     0.016 A 
ATOM      2  C   UNL     1       1.066  21.326 -19.306  1.00  0.00     0.013 A 
ATOM      3  C   UNL     1       3.313  22.132 -18.946  1.00  0.00     0.120 A 
ATOM      4  C   UNL     1       0.611  22.207 -18.324  1.00  0.00     0.021 A 
ATOM      5  N   UNL     1       2.843  22.981 -17.994  1.00  0.00    -0.264 NA
ATOM      6  C   UNL     1       1.524  23.037 -17.672  1.00  0.00     0.111 A 
ENDROOT
BRANCH   1   7
ATOM      7  C   UNL     1       2.926  20.347 -20.670  1.00  0.00     0.073 C 
ATOM      8  O   UNL     1       3.680  20.757 -21.590  1.00  0.00    -0.545 OA
ATOM      9  O   UNL     1       2.564  19.005 -20.642  1.00  0.00    -0.545 OA
ENDBRANCH   1   7
TORSDOF 1
ENDMDL
MODEL 3
REMARK VINA RESULT:    -4.377     13.494     14.471
REMARK INTER + INTRA:          -4.656
REMARK INTER:                  -4.637
REMARK INTRA:                  -0.018
REMARK UNBOUND:                -0.023
REMARK SMILES O=C([O-])c1cccnc1
REMARK SMILES IDX 4 1 5 2 9 3 6 4 8 5 7 6 2 7 1 8 3 9
REMARK H PARENT
REMARK Flexibility Score: inf
ROOT
ATOM      1  C   UNL     1      -6.256  32.737 -17.922  1.00  0.00     0.016 A 
ATOM      2  C   UNL     1      -5.815  31.729 -18.794  1.00  0.00     0.013 A 
ATOM      3  C   UNL     1      -5.300  33.408 -17.138  1.00  0.00     0.120 A 
ATOM      4  C   UNL     1      -4.457  31.412 -18.870  1.00  0.00     0.021 A 
ATOM      5  N   UNL     1      -3.984  33.079 -17.232  1.00  0.00    -0.264 NA
ATOM      6  C   UNL     1      -3.547  32.105 -18.073  1.00  0.00     0.111 A 
ENDROOT
BRANCH   1   7
ATOM      7  C   UNL     1      -7.691  33.082 -17.832  1.00  0.00     0.073 C 
ATOM      8  O   UNL     1      -8.338  33.406 -18.862  1.00  0.00    -0.545 OA
ATOM      9  O   UNL     1      -8.345  33.053 -16.606  1.00  0.00    -0.545 OA
ENDBRANCH   1   7
TORSDOF 1
ENDMDL
MODEL 4
REMARK VINA RESULT:    -4.324     10.162     11.017
REMARK INTER + INTRA:          -4.600
REMARK INTER:                  -4.584
REMARK INTRA:                  -0.016
REMARK UNBOUND:                -0.023
REMARK SMILES O=C([O-])c1cccnc1
REMARK SMILES IDX 4 1 5 2 9 3 6 4 8 5 7 6 2 7 1 8 3 9
REMARK H PARENT
REMARK Flexibility Score: inf
ROOT
ATOM      1  C   UNL     1       7.937  23.955 -11.376  1.00  0.00     0.016 A 
ATOM      2  C   UNL     1       9.122  24.674 -11.599  1.00  0.00     0.013 A 
ATOM      3  C   UNL     1       6.762  24.389 -12.015  1.00  0.00     0.120 A 
ATOM      4  C   UNL     1       9.118  25.789 -12.438  1.00  0.00     0.021 A 
ATOM      5  N   UNL     1       6.786  25.479 -12.827  1.00  0.00    -0.264 NA
ATOM      6  C   UNL     1       7.928  26.181 -13.050  1.00  0.00     0.111 A 
ENDROOT
BRANCH   1   7
ATOM      7  C   UNL     1       7.928  22.771 -10.489  1.00  0.00     0.073 C 
ATOM      8  O   UNL     1       8.109  21.617 -10.959  1.00  0.00    -0.545 OA
ATOM      9  O   UNL     1       7.720  22.918  -9.123  1.00  0.00    -0.545 OA
ENDBRANCH   1   7
TORSDOF 1
ENDMDL
MODEL 5
REMARK VINA RESULT:    -4.253     13.318     14.796
REMARK INTER + INTRA:          -4.525
REMARK INTER:                  -4.504
REMARK INTRA:                  -0.021
REMARK UNBOUND:                -0.023
REMARK SMILES O=C([O-])c1cccnc1
REMARK SMILES IDX 4 1 5 2 9 3 6 4 8 5 7 6 2 7 1 8 3 9
REMARK H PARENT
REMARK Flexibility Score: inf
ROOT
ATOM      1  C   UNL     1      -6.035  32.244 -17.600  1.00  0.00     0.016 A 
ATOM      2  C   UNL     1      -6.873  32.887 -18.525  1.00  0.00     0.013 A 
ATOM      3  C   UNL     1      -6.476  32.124 -16.270  1.00  0.00     0.120 A 
ATOM      4  C   UNL     1      -8.110  33.389 -18.120  1.00  0.00     0.021 A 
ATOM      5  N   UNL     1      -7.687  32.623 -15.901  1.00  0.00    -0.264 NA
ATOM      6  C   UNL     1      -8.504  33.247 -16.789  1.00  0.00     0.111 A 
ENDROOT
BRANCH   1   7
ATOM      7  C   UNL     1      -4.721  31.707 -18.017  1.00  0.00     0.073 C 
ATOM      8  O   UNL     1      -4.581  31.160 -19.142  1.00  0.00    -0.545 OA
ATOM      9  O   UNL     1      -3.623  31.801 -17.170  1.00  0.00    -0.545 OA
ENDBRANCH   1   7
TORSDOF 1
ENDMDL
MODEL 6
REMARK VINA RESULT:    -4.129      9.801     10.678
REMARK INTER + INTRA:          -4.393
REMARK INTER:                  -4.374
REMARK INTRA:                  -0.019
REMARK UNBOUND:                -0.023
REMARK SMILES O=C([O-])c1cccnc1
REMARK SMILES IDX 4 1 5 2 9 3 6 4 8 5 7 6 2 7 1 8 3 9
REMARK H PARENT
REMARK Flexibility Score: inf
ROOT
ATOM      1  C   UNL     1       7.803  26.681 -12.977  1.00  0.00     0.016 A 
ATOM      2  C   UNL     1       9.169  26.463 -12.734  1.00  0.00     0.013 A 
ATOM      3  C   UNL     1       6.915  25.601 -12.820  1.00  0.00     0.120 A 
ATOM      4  C   UNL     1       9.619  25.200 -12.346  1.00  0.00     0.021 A 
ATOM      5  N   UNL     1       7.381  24.381 -12.441  1.00  0.00    -0.264 NA
ATOM      6  C   UNL     1       8.700  24.159 -12.204  1.00  0.00     0.111 A 
ENDROOT
BRANCH   1   7
ATOM      7  C   UNL     1       7.314  28.015 -13.388  1.00  0.00     0.073 C 
ATOM      8  O   UNL     1       6.530  28.136 -14.366  1.00  0.00    -0.545 OA
ATOM      9  O   UNL     1       7.713  29.154 -12.698  1.00  0.00    -0.545 OA
ENDBRANCH   1   7
TORSDOF 1
ENDMDL
MODEL 7
REMARK VINA RESULT:    -4.064     10.437     11.370
REMARK INTER + INTRA:          -4.325
REMARK INTER:                  -4.304
REMARK INTRA:                  -0.020
REMARK UNBOUND:                -0.023
REMARK SMILES O=C([O-])c1cccnc1
REMARK SMILES IDX 4 1 5 2 9 3 6 4 8 5 7 6 2 7 1 8 3 9
REMARK H PARENT
REMARK Flexibility Score: inf
ROOT
ATOM      1  C   UNL     1       9.032  25.167 -12.159  1.00  0.00     0.016 A 
ATOM      2  C   UNL     1       9.305  24.487 -10.961  1.00  0.00     0.013 A 
ATOM      3  C   UNL     1       7.742  25.062 -12.708  1.00  0.00     0.120 A 
ATOM      4  C   UNL     1       8.309  23.730 -10.342  1.00  0.00     0.021 A 
ATOM      5  N   UNL     1       6.790  24.318 -12.084  1.00  0.00    -0.264 NA
ATOM      6  C   UNL     1       7.044  23.656 -10.925  1.00  0.00     0.111 A 
ENDROOT
BRANCH   1   7
ATOM      7  C   UNL     1      10.079  25.973 -12.824  1.00  0.00     0.073 C 
ATOM      8  O   UNL     1      10.823  26.737 -12.155  1.00  0.00    -0.545 OA
ATOM      9  O   UNL     1      10.256  25.896 -14.201  1.00  0.00    -0.545 OA
ENDBRANCH   1   7
TORSDOF 1
ENDMDL
MODEL 8
REMARK VINA RESULT:    -4.016     10.130     11.242
REMARK INTER + INTRA:          -4.274
REMARK INTER:                  -4.250
REMARK INTRA:                  -0.024
REMARK UNBOUND:                -0.023
REMARK SMILES O=C([O-])c1cccnc1
REMARK SMILES IDX 4 1 5 2 9 3 6 4 8 5 7 6 2 7 1 8 3 9
REMARK H PARENT
REMARK Flexibility Score: inf
ROOT
ATOM      1  C   UNL     1       8.136  26.385 -12.860  1.00  0.00     0.016 A 
ATOM      2  C   UNL     1       7.217  27.431 -13.035  1.00  0.00     0.013 A 
ATOM      3  C   UNL     1       9.504  26.704 -12.778  1.00  0.00     0.120 A 
ATOM      4  C   UNL     1       7.665  28.750 -13.125  1.00  0.00     0.021 A 
ATOM      5  N   UNL     1       9.913  27.997 -12.869  1.00  0.00    -0.264 NA
ATOM      6  C   UNL     1       9.031  29.017 -13.039  1.00  0.00     0.111 A 
ENDROOT
BRANCH   1   7
ATOM      7  C   UNL     1       7.675  24.983 -12.763  1.00  0.00     0.073 C 
ATOM      8  O   UNL     1       8.505  24.037 -12.717  1.00  0.00    -0.545 OA
ATOM      9  O   UNL     1       6.317  24.691 -12.721  1.00  0.00    -0.545 OA
ENDBRANCH   1   7
TORSDOF 1
ENDMDL
MODEL 9
REMARK VINA RESULT:    -3.916     10.231     11.428
REMARK INTER + INTRA:          -4.168
REMARK INTER:                  -4.148
REMARK INTRA:                  -0.020
REMARK UNBOUND:                -0.023
REMARK SMILES O=C([O-])c1cccnc1
REMARK SMILES IDX 4 1 5 2 9 3 6 4 8 5 7 6 2 7 1 8 3 9
REMARK H PARENT
REMARK Flexibility Score: inf
ROOT
ATOM      1  C   UNL     1       7.336  28.176 -13.484  1.00  0.00     0.016 A 
ATOM      2  C   UNL     1       7.921  29.230 -12.764  1.00  0.00     0.013 A 
ATOM      3  C   UNL     1       6.543  28.491 -14.603  1.00  0.00     0.120 A 
ATOM      4  C   UNL     1       7.713  30.551 -13.161  1.00  0.00     0.021 A 
ATOM      5  N   UNL     1       6.356  29.788 -14.968  1.00  0.00    -0.264 NA
ATOM      6  C   UNL     1       6.918  30.814 -14.277  1.00  0.00     0.111 A 
ENDROOT
BRANCH   1   7
ATOM      7  C   UNL     1       7.549  26.771 -13.074  1.00  0.00     0.073 C 
ATOM      8  O   UNL     1       6.592  25.953 -13.069  1.00  0.00    -0.545 OA
ATOM      9  O   UNL     1       8.811  26.335 -12.690  1.00  0.00    -0.545 OA
ENDBRANCH   1   7
TORSDOF 1
ENDMDL
