MODEL 1
REMARK VINA RESULT:    -3.810      0.000      0.000
REMARK INTER + INTRA:          -4.884
REMARK INTER:                  -5.814
REMARK INTRA:                   0.930
REMARK UNBOUND:                 0.930
REMARK SMILES CC1=CCC[C@H](C)C(=O)C[C@H](C(C)C)C(=O)C1
REMARK SMILES IDX 8 1 9 2 6 3 7 4 5 5 4 6 3 7 2 8 1 9 10 11 11 12 15 13 16 14
REMARK SMILES IDX 17 15 12 17 13 18 14 19
REMARK H PARENT
REMARK Flexibility Score: 70.00
ROOT
ATOM      1  C   UNL     1       4.947 146.557  -6.813  1.00  0.00     0.136 C 
ATOM      2  O   UNL     1       5.932 146.860  -6.155  1.00  0.00    -0.299 OA
ENDROOT
BRANCH   1   3
ATOM      3  C   UNL     1       5.139 146.130  -8.258  1.00  0.00     0.053 C 
ATOM      4  C   UNL     1       5.691 147.284  -9.105  1.00  0.00     0.016 C 
BRANCH   3   5
ATOM      5  C   UNL     1       6.036 144.884  -8.363  1.00  0.00     0.015 C 
BRANCH   5   6
ATOM      6  C   UNL     1       5.601 143.779  -7.383  1.00  0.00     0.028 C 
BRANCH   6   7
ATOM      7  C   UNL     1       4.595 142.855  -8.018  1.00  0.00    -0.028 C 
ATOM      8  C   UNL     1       3.257 142.926  -7.825  1.00  0.00    -0.070 CG0
ATOM      9  C   UNL     1       2.388 141.897  -8.502  1.00  0.00     0.039 C 
ATOM     10  G   UNL     1       2.600 143.996  -6.966  1.00  0.00     0.000 G0
ENDBRANCH   6   7
ENDBRANCH   5   6
ENDBRANCH   3   5
ENDBRANCH   1   3
BRANCH   1  11
ATOM     11  C   UNL     1       3.589 146.591  -6.146  1.00  0.00     0.087 C 
BRANCH  11  12
ATOM     12  C   UNL     1       2.428 146.627  -7.177  1.00  0.00     0.066 C 
BRANCH  12  13
ATOM     13  C   UNL     1       2.227 145.235  -7.755  1.00  0.00     0.140 C 
ATOM     14  O   UNL     1       1.863 145.113  -8.917  1.00  0.00    -0.299 OA
BRANCH  13  15
ATOM     15  C   UNL     1       2.578 144.004  -6.955  1.00  0.00     0.106 CG0
ATOM     16  G   UNL     1       3.255 142.939  -7.805  1.00  0.00     0.000 G0
ENDBRANCH  13  15
ENDBRANCH  12  13
BRANCH  12  17
ATOM     17  C   UNL     1       1.093 147.161  -6.559  1.00  0.00    -0.006 C 
ATOM     18  C   UNL     1       1.361 148.191  -5.444  1.00  0.00     0.008 C 
ATOM     19  C   UNL     1       0.226 146.026  -5.975  1.00  0.00     0.008 C 
ENDBRANCH  12  17
ENDBRANCH  11  12
ENDBRANCH   1  11
TORSDOF 1
ENDMDL
MODEL 2
REMARK VINA RESULT:    -3.004      1.434      2.077
REMARK INTER + INTRA:          -3.655
REMARK INTER:                  -4.609
REMARK INTRA:                   0.954
REMARK UNBOUND:                 0.930
REMARK SMILES CC1=CCC[C@H](C)C(=O)C[C@H](C(C)C)C(=O)C1
REMARK SMILES IDX 8 1 9 2 6 3 7 4 5 5 4 6 3 7 2 8 1 9 10 11 11 12 15 13 16 14
REMARK SMILES IDX 17 15 12 17 13 18 14 19
REMARK H PARENT
REMARK Flexibility Score: 70.00
ROOT
ATOM      1  C   UNL     1       5.556 145.588  -7.277  1.00  0.00     0.136 C 
ATOM      2  O   UNL     1       5.732 145.941  -8.434  1.00  0.00    -0.299 OA
ENDROOT
BRANCH   1   3
ATOM      3  C   UNL     1       6.347 144.405  -6.747  1.00  0.00     0.053 C 
ATOM      4  C   UNL     1       6.536 144.505  -5.228  1.00  0.00     0.016 C 
BRANCH   3   5
ATOM      5  C   UNL     1       5.693 143.068  -7.140  1.00  0.00     0.015 C 
BRANCH   5   6
ATOM      6  C   UNL     1       5.375 143.004  -8.646  1.00  0.00     0.028 C 
BRANCH   6   7
ATOM      7  C   UNL     1       4.083 142.274  -8.898  1.00  0.00    -0.028 C 
ATOM      8  C   UNL     1       2.859 142.853  -8.894  1.00  0.00    -0.070 CG0
ATOM      9  C   UNL     1       1.657 141.972  -9.123  1.00  0.00     0.039 C 
ATOM     10  G   UNL     1       2.649 144.345  -8.679  1.00  0.00     0.000 G0
ENDBRANCH   6   7
ENDBRANCH   5   6
ENDBRANCH   3   5
ENDBRANCH   1   3
BRANCH   1  11
ATOM     11  C   UNL     1       4.582 146.369  -6.421  1.00  0.00     0.087 C 
BRANCH  11  12
ATOM     12  C   UNL     1       3.125 146.272  -6.950  1.00  0.00     0.066 C 
BRANCH  12  13
ATOM     13  C   UNL     1       2.804 144.822  -7.275  1.00  0.00     0.140 C 
ATOM     14  O   UNL     1       2.584 144.036  -6.364  1.00  0.00    -0.299 OA
BRANCH  13  15
ATOM     15  C   UNL     1       2.641 144.365  -8.704  1.00  0.00     0.106 CG0
ATOM     16  G   UNL     1       2.868 142.869  -8.860  1.00  0.00     0.000 G0
ENDBRANCH  13  15
ENDBRANCH  12  13
BRANCH  12  17
ATOM     17  C   UNL     1       2.080 146.850  -5.938  1.00  0.00    -0.006 C 
ATOM     18  C   UNL     1       0.637 146.649  -6.443  1.00  0.00     0.008 C 
ATOM     19  C   UNL     1       2.296 148.354  -5.671  1.00  0.00     0.008 C 
ENDBRANCH  12  17
ENDBRANCH  11  12
ENDBRANCH   1  11
TORSDOF 1
ENDMDL
MODEL 3
REMARK VINA RESULT:    -2.802      1.542      3.647
REMARK INTER + INTRA:          -3.346
REMARK INTER:                  -3.971
REMARK INTRA:                   0.625
REMARK UNBOUND:                 0.930
REMARK SMILES CC1=CCC[C@H](C)C(=O)C[C@H](C(C)C)C(=O)C1
REMARK SMILES IDX 8 1 9 2 6 3 7 4 5 5 4 6 3 7 2 8 1 9 10 11 11 12 15 13 16 14
REMARK SMILES IDX 17 15 12 17 13 18 14 19
REMARK H PARENT
REMARK Flexibility Score: 70.00
ROOT
ATOM      1  C   UNL     1       2.474 144.277  -8.374  1.00  0.00     0.136 C 
ATOM      2  O   UNL     1       1.595 143.880  -9.125  1.00  0.00    -0.299 OA
ENDROOT
BRANCH   1   3
ATOM      3  C   UNL     1       3.417 143.262  -7.752  1.00  0.00     0.053 C 
ATOM      4  C   UNL     1       2.638 142.099  -7.124  1.00  0.00     0.016 C 
BRANCH   3   5
ATOM      5  C   UNL     1       4.450 142.754  -8.774  1.00  0.00     0.015 C 
BRANCH   5   6
ATOM      6  C   UNL     1       5.833 143.396  -8.561  1.00  0.00     0.028 C 
BRANCH   6   7
ATOM      7  C   UNL     1       5.876 144.792  -9.125  1.00  0.00    -0.028 C 
ATOM      8  C   UNL     1       5.702 145.920  -8.397  1.00  0.00    -0.070 CG0
ATOM      9  C   UNL     1       5.732 147.242  -9.122  1.00  0.00     0.039 C 
ATOM     10  G   UNL     1       5.485 145.911  -6.892  1.00  0.00     0.000 G0
ENDBRANCH   6   7
ENDBRANCH   5   6
ENDBRANCH   3   5
ENDBRANCH   1   3
BRANCH   1  11
ATOM     11  C   UNL     1       2.598 145.765  -8.126  1.00  0.00     0.087 C 
BRANCH  11  12
ATOM     12  C   UNL     1       2.861 146.093  -6.631  1.00  0.00     0.066 C 
BRANCH  12  13
ATOM     13  C   UNL     1       4.244 146.709  -6.487  1.00  0.00     0.140 C 
ATOM     14  O   UNL     1       4.361 147.809  -5.964  1.00  0.00    -0.299 OA
BRANCH  13  15
ATOM     15  C   UNL     1       5.481 145.938  -6.875  1.00  0.00     0.106 CG0
ATOM     16  G   UNL     1       5.711 145.937  -8.379  1.00  0.00     0.000 G0
ENDBRANCH  13  15
ENDBRANCH  12  13
BRANCH  12  17
ATOM     17  C   UNL     1       1.774 147.042  -6.024  1.00  0.00    -0.006 C 
ATOM     18  C   UNL     1       1.792 147.007  -4.483  1.00  0.00     0.008 C 
ATOM     19  C   UNL     1       0.352 146.680  -6.502  1.00  0.00     0.008 C 
ENDBRANCH  12  17
ENDBRANCH  11  12
ENDBRANCH   1  11
TORSDOF 1
ENDMDL
MODEL 4
REMARK VINA RESULT:    -2.499      1.756      3.668
REMARK INTER + INTRA:          -2.884
REMARK INTER:                  -3.846
REMARK INTRA:                   0.962
REMARK UNBOUND:                 0.930
REMARK SMILES CC1=CCC[C@H](C)C(=O)C[C@H](C(C)C)C(=O)C1
REMARK SMILES IDX 8 1 9 2 6 3 7 4 5 5 4 6 3 7 2 8 1 9 10 11 11 12 15 13 16 14
REMARK SMILES IDX 17 15 12 17 13 18 14 19
REMARK H PARENT
REMARK Flexibility Score: 70.00
ROOT
ATOM      1  C   UNL     1       2.358 144.532  -8.286  1.00  0.00     0.136 C 
ATOM      2  O   UNL     1       1.498 144.304  -9.125  1.00  0.00    -0.299 OA
ENDROOT
BRANCH   1   3
ATOM      3  C   UNL     1       3.375 143.449  -7.970  1.00  0.00     0.053 C 
ATOM      4  C   UNL     1       2.682 142.116  -7.662  1.00  0.00     0.016 C 
BRANCH   3   5
ATOM      5  C   UNL     1       4.403 143.293  -9.105  1.00  0.00     0.015 C 
BRANCH   5   6
ATOM      6  C   UNL     1       5.804 143.770  -8.680  1.00  0.00     0.028 C 
BRANCH   6   7
ATOM      7  C   UNL     1       6.043 143.517  -7.215  1.00  0.00    -0.028 C 
ATOM      8  C   UNL     1       6.216 144.488  -6.286  1.00  0.00    -0.070 CG0
ATOM      9  C   UNL     1       6.488 144.067  -4.864  1.00  0.00     0.039 C 
ATOM     10  G   UNL     1       6.140 145.971  -6.614  1.00  0.00     0.000 G0
ENDBRANCH   6   7
ENDBRANCH   5   6
ENDBRANCH   3   5
ENDBRANCH   1   3
BRANCH   1  11
ATOM     11  C   UNL     1       2.386 145.895  -7.628  1.00  0.00     0.087 C 
BRANCH  11  12
ATOM     12  C   UNL     1       3.494 146.002  -6.544  1.00  0.00     0.066 C 
BRANCH  12  13
ATOM     13  C   UNL     1       4.811 146.371  -7.208  1.00  0.00     0.140 C 
ATOM     14  O   UNL     1       4.804 147.075  -8.209  1.00  0.00    -0.299 OA
BRANCH  13  15
ATOM     15  C   UNL     1       6.130 145.979  -6.588  1.00  0.00     0.106 CG0
ATOM     16  G   UNL     1       6.199 144.491  -6.277  1.00  0.00     0.000 G0
ENDBRANCH  13  15
ENDBRANCH  12  13
BRANCH  12  17
ATOM     17  C   UNL     1       3.138 147.034  -5.422  1.00  0.00    -0.006 C 
ATOM     18  C   UNL     1       1.740 147.646  -5.643  1.00  0.00     0.008 C 
ATOM     19  C   UNL     1       4.165 148.182  -5.340  1.00  0.00     0.008 C 
ENDBRANCH  12  17
ENDBRANCH  11  12
ENDBRANCH   1  11
TORSDOF 1
ENDMDL
MODEL 5
REMARK VINA RESULT:    -1.937      1.758      4.378
REMARK INTER + INTRA:          -2.025
REMARK INTER:                  -4.789
REMARK INTRA:                   2.764
REMARK UNBOUND:                 0.930
REMARK SMILES CC1=CCC[C@H](C)C(=O)C[C@H](C(C)C)C(=O)C1
REMARK SMILES IDX 8 1 9 2 6 3 7 4 5 5 4 6 3 7 2 8 1 9 10 11 11 12 15 13 16 14
REMARK SMILES IDX 17 15 12 17 13 18 14 19
REMARK H PARENT
REMARK Flexibility Score: 70.00
ROOT
ATOM      1  C   UNL     1       2.053 145.786  -7.928  1.00  0.00     0.136 C 
ATOM      2  O   UNL     1       1.012 145.151  -8.003  1.00  0.00    -0.299 OA
ENDROOT
BRANCH   1   3
ATOM      3  C   UNL     1       2.217 146.787  -6.798  1.00  0.00     0.053 C 
ATOM      4  C   UNL     1       0.880 147.048  -6.095  1.00  0.00     0.016 C 
BRANCH   3   5
ATOM      5  C   UNL     1       3.294 146.335  -5.796  1.00  0.00     0.015 C 
BRANCH   5   6
ATOM      6  C   UNL     1       4.491 147.304  -5.762  1.00  0.00     0.028 C 
BRANCH   6   7
ATOM      7  C   UNL     1       5.188 147.355  -7.096  1.00  0.00    -0.028 C 
ATOM      8  C   UNL     1       5.628 146.269  -7.775  1.00  0.00    -0.070 CG0
ATOM      9  C   UNL     1       6.346 146.494  -9.082  1.00  0.00     0.039 C 
ATOM     10  G   UNL     1       5.425 144.845  -7.282  1.00  0.00     0.000 G0
ENDBRANCH   6   7
ENDBRANCH   5   6
ENDBRANCH   3   5
ENDBRANCH   1   3
BRANCH   1  11
ATOM     11  C   UNL     1       3.141 145.520  -8.947  1.00  0.00     0.087 C 
BRANCH  11  12
ATOM     12  C   UNL     1       3.574 144.028  -8.968  1.00  0.00     0.066 C 
BRANCH  12  13
ATOM     13  C   UNL     1       4.955 143.897  -8.346  1.00  0.00     0.140 C 
ATOM     14  O   UNL     1       5.739 143.069  -8.791  1.00  0.00    -0.299 OA
BRANCH  13  15
ATOM     15  C   UNL     1       5.413 144.846  -7.267  1.00  0.00     0.106 CG0
ATOM     16  G   UNL     1       5.608 146.261  -7.790  1.00  0.00     0.000 G0
ENDBRANCH  13  15
ENDBRANCH  12  13
BRANCH  12  17
ATOM     17  C   UNL     1       2.552 143.096  -8.235  1.00  0.00    -0.006 C 
ATOM     18  C   UNL     1       3.118 142.586  -6.894  1.00  0.00     0.008 C 
ATOM     19  C   UNL     1       2.156 141.876  -9.092  1.00  0.00     0.008 C 
ENDBRANCH  12  17
ENDBRANCH  11  12
ENDBRANCH   1  11
TORSDOF 1
ENDMDL
MODEL 6
REMARK VINA RESULT:    -1.725      1.561      4.049
REMARK INTER + INTRA:          -1.702
REMARK INTER:                  -2.729
REMARK INTRA:                   1.027
REMARK UNBOUND:                 0.930
REMARK SMILES CC1=CCC[C@H](C)C(=O)C[C@H](C(C)C)C(=O)C1
REMARK SMILES IDX 8 1 9 2 6 3 7 4 5 5 4 6 3 7 2 8 1 9 10 11 11 12 15 13 16 14
REMARK SMILES IDX 17 15 12 17 13 18 14 19
REMARK H PARENT
REMARK Flexibility Score: 70.00
ROOT
ATOM      1  C   UNL     1       4.505 147.493  -5.602  1.00  0.00     0.136 C 
ATOM      2  O   UNL     1       4.510 148.711  -5.498  1.00  0.00    -0.299 OA
ENDROOT
BRANCH   1   3
ATOM      3  C   UNL     1       3.356 146.714  -4.985  1.00  0.00     0.053 C 
ATOM      4  C   UNL     1       3.390 146.803  -3.454  1.00  0.00     0.016 C 
BRANCH   3   5
ATOM      5  C   UNL     1       1.998 147.179  -5.541  1.00  0.00     0.015 C 
BRANCH   5   6
ATOM      6  C   UNL     1       1.799 146.750  -7.007  1.00  0.00     0.028 C 
BRANCH   6   7
ATOM      7  C   UNL     1       1.832 145.250  -7.143  1.00  0.00    -0.028 C 
ATOM      8  C   UNL     1       2.522 144.581  -8.096  1.00  0.00    -0.070 CG0
ATOM      9  C   UNL     1       2.416 143.077  -8.122  1.00  0.00     0.039 C 
ATOM     10  G   UNL     1       3.398 145.275  -9.128  1.00  0.00     0.000 G0
ENDBRANCH   6   7
ENDBRANCH   5   6
ENDBRANCH   3   5
ENDBRANCH   1   3
BRANCH   1  11
ATOM     11  C   UNL     1       5.626 146.825  -6.368  1.00  0.00     0.087 C 
BRANCH  11  12
ATOM     12  C   UNL     1       5.135 145.587  -7.169  1.00  0.00     0.066 C 
BRANCH  12  13
ATOM     13  C   UNL     1       4.505 146.051  -8.473  1.00  0.00     0.140 C 
ATOM     14  O   UNL     1       4.964 147.028  -9.048  1.00  0.00    -0.299 OA
BRANCH  13  15
ATOM     15  C   UNL     1       3.398 145.259  -9.124  1.00  0.00     0.106 CG0
ATOM     16  G   UNL     1       2.520 144.551  -8.104  1.00  0.00     0.000 G0
ENDBRANCH  13  15
ENDBRANCH  12  13
BRANCH  12  17
ATOM     17  C   UNL     1       6.283 144.561  -7.450  1.00  0.00    -0.006 C 
ATOM     18  C   UNL     1       6.749 144.626  -8.918  1.00  0.00     0.008 C 
ATOM     19  C   UNL     1       5.858 143.111  -7.138  1.00  0.00     0.008 C 
ENDBRANCH  12  17
ENDBRANCH  11  12
ENDBRANCH   1  11
TORSDOF 1
ENDMDL
MODEL 7
REMARK VINA RESULT:    -1.377      1.971      3.544
REMARK INTER + INTRA:          -1.171
REMARK INTER:                  -2.897
REMARK INTRA:                   1.725
REMARK UNBOUND:                 0.930
REMARK SMILES CC1=CCC[C@H](C)C(=O)C[C@H](C(C)C)C(=O)C1
REMARK SMILES IDX 8 1 9 2 6 3 7 4 5 5 4 6 3 7 2 8 1 9 10 11 11 12 15 13 16 14
REMARK SMILES IDX 17 15 12 17 13 18 14 19
REMARK H PARENT
REMARK Flexibility Score: 70.00
ROOT
ATOM      1  C   UNL     1       3.542 143.046  -7.622  1.00  0.00     0.136 C 
ATOM      2  O   UNL     1       3.296 142.023  -8.244  1.00  0.00    -0.299 OA
ENDROOT
BRANCH   1   3
ATOM      3  C   UNL     1       4.971 143.558  -7.595  1.00  0.00     0.053 C 
ATOM      4  C   UNL     1       5.883 142.606  -6.811  1.00  0.00     0.016 C 
BRANCH   3   5
ATOM      5  C   UNL     1       5.509 143.801  -9.016  1.00  0.00     0.015 C 
BRANCH   5   6
ATOM      6  C   UNL     1       6.260 145.142  -9.125  1.00  0.00     0.028 C 
BRANCH   6   7
ATOM      7  C   UNL     1       6.218 145.896  -7.822  1.00  0.00    -0.028 C 
ATOM      8  C   UNL     1       5.223 146.736  -7.452  1.00  0.00    -0.070 CG0
ATOM      9  C   UNL     1       5.352 147.449  -6.130  1.00  0.00     0.039 C 
ATOM     10  G   UNL     1       3.988 146.985  -8.305  1.00  0.00     0.000 G0
ENDBRANCH   6   7
ENDBRANCH   5   6
ENDBRANCH   3   5
ENDBRANCH   1   3
BRANCH   1  11
ATOM     11  C   UNL     1       2.402 143.770  -6.937  1.00  0.00     0.087 C 
BRANCH  11  12
ATOM     12  C   UNL     1       2.680 145.291  -6.782  1.00  0.00     0.066 C 
BRANCH  12  13
ATOM     13  C   UNL     1       2.963 145.892  -8.150  1.00  0.00     0.140 C 
ATOM     14  O   UNL     1       2.278 145.557  -9.107  1.00  0.00    -0.299 OA
BRANCH  13  15
ATOM     15  C   UNL     1       3.997 146.976  -8.322  1.00  0.00     0.106 CG0
ATOM     16  G   UNL     1       5.221 146.748  -7.448  1.00  0.00     0.000 G0
ENDBRANCH  13  15
ENDBRANCH  12  13
BRANCH  12  17
ATOM     17  C   UNL     1       1.501 146.048  -6.084  1.00  0.00    -0.006 C 
ATOM     18  C   UNL     1       0.275 146.157  -7.013  1.00  0.00     0.008 C 
ATOM     19  C   UNL     1       1.903 147.470  -5.640  1.00  0.00     0.008 C 
ENDBRANCH  12  17
ENDBRANCH  11  12
ENDBRANCH   1  11
TORSDOF 1
ENDMDL
MODEL 8
REMARK VINA RESULT:    -1.123      2.041      3.446
REMARK INTER + INTRA:          -0.784
REMARK INTER:                  -1.282
REMARK INTRA:                   0.498
REMARK UNBOUND:                 0.930
REMARK SMILES CC1=CCC[C@H](C)C(=O)C[C@H](C(C)C)C(=O)C1
REMARK SMILES IDX 8 1 9 2 6 3 7 4 5 5 4 6 3 7 2 8 1 9 10 11 11 12 15 13 16 14
REMARK SMILES IDX 17 15 12 17 13 18 14 19
REMARK H PARENT
REMARK Flexibility Score: 70.00
ROOT
ATOM      1  C   UNL     1       5.337 144.149  -5.974  1.00  0.00     0.136 C 
ATOM      2  O   UNL     1       6.410 144.487  -5.496  1.00  0.00    -0.299 OA
ENDROOT
BRANCH   1   3
ATOM      3  C   UNL     1       5.290 142.923  -6.868  1.00  0.00     0.053 C 
ATOM      4  C   UNL     1       3.842 142.485  -7.128  1.00  0.00     0.016 C 
BRANCH   3   5
ATOM      5  C   UNL     1       6.045 143.159  -8.188  1.00  0.00     0.015 C 
BRANCH   5   6
ATOM      6  C   UNL     1       5.293 144.134  -9.114  1.00  0.00     0.028 C 
BRANCH   6   7
ATOM      7  C   UNL     1       5.919 145.503  -9.084  1.00  0.00    -0.028 C 
ATOM      8  C   UNL     1       5.224 146.664  -9.045  1.00  0.00    -0.070 CG0
ATOM      9  C   UNL     1       6.002 147.956  -9.062  1.00  0.00     0.039 C 
ATOM     10  G   UNL     1       3.706 146.720  -8.980  1.00  0.00     0.000 G0
ENDBRANCH   6   7
ENDBRANCH   5   6
ENDBRANCH   3   5
ENDBRANCH   1   3
BRANCH   1  11
ATOM     11  C   UNL     1       4.102 144.951  -5.623  1.00  0.00     0.087 C 
BRANCH  11  12
ATOM     12  C   UNL     1       4.052 146.312  -6.370  1.00  0.00     0.066 C 
BRANCH  12  13
ATOM     13  C   UNL     1       3.219 146.161  -7.633  1.00  0.00     0.140 C 
ATOM     14  O   UNL     1       2.098 145.676  -7.559  1.00  0.00    -0.299 OA
BRANCH  13  15
ATOM     15  C   UNL     1       3.706 146.703  -8.954  1.00  0.00     0.106 CG0
ATOM     16  G   UNL     1       5.223 146.665  -9.067  1.00  0.00     0.000 G0
ENDBRANCH  13  15
ENDBRANCH  12  13
BRANCH  12  17
ATOM     17  C   UNL     1       3.488 147.466  -5.477  1.00  0.00    -0.006 C 
ATOM     18  C   UNL     1       4.554 148.550  -5.217  1.00  0.00     0.008 C 
ATOM     19  C   UNL     1       2.974 146.953  -4.116  1.00  0.00     0.008 C 
ENDBRANCH  12  17
ENDBRANCH  11  12
ENDBRANCH   1  11
TORSDOF 1
ENDMDL
MODEL 9
REMARK VINA RESULT:    -0.990      1.779      3.156
REMARK INTER + INTRA:          -0.580
REMARK INTER:                  -2.527
REMARK INTRA:                   1.947
REMARK UNBOUND:                 0.930
REMARK SMILES CC1=CCC[C@H](C)C(=O)C[C@H](C(C)C)C(=O)C1
REMARK SMILES IDX 8 1 9 2 6 3 7 4 5 5 4 6 3 7 2 8 1 9 10 11 11 12 15 13 16 14
REMARK SMILES IDX 17 15 12 17 13 18 14 19
REMARK H PARENT
REMARK Flexibility Score: 70.00
ROOT
ATOM      1  C   UNL     1       2.625 144.882  -8.351  1.00  0.00     0.136 C 
ATOM      2  O   UNL     1       1.523 145.071  -8.846  1.00  0.00    -0.299 OA
ENDROOT
BRANCH   1   3
ATOM      3  C   UNL     1       3.856 145.319  -9.123  1.00  0.00     0.053 C 
ATOM      4  C   UNL     1       4.380 146.666  -8.609  1.00  0.00     0.016 C 
BRANCH   3   5
ATOM      5  C   UNL     1       4.956 144.243  -9.086  1.00  0.00     0.015 C 
BRANCH   5   6
ATOM      6  C   UNL     1       6.263 144.778  -8.471  1.00  0.00     0.028 C 
BRANCH   6   7
ATOM      7  C   UNL     1       6.481 144.221  -7.089  1.00  0.00    -0.028 C 
ATOM      8  C   UNL     1       5.919 144.719  -5.962  1.00  0.00    -0.070 CG0
ATOM      9  C   UNL     1       6.273 144.071  -4.648  1.00  0.00     0.039 C 
ATOM     10  G   UNL     1       4.947 145.889  -5.968  1.00  0.00     0.000 G0
ENDBRANCH   6   7
ENDBRANCH   5   6
ENDBRANCH   3   5
ENDBRANCH   1   3
BRANCH   1  11
ATOM     11  C   UNL     1       2.704 144.251  -6.977  1.00  0.00     0.087 C 
BRANCH  11  12
ATOM     12  C   UNL     1       2.400 145.269  -5.843  1.00  0.00     0.066 C 
BRANCH  12  13
ATOM     13  C   UNL     1       3.701 145.666  -5.164  1.00  0.00     0.140 C 
ATOM     14  O   UNL     1       3.755 145.703  -3.942  1.00  0.00    -0.299 OA
BRANCH  13  15
ATOM     15  C   UNL     1       4.956 145.905  -5.968  1.00  0.00     0.106 CG0
ATOM     16  G   UNL     1       5.896 144.709  -5.935  1.00  0.00     0.000 G0
ENDBRANCH  13  15
ENDBRANCH  12  13
BRANCH  12  17
ATOM     17  C   UNL     1       1.644 146.537  -6.362  1.00  0.00    -0.006 C 
ATOM     18  C   UNL     1       2.082 147.804  -5.601  1.00  0.00     0.008 C 
ATOM     19  C   UNL     1       0.113 146.396  -6.234  1.00  0.00     0.008 C 
ENDBRANCH  12  17
ENDBRANCH  11  12
ENDBRANCH   1  11
TORSDOF 1
ENDMDL
