MODEL 1
REMARK VINA RESULT:    -5.402      0.000      0.000
REMARK INTER + INTRA:          -7.052
REMARK INTER:                  -6.665
REMARK INTRA:                  -0.387
REMARK UNBOUND:                -0.387
REMARK SMILES O=C1c2c(O)cc(O)cc2O[C@@H](c2cc(O)c(O)c(O)c2)[C@@H]1O
REMARK SMILES IDX 12 1 22 2 2 3 1 4 3 5 4 6 6 7 7 8 9 9 10 10 11 11 13 12
REMARK SMILES IDX 14 13 15 14 21 15 17 16 19 17 16 18 18 20 20 22 23 24 5 26
REMARK SMILES IDX 8 28
REMARK H PARENT 16 19 18 21 20 23 23 25 5 27 8 29
REMARK Flexibility Score: inf
ROOT
ATOM      1  C   UNL     1      24.527   7.706 -22.094  1.00  0.00     0.240 C 
ATOM      2  C   UNL     1      26.053   7.545 -21.979  1.00  0.00     0.231 C 
ATOM      3  C   UNL     1      26.671   7.822 -23.325  1.00  0.00     0.202 C 
ATOM      4  O   UNL     1      27.674   8.581 -23.412  1.00  0.00    -0.291 OA
ATOM      5  C   UNL     1      26.039   7.235 -24.532  1.00  0.00     0.105 A 
ATOM      6  C   UNL     1      26.702   7.072 -25.777  1.00  0.00     0.133 A 
ATOM      7  C   UNL     1      25.991   6.573 -26.876  1.00  0.00     0.093 A 
ATOM      8  C   UNL     1      24.658   6.178 -26.747  1.00  0.00     0.123 A 
ATOM      9  C   UNL     1      24.017   6.291 -25.511  1.00  0.00     0.093 A 
ATOM     10  C   UNL     1      24.695   6.824 -24.412  1.00  0.00     0.138 A 
ATOM     11  O   UNL     1      24.020   6.937 -23.188  1.00  0.00    -0.481 OA
ENDROOT
BRANCH   1  12
ATOM     12  C   UNL     1      23.838   7.287 -20.816  1.00  0.00     0.003 A 
ATOM     13  C   UNL     1      23.843   5.940 -20.419  1.00  0.00     0.058 A 
ATOM     14  C   UNL     1      23.181   5.541 -19.249  1.00  0.00     0.161 A 
ATOM     15  C   UNL     1      23.145   8.228 -20.039  1.00  0.00     0.058 A 
ATOM     16  C   UNL     1      22.500   6.492 -18.469  1.00  0.00     0.200 A 
ATOM     17  C   UNL     1      22.482   7.838 -18.870  1.00  0.00     0.161 A 
BRANCH  14  18
ATOM     18  O   UNL     1      23.197   4.202 -18.861  1.00  0.00    -0.504 OA
ATOM     19  H   UNL     1      23.952   3.820 -18.302  1.00  0.00     0.293 HD
ENDBRANCH  14  18
BRANCH  16  20
ATOM     20  O   UNL     1      21.838   6.111 -17.301  1.00  0.00    -0.502 OA
ATOM     21  H   UNL     1      22.030   6.544 -16.406  1.00  0.00     0.293 HD
ENDBRANCH  16  20
BRANCH  17  22
ATOM     22  O   UNL     1      21.810   8.804 -18.122  1.00  0.00    -0.504 OA
ATOM     23  H   UNL     1      22.276   9.630 -17.765  1.00  0.00     0.293 HD
ENDBRANCH  17  22
ENDBRANCH   1  12
BRANCH   2  24
ATOM     24  O   UNL     1      26.547   8.435 -21.010  1.00  0.00    -0.381 OA
ATOM     25  H   UNL     1      25.881   9.167 -20.927  1.00  0.00     0.211 HD
ENDBRANCH   2  24
BRANCH   6  26
ATOM     26  O   UNL     1      28.057   7.354 -25.964  1.00  0.00    -0.507 OA
ATOM     27  H   UNL     1      28.604   7.930 -25.340  1.00  0.00     0.293 HD
ENDBRANCH   6  26
BRANCH   8  28
ATOM     28  O   UNL     1      23.982   5.668 -27.854  1.00  0.00    -0.508 OA
ATOM     29  H   UNL     1      23.068   5.241 -27.766  1.00  0.00     0.293 HD
ENDBRANCH   8  28
TORSDOF 7
ENDMDL
MODEL 2
REMARK VINA RESULT:    -5.398      1.529      7.344
REMARK INTER + INTRA:          -7.047
REMARK INTER:                  -6.709
REMARK INTRA:                  -0.338
REMARK UNBOUND:                -0.387
REMARK SMILES O=C1c2c(O)cc(O)cc2O[C@@H](c2cc(O)c(O)c(O)c2)[C@@H]1O
REMARK SMILES IDX 12 1 22 2 2 3 1 4 3 5 4 6 6 7 7 8 9 9 10 10 11 11 13 12
REMARK SMILES IDX 14 13 15 14 21 15 17 16 19 17 16 18 18 20 20 22 23 24 5 26
REMARK SMILES IDX 8 28
REMARK H PARENT 16 19 18 21 20 23 23 25 5 27 8 29
REMARK Flexibility Score: inf
ROOT
ATOM      1  C   UNL     1      23.630   5.472 -22.965  1.00  0.00     0.240 C 
ATOM      2  C   UNL     1      24.348   4.271 -22.323  1.00  0.00     0.231 C 
ATOM      3  C   UNL     1      23.667   3.941 -21.019  1.00  0.00     0.202 C 
ATOM      4  O   UNL     1      23.374   2.745 -20.749  1.00  0.00    -0.291 OA
ATOM      5  C   UNL     1      23.303   5.052 -20.107  1.00  0.00     0.105 A 
ATOM      6  C   UNL     1      23.036   4.888 -18.721  1.00  0.00     0.133 A 
ATOM      7  C   UNL     1      22.629   5.993 -17.962  1.00  0.00     0.093 A 
ATOM      8  C   UNL     1      22.540   7.262 -18.536  1.00  0.00     0.123 A 
ATOM      9  C   UNL     1      22.849   7.436 -19.888  1.00  0.00     0.093 A 
ATOM     10  C   UNL     1      23.218   6.342 -20.673  1.00  0.00     0.138 A 
ATOM     11  O   UNL     1      23.509   6.546 -22.029  1.00  0.00    -0.481 OA
ENDROOT
BRANCH   1  12
ATOM     12  C   UNL     1      24.364   5.949 -24.196  1.00  0.00     0.003 A 
ATOM     13  C   UNL     1      25.500   6.765 -24.070  1.00  0.00     0.058 A 
ATOM     14  C   UNL     1      26.169   7.235 -25.210  1.00  0.00     0.161 A 
ATOM     15  C   UNL     1      23.891   5.626 -25.478  1.00  0.00     0.058 A 
ATOM     16  C   UNL     1      25.696   6.895 -26.490  1.00  0.00     0.200 A 
ATOM     17  C   UNL     1      24.552   6.090 -26.620  1.00  0.00     0.161 A 
BRANCH  14  18
ATOM     18  O   UNL     1      27.299   8.039 -25.073  1.00  0.00    -0.504 OA
ATOM     19  H   UNL     1      27.284   8.886 -24.516  1.00  0.00     0.293 HD
ENDBRANCH  14  18
BRANCH  16  20
ATOM     20  O   UNL     1      26.351   7.353 -27.634  1.00  0.00    -0.502 OA
ATOM     21  H   UNL     1      26.646   6.728 -28.374  1.00  0.00     0.293 HD
ENDBRANCH  16  20
BRANCH  17  22
ATOM     22  O   UNL     1      24.055   5.741 -27.875  1.00  0.00    -0.504 OA
ATOM     23  H   UNL     1      24.426   6.138 -28.731  1.00  0.00     0.293 HD
ENDBRANCH  17  22
ENDBRANCH   1  12
BRANCH   2  24
ATOM     24  O   UNL     1      24.305   3.175 -23.200  1.00  0.00    -0.381 OA
ATOM     25  H   UNL     1      23.630   3.390 -23.896  1.00  0.00     0.211 HD
ENDBRANCH   2  24
BRANCH   6  26
ATOM     26  O   UNL     1      23.193   3.672 -18.052  1.00  0.00    -0.507 OA
ATOM     27  H   UNL     1      22.654   3.400 -17.243  1.00  0.00     0.293 HD
ENDBRANCH   6  26
BRANCH   8  28
ATOM     28  O   UNL     1      22.149   8.345 -17.752  1.00  0.00    -0.508 OA
ATOM     29  H   UNL     1      21.676   9.147 -18.153  1.00  0.00     0.293 HD
ENDBRANCH   8  28
TORSDOF 7
ENDMDL
MODEL 3
REMARK VINA RESULT:    -5.328     14.127     16.383
REMARK INTER + INTRA:          -6.960
REMARK INTER:                  -6.768
REMARK INTRA:                  -0.193
REMARK UNBOUND:                -0.387
REMARK SMILES O=C1c2c(O)cc(O)cc2O[C@@H](c2cc(O)c(O)c(O)c2)[C@@H]1O
REMARK SMILES IDX 12 1 22 2 2 3 1 4 3 5 4 6 6 7 7 8 9 9 10 10 11 11 13 12
REMARK SMILES IDX 14 13 15 14 21 15 17 16 19 17 16 18 18 20 20 22 23 24 5 26
REMARK SMILES IDX 8 28
REMARK H PARENT 16 19 18 21 20 23 23 25 5 27 8 29
REMARK Flexibility Score: inf
ROOT
ATOM      1  C   UNL     1      28.025  -7.477 -28.943  1.00  0.00     0.240 C 
ATOM      2  C   UNL     1      28.180  -7.028 -30.407  1.00  0.00     0.231 C 
ATOM      3  C   UNL     1      29.369  -7.735 -31.006  1.00  0.00     0.202 C 
ATOM      4  O   UNL     1      29.272  -8.279 -32.138  1.00  0.00    -0.291 OA
ATOM      5  C   UNL     1      30.618  -7.822 -30.211  1.00  0.00     0.105 A 
ATOM      6  C   UNL     1      31.898  -8.086 -30.767  1.00  0.00     0.133 A 
ATOM      7  C   UNL     1      33.005  -8.220 -29.918  1.00  0.00     0.093 A 
ATOM      8  C   UNL     1      32.876  -8.038 -28.540  1.00  0.00     0.123 A 
ATOM      9  C   UNL     1      31.627  -7.730 -27.994  1.00  0.00     0.093 A 
ATOM     10  C   UNL     1      30.503  -7.632 -28.817  1.00  0.00     0.138 A 
ATOM     11  O   UNL     1      29.261  -7.335 -28.238  1.00  0.00    -0.481 OA
ENDROOT
BRANCH   1  12
ATOM     12  C   UNL     1      26.946  -6.685 -28.243  1.00  0.00     0.003 A 
ATOM     13  C   UNL     1      26.647  -5.377 -28.657  1.00  0.00     0.058 A 
ATOM     14  C   UNL     1      25.666  -4.626 -27.993  1.00  0.00     0.161 A 
ATOM     15  C   UNL     1      26.267  -7.227 -27.140  1.00  0.00     0.058 A 
ATOM     16  C   UNL     1      24.982  -5.181 -26.898  1.00  0.00     0.200 A 
ATOM     17  C   UNL     1      25.287  -6.484 -26.472  1.00  0.00     0.161 A 
BRANCH  14  18
ATOM     18  O   UNL     1      25.374  -3.331 -28.417  1.00  0.00    -0.504 OA
ATOM     19  H   UNL     1      25.102  -2.607 -27.762  1.00  0.00     0.293 HD
ENDBRANCH  14  18
BRANCH  16  20
ATOM     20  O   UNL     1      24.002  -4.448 -26.227  1.00  0.00    -0.502 OA
ATOM     21  H   UNL     1      23.013  -4.589 -26.393  1.00  0.00     0.293 HD
ENDBRANCH  16  20
BRANCH  17  22
ATOM     22  O   UNL     1      24.629  -7.060 -25.385  1.00  0.00    -0.504 OA
ATOM     23  H   UNL     1      24.997  -7.006 -24.442  1.00  0.00     0.293 HD
ENDBRANCH  17  22
ENDBRANCH   1  12
BRANCH   2  24
ATOM     24  O   UNL     1      27.008  -7.334 -31.118  1.00  0.00    -0.381 OA
ATOM     25  H   UNL     1      27.287  -7.573 -32.042  1.00  0.00     0.211 HD
ENDBRANCH   2  24
BRANCH   6  26
ATOM     26  O   UNL     1      32.127  -8.187 -32.141  1.00  0.00    -0.507 OA
ATOM     27  H   UNL     1      32.217  -9.063 -32.635  1.00  0.00     0.293 HD
ENDBRANCH   6  26
BRANCH   8  28
ATOM     28  O   UNL     1      33.998  -8.160 -27.723  1.00  0.00    -0.508 OA
ATOM     29  H   UNL     1      34.774  -7.512 -27.789  1.00  0.00     0.293 HD
ENDBRANCH   8  28
TORSDOF 7
ENDMDL
MODEL 4
REMARK VINA RESULT:    -5.274      2.635      3.214
REMARK INTER + INTRA:          -6.894
REMARK INTER:                  -6.505
REMARK INTRA:                  -0.389
REMARK UNBOUND:                -0.387
REMARK SMILES O=C1c2c(O)cc(O)cc2O[C@@H](c2cc(O)c(O)c(O)c2)[C@@H]1O
REMARK SMILES IDX 12 1 22 2 2 3 1 4 3 5 4 6 6 7 7 8 9 9 10 10 11 11 13 12
REMARK SMILES IDX 14 13 15 14 21 15 17 16 19 17 16 18 18 20 20 22 23 24 5 26
REMARK SMILES IDX 8 28
REMARK H PARENT 16 19 18 21 20 23 23 25 5 27 8 29
REMARK Flexibility Score: inf
ROOT
ATOM      1  C   UNL     1      23.644   5.581 -22.795  1.00  0.00     0.240 C 
ATOM      2  C   UNL     1      25.061   5.003 -22.958  1.00  0.00     0.231 C 
ATOM      3  C   UNL     1      25.240   4.555 -24.386  1.00  0.00     0.202 C 
ATOM      4  O   UNL     1      26.283   4.872 -25.018  1.00  0.00    -0.291 OA
ATOM      5  C   UNL     1      24.144   3.796 -25.035  1.00  0.00     0.105 A 
ATOM      6  C   UNL     1      24.312   2.986 -26.190  1.00  0.00     0.133 A 
ATOM      7  C   UNL     1      23.196   2.368 -26.767  1.00  0.00     0.093 A 
ATOM      8  C   UNL     1      21.931   2.489 -26.188  1.00  0.00     0.123 A 
ATOM      9  C   UNL     1      21.770   3.244 -25.023  1.00  0.00     0.093 A 
ATOM     10  C   UNL     1      22.862   3.902 -24.454  1.00  0.00     0.138 A 
ATOM     11  O   UNL     1      22.666   4.664 -23.293  1.00  0.00    -0.481 OA
ENDROOT
BRANCH   1  12
ATOM     12  C   UNL     1      23.351   5.901 -21.348  1.00  0.00     0.003 A 
ATOM     13  C   UNL     1      23.316   4.875 -20.390  1.00  0.00     0.058 A 
ATOM     14  C   UNL     1      23.016   5.162 -19.050  1.00  0.00     0.161 A 
ATOM     15  C   UNL     1      23.061   7.217 -20.954  1.00  0.00     0.058 A 
ATOM     16  C   UNL     1      22.740   6.485 -18.662  1.00  0.00     0.200 A 
ATOM     17  C   UNL     1      22.761   7.512 -19.620  1.00  0.00     0.161 A 
BRANCH  14  18
ATOM     18  O   UNL     1      22.990   4.137 -18.106  1.00  0.00    -0.504 OA
ATOM     19  H   UNL     1      23.399   3.229 -18.296  1.00  0.00     0.293 HD
ENDBRANCH  14  18
BRANCH  16  20
ATOM     20  O   UNL     1      22.441   6.788 -17.333  1.00  0.00    -0.502 OA
ATOM     21  H   UNL     1      22.973   6.407 -16.559  1.00  0.00     0.293 HD
ENDBRANCH  16  20
BRANCH  17  22
ATOM     22  O   UNL     1      22.485   8.833 -19.267  1.00  0.00    -0.504 OA
ATOM     23  H   UNL     1      22.774   9.615 -19.843  1.00  0.00     0.293 HD
ENDBRANCH  17  22
ENDBRANCH   1  12
BRANCH   2  24
ATOM     24  O   UNL     1      26.010   5.983 -22.620  1.00  0.00    -0.381 OA
ATOM     25  H   UNL     1      25.655   6.463 -21.826  1.00  0.00     0.211 HD
ENDBRANCH   2  24
BRANCH   6  26
ATOM     26  O   UNL     1      25.556   2.738 -26.773  1.00  0.00    -0.507 OA
ATOM     27  H   UNL     1      25.819   1.856 -27.188  1.00  0.00     0.293 HD
ENDBRANCH   6  26
BRANCH   8  28
ATOM     28  O   UNL     1      20.842   1.847 -26.775  1.00  0.00    -0.508 OA
ATOM     29  H   UNL     1      20.741   0.840 -26.744  1.00  0.00     0.293 HD
ENDBRANCH   8  28
TORSDOF 7
ENDMDL
MODEL 5
REMARK VINA RESULT:    -5.212      1.591      3.123
REMARK INTER + INTRA:          -6.818
REMARK INTER:                  -6.648
REMARK INTRA:                  -0.170
REMARK UNBOUND:                -0.387
REMARK SMILES O=C1c2c(O)cc(O)cc2O[C@@H](c2cc(O)c(O)c(O)c2)[C@@H]1O
REMARK SMILES IDX 12 1 22 2 2 3 1 4 3 5 4 6 6 7 7 8 9 9 10 10 11 11 13 12
REMARK SMILES IDX 14 13 15 14 21 15 17 16 19 17 16 18 18 20 20 22 23 24 5 26
REMARK SMILES IDX 8 28
REMARK H PARENT 16 19 18 21 20 23 23 25 5 27 8 29
REMARK Flexibility Score: inf
ROOT
ATOM      1  C   UNL     1      23.956   5.404 -22.456  1.00  0.00     0.240 C 
ATOM      2  C   UNL     1      22.777   4.908 -23.312  1.00  0.00     0.231 C 
ATOM      3  C   UNL     1      23.282   4.598 -24.698  1.00  0.00     0.202 C 
ATOM      4  O   UNL     1      22.958   3.516 -25.257  1.00  0.00    -0.291 OA
ATOM      5  C   UNL     1      24.207   5.558 -25.348  1.00  0.00     0.105 A 
ATOM      6  C   UNL     1      24.442   5.613 -26.748  1.00  0.00     0.133 A 
ATOM      7  C   UNL     1      25.390   6.511 -27.253  1.00  0.00     0.093 A 
ATOM      8  C   UNL     1      26.063   7.393 -26.406  1.00  0.00     0.123 A 
ATOM      9  C   UNL     1      25.799   7.377 -25.034  1.00  0.00     0.093 A 
ATOM     10  C   UNL     1      24.886   6.462 -24.504  1.00  0.00     0.138 A 
ATOM     11  O   UNL     1      24.653   6.461 -23.121  1.00  0.00    -0.481 OA
ENDROOT
BRANCH   1  12
ATOM     12  C   UNL     1      23.482   5.880 -21.102  1.00  0.00     0.003 A 
ATOM     13  C   UNL     1      23.295   4.964 -20.056  1.00  0.00     0.058 A 
ATOM     14  C   UNL     1      22.828   5.396 -18.806  1.00  0.00     0.161 A 
ATOM     15  C   UNL     1      23.176   7.234 -20.892  1.00  0.00     0.058 A 
ATOM     16  C   UNL     1      22.535   6.756 -18.599  1.00  0.00     0.200 A 
ATOM     17  C   UNL     1      22.709   7.674 -19.648  1.00  0.00     0.161 A 
BRANCH  14  18
ATOM     18  O   UNL     1      22.651   4.478 -17.772  1.00  0.00    -0.504 OA
ATOM     19  H   UNL     1      22.043   4.675 -16.985  1.00  0.00     0.293 HD
ENDBRANCH  14  18
BRANCH  16  20
ATOM     20  O   UNL     1      22.071   7.203 -17.361  1.00  0.00    -0.502 OA
ATOM     21  H   UNL     1      22.697   7.544 -16.641  1.00  0.00     0.293 HD
ENDBRANCH  16  20
BRANCH  17  22
ATOM     22  O   UNL     1      22.423   9.028 -19.476  1.00  0.00    -0.504 OA
ATOM     23  H   UNL     1      22.325   9.445 -18.558  1.00  0.00     0.293 HD
ENDBRANCH  17  22
ENDBRANCH   1  12
BRANCH   2  24
ATOM     24  O   UNL     1      22.214   3.765 -22.719  1.00  0.00    -0.381 OA
ATOM     25  H   UNL     1      21.697   4.076 -21.930  1.00  0.00     0.211 HD
ENDBRANCH   2  24
BRANCH   6  26
ATOM     26  O   UNL     1      23.743   4.831 -27.670  1.00  0.00    -0.507 OA
ATOM     27  H   UNL     1      22.963   4.236 -27.428  1.00  0.00     0.293 HD
ENDBRANCH   6  26
BRANCH   8  28
ATOM     28  O   UNL     1      26.988   8.288 -26.940  1.00  0.00    -0.508 OA
ATOM     29  H   UNL     1      27.387   8.151 -27.862  1.00  0.00     0.293 HD
ENDBRANCH   8  28
TORSDOF 7
ENDMDL
MODEL 6
REMARK VINA RESULT:    -5.101     16.422     17.706
REMARK INTER + INTRA:          -6.680
REMARK INTER:                  -6.294
REMARK INTRA:                  -0.386
REMARK UNBOUND:                -0.387
REMARK SMILES O=C1c2c(O)cc(O)cc2O[C@@H](c2cc(O)c(O)c(O)c2)[C@@H]1O
REMARK SMILES IDX 12 1 22 2 2 3 1 4 3 5 4 6 6 7 7 8 9 9 10 10 11 11 13 12
REMARK SMILES IDX 14 13 15 14 21 15 17 16 19 17 16 18 18 20 20 22 23 24 5 26
REMARK SMILES IDX 8 28
REMARK H PARENT 16 19 18 21 20 23 23 25 5 27 8 29
REMARK Flexibility Score: inf
ROOT
ATOM      1  C   UNL     1      31.384  -8.481 -27.267  1.00  0.00     0.240 C 
ATOM      2  C   UNL     1      30.422  -7.287 -27.394  1.00  0.00     0.231 C 
ATOM      3  C   UNL     1      29.919  -7.219 -28.813  1.00  0.00     0.202 C 
ATOM      4  O   UNL     1      28.688  -7.064 -29.037  1.00  0.00    -0.291 OA
ATOM      5  C   UNL     1      30.889  -7.399 -29.920  1.00  0.00     0.105 A 
ATOM      6  C   UNL     1      30.659  -6.978 -31.257  1.00  0.00     0.133 A 
ATOM      7  C   UNL     1      31.612  -7.261 -32.243  1.00  0.00     0.093 A 
ATOM      8  C   UNL     1      32.811  -7.898 -31.918  1.00  0.00     0.123 A 
ATOM      9  C   UNL     1      33.064  -8.270 -30.595  1.00  0.00     0.093 A 
ATOM     10  C   UNL     1      32.109  -8.034 -29.602  1.00  0.00     0.138 A 
ATOM     11  O   UNL     1      32.386  -8.431 -28.287  1.00  0.00    -0.481 OA
ENDROOT
BRANCH   1  12
ATOM     12  C   UNL     1      32.043  -8.506 -25.907  1.00  0.00     0.003 A 
ATOM     13  C   UNL     1      31.869  -9.609 -25.057  1.00  0.00     0.058 A 
ATOM     14  C   UNL     1      32.455  -9.626 -23.783  1.00  0.00     0.161 A 
ATOM     15  C   UNL     1      32.793  -7.407 -25.460  1.00  0.00     0.058 A 
ATOM     16  C   UNL     1      33.215  -8.527 -23.348  1.00  0.00     0.200 A 
ATOM     17  C   UNL     1      33.381  -7.415 -24.190  1.00  0.00     0.161 A 
BRANCH  14  18
ATOM     18  O   UNL     1      32.280 -10.729 -22.950  1.00  0.00    -0.504 OA
ATOM     19  H   UNL     1      33.067 -11.278 -22.622  1.00  0.00     0.293 HD
ENDBRANCH  14  18
BRANCH  16  20
ATOM     20  O   UNL     1      33.806  -8.527 -22.083  1.00  0.00    -0.502 OA
ATOM     21  H   UNL     1      33.425  -7.998 -21.308  1.00  0.00     0.293 HD
ENDBRANCH  16  20
BRANCH  17  22
ATOM     22  O   UNL     1      34.125  -6.307 -23.784  1.00  0.00    -0.504 OA
ATOM     23  H   UNL     1      34.652  -5.743 -24.440  1.00  0.00     0.293 HD
ENDBRANCH  17  22
ENDBRANCH   1  12
BRANCH   2  24
ATOM     24  O   UNL     1      29.354  -7.447 -26.494  1.00  0.00    -0.381 OA
ATOM     25  H   UNL     1      28.713  -8.075 -26.919  1.00  0.00     0.211 HD
ENDBRANCH   2  24
BRANCH   6  26
ATOM     26  O   UNL     1      29.530  -6.253 -31.644  1.00  0.00    -0.507 OA
ATOM     27  H   UNL     1      28.632  -6.320 -31.187  1.00  0.00     0.293 HD
ENDBRANCH   6  26
BRANCH   8  28
ATOM     28  O   UNL     1      33.749  -8.150 -32.918  1.00  0.00    -0.508 OA
ATOM     29  H   UNL     1      33.500  -8.112 -33.899  1.00  0.00     0.293 HD
ENDBRANCH   8  28
TORSDOF 7
ENDMDL
MODEL 7
REMARK VINA RESULT:    -5.008     11.411     14.481
REMARK INTER + INTRA:          -6.566
REMARK INTER:                  -6.218
REMARK INTRA:                  -0.348
REMARK UNBOUND:                -0.387
REMARK SMILES O=C1c2c(O)cc(O)cc2O[C@@H](c2cc(O)c(O)c(O)c2)[C@@H]1O
REMARK SMILES IDX 12 1 22 2 2 3 1 4 3 5 4 6 6 7 7 8 9 9 10 10 11 11 13 12
REMARK SMILES IDX 14 13 15 14 21 15 17 16 19 17 16 18 18 20 20 22 23 24 5 26
REMARK SMILES IDX 8 28
REMARK H PARENT 16 19 18 21 20 23 23 25 5 27 8 29
REMARK Flexibility Score: inf
ROOT
ATOM      1  C   UNL     1      27.279  -4.662 -28.310  1.00  0.00     0.240 C 
ATOM      2  C   UNL     1      28.285  -4.559 -27.150  1.00  0.00     0.231 C 
ATOM      3  C   UNL     1      27.945  -3.347 -26.321  1.00  0.00     0.202 C 
ATOM      4  O   UNL     1      27.897  -3.439 -25.065  1.00  0.00    -0.291 OA
ATOM      5  C   UNL     1      27.615  -2.080 -27.017  1.00  0.00     0.105 A 
ATOM      6  C   UNL     1      27.668  -0.799 -26.405  1.00  0.00     0.133 A 
ATOM      7  C   UNL     1      27.266   0.329 -27.131  1.00  0.00     0.093 A 
ATOM      8  C   UNL     1      26.871   0.219 -28.466  1.00  0.00     0.123 A 
ATOM      9  C   UNL     1      26.865  -1.034 -29.086  1.00  0.00     0.093 A 
ATOM     10  C   UNL     1      27.224  -2.177 -28.369  1.00  0.00     0.138 A 
ATOM     11  O   UNL     1      27.194  -3.421 -29.016  1.00  0.00    -0.481 OA
ENDROOT
BRANCH   1  12
ATOM     12  C   UNL     1      27.663  -5.766 -29.266  1.00  0.00     0.003 A 
ATOM     13  C   UNL     1      28.689  -5.565 -30.203  1.00  0.00     0.058 A 
ATOM     14  C   UNL     1      29.031  -6.576 -31.112  1.00  0.00     0.161 A 
ATOM     15  C   UNL     1      26.966  -6.985 -29.263  1.00  0.00     0.058 A 
ATOM     16  C   UNL     1      28.337  -7.799 -31.094  1.00  0.00     0.200 A 
ATOM     17  C   UNL     1      27.301  -7.999 -30.167  1.00  0.00     0.161 A 
BRANCH  14  18
ATOM     18  O   UNL     1      30.055  -6.368 -32.034  1.00  0.00    -0.504 OA
ATOM     19  H   UNL     1      29.887  -6.404 -33.033  1.00  0.00     0.293 HD
ENDBRANCH  14  18
BRANCH  16  20
ATOM     20  O   UNL     1      28.665  -8.816 -31.992  1.00  0.00    -0.502 OA
ATOM     21  H   UNL     1      29.484  -9.400 -31.870  1.00  0.00     0.293 HD
ENDBRANCH  16  20
BRANCH  17  22
ATOM     22  O   UNL     1      26.589  -9.198 -30.129  1.00  0.00    -0.504 OA
ATOM     23  H   UNL     1      25.602  -9.247 -30.352  1.00  0.00     0.293 HD
ENDBRANCH  17  22
ENDBRANCH   1  12
BRANCH   2  24
ATOM     24  O   UNL     1      28.227  -5.728 -26.372  1.00  0.00    -0.381 OA
ATOM     25  H   UNL     1      27.298  -6.073 -26.444  1.00  0.00     0.211 HD
ENDBRANCH   2  24
BRANCH   6  26
ATOM     26  O   UNL     1      28.140  -0.592 -25.107  1.00  0.00    -0.507 OA
ATOM     27  H   UNL     1      27.688  -0.953 -24.279  1.00  0.00     0.293 HD
ENDBRANCH   6  26
BRANCH   8  28
ATOM     28  O   UNL     1      26.494   1.361 -29.168  1.00  0.00    -0.508 OA
ATOM     29  H   UNL     1      27.031   2.219 -29.113  1.00  0.00     0.293 HD
ENDBRANCH   8  28
TORSDOF 7
ENDMDL
MODEL 8
REMARK VINA RESULT:    -5.003     16.407     17.388
REMARK INTER + INTRA:          -6.559
REMARK INTER:                  -6.212
REMARK INTRA:                  -0.348
REMARK UNBOUND:                -0.387
REMARK SMILES O=C1c2c(O)cc(O)cc2O[C@@H](c2cc(O)c(O)c(O)c2)[C@@H]1O
REMARK SMILES IDX 12 1 22 2 2 3 1 4 3 5 4 6 6 7 7 8 9 9 10 10 11 11 13 12
REMARK SMILES IDX 14 13 15 14 21 15 17 16 19 17 16 18 18 20 20 22 23 24 5 26
REMARK SMILES IDX 8 28
REMARK H PARENT 16 19 18 21 20 23 23 25 5 27 8 29
REMARK Flexibility Score: inf
ROOT
ATOM      1  C   UNL     1      31.679  -7.637 -26.931  1.00  0.00     0.240 C 
ATOM      2  C   UNL     1      32.709  -8.485 -27.698  1.00  0.00     0.231 C 
ATOM      3  C   UNL     1      32.632  -8.132 -29.162  1.00  0.00     0.202 C 
ATOM      4  O   UNL     1      33.689  -7.908 -29.811  1.00  0.00    -0.291 OA
ATOM      5  C   UNL     1      31.296  -7.996 -29.791  1.00  0.00     0.105 A 
ATOM      6  C   UNL     1      31.064  -8.065 -31.190  1.00  0.00     0.133 A 
ATOM      7  C   UNL     1      29.772  -7.853 -31.687  1.00  0.00     0.093 A 
ATOM      8  C   UNL     1      28.699  -7.633 -30.821  1.00  0.00     0.123 A 
ATOM      9  C   UNL     1      28.914  -7.613 -29.440  1.00  0.00     0.093 A 
ATOM     10  C   UNL     1      30.201  -7.783 -28.925  1.00  0.00     0.138 A 
ATOM     11  O   UNL     1      30.387  -7.745 -27.536  1.00  0.00    -0.481 OA
ENDROOT
BRANCH   1  12
ATOM     12  C   UNL     1      31.598  -8.060 -25.482  1.00  0.00     0.003 A 
ATOM     13  C   UNL     1      30.884  -9.213 -25.121  1.00  0.00     0.058 A 
ATOM     14  C   UNL     1      30.782  -9.594 -23.775  1.00  0.00     0.161 A 
ATOM     15  C   UNL     1      32.193  -7.278 -24.479  1.00  0.00     0.058 A 
ATOM     16  C   UNL     1      31.392  -8.813 -22.777  1.00  0.00     0.200 A 
ATOM     17  C   UNL     1      32.096  -7.652 -23.134  1.00  0.00     0.161 A 
BRANCH  14  18
ATOM     18  O   UNL     1      30.076 -10.744 -23.428  1.00  0.00    -0.504 OA
ATOM     19  H   UNL     1      29.358 -11.130 -24.031  1.00  0.00     0.293 HD
ENDBRANCH  14  18
BRANCH  16  20
ATOM     20  O   UNL     1      31.301  -9.179 -21.434  1.00  0.00    -0.502 OA
ATOM     21  H   UNL     1      31.899  -9.888 -21.026  1.00  0.00     0.293 HD
ENDBRANCH  16  20
BRANCH  17  22
ATOM     22  O   UNL     1      32.706  -6.853 -22.167  1.00  0.00    -0.504 OA
ATOM     23  H   UNL     1      33.237  -7.247 -21.399  1.00  0.00     0.293 HD
ENDBRANCH  17  22
ENDBRANCH   1  12
BRANCH   2  24
ATOM     24  O   UNL     1      33.995  -8.233 -27.192  1.00  0.00    -0.381 OA
ATOM     25  H   UNL     1      34.637  -8.685 -27.800  1.00  0.00     0.211 HD
ENDBRANCH   2  24
BRANCH   6  26
ATOM     26  O   UNL     1      32.064  -8.374 -32.115  1.00  0.00    -0.507 OA
ATOM     27  H   UNL     1      32.280  -7.807 -32.922  1.00  0.00     0.293 HD
ENDBRANCH   6  26
BRANCH   8  28
ATOM     28  O   UNL     1      27.422  -7.442 -31.343  1.00  0.00    -0.508 OA
ATOM     29  H   UNL     1      26.634  -8.000 -31.035  1.00  0.00     0.293 HD
ENDBRANCH   8  28
TORSDOF 7
ENDMDL
MODEL 9
REMARK VINA RESULT:    -4.891     13.076     14.714
REMARK INTER + INTRA:          -6.421
REMARK INTER:                  -6.117
REMARK INTRA:                  -0.304
REMARK UNBOUND:                -0.387
REMARK SMILES O=C1c2c(O)cc(O)cc2O[C@@H](c2cc(O)c(O)c(O)c2)[C@@H]1O
REMARK SMILES IDX 12 1 22 2 2 3 1 4 3 5 4 6 6 7 7 8 9 9 10 10 11 11 13 12
REMARK SMILES IDX 14 13 15 14 21 15 17 16 19 17 16 18 18 20 20 22 23 24 5 26
REMARK SMILES IDX 8 28
REMARK H PARENT 16 19 18 21 20 23 23 25 5 27 8 29
REMARK Flexibility Score: inf
ROOT
ATOM      1  C   UNL     1      26.237  -5.816 -28.012  1.00  0.00     0.240 C 
ATOM      2  C   UNL     1      27.457  -4.938 -27.680  1.00  0.00     0.231 C 
ATOM      3  C   UNL     1      28.231  -4.686 -28.949  1.00  0.00     0.202 C 
ATOM      4  O   UNL     1      28.614  -3.519 -29.230  1.00  0.00    -0.291 OA
ATOM      5  C   UNL     1      28.473  -5.823 -29.870  1.00  0.00     0.105 A 
ATOM      6  C   UNL     1      29.489  -5.840 -30.863  1.00  0.00     0.133 A 
ATOM      7  C   UNL     1      29.586  -6.934 -31.731  1.00  0.00     0.093 A 
ATOM      8  C   UNL     1      28.737  -8.034 -31.595  1.00  0.00     0.123 A 
ATOM      9  C   UNL     1      27.768  -8.043 -30.588  1.00  0.00     0.093 A 
ATOM     10  C   UNL     1      27.627  -6.944 -29.737  1.00  0.00     0.138 A 
ATOM     11  O   UNL     1      26.637  -6.977 -28.745  1.00  0.00    -0.481 OA
ENDROOT
BRANCH   1  12
ATOM     12  C   UNL     1      25.510  -6.233 -26.755  1.00  0.00     0.003 A 
ATOM     13  C   UNL     1      25.940  -7.354 -26.028  1.00  0.00     0.058 A 
ATOM     14  C   UNL     1      25.251  -7.763 -24.877  1.00  0.00     0.161 A 
ATOM     15  C   UNL     1      24.368  -5.536 -26.329  1.00  0.00     0.058 A 
ATOM     16  C   UNL     1      24.116  -7.051 -24.449  1.00  0.00     0.200 A 
ATOM     17  C   UNL     1      23.675  -5.936 -25.181  1.00  0.00     0.161 A 
BRANCH  14  18
ATOM     18  O   UNL     1      25.690  -8.874 -24.159  1.00  0.00    -0.504 OA
ATOM     19  H   UNL     1      26.653  -8.963 -23.853  1.00  0.00     0.293 HD
ENDBRANCH  14  18
BRANCH  16  20
ATOM     20  O   UNL     1      23.421  -7.444 -23.305  1.00  0.00    -0.502 OA
ATOM     21  H   UNL     1      23.443  -8.395 -22.959  1.00  0.00     0.293 HD
ENDBRANCH  16  20
BRANCH  17  22
ATOM     22  O   UNL     1      22.550  -5.214 -24.786  1.00  0.00    -0.504 OA
ATOM     23  H   UNL     1      21.889  -5.574 -24.107  1.00  0.00     0.293 HD
ENDBRANCH  17  22
ENDBRANCH   1  12
BRANCH   2  24
ATOM     24  O   UNL     1      27.023  -3.728 -27.112  1.00  0.00    -0.381 OA
ATOM     25  H   UNL     1      27.410  -2.997 -27.664  1.00  0.00     0.211 HD
ENDBRANCH   2  24
BRANCH   6  26
ATOM     26  O   UNL     1      30.436  -4.823 -31.003  1.00  0.00    -0.507 OA
ATOM     27  H   UNL     1      30.205  -3.841 -31.060  1.00  0.00     0.293 HD
ENDBRANCH   6  26
BRANCH   8  28
ATOM     28  O   UNL     1      28.870  -9.117 -32.462  1.00  0.00    -0.508 OA
ATOM     29  H   UNL     1      28.093  -9.443 -33.025  1.00  0.00     0.293 HD
ENDBRANCH   8  28
TORSDOF 7
ENDMDL
