MODEL 1
REMARK VINA RESULT:    -7.096      0.000      0.000
REMARK INTER + INTRA:          -7.304
REMARK INTER:                  -7.304
REMARK INTRA:                   0.000
REMARK UNBOUND:                 0.000
REMARK SMILES C[C@@H]1CC[C@@]2(OC1)O[C@@H]1C[C@@H]3[C@@H]4CC=C5C[C@@H](O)CC[C@]5(C)[C@H]4CC[C@@]3(C)[C@@H]1[C@@H]2C
REMARK SMILES IDX 1 1 2 2 3 3 4 4 5 5 29 6 28 7 9 8 8 9 10 10 11 11 26 12
REMARK SMILES IDX 25 13 24 14 23 15 12 16 13 17 14 18 15 19 21 20 20 21 19 22
REMARK SMILES IDX 17 23 16 24 22 25 27 26 30 27 6 28 7 29 18 30
REMARK H PARENT 18 31
REMARK Flexibility Score: inf
ROOT
ATOM      1  C   UNL     1      23.295 -35.125  -8.764  1.00  0.00     0.010 C 
ATOM      2  C   UNL     1      23.977 -33.920  -8.110  1.00  0.00     0.012 C 
ATOM      3  C   UNL     1      23.711 -33.894  -6.599  1.00  0.00     0.011 C 
ATOM      4  C   UNL     1      24.283 -32.615  -5.986  1.00  0.00     0.066 C 
ATOM      5  C   UNL     1      23.796 -31.362  -6.759  1.00  0.00     0.171 C 
ATOM      6  C   UNL     1      24.465 -30.091  -6.179  1.00  0.00     0.052 C 
ATOM      7  C   UNL     1      23.323 -29.106  -6.002  1.00  0.00     0.033 C 
ATOM      8  C   UNL     1      22.123 -30.042  -5.875  1.00  0.00     0.126 C 
ATOM      9  O   UNL     1      22.387 -31.227  -6.600  1.00  0.00    -0.346 OA
ATOM     10  C   UNL     1      20.901 -29.294  -6.447  1.00  0.00     0.037 C 
ATOM     11  C   UNL     1      21.426 -27.877  -6.647  1.00  0.00     0.002 C 
ATOM     12  C   UNL     1      22.894 -28.049  -7.078  1.00  0.00    -0.024 C 
ATOM     13  C   UNL     1      23.633 -26.673  -6.950  1.00  0.00     0.008 C 
ATOM     14  C   UNL     1      22.700 -25.429  -7.058  1.00  0.00     0.005 C 
ATOM     15  C   UNL     1      21.488 -25.685  -7.992  1.00  0.00     0.003 C 
ATOM     16  C   UNL     1      20.590 -26.820  -7.421  1.00  0.00     0.000 C 
ATOM     17  C   UNL     1      19.664 -27.335  -8.525  1.00  0.00     0.031 C 
ATOM     18  C   UNL     1      18.944 -26.185  -9.194  1.00  0.00    -0.027 C 
ATOM     19  C   UNL     1      19.386 -24.899  -9.187  1.00  0.00    -0.065 C 
ATOM     20  C   UNL     1      20.621 -24.436  -8.384  1.00  0.00    -0.008 C 
ATOM     21  C   UNL     1      21.472 -23.487  -9.288  1.00  0.00     0.014 C 
ATOM     22  C   UNL     1      20.648 -22.395  -9.991  1.00  0.00     0.033 C 
ATOM     23  C   UNL     1      19.508 -23.005 -10.822  1.00  0.00     0.118 C 
ATOM     24  C   UNL     1      18.588 -23.851  -9.938  1.00  0.00     0.063 C 
ATOM     25  C   UNL     1      20.153 -23.655  -7.126  1.00  0.00     0.016 C 
ATOM     26  C   UNL     1      23.002 -28.601  -8.537  1.00  0.00     0.012 C 
ATOM     27  C   UNL     1      25.738 -29.582  -6.878  1.00  0.00     0.014 C 
ATOM     28  O   UNL     1      24.125 -31.487  -8.139  1.00  0.00    -0.349 OA
ATOM     29  C   UNL     1      23.489 -32.604  -8.737  1.00  0.00     0.167 C 
ENDROOT
BRANCH  23  30
ATOM     30  O   UNL     1      18.756 -21.983 -11.420  1.00  0.00    -0.393 OA
ATOM     31  H   UNL     1      18.396 -21.425 -10.682  1.00  0.00     0.210 HD
ENDBRANCH  23  30
TORSDOF 1
ENDMDL
MODEL 2
REMARK VINA RESULT:    -6.742      2.116      8.438
REMARK INTER + INTRA:          -6.939
REMARK INTER:                  -6.939
REMARK INTRA:                   0.000
REMARK UNBOUND:                 0.000
REMARK SMILES C[C@@H]1CC[C@@]2(OC1)O[C@@H]1C[C@@H]3[C@@H]4CC=C5C[C@@H](O)CC[C@]5(C)[C@H]4CC[C@@]3(C)[C@@H]1[C@@H]2C
REMARK SMILES IDX 1 1 2 2 3 3 4 4 5 5 29 6 28 7 9 8 8 9 10 10 11 11 26 12
REMARK SMILES IDX 25 13 24 14 23 15 12 16 13 17 14 18 15 19 21 20 20 21 19 22
REMARK SMILES IDX 17 23 16 24 22 25 27 26 30 27 6 28 7 29 18 30
REMARK H PARENT 18 31
REMARK Flexibility Score: inf
ROOT
ATOM      1  C   UNL     1      19.734 -22.748 -11.118  1.00  0.00     0.010 C 
ATOM      2  C   UNL     1      20.508 -23.078  -9.838  1.00  0.00     0.012 C 
ATOM      3  C   UNL     1      21.944 -22.544  -9.913  1.00  0.00     0.011 C 
ATOM      4  C   UNL     1      22.739 -22.999  -8.689  1.00  0.00     0.066 C 
ATOM      5  C   UNL     1      22.620 -24.531  -8.486  1.00  0.00     0.171 C 
ATOM      6  C   UNL     1      23.353 -24.952  -7.188  1.00  0.00     0.052 C 
ATOM      7  C   UNL     1      24.193 -26.149  -7.595  1.00  0.00     0.033 C 
ATOM      8  C   UNL     1      24.365 -25.913  -9.093  1.00  0.00     0.126 C 
ATOM      9  O   UNL     1      23.242 -25.203  -9.577  1.00  0.00    -0.346 OA
ATOM     10  C   UNL     1      24.483 -27.299  -9.761  1.00  0.00     0.037 C 
ATOM     11  C   UNL     1      24.615 -28.244  -8.573  1.00  0.00     0.002 C 
ATOM     12  C   UNL     1      23.720 -27.640  -7.476  1.00  0.00    -0.024 C 
ATOM     13  C   UNL     1      24.063 -28.311  -6.103  1.00  0.00     0.008 C 
ATOM     14  C   UNL     1      24.672 -29.742  -6.219  1.00  0.00     0.005 C 
ATOM     15  C   UNL     1      24.130 -30.509  -7.454  1.00  0.00     0.003 C 
ATOM     16  C   UNL     1      24.537 -29.785  -8.768  1.00  0.00     0.000 C 
ATOM     17  C   UNL     1      23.670 -30.298  -9.919  1.00  0.00     0.031 C 
ATOM     18  C   UNL     1      23.680 -31.810  -9.958  1.00  0.00    -0.027 C 
ATOM     19  C   UNL     1      23.978 -32.600  -8.892  1.00  0.00    -0.065 C 
ATOM     20  C   UNL     1      24.466 -32.040  -7.537  1.00  0.00    -0.008 C 
ATOM     21  C   UNL     1      23.713 -32.792  -6.392  1.00  0.00     0.014 C 
ATOM     22  C   UNL     1      23.707 -34.322  -6.552  1.00  0.00     0.033 C 
ATOM     23  C   UNL     1      23.117 -34.737  -7.909  1.00  0.00     0.118 C 
ATOM     24  C   UNL     1      23.906 -34.106  -9.059  1.00  0.00     0.063 C 
ATOM     25  C   UNL     1      25.991 -32.294  -7.395  1.00  0.00     0.016 C 
ATOM     26  C   UNL     1      22.203 -27.816  -7.813  1.00  0.00     0.012 C 
ATOM     27  C   UNL     1      22.506 -25.081  -5.910  1.00  0.00     0.014 C 
ATOM     28  O   UNL     1      21.247 -24.902  -8.400  1.00  0.00    -0.349 OA
ATOM     29  C   UNL     1      20.539 -24.594  -9.589  1.00  0.00     0.167 C 
ENDROOT
BRANCH  23  30
ATOM     30  O   UNL     1      23.158 -36.134  -8.038  1.00  0.00    -0.393 OA
ATOM     31  H   UNL     1      22.387 -36.490  -7.522  1.00  0.00     0.210 HD
ENDBRANCH  23  30
TORSDOF 1
ENDMDL
MODEL 3
REMARK VINA RESULT:    -6.630      1.750      2.462
REMARK INTER + INTRA:          -6.824
REMARK INTER:                  -6.824
REMARK INTRA:                   0.000
REMARK UNBOUND:                 0.000
REMARK SMILES C[C@@H]1CC[C@@]2(OC1)O[C@@H]1C[C@@H]3[C@@H]4CC=C5C[C@@H](O)CC[C@]5(C)[C@H]4CC[C@@]3(C)[C@@H]1[C@@H]2C
REMARK SMILES IDX 1 1 2 2 3 3 4 4 5 5 29 6 28 7 9 8 8 9 10 10 11 11 26 12
REMARK SMILES IDX 25 13 24 14 23 15 12 16 13 17 14 18 15 19 21 20 20 21 19 22
REMARK SMILES IDX 17 23 16 24 22 25 27 26 30 27 6 28 7 29 18 30
REMARK H PARENT 18 31
REMARK Flexibility Score: inf
ROOT
ATOM      1  C   UNL     1      23.234 -35.501  -7.736  1.00  0.00     0.010 C 
ATOM      2  C   UNL     1      24.150 -34.477  -8.414  1.00  0.00     0.012 C 
ATOM      3  C   UNL     1      25.301 -34.072  -7.485  1.00  0.00     0.011 C 
ATOM      4  C   UNL     1      26.124 -32.954  -8.124  1.00  0.00     0.066 C 
ATOM      5  C   UNL     1      25.213 -31.787  -8.585  1.00  0.00     0.171 C 
ATOM      6  C   UNL     1      26.058 -30.712  -9.314  1.00  0.00     0.052 C 
ATOM      7  C   UNL     1      25.617 -29.397  -8.698  1.00  0.00     0.033 C 
ATOM      8  C   UNL     1      25.099 -29.851  -7.335  1.00  0.00     0.126 C 
ATOM      9  O   UNL     1      24.615 -31.175  -7.446  1.00  0.00    -0.346 OA
ATOM     10  C   UNL     1      23.975 -28.875  -6.928  1.00  0.00     0.037 C 
ATOM     11  C   UNL     1      24.080 -27.772  -7.974  1.00  0.00     0.002 C 
ATOM     12  C   UNL     1      24.477 -28.490  -9.277  1.00  0.00    -0.024 C 
ATOM     13  C   UNL     1      24.972 -27.430 -10.319  1.00  0.00     0.008 C 
ATOM     14  C   UNL     1      24.397 -25.997 -10.104  1.00  0.00     0.005 C 
ATOM     15  C   UNL     1      22.968 -26.024  -9.500  1.00  0.00     0.003 C 
ATOM     16  C   UNL     1      22.986 -26.674  -8.087  1.00  0.00     0.000 C 
ATOM     17  C   UNL     1      21.560 -27.067  -7.693  1.00  0.00     0.031 C 
ATOM     18  C   UNL     1      20.617 -25.901  -7.881  1.00  0.00    -0.027 C 
ATOM     19  C   UNL     1      20.854 -24.851  -8.713  1.00  0.00    -0.065 C 
ATOM     20  C   UNL     1      22.184 -24.665  -9.476  1.00  0.00    -0.008 C 
ATOM     21  C   UNL     1      21.856 -24.238 -10.943  1.00  0.00     0.014 C 
ATOM     22  C   UNL     1      20.829 -23.097 -11.043  1.00  0.00     0.033 C 
ATOM     23  C   UNL     1      19.526 -23.456 -10.313  1.00  0.00     0.118 C 
ATOM     24  C   UNL     1      19.799 -23.770  -8.840  1.00  0.00     0.063 C 
ATOM     25  C   UNL     1      23.015 -23.544  -8.794  1.00  0.00     0.016 C 
ATOM     26  C   UNL     1      23.286 -29.321  -9.858  1.00  0.00     0.012 C 
ATOM     27  C   UNL     1      26.125 -30.789 -10.849  1.00  0.00     0.014 C 
ATOM     28  O   UNL     1      24.206 -32.278  -9.464  1.00  0.00    -0.349 OA
ATOM     29  C   UNL     1      23.363 -33.224  -8.828  1.00  0.00     0.167 C 
ENDROOT
BRANCH  23  30
ATOM     30  O   UNL     1      18.624 -22.383 -10.393  1.00  0.00    -0.393 OA
ATOM     31  H   UNL     1      19.171 -21.556 -10.449  1.00  0.00     0.210 HD
ENDBRANCH  23  30
TORSDOF 1
ENDMDL
MODEL 4
REMARK VINA RESULT:    -5.662      2.003      8.431
REMARK INTER + INTRA:          -5.827
REMARK INTER:                  -5.827
REMARK INTRA:                   0.000
REMARK UNBOUND:                 0.000
REMARK SMILES C[C@@H]1CC[C@@]2(OC1)O[C@@H]1C[C@@H]3[C@@H]4CC=C5C[C@@H](O)CC[C@]5(C)[C@H]4CC[C@@]3(C)[C@@H]1[C@@H]2C
REMARK SMILES IDX 1 1 2 2 3 3 4 4 5 5 29 6 28 7 9 8 8 9 10 10 11 11 26 12
REMARK SMILES IDX 25 13 24 14 23 15 12 16 13 17 14 18 15 19 21 20 20 21 19 22
REMARK SMILES IDX 17 23 16 24 22 25 27 26 30 27 6 28 7 29 18 30
REMARK H PARENT 18 31
REMARK Flexibility Score: inf
ROOT
ATOM      1  C   UNL     1      19.440 -22.902 -10.983  1.00  0.00     0.010 C 
ATOM      2  C   UNL     1      19.161 -23.728  -9.723  1.00  0.00     0.012 C 
ATOM      3  C   UNL     1      19.851 -23.111  -8.500  1.00  0.00     0.011 C 
ATOM      4  C   UNL     1      19.674 -24.019  -7.283  1.00  0.00     0.066 C 
ATOM      5  C   UNL     1      20.098 -25.475  -7.609  1.00  0.00     0.171 C 
ATOM      6  C   UNL     1      19.819 -26.392  -6.392  1.00  0.00     0.052 C 
ATOM      7  C   UNL     1      21.096 -27.195  -6.220  1.00  0.00     0.033 C 
ATOM      8  C   UNL     1      22.130 -26.277  -6.868  1.00  0.00     0.126 C 
ATOM      9  O   UNL     1      21.497 -25.512  -7.874  1.00  0.00    -0.346 OA
ATOM     10  C   UNL     1      23.233 -27.180  -7.459  1.00  0.00     0.037 C 
ATOM     11  C   UNL     1      22.887 -28.556  -6.902  1.00  0.00     0.002 C 
ATOM     12  C   UNL     1      21.349 -28.601  -6.866  1.00  0.00    -0.024 C 
ATOM     13  C   UNL     1      20.889 -29.805  -5.974  1.00  0.00     0.008 C 
ATOM     14  C   UNL     1      21.924 -30.966  -5.876  1.00  0.00     0.005 C 
ATOM     15  C   UNL     1      22.765 -31.111  -7.171  1.00  0.00     0.003 C 
ATOM     16  C   UNL     1      23.612 -29.830  -7.419  1.00  0.00     0.000 C 
ATOM     17  C   UNL     1      24.094 -29.816  -8.871  1.00  0.00     0.031 C 
ATOM     18  C   UNL     1      24.753 -31.130  -9.224  1.00  0.00    -0.027 C 
ATOM     19  C   UNL     1      24.526 -32.300  -8.568  1.00  0.00    -0.065 C 
ATOM     20  C   UNL     1      23.657 -32.398  -7.295  1.00  0.00    -0.008 C 
ATOM     21  C   UNL     1      22.732 -33.650  -7.423  1.00  0.00     0.014 C 
ATOM     22  C   UNL     1      23.471 -34.927  -7.862  1.00  0.00     0.033 C 
ATOM     23  C   UNL     1      24.220 -34.708  -9.185  1.00  0.00     0.118 C 
ATOM     24  C   UNL     1      25.221 -33.556  -9.058  1.00  0.00     0.063 C 
ATOM     25  C   UNL     1      24.577 -32.569  -6.056  1.00  0.00     0.016 C 
ATOM     26  C   UNL     1      20.745 -28.717  -8.303  1.00  0.00     0.012 C 
ATOM     27  C   UNL     1      18.489 -27.165  -6.381  1.00  0.00     0.014 C 
ATOM     28  O   UNL     1      19.371 -25.948  -8.739  1.00  0.00    -0.349 OA
ATOM     29  C   UNL     1      19.636 -25.178  -9.900  1.00  0.00     0.167 C 
ENDROOT
BRANCH  23  30
ATOM     30  O   UNL     1      24.911 -35.877  -9.539  1.00  0.00    -0.393 OA
ATOM     31  H   UNL     1      25.702 -35.591 -10.069  1.00  0.00     0.210 HD
ENDBRANCH  23  30
TORSDOF 1
ENDMDL
MODEL 5
REMARK VINA RESULT:    -5.240      2.826      8.451
REMARK INTER + INTRA:          -5.393
REMARK INTER:                  -5.393
REMARK INTRA:                   0.000
REMARK UNBOUND:                 0.000
REMARK SMILES C[C@@H]1CC[C@@]2(OC1)O[C@@H]1C[C@@H]3[C@@H]4CC=C5C[C@@H](O)CC[C@]5(C)[C@H]4CC[C@@]3(C)[C@@H]1[C@@H]2C
REMARK SMILES IDX 1 1 2 2 3 3 4 4 5 5 29 6 28 7 9 8 8 9 10 10 11 11 26 12
REMARK SMILES IDX 25 13 24 14 23 15 12 16 13 17 14 18 15 19 21 20 20 21 19 22
REMARK SMILES IDX 17 23 16 24 22 25 27 26 30 27 6 28 7 29 18 30
REMARK H PARENT 18 31
REMARK Flexibility Score: inf
ROOT
ATOM      1  C   UNL     1      23.384 -22.029 -11.568  1.00  0.00     0.010 C 
ATOM      2  C   UNL     1      23.378 -22.554 -10.129  1.00  0.00     0.012 C 
ATOM      3  C   UNL     1      24.740 -22.332  -9.460  1.00  0.00     0.011 C 
ATOM      4  C   UNL     1      24.758 -22.982  -8.076  1.00  0.00     0.066 C 
ATOM      5  C   UNL     1      24.298 -24.461  -8.150  1.00  0.00     0.171 C 
ATOM      6  C   UNL     1      24.233 -25.066  -6.726  1.00  0.00     0.052 C 
ATOM      7  C   UNL     1      24.948 -26.401  -6.846  1.00  0.00     0.033 C 
ATOM      8  C   UNL     1      25.857 -26.158  -8.049  1.00  0.00     0.126 C 
ATOM      9  O   UNL     1      25.244 -25.213  -8.903  1.00  0.00    -0.346 OA
ATOM     10  C   UNL     1      26.044 -27.517  -8.757  1.00  0.00     0.037 C 
ATOM     11  C   UNL     1      25.426 -28.506  -7.776  1.00  0.00     0.002 C 
ATOM     12  C   UNL     1      24.232 -27.761  -7.153  1.00  0.00    -0.024 C 
ATOM     13  C   UNL     1      23.753 -28.532  -5.875  1.00  0.00     0.008 C 
ATOM     14  C   UNL     1      24.089 -30.054  -5.878  1.00  0.00     0.005 C 
ATOM     15  C   UNL     1      24.086 -30.652  -7.310  1.00  0.00     0.003 C 
ATOM     16  C   UNL     1      25.192 -29.988  -8.180  1.00  0.00     0.000 C 
ATOM     17  C   UNL     1      24.910 -30.272  -9.657  1.00  0.00     0.031 C 
ATOM     18  C   UNL     1      24.682 -31.749  -9.880  1.00  0.00    -0.027 C 
ATOM     19  C   UNL     1      24.291 -32.618  -8.909  1.00  0.00    -0.065 C 
ATOM     20  C   UNL     1      24.155 -32.216  -7.424  1.00  0.00    -0.008 C 
ATOM     21  C   UNL     1      22.830 -32.828  -6.866  1.00  0.00     0.014 C 
ATOM     22  C   UNL     1      22.642 -34.317  -7.205  1.00  0.00     0.033 C 
ATOM     23  C   UNL     1      22.715 -34.555  -8.721  1.00  0.00     0.118 C 
ATOM     24  C   UNL     1      24.054 -34.069  -9.282  1.00  0.00     0.063 C 
ATOM     25  C   UNL     1      25.356 -32.789  -6.624  1.00  0.00     0.016 C 
ATOM     26  C   UNL     1      23.059 -27.603  -8.175  1.00  0.00     0.012 C 
ATOM     27  C   UNL     1      22.869 -25.054  -6.015  1.00  0.00     0.014 C 
ATOM     28  O   UNL     1      23.013 -24.537  -8.760  1.00  0.00    -0.349 OA
ATOM     29  C   UNL     1      23.028 -24.050 -10.091  1.00  0.00     0.167 C 
ENDROOT
BRANCH  23  30
ATOM     30  O   UNL     1      22.575 -35.925  -8.994  1.00  0.00    -0.393 OA
ATOM     31  H   UNL     1      22.451 -36.008  -9.976  1.00  0.00     0.210 HD
ENDBRANCH  23  30
TORSDOF 1
ENDMDL
MODEL 6
REMARK VINA RESULT:    -5.149      2.708      8.909
REMARK INTER + INTRA:          -5.300
REMARK INTER:                  -5.300
REMARK INTRA:                   0.000
REMARK UNBOUND:                 0.000
REMARK SMILES C[C@@H]1CC[C@@]2(OC1)O[C@@H]1C[C@@H]3[C@@H]4CC=C5C[C@@H](O)CC[C@]5(C)[C@H]4CC[C@@]3(C)[C@@H]1[C@@H]2C
REMARK SMILES IDX 1 1 2 2 3 3 4 4 5 5 29 6 28 7 9 8 8 9 10 10 11 11 26 12
REMARK SMILES IDX 25 13 24 14 23 15 12 16 13 17 14 18 15 19 21 20 20 21 19 22
REMARK SMILES IDX 17 23 16 24 22 25 27 26 30 27 6 28 7 29 18 30
REMARK H PARENT 18 31
REMARK Flexibility Score: inf
ROOT
ATOM      1  C   UNL     1      25.879 -19.793 -12.510  1.00  0.00     0.010 C 
ATOM      2  C   UNL     1      24.547 -20.431 -12.103  1.00  0.00     0.012 C 
ATOM      3  C   UNL     1      23.979 -19.758 -10.847  1.00  0.00     0.011 C 
ATOM      4  C   UNL     1      22.723 -20.493 -10.379  1.00  0.00     0.066 C 
ATOM      5  C   UNL     1      22.987 -22.016 -10.245  1.00  0.00     0.171 C 
ATOM      6  C   UNL     1      21.677 -22.748  -9.863  1.00  0.00     0.052 C 
ATOM      7  C   UNL     1      22.071 -23.665  -8.719  1.00  0.00     0.033 C 
ATOM      8  C   UNL     1      23.300 -22.951  -8.159  1.00  0.00     0.126 C 
ATOM      9  O   UNL     1      23.933 -22.242  -9.204  1.00  0.00    -0.346 OA
ATOM     10  C   UNL     1      24.227 -24.037  -7.573  1.00  0.00     0.037 C 
ATOM     11  C   UNL     1      23.362 -25.290  -7.616  1.00  0.00     0.002 C 
ATOM     12  C   UNL     1      22.521 -25.156  -8.899  1.00  0.00    -0.024 C 
ATOM     13  C   UNL     1      21.343 -26.188  -8.854  1.00  0.00     0.008 C 
ATOM     14  C   UNL     1      21.617 -27.440  -7.966  1.00  0.00     0.005 C 
ATOM     15  C   UNL     1      23.119 -27.829  -7.951  1.00  0.00     0.003 C 
ATOM     16  C   UNL     1      23.972 -26.690  -7.323  1.00  0.00     0.000 C 
ATOM     17  C   UNL     1      25.443 -26.899  -7.688  1.00  0.00     0.031 C 
ATOM     18  C   UNL     1      25.874 -28.312  -7.365  1.00  0.00    -0.027 C 
ATOM     19  C   UNL     1      25.020 -29.364  -7.248  1.00  0.00    -0.065 C 
ATOM     20  C   UNL     1      23.484 -29.214  -7.307  1.00  0.00    -0.008 C 
ATOM     21  C   UNL     1      22.910 -30.360  -8.201  1.00  0.00     0.014 C 
ATOM     22  C   UNL     1      23.462 -31.754  -7.854  1.00  0.00     0.033 C 
ATOM     23  C   UNL     1      24.997 -31.777  -7.919  1.00  0.00     0.118 C 
ATOM     24  C   UNL     1      25.594 -30.739  -6.965  1.00  0.00     0.063 C 
ATOM     25  C   UNL     1      22.899 -29.344  -5.875  1.00  0.00     0.016 C 
ATOM     26  C   UNL     1      23.393 -25.369 -10.179  1.00  0.00     0.012 C 
ATOM     27  C   UNL     1      20.850 -23.358 -11.009  1.00  0.00     0.014 C 
ATOM     28  O   UNL     1      23.480 -22.531 -11.478  1.00  0.00    -0.349 OA
ATOM     29  C   UNL     1      24.713 -21.936 -11.846  1.00  0.00     0.167 C 
ENDROOT
BRANCH  23  30
ATOM     30  O   UNL     1      25.469 -33.050  -7.564  1.00  0.00    -0.393 OA
ATOM     31  H   UNL     1      26.071 -32.923  -6.784  1.00  0.00     0.210 HD
ENDBRANCH  23  30
TORSDOF 1
ENDMDL
MODEL 7
REMARK VINA RESULT:    -5.068      3.390      9.287
REMARK INTER + INTRA:          -5.216
REMARK INTER:                  -5.216
REMARK INTRA:                   0.000
REMARK UNBOUND:                 0.000
REMARK SMILES C[C@@H]1CC[C@@]2(OC1)O[C@@H]1C[C@@H]3[C@@H]4CC=C5C[C@@H](O)CC[C@]5(C)[C@H]4CC[C@@]3(C)[C@@H]1[C@@H]2C
REMARK SMILES IDX 1 1 2 2 3 3 4 4 5 5 29 6 28 7 9 8 8 9 10 10 11 11 26 12
REMARK SMILES IDX 25 13 24 14 23 15 12 16 13 17 14 18 15 19 21 20 20 21 19 22
REMARK SMILES IDX 17 23 16 24 22 25 27 26 30 27 6 28 7 29 18 30
REMARK H PARENT 18 31
REMARK Flexibility Score: inf
ROOT
ATOM      1  C   UNL     1      24.250 -18.250  -7.925  1.00  0.00     0.010 C 
ATOM      2  C   UNL     1      24.451 -19.128  -9.164  1.00  0.00     0.012 C 
ATOM      3  C   UNL     1      23.166 -19.196 -10.000  1.00  0.00     0.011 C 
ATOM      4  C   UNL     1      23.343 -20.181 -11.156  1.00  0.00     0.066 C 
ATOM      5  C   UNL     1      23.866 -21.549 -10.646  1.00  0.00     0.171 C 
ATOM      6  C   UNL     1      24.127 -22.495 -11.844  1.00  0.00     0.052 C 
ATOM      7  C   UNL     1      23.473 -23.806 -11.445  1.00  0.00     0.033 C 
ATOM      8  C   UNL     1      22.419 -23.334 -10.446  1.00  0.00     0.126 C 
ATOM      9  O   UNL     1      22.878 -22.154  -9.817  1.00  0.00    -0.346 OA
ATOM     10  C   UNL     1      22.220 -24.474  -9.424  1.00  0.00     0.037 C 
ATOM     11  C   UNL     1      22.998 -25.630 -10.041  1.00  0.00     0.002 C 
ATOM     12  C   UNL     1      24.217 -24.978 -10.718  1.00  0.00    -0.024 C 
ATOM     13  C   UNL     1      24.881 -26.013 -11.691  1.00  0.00     0.008 C 
ATOM     14  C   UNL     1      24.625 -27.504 -11.317  1.00  0.00     0.005 C 
ATOM     15  C   UNL     1      24.491 -27.709  -9.785  1.00  0.00     0.003 C 
ATOM     16  C   UNL     1      23.260 -26.934  -9.236  1.00  0.00     0.000 C 
ATOM     17  C   UNL     1      23.381 -26.802  -7.717  1.00  0.00     0.031 C 
ATOM     18  C   UNL     1      23.657 -28.148  -7.087  1.00  0.00    -0.027 C 
ATOM     19  C   UNL     1      24.202 -29.204  -7.749  1.00  0.00    -0.065 C 
ATOM     20  C   UNL     1      24.490 -29.191  -9.267  1.00  0.00    -0.008 C 
ATOM     21  C   UNL     1      25.901 -29.818  -9.507  1.00  0.00     0.014 C 
ATOM     22  C   UNL     1      26.124 -31.148  -8.767  1.00  0.00     0.033 C 
ATOM     23  C   UNL     1      25.887 -30.992  -7.258  1.00  0.00     0.118 C 
ATOM     24  C   UNL     1      24.469 -30.485  -6.982  1.00  0.00     0.063 C 
ATOM     25  C   UNL     1      23.421 -30.046 -10.000  1.00  0.00     0.016 C 
ATOM     26  C   UNL     1      25.254 -24.468  -9.664  1.00  0.00     0.012 C 
ATOM     27  C   UNL     1      25.563 -22.558 -12.394  1.00  0.00     0.014 C 
ATOM     28  O   UNL     1      25.073 -21.361  -9.914  1.00  0.00    -0.349 OA
ATOM     29  C   UNL     1      24.879 -20.549  -8.769  1.00  0.00     0.167 C 
ENDROOT
BRANCH  23  30
ATOM     30  O   UNL     1      26.064 -32.228  -6.618  1.00  0.00    -0.393 OA
ATOM     31  H   UNL     1      26.412 -32.856  -7.304  1.00  0.00     0.210 HD
ENDBRANCH  23  30
TORSDOF 1
ENDMDL
MODEL 8
REMARK VINA RESULT:    -4.256      2.064      2.662
REMARK INTER + INTRA:          -4.381
REMARK INTER:                  -4.381
REMARK INTRA:                   0.000
REMARK UNBOUND:                 0.000
REMARK SMILES C[C@@H]1CC[C@@]2(OC1)O[C@@H]1C[C@@H]3[C@@H]4CC=C5C[C@@H](O)CC[C@]5(C)[C@H]4CC[C@@]3(C)[C@@H]1[C@@H]2C
REMARK SMILES IDX 1 1 2 2 3 3 4 4 5 5 29 6 28 7 9 8 8 9 10 10 11 11 26 12
REMARK SMILES IDX 25 13 24 14 23 15 12 16 13 17 14 18 15 19 21 20 20 21 19 22
REMARK SMILES IDX 17 23 16 24 22 25 27 26 30 27 6 28 7 29 18 30
REMARK H PARENT 18 31
REMARK Flexibility Score: inf
ROOT
ATOM      1  C   UNL     1      22.831 -34.493  -9.237  1.00  0.00     0.010 C 
ATOM      2  C   UNL     1      23.591 -33.589  -8.261  1.00  0.00     0.012 C 
ATOM      3  C   UNL     1      22.826 -33.444  -6.939  1.00  0.00     0.011 C 
ATOM      4  C   UNL     1      23.530 -32.435  -6.033  1.00  0.00     0.066 C 
ATOM      5  C   UNL     1      23.797 -31.104  -6.784  1.00  0.00     0.171 C 
ATOM      6  C   UNL     1      24.595 -30.136  -5.875  1.00  0.00     0.052 C 
ATOM      7  C   UNL     1      23.862 -28.811  -5.994  1.00  0.00     0.033 C 
ATOM      8  C   UNL     1      22.459 -29.268  -6.388  1.00  0.00     0.126 C 
ATOM      9  O   UNL     1      22.556 -30.483  -7.103  1.00  0.00    -0.346 OA
ATOM     10  C   UNL     1      21.846 -28.151  -7.258  1.00  0.00     0.037 C 
ATOM     11  C   UNL     1      22.845 -27.010  -7.111  1.00  0.00     0.002 C 
ATOM     12  C   UNL     1      24.224 -27.691  -7.029  1.00  0.00    -0.024 C 
ATOM     13  C   UNL     1      25.279 -26.657  -6.508  1.00  0.00     0.008 C 
ATOM     14  C   UNL     1      24.917 -25.168  -6.792  1.00  0.00     0.005 C 
ATOM     15  C   UNL     1      24.109 -25.003  -8.106  1.00  0.00     0.003 C 
ATOM     16  C   UNL     1      22.745 -25.742  -8.004  1.00  0.00     0.000 C 
ATOM     17  C   UNL     1      22.162 -25.923  -9.407  1.00  0.00     0.031 C 
ATOM     18  C   UNL     1      22.155 -24.607 -10.152  1.00  0.00    -0.027 C 
ATOM     19  C   UNL     1      22.965 -23.556  -9.855  1.00  0.00    -0.065 C 
ATOM     20  C   UNL     1      23.908 -23.537  -8.632  1.00  0.00    -0.008 C 
ATOM     21  C   UNL     1      25.289 -22.962  -9.082  1.00  0.00     0.014 C 
ATOM     22  C   UNL     1      25.184 -21.663  -9.901  1.00  0.00     0.033 C 
ATOM     23  C   UNL     1      24.285 -21.853 -11.133  1.00  0.00     0.118 C 
ATOM     24  C   UNL     1      22.885 -22.309 -10.715  1.00  0.00     0.063 C 
ATOM     25  C   UNL     1      23.307 -22.619  -7.534  1.00  0.00     0.016 C 
ATOM     26  C   UNL     1      24.658 -28.273  -8.414  1.00  0.00     0.012 C 
ATOM     27  C   UNL     1      26.125 -30.115  -6.037  1.00  0.00     0.014 C 
ATOM     28  O   UNL     1      24.538 -31.362  -7.973  1.00  0.00    -0.349 OA
ATOM     29  C   UNL     1      23.827 -32.198  -8.870  1.00  0.00     0.167 C 
ENDROOT
BRANCH  23  30
ATOM     30  O   UNL     1      24.183 -20.644 -11.838  1.00  0.00    -0.393 OA
ATOM     31  H   UNL     1      24.995 -20.575 -12.404  1.00  0.00     0.210 HD
ENDBRANCH  23  30
TORSDOF 1
ENDMDL
