MODEL 1
REMARK VINA RESULT:    -3.473      0.000      0.000
REMARK INTER + INTRA:          -8.090
REMARK INTER:                  -6.113
REMARK INTRA:                  -1.977
REMARK UNBOUND:                -1.977
REMARK SMILES CCCCCCC=CCCCCCCCC(=O)[O-]
REMARK SMILES IDX 10 1 11 2 12 3 13 4 14 5 15 6 16 7 17 8 18 9 9 10 8 11 7 12
REMARK SMILES IDX 6 13 5 14 4 15 3 16 2 17 1 18
REMARK H PARENT
REMARK Flexibility Score: inf
ROOT
ATOM      1  C   UNL     1     143.464 136.036 144.422  1.00  0.00     0.004 C 
ENDROOT
BRANCH   1   2
ATOM      2  C   UNL     1     143.868 135.189 145.647  1.00  0.00     0.000 C 
BRANCH   2   3
ATOM      3  C   UNL     1     145.381 134.965 145.813  1.00  0.00     0.000 C 
BRANCH   3   4
ATOM      4  C   UNL     1     145.713 133.786 146.739  1.00  0.00     0.000 C 
BRANCH   4   5
ATOM      5  C   UNL     1     146.697 134.213 147.840  1.00  0.00     0.006 C 
BRANCH   5   6
ATOM      6  C   UNL     1     147.032 133.063 148.798  1.00  0.00     0.053 C 
BRANCH   6   7
ATOM      7  C   UNL     1     146.605 133.366 150.202  1.00  0.00     0.041 C 
ATOM      8  O   UNL     1     145.938 132.522 150.857  1.00  0.00    -0.550 OA
ATOM      9  O   UNL     1     146.974 134.565 150.800  1.00  0.00    -0.550 OA
ENDBRANCH   6   7
ENDBRANCH   5   6
ENDBRANCH   4   5
ENDBRANCH   3   4
ENDBRANCH   2   3
ENDBRANCH   1   2
BRANCH   1  10
ATOM     10  C   UNL     1     142.595 137.262 144.755  1.00  0.00     0.027 C 
BRANCH  10  11
ATOM     11  C   UNL     1     141.827 137.087 146.037  1.00  0.00    -0.031 C 
ATOM     12  C   UNL     1     141.877 138.004 147.016  1.00  0.00    -0.031 C 
BRANCH  12  13
ATOM     13  C   UNL     1     141.094 137.840 148.289  1.00  0.00     0.027 C 
BRANCH  13  14
ATOM     14  C   UNL     1     142.005 137.764 149.528  1.00  0.00     0.004 C 
BRANCH  14  15
ATOM     15  C   UNL     1     143.508 137.686 149.202  1.00  0.00     0.000 C 
BRANCH  15  16
ATOM     16  C   UNL     1     144.162 136.320 149.481  1.00  0.00    -0.000 C 
BRANCH  16  17
ATOM     17  C   UNL     1     143.203 135.124 149.303  1.00  0.00    -0.003 C 
ATOM     18  C   UNL     1     142.956 134.371 150.611  1.00  0.00     0.004 C 
ENDBRANCH  16  17
ENDBRANCH  15  16
ENDBRANCH  14  15
ENDBRANCH  13  14
ENDBRANCH  12  13
ENDBRANCH  10  11
ENDBRANCH   1  10
TORSDOF 13
ENDMDL
MODEL 2
REMARK VINA RESULT:    -3.458      9.997     12.736
REMARK INTER + INTRA:          -8.064
REMARK INTER:                  -5.627
REMARK INTRA:                  -2.437
REMARK UNBOUND:                -1.977
REMARK SMILES CCCCCCC=CCCCCCCCC(=O)[O-]
REMARK SMILES IDX 10 1 11 2 12 3 13 4 14 5 15 6 16 7 17 8 18 9 9 10 8 11 7 12
REMARK SMILES IDX 6 13 5 14 4 15 3 16 2 17 1 18
REMARK H PARENT
REMARK Flexibility Score: inf
ROOT
ATOM      1  C   UNL     1     141.702 148.489 142.094  1.00  0.00     0.004 C 
ENDROOT
BRANCH   1   2
ATOM      2  C   UNL     1     142.351 147.718 143.262  1.00  0.00     0.000 C 
BRANCH   2   3
ATOM      3  C   UNL     1     141.607 146.441 143.693  1.00  0.00     0.000 C 
BRANCH   3   4
ATOM      4  C   UNL     1     142.477 145.180 143.593  1.00  0.00     0.000 C 
BRANCH   4   5
ATOM      5  C   UNL     1     141.711 144.037 142.910  1.00  0.00     0.006 C 
BRANCH   5   6
ATOM      6  C   UNL     1     142.418 142.685 143.069  1.00  0.00     0.053 C 
BRANCH   6   7
ATOM      7  C   UNL     1     142.062 141.737 141.964  1.00  0.00     0.041 C 
ATOM      8  O   UNL     1     141.302 140.759 142.191  1.00  0.00    -0.550 OA
ATOM      9  O   UNL     1     142.542 141.953 140.679  1.00  0.00    -0.550 OA
ENDBRANCH   6   7
ENDBRANCH   5   6
ENDBRANCH   4   5
ENDBRANCH   3   4
ENDBRANCH   2   3
ENDBRANCH   1   2
BRANCH   1  10
ATOM     10  C   UNL     1     140.836 147.622 141.163  1.00  0.00     0.027 C 
BRANCH  10  11
ATOM     11  C   UNL     1     141.608 147.104 139.980  1.00  0.00    -0.031 C 
ATOM     12  C   UNL     1     141.967 145.815 139.887  1.00  0.00    -0.031 C 
BRANCH  12  13
ATOM     13  C   UNL     1     142.722 145.292 138.696  1.00  0.00     0.027 C 
BRANCH  13  14
ATOM     14  C   UNL     1     144.225 145.129 138.984  1.00  0.00     0.004 C 
BRANCH  14  15
ATOM     15  C   UNL     1     144.551 144.757 140.442  1.00  0.00     0.000 C 
BRANCH  15  16
ATOM     16  C   UNL     1     145.487 145.741 141.169  1.00  0.00    -0.000 C 
BRANCH  16  17
ATOM     17  C   UNL     1     145.777 147.029 140.370  1.00  0.00    -0.003 C 
ATOM     18  C   UNL     1     145.153 148.269 141.011  1.00  0.00     0.004 C 
ENDBRANCH  16  17
ENDBRANCH  15  16
ENDBRANCH  14  15
ENDBRANCH  13  14
ENDBRANCH  12  13
ENDBRANCH  10  11
ENDBRANCH   1  10
TORSDOF 13
ENDMDL
MODEL 3
REMARK VINA RESULT:    -3.399      1.433      4.017
REMARK INTER + INTRA:          -7.960
REMARK INTER:                  -6.022
REMARK INTRA:                  -1.938
REMARK UNBOUND:                -1.977
REMARK SMILES CCCCCCC=CCCCCCCCC(=O)[O-]
REMARK SMILES IDX 10 1 11 2 12 3 13 4 14 5 15 6 16 7 17 8 18 9 9 10 8 11 7 12
REMARK SMILES IDX 6 13 5 14 4 15 3 16 2 17 1 18
REMARK H PARENT
REMARK Flexibility Score: inf
ROOT
ATOM      1  C   UNL     1     142.464 138.171 148.804  1.00  0.00     0.004 C 
ENDROOT
BRANCH   1   2
ATOM      2  C   UNL     1     142.878 136.902 149.579  1.00  0.00     0.000 C 
BRANCH   2   3
ATOM      3  C   UNL     1     141.713 135.991 150.007  1.00  0.00     0.000 C 
BRANCH   3   4
ATOM      4  C   UNL     1     142.185 134.698 150.686  1.00  0.00     0.000 C 
BRANCH   4   5
ATOM      5  C   UNL     1     143.718 134.597 150.670  1.00  0.00     0.006 C 
BRANCH   5   6
ATOM      6  C   UNL     1     144.308 134.467 152.080  1.00  0.00     0.053 C 
BRANCH   6   7
ATOM      7  C   UNL     1     145.320 133.364 152.161  1.00  0.00     0.041 C 
ATOM      8  O   UNL     1     145.804 133.031 153.275  1.00  0.00    -0.550 OA
ATOM      9  O   UNL     1     145.701 132.683 151.013  1.00  0.00    -0.550 OA
ENDBRANCH   6   7
ENDBRANCH   5   6
ENDBRANCH   4   5
ENDBRANCH   3   4
ENDBRANCH   2   3
ENDBRANCH   1   2
BRANCH   1  10
ATOM     10  C   UNL     1     141.262 137.977 147.862  1.00  0.00     0.027 C 
BRANCH  10  11
ATOM     11  C   UNL     1     141.654 137.337 146.558  1.00  0.00    -0.031 C 
ATOM     12  C   UNL     1     142.583 137.883 145.760  1.00  0.00    -0.031 C 
BRANCH  12  13
ATOM     13  C   UNL     1     142.990 137.234 144.466  1.00  0.00     0.027 C 
BRANCH  13  14
ATOM     14  C   UNL     1     143.048 135.700 144.576  1.00  0.00     0.004 C 
BRANCH  14  15
ATOM     15  C   UNL     1     144.371 135.157 145.148  1.00  0.00     0.000 C 
BRANCH  15  16
ATOM     16  C   UNL     1     144.283 134.616 146.587  1.00  0.00    -0.000 C 
BRANCH  16  17
ATOM     17  C   UNL     1     145.303 135.252 147.555  1.00  0.00    -0.003 C 
ATOM     18  C   UNL     1     145.874 136.567 147.024  1.00  0.00     0.004 C 
ENDBRANCH  16  17
ENDBRANCH  15  16
ENDBRANCH  14  15
ENDBRANCH  13  14
ENDBRANCH  12  13
ENDBRANCH  10  11
ENDBRANCH   1  10
TORSDOF 13
ENDMDL
MODEL 4
REMARK VINA RESULT:    -3.378      1.353      3.886
REMARK INTER + INTRA:          -7.922
REMARK INTER:                  -5.880
REMARK INTRA:                  -2.042
REMARK UNBOUND:                -1.977
REMARK SMILES CCCCCCC=CCCCCCCCC(=O)[O-]
REMARK SMILES IDX 10 1 11 2 12 3 13 4 14 5 15 6 16 7 17 8 18 9 9 10 8 11 7 12
REMARK SMILES IDX 6 13 5 14 4 15 3 16 2 17 1 18
REMARK H PARENT
REMARK Flexibility Score: inf
ROOT
ATOM      1  C   UNL     1     141.892 137.354 148.650  1.00  0.00     0.004 C 
ENDROOT
BRANCH   1   2
ATOM      2  C   UNL     1     142.989 136.783 149.573  1.00  0.00     0.000 C 
BRANCH   2   3
ATOM      3  C   UNL     1     143.142 135.252 149.532  1.00  0.00     0.000 C 
BRANCH   3   4
ATOM      4  C   UNL     1     144.063 134.773 148.401  1.00  0.00     0.000 C 
BRANCH   4   5
ATOM      5  C   UNL     1     145.527 135.134 148.696  1.00  0.00     0.006 C 
BRANCH   5   6
ATOM      6  C   UNL     1     146.380 133.897 149.007  1.00  0.00     0.053 C 
BRANCH   6   7
ATOM      7  C   UNL     1     146.355 133.557 150.467  1.00  0.00     0.041 C 
ATOM      8  O   UNL     1     146.057 132.392 150.840  1.00  0.00    -0.550 OA
ATOM      9  O   UNL     1     146.696 134.516 151.412  1.00  0.00    -0.550 OA
ENDBRANCH   6   7
ENDBRANCH   5   6
ENDBRANCH   4   5
ENDBRANCH   3   4
ENDBRANCH   2   3
ENDBRANCH   1   2
BRANCH   1  10
ATOM     10  C   UNL     1     142.401 138.368 147.610  1.00  0.00     0.027 C 
BRANCH  10  11
ATOM     11  C   UNL     1     142.372 137.816 146.210  1.00  0.00    -0.031 C 
ATOM     12  C   UNL     1     141.899 136.588 145.950  1.00  0.00    -0.031 C 
BRANCH  12  13
ATOM     13  C   UNL     1     141.851 136.044 144.549  1.00  0.00     0.027 C 
BRANCH  13  14
ATOM     14  C   UNL     1     143.252 135.919 143.923  1.00  0.00     0.004 C 
BRANCH  14  15
ATOM     15  C   UNL     1     144.297 135.257 144.841  1.00  0.00     0.000 C 
BRANCH  15  16
ATOM     16  C   UNL     1     145.697 135.897 144.798  1.00  0.00    -0.000 C 
BRANCH  16  17
ATOM     17  C   UNL     1     145.826 137.169 145.663  1.00  0.00    -0.003 C 
ATOM     18  C   UNL     1     145.936 138.441 144.822  1.00  0.00     0.004 C 
ENDBRANCH  16  17
ENDBRANCH  15  16
ENDBRANCH  14  15
ENDBRANCH  13  14
ENDBRANCH  12  13
ENDBRANCH  10  11
ENDBRANCH   1  10
TORSDOF 13
ENDMDL
MODEL 5
REMARK VINA RESULT:    -3.352      1.851      4.266
REMARK INTER + INTRA:          -7.877
REMARK INTER:                  -5.973
REMARK INTRA:                  -1.904
REMARK UNBOUND:                -1.977
REMARK SMILES CCCCCCC=CCCCCCCCC(=O)[O-]
REMARK SMILES IDX 10 1 11 2 12 3 13 4 14 5 15 6 16 7 17 8 18 9 9 10 8 11 7 12
REMARK SMILES IDX 6 13 5 14 4 15 3 16 2 17 1 18
REMARK H PARENT
REMARK Flexibility Score: inf
ROOT
ATOM      1  C   UNL     1     148.508 136.311 145.844  1.00  0.00     0.004 C 
ENDROOT
BRANCH   1   2
ATOM      2  C   UNL     1     149.649 135.446 146.420  1.00  0.00     0.000 C 
BRANCH   2   3
ATOM      3  C   UNL     1     149.371 134.841 147.807  1.00  0.00     0.000 C 
BRANCH   3   4
ATOM      4  C   UNL     1     149.128 133.325 147.761  1.00  0.00     0.000 C 
BRANCH   4   5
ATOM      5  C   UNL     1     147.732 132.976 148.297  1.00  0.00     0.006 C 
BRANCH   5   6
ATOM      6  C   UNL     1     147.165 134.076 149.203  1.00  0.00     0.053 C 
BRANCH   6   7
ATOM      7  C   UNL     1     146.016 133.581 150.028  1.00  0.00     0.041 C 
ATOM      8  O   UNL     1     144.901 134.164 149.975  1.00  0.00    -0.550 OA
ATOM      9  O   UNL     1     146.167 132.455 150.828  1.00  0.00    -0.550 OA
ENDBRANCH   6   7
ENDBRANCH   5   6
ENDBRANCH   4   5
ENDBRANCH   3   4
ENDBRANCH   2   3
ENDBRANCH   1   2
BRANCH   1  10
ATOM     10  C   UNL     1     147.480 135.531 145.005  1.00  0.00     0.027 C 
BRANCH  10  11
ATOM     11  C   UNL     1     146.079 135.681 145.533  1.00  0.00    -0.031 C 
ATOM     12  C   UNL     1     145.398 134.634 146.022  1.00  0.00    -0.031 C 
BRANCH  12  13
ATOM     13  C   UNL     1     144.005 134.786 146.569  1.00  0.00     0.027 C 
BRANCH  13  14
ATOM     14  C   UNL     1     143.747 136.199 147.121  1.00  0.00     0.004 C 
BRANCH  14  15
ATOM     15  C   UNL     1     142.448 136.850 146.609  1.00  0.00     0.000 C 
BRANCH  15  16
ATOM     16  C   UNL     1     142.416 137.127 145.094  1.00  0.00    -0.000 C 
BRANCH  16  17
ATOM     17  C   UNL     1     141.454 136.207 144.313  1.00  0.00    -0.003 C 
ATOM     18  C   UNL     1     142.187 135.293 143.331  1.00  0.00     0.004 C 
ENDBRANCH  16  17
ENDBRANCH  15  16
ENDBRANCH  14  15
ENDBRANCH  13  14
ENDBRANCH  12  13
ENDBRANCH  10  11
ENDBRANCH   1  10
TORSDOF 13
ENDMDL
MODEL 6
REMARK VINA RESULT:    -3.323     10.465     12.626
REMARK INTER + INTRA:          -7.825
REMARK INTER:                  -5.964
REMARK INTRA:                  -1.862
REMARK UNBOUND:                -1.977
REMARK SMILES CCCCCCC=CCCCCCCCC(=O)[O-]
REMARK SMILES IDX 10 1 11 2 12 3 13 4 14 5 15 6 16 7 17 8 18 9 9 10 8 11 7 12
REMARK SMILES IDX 6 13 5 14 4 15 3 16 2 17 1 18
REMARK H PARENT
REMARK Flexibility Score: inf
ROOT
ATOM      1  C   UNL     1     141.491 147.087 139.748  1.00  0.00     0.004 C 
ENDROOT
BRANCH   1   2
ATOM      2  C   UNL     1     142.408 145.847 139.758  1.00  0.00     0.000 C 
BRANCH   2   3
ATOM      3  C   UNL     1     143.449 145.815 140.892  1.00  0.00     0.000 C 
BRANCH   3   4
ATOM      4  C   UNL     1     143.610 144.422 141.517  1.00  0.00     0.000 C 
BRANCH   4   5
ATOM      5  C   UNL     1     142.250 143.857 141.955  1.00  0.00     0.006 C 
BRANCH   5   6
ATOM      6  C   UNL     1     142.330 143.128 143.303  1.00  0.00     0.053 C 
BRANCH   6   7
ATOM      7  C   UNL     1     142.250 141.641 143.138  1.00  0.00     0.041 C 
ATOM      8  O   UNL     1     142.877 140.883 143.924  1.00  0.00    -0.550 OA
ATOM      9  O   UNL     1     141.456 141.092 142.139  1.00  0.00    -0.550 OA
ENDBRANCH   6   7
ENDBRANCH   5   6
ENDBRANCH   4   5
ENDBRANCH   3   4
ENDBRANCH   2   3
ENDBRANCH   1   2
BRANCH   1  10
ATOM     10  C   UNL     1     140.736 147.331 141.066  1.00  0.00     0.027 C 
BRANCH  10  11
ATOM     11  C   UNL     1     141.092 148.652 141.694  1.00  0.00    -0.031 C 
ATOM     12  C   UNL     1     142.242 149.279 141.404  1.00  0.00    -0.031 C 
BRANCH  12  13
ATOM     13  C   UNL     1     142.590 150.608 142.015  1.00  0.00     0.027 C 
BRANCH  13  14
ATOM     14  C   UNL     1     143.390 150.458 143.321  1.00  0.00     0.004 C 
BRANCH  14  15
ATOM     15  C   UNL     1     142.520 150.256 144.575  1.00  0.00     0.000 C 
BRANCH  15  16
ATOM     16  C   UNL     1     142.911 149.048 145.448  1.00  0.00    -0.000 C 
BRANCH  16  17
ATOM     17  C   UNL     1     142.123 147.762 145.121  1.00  0.00    -0.003 C 
ATOM     18  C   UNL     1     142.971 146.730 144.377  1.00  0.00     0.004 C 
ENDBRANCH  16  17
ENDBRANCH  15  16
ENDBRANCH  14  15
ENDBRANCH  13  14
ENDBRANCH  12  13
ENDBRANCH  10  11
ENDBRANCH   1  10
TORSDOF 13
ENDMDL
MODEL 7
REMARK VINA RESULT:    -3.302      2.703      4.792
REMARK INTER + INTRA:          -7.788
REMARK INTER:                  -5.315
REMARK INTRA:                  -2.473
REMARK UNBOUND:                -1.977
REMARK SMILES CCCCCCC=CCCCCCCCC(=O)[O-]
REMARK SMILES IDX 10 1 11 2 12 3 13 4 14 5 15 6 16 7 17 8 18 9 9 10 8 11 7 12
REMARK SMILES IDX 6 13 5 14 4 15 3 16 2 17 1 18
REMARK H PARENT
REMARK Flexibility Score: inf
ROOT
ATOM      1  C   UNL     1     142.413 136.734 143.288  1.00  0.00     0.004 C 
ENDROOT
BRANCH   1   2
ATOM      2  C   UNL     1     142.494 138.249 143.569  1.00  0.00     0.000 C 
BRANCH   2   3
ATOM      3  C   UNL     1     143.920 138.815 143.687  1.00  0.00     0.000 C 
BRANCH   3   4
ATOM      4  C   UNL     1     144.374 138.991 145.143  1.00  0.00     0.000 C 
BRANCH   4   5
ATOM      5  C   UNL     1     143.174 139.251 146.065  1.00  0.00     0.006 C 
BRANCH   5   6
ATOM      6  C   UNL     1     143.335 138.579 147.434  1.00  0.00     0.053 C 
BRANCH   6   7
ATOM      7  C   UNL     1     142.023 138.097 147.976  1.00  0.00     0.041 C 
ATOM      8  O   UNL     1     141.111 137.729 147.190  1.00  0.00    -0.550 OA
ATOM      9  O   UNL     1     141.821 138.023 149.349  1.00  0.00    -0.550 OA
ENDBRANCH   6   7
ENDBRANCH   5   6
ENDBRANCH   4   5
ENDBRANCH   3   4
ENDBRANCH   2   3
ENDBRANCH   1   2
BRANCH   1  10
ATOM     10  C   UNL     1     141.972 135.885 144.494  1.00  0.00     0.027 C 
BRANCH  10  11
ATOM     11  C   UNL     1     143.138 135.415 145.321  1.00  0.00    -0.031 C 
ATOM     12  C   UNL     1     144.373 135.323 144.803  1.00  0.00    -0.031 C 
BRANCH  12  13
ATOM     13  C   UNL     1     145.543 134.872 145.634  1.00  0.00     0.027 C 
BRANCH  13  14
ATOM     14  C   UNL     1     145.911 135.894 146.725  1.00  0.00     0.004 C 
BRANCH  14  15
ATOM     15  C   UNL     1     145.957 135.308 148.149  1.00  0.00     0.000 C 
BRANCH  15  16
ATOM     16  C   UNL     1     144.794 135.736 149.064  1.00  0.00    -0.000 C 
BRANCH  16  17
ATOM     17  C   UNL     1     143.561 134.814 148.975  1.00  0.00    -0.003 C 
ATOM     18  C   UNL     1     142.798 134.727 150.297  1.00  0.00     0.004 C 
ENDBRANCH  16  17
ENDBRANCH  15  16
ENDBRANCH  14  15
ENDBRANCH  13  14
ENDBRANCH  12  13
ENDBRANCH  10  11
ENDBRANCH   1  10
TORSDOF 13
ENDMDL
MODEL 8
REMARK VINA RESULT:    -3.296     10.109     12.599
REMARK INTER + INTRA:          -7.778
REMARK INTER:                  -5.495
REMARK INTRA:                  -2.282
REMARK UNBOUND:                -1.977
REMARK SMILES CCCCCCC=CCCCCCCCC(=O)[O-]
REMARK SMILES IDX 10 1 11 2 12 3 13 4 14 5 15 6 16 7 17 8 18 9 9 10 8 11 7 12
REMARK SMILES IDX 6 13 5 14 4 15 3 16 2 17 1 18
REMARK H PARENT
REMARK Flexibility Score: inf
ROOT
ATOM      1  C   UNL     1     145.577 145.116 140.992  1.00  0.00     0.004 C 
ENDROOT
BRANCH   1   2
ATOM      2  C   UNL     1     145.301 144.764 142.469  1.00  0.00     0.000 C 
BRANCH   2   3
ATOM      3  C   UNL     1     144.355 145.731 143.204  1.00  0.00     0.000 C 
BRANCH   3   4
ATOM      4  C   UNL     1     143.089 145.042 143.732  1.00  0.00     0.000 C 
BRANCH   4   5
ATOM      5  C   UNL     1     143.105 143.541 143.407  1.00  0.00     0.006 C 
BRANCH   5   6
ATOM      6  C   UNL     1     141.902 143.117 142.554  1.00  0.00     0.053 C 
BRANCH   6   7
ATOM      7  C   UNL     1     142.042 141.712 142.053  1.00  0.00     0.041 C 
ATOM      8  O   UNL     1     141.017 141.018 141.819  1.00  0.00    -0.550 OA
ATOM      9  O   UNL     1     143.303 141.181 141.811  1.00  0.00    -0.550 OA
ENDBRANCH   6   7
ENDBRANCH   5   6
ENDBRANCH   4   5
ENDBRANCH   3   4
ENDBRANCH   2   3
ENDBRANCH   1   2
BRANCH   1  10
ATOM     10  C   UNL     1     144.440 144.738 140.026  1.00  0.00     0.027 C 
BRANCH  10  11
ATOM     11  C   UNL     1     143.510 145.889 139.758  1.00  0.00    -0.031 C 
ATOM     12  C   UNL     1     142.230 145.865 140.161  1.00  0.00    -0.031 C 
BRANCH  12  13
ATOM     13  C   UNL     1     141.305 147.024 139.911  1.00  0.00     0.027 C 
BRANCH  13  14
ATOM     14  C   UNL     1     140.637 147.526 141.204  1.00  0.00     0.004 C 
BRANCH  14  15
ATOM     15  C   UNL     1     141.582 148.296 142.145  1.00  0.00     0.000 C 
BRANCH  15  16
ATOM     16  C   UNL     1     141.811 149.772 141.768  1.00  0.00    -0.000 C 
BRANCH  16  17
ATOM     17  C   UNL     1     143.209 150.054 141.178  1.00  0.00    -0.003 C 
ATOM     18  C   UNL     1     144.243 149.009 141.597  1.00  0.00     0.004 C 
ENDBRANCH  16  17
ENDBRANCH  15  16
ENDBRANCH  14  15
ENDBRANCH  13  14
ENDBRANCH  12  13
ENDBRANCH  10  11
ENDBRANCH   1  10
TORSDOF 13
ENDMDL
MODEL 9
REMARK VINA RESULT:    -3.263      1.610      4.361
REMARK INTER + INTRA:          -7.720
REMARK INTER:                  -5.840
REMARK INTRA:                  -1.880
REMARK UNBOUND:                -1.977
REMARK SMILES CCCCCCC=CCCCCCCCC(=O)[O-]
REMARK SMILES IDX 10 1 11 2 12 3 13 4 14 5 15 6 16 7 17 8 18 9 9 10 8 11 7 12
REMARK SMILES IDX 6 13 5 14 4 15 3 16 2 17 1 18
REMARK H PARENT
REMARK Flexibility Score: inf
ROOT
ATOM      1  C   UNL     1     144.227 135.959 148.067  1.00  0.00     0.004 C 
ENDROOT
BRANCH   1   2
ATOM      2  C   UNL     1     142.892 136.171 148.811  1.00  0.00     0.000 C 
BRANCH   2   3
ATOM      3  C   UNL     1     142.930 135.858 150.318  1.00  0.00     0.000 C 
BRANCH   3   4
ATOM      4  C   UNL     1     142.758 134.362 150.621  1.00  0.00     0.000 C 
BRANCH   4   5
ATOM      5  C   UNL     1     143.794 133.889 151.652  1.00  0.00     0.006 C 
BRANCH   5   6
ATOM      6  C   UNL     1     145.168 134.537 151.437  1.00  0.00     0.053 C 
BRANCH   6   7
ATOM      7  C   UNL     1     146.078 133.660 150.632  1.00  0.00     0.041 C 
ATOM      8  O   UNL     1     146.070 132.413 150.805  1.00  0.00    -0.550 OA
ATOM      9  O   UNL     1     146.909 134.216 149.668  1.00  0.00    -0.550 OA
ENDBRANCH   6   7
ENDBRANCH   5   6
ENDBRANCH   4   5
ENDBRANCH   3   4
ENDBRANCH   2   3
ENDBRANCH   1   2
BRANCH   1  10
ATOM     10  C   UNL     1     144.274 134.691 147.196  1.00  0.00     0.027 C 
BRANCH  10  11
ATOM     11  C   UNL     1     144.092 134.994 145.733  1.00  0.00    -0.031 C 
ATOM     12  C   UNL     1     142.933 135.472 145.255  1.00  0.00    -0.031 C 
BRANCH  12  13
ATOM     13  C   UNL     1     142.756 135.794 143.797  1.00  0.00     0.027 C 
BRANCH  13  14
ATOM     14  C   UNL     1     142.522 137.296 143.556  1.00  0.00     0.004 C 
BRANCH  14  15
ATOM     15  C   UNL     1     142.820 138.185 144.777  1.00  0.00     0.000 C 
BRANCH  15  16
ATOM     16  C   UNL     1     144.134 138.985 144.693  1.00  0.00    -0.000 C 
BRANCH  16  17
ATOM     17  C   UNL     1     145.068 138.776 145.903  1.00  0.00    -0.003 C 
ATOM     18  C   UNL     1     146.322 137.979 145.546  1.00  0.00     0.004 C 
ENDBRANCH  16  17
ENDBRANCH  15  16
ENDBRANCH  14  15
ENDBRANCH  13  14
ENDBRANCH  12  13
ENDBRANCH  10  11
ENDBRANCH   1  10
TORSDOF 13
ENDMDL
