MODEL 1
REMARK VINA RESULT:    -4.547      0.000      0.000
REMARK INTER + INTRA:          -7.811
REMARK INTER:                  -6.142
REMARK INTRA:                  -1.668
REMARK UNBOUND:                -1.668
REMARK SMILES CC(=O)CCC=C(C)CCC=C(C)C
REMARK SMILES IDX 7 1 6 2 8 3 9 4 10 5 11 6 13 7 12 8 14 9 5 10 4 11 2 12 3 13
REMARK SMILES IDX 1 14
REMARK H PARENT
REMARK Flexibility Score: inf
ROOT
ATOM      1  C   UNL     1      44.030  59.701  28.061  1.00  0.00    -0.077 C 
ATOM      2  C   UNL     1      45.349  59.433  27.941  1.00  0.00    -0.028 C 
ATOM      3  C   UNL     1      43.600  60.760  29.044  1.00  0.00     0.039 C 
ENDROOT
BRANCH   1   4
ATOM      4  C   UNL     1      42.966  58.967  27.261  1.00  0.00     0.034 C 
BRANCH   4   5
ATOM      5  C   UNL     1      42.023  58.159  28.165  1.00  0.00     0.032 C 
BRANCH   5   6
ATOM      6  C   UNL     1      42.535  56.758  28.404  1.00  0.00    -0.028 C 
ATOM      7  C   UNL     1      43.638  54.926  29.613  1.00  0.00     0.039 C 
ATOM      8  C   UNL     1      43.133  56.344  29.543  1.00  0.00    -0.080 C 
ATOM      9  C   UNL     1      43.289  57.250  30.741  1.00  0.00     0.039 C 
ENDBRANCH   5   6
ENDBRANCH   4   5
ENDBRANCH   1   4
BRANCH   2  10
ATOM     10  C   UNL     1      45.919  58.423  26.970  1.00  0.00     0.035 C 
BRANCH  10  11
ATOM     11  C   UNL     1      46.222  57.081  27.649  1.00  0.00     0.079 C 
BRANCH  11  12
ATOM     12  C   UNL     1      47.265  57.222  28.729  1.00  0.00     0.130 C 
ATOM     13  O   UNL     1      48.358  57.693  28.452  1.00  0.00    -0.300 OA
ATOM     14  C   UNL     1      46.994  56.786  30.138  1.00  0.00     0.087 C 
ENDBRANCH  11  12
ENDBRANCH  10  11
ENDBRANCH   2  10
TORSDOF 6
ENDMDL
MODEL 2
REMARK VINA RESULT:    -4.380      2.200      3.714
REMARK INTER + INTRA:          -7.584
REMARK INTER:                  -6.200
REMARK INTRA:                  -1.384
REMARK UNBOUND:                -1.668
REMARK SMILES CC(=O)CCC=C(C)CCC=C(C)C
REMARK SMILES IDX 7 1 6 2 8 3 9 4 10 5 11 6 13 7 12 8 14 9 5 10 4 11 2 12 3 13
REMARK SMILES IDX 1 14
REMARK H PARENT
REMARK Flexibility Score: inf
ROOT
ATOM      1  C   UNL     1      44.570  59.374  27.692  1.00  0.00    -0.077 C 
ATOM      2  C   UNL     1      44.877  60.268  28.659  1.00  0.00    -0.028 C 
ATOM      3  C   UNL     1      45.698  58.698  26.958  1.00  0.00     0.039 C 
ENDROOT
BRANCH   1   4
ATOM      4  C   UNL     1      43.138  59.041  27.305  1.00  0.00     0.034 C 
BRANCH   4   5
ATOM      5  C   UNL     1      42.703  57.668  27.839  1.00  0.00     0.032 C 
BRANCH   5   6
ATOM      6  C   UNL     1      42.071  57.770  29.207  1.00  0.00    -0.028 C 
ATOM      7  C   UNL     1      41.877  57.482  31.638  1.00  0.00     0.039 C 
ATOM      8  C   UNL     1      42.656  57.362  30.355  1.00  0.00    -0.080 C 
ATOM      9  C   UNL     1      44.064  56.814  30.386  1.00  0.00     0.039 C 
ENDBRANCH   5   6
ENDBRANCH   4   5
ENDBRANCH   1   4
BRANCH   2  10
ATOM     10  C   UNL     1      43.845  60.991  29.496  1.00  0.00     0.035 C 
BRANCH  10  11
ATOM     11  C   UNL     1      43.957  60.632  30.984  1.00  0.00     0.079 C 
BRANCH  11  12
ATOM     12  C   UNL     1      44.889  61.565  31.717  1.00  0.00     0.130 C 
ATOM     13  O   UNL     1      45.951  61.139  32.147  1.00  0.00    -0.300 OA
ATOM     14  C   UNL     1      44.537  63.005  31.940  1.00  0.00     0.087 C 
ENDBRANCH  11  12
ENDBRANCH  10  11
ENDBRANCH   2  10
TORSDOF 6
ENDMDL
MODEL 3
REMARK VINA RESULT:    -4.340     17.314     18.926
REMARK INTER + INTRA:          -7.531
REMARK INTER:                  -5.743
REMARK INTRA:                  -1.788
REMARK UNBOUND:                -1.668
REMARK SMILES CC(=O)CCC=C(C)CCC=C(C)C
REMARK SMILES IDX 7 1 6 2 8 3 9 4 10 5 11 6 13 7 12 8 14 9 5 10 4 11 2 12 3 13
REMARK SMILES IDX 1 14
REMARK H PARENT
REMARK Flexibility Score: inf
ROOT
ATOM      1  C   UNL     1      56.527  70.545  32.048  1.00  0.00    -0.077 C 
ATOM      2  C   UNL     1      57.272  71.212  32.958  1.00  0.00    -0.028 C 
ATOM      3  C   UNL     1      55.239  69.909  32.505  1.00  0.00     0.039 C 
ENDROOT
BRANCH   1   4
ATOM      4  C   UNL     1      56.944  70.395  30.594  1.00  0.00     0.034 C 
BRANCH   4   5
ATOM      5  C   UNL     1      57.134  68.924  30.199  1.00  0.00     0.032 C 
BRANCH   5   6
ATOM      6  C   UNL     1      58.570  68.480  30.350  1.00  0.00    -0.028 C 
ATOM      7  C   UNL     1      60.525  67.470  31.441  1.00  0.00     0.039 C 
ATOM      8  C   UNL     1      59.055  67.797  31.410  1.00  0.00    -0.080 C 
ATOM      9  C   UNL     1      58.167  67.342  32.544  1.00  0.00     0.039 C 
ENDBRANCH   5   6
ENDBRANCH   4   5
ENDBRANCH   1   4
BRANCH   2  10
ATOM     10  C   UNL     1      58.565  71.925  32.628  1.00  0.00     0.035 C 
BRANCH  10  11
ATOM     11  C   UNL     1      59.795  71.066  32.950  1.00  0.00     0.079 C 
BRANCH  11  12
ATOM     12  C   UNL     1      60.834  71.143  31.860  1.00  0.00     0.130 C 
ATOM     13  O   UNL     1      61.979  70.786  32.094  1.00  0.00    -0.300 OA
ATOM     14  C   UNL     1      60.495  71.658  30.493  1.00  0.00     0.087 C 
ENDBRANCH  11  12
ENDBRANCH  10  11
ENDBRANCH   2  10
TORSDOF 6
ENDMDL
MODEL 4
REMARK VINA RESULT:    -4.247      2.119      3.828
REMARK INTER + INTRA:          -7.405
REMARK INTER:                  -5.704
REMARK INTRA:                  -1.701
REMARK UNBOUND:                -1.668
REMARK SMILES CC(=O)CCC=C(C)CCC=C(C)C
REMARK SMILES IDX 7 1 6 2 8 3 9 4 10 5 11 6 13 7 12 8 14 9 5 10 4 11 2 12 3 13
REMARK SMILES IDX 1 14
REMARK H PARENT
REMARK Flexibility Score: inf
ROOT
ATOM      1  C   UNL     1      43.342  59.087  28.289  1.00  0.00    -0.077 C 
ATOM      2  C   UNL     1      42.644  58.269  29.109  1.00  0.00    -0.028 C 
ATOM      3  C   UNL     1      43.620  60.495  28.750  1.00  0.00     0.039 C 
ENDROOT
BRANCH   1   4
ATOM      4  C   UNL     1      43.838  58.652  26.921  1.00  0.00     0.034 C 
BRANCH   4   5
ATOM      5  C   UNL     1      45.366  58.500  26.884  1.00  0.00     0.032 C 
BRANCH   5   6
ATOM      6  C   UNL     1      45.805  57.120  27.315  1.00  0.00    -0.028 C 
ATOM      7  C   UNL     1      46.806  55.416  28.773  1.00  0.00     0.039 C 
ATOM      8  C   UNL     1      46.373  56.834  28.507  1.00  0.00    -0.080 C 
ATOM      9  C   UNL     1      46.565  57.884  29.576  1.00  0.00     0.039 C 
ENDBRANCH   5   6
ENDBRANCH   4   5
ENDBRANCH   1   4
BRANCH   2  10
ATOM     10  C   UNL     1      42.326  56.826  28.786  1.00  0.00     0.035 C 
BRANCH  10  11
ATOM     11  C   UNL     1      42.965  55.858  29.791  1.00  0.00     0.079 C 
BRANCH  11  12
ATOM     12  C   UNL     1      43.141  54.479  29.207  1.00  0.00     0.130 C 
ATOM     13  O   UNL     1      43.052  53.501  29.935  1.00  0.00    -0.300 OA
ATOM     14  C   UNL     1      43.434  54.279  27.750  1.00  0.00     0.087 C 
ENDBRANCH  11  12
ENDBRANCH  10  11
ENDBRANCH   2  10
TORSDOF 6
ENDMDL
MODEL 5
REMARK VINA RESULT:    -4.245     17.761     19.594
REMARK INTER + INTRA:          -7.402
REMARK INTER:                  -5.642
REMARK INTRA:                  -1.760
REMARK UNBOUND:                -1.668
REMARK SMILES CC(=O)CCC=C(C)CCC=C(C)C
REMARK SMILES IDX 7 1 6 2 8 3 9 4 10 5 11 6 13 7 12 8 14 9 5 10 4 11 2 12 3 13
REMARK SMILES IDX 1 14
REMARK H PARENT
REMARK Flexibility Score: inf
ROOT
ATOM      1  C   UNL     1      60.343  70.236  30.856  1.00  0.00    -0.077 C 
ATOM      2  C   UNL     1      59.137  69.686  30.589  1.00  0.00    -0.028 C 
ATOM      3  C   UNL     1      60.503  71.725  30.692  1.00  0.00     0.039 C 
ENDROOT
BRANCH   1   4
ATOM      4  C   UNL     1      61.543  69.413  31.293  1.00  0.00     0.034 C 
BRANCH   4   5
ATOM      5  C   UNL     1      62.088  69.870  32.654  1.00  0.00     0.032 C 
BRANCH   5   6
ATOM      6  C   UNL     1      61.514  69.060  33.793  1.00  0.00    -0.028 C 
ATOM      7  C   UNL     1      60.057  68.560  35.706  1.00  0.00     0.039 C 
ATOM      8  C   UNL     1      60.485  69.457  34.574  1.00  0.00    -0.080 C 
ATOM      9  C   UNL     1      59.750  70.755  34.333  1.00  0.00     0.039 C 
ENDBRANCH   5   6
ENDBRANCH   4   5
ENDBRANCH   1   4
BRANCH   2  10
ATOM     10  C   UNL     1      58.829  68.213  30.745  1.00  0.00     0.035 C 
BRANCH  10  11
ATOM     11  C   UNL     1      58.110  67.913  32.067  1.00  0.00     0.079 C 
BRANCH  11  12
ATOM     12  C   UNL     1      58.713  66.727  32.777  1.00  0.00     0.130 C 
ATOM     13  O   UNL     1      58.143  66.254  33.749  1.00  0.00    -0.300 OA
ATOM     14  C   UNL     1      60.006  66.119  32.322  1.00  0.00     0.087 C 
ENDBRANCH  11  12
ENDBRANCH  10  11
ENDBRANCH   2  10
TORSDOF 6
ENDMDL
MODEL 6
REMARK VINA RESULT:    -4.199     17.638     19.300
REMARK INTER + INTRA:          -7.341
REMARK INTER:                  -5.654
REMARK INTRA:                  -1.687
REMARK UNBOUND:                -1.668
REMARK SMILES CC(=O)CCC=C(C)CCC=C(C)C
REMARK SMILES IDX 7 1 6 2 8 3 9 4 10 5 11 6 13 7 12 8 14 9 5 10 4 11 2 12 3 13
REMARK SMILES IDX 1 14
REMARK H PARENT
REMARK Flexibility Score: inf
ROOT
ATOM      1  C   UNL     1      60.885  71.163  31.030  1.00  0.00    -0.077 C 
ATOM      2  C   UNL     1      61.442  69.938  30.902  1.00  0.00    -0.028 C 
ATOM      3  C   UNL     1      60.995  72.124  29.874  1.00  0.00     0.039 C 
ENDROOT
BRANCH   1   4
ATOM      4  C   UNL     1      60.171  71.614  32.293  1.00  0.00     0.034 C 
BRANCH   4   5
ATOM      5  C   UNL     1      58.651  71.713  32.091  1.00  0.00     0.032 C 
BRANCH   5   6
ATOM      6  C   UNL     1      57.933  70.490  32.610  1.00  0.00    -0.028 C 
ATOM      7  C   UNL     1      56.686  68.377  32.492  1.00  0.00     0.039 C 
ATOM      8  C   UNL     1      57.423  69.511  31.829  1.00  0.00    -0.080 C 
ATOM      9  C   UNL     1      57.588  69.516  30.328  1.00  0.00     0.039 C 
ENDBRANCH   5   6
ENDBRANCH   4   5
ENDBRANCH   1   4
BRANCH   2  10
ATOM     10  C   UNL     1      61.375  68.867  31.968  1.00  0.00     0.035 C 
BRANCH  10  11
ATOM     11  C   UNL     1      60.574  67.643  31.504  1.00  0.00     0.079 C 
BRANCH  11  12
ATOM     12  C   UNL     1      60.060  66.835  32.668  1.00  0.00     0.130 C 
ATOM     13  O   UNL     1      59.726  65.672  32.493  1.00  0.00    -0.300 OA
ATOM     14  C   UNL     1      59.938  67.430  34.039  1.00  0.00     0.087 C 
ENDBRANCH  11  12
ENDBRANCH  10  11
ENDBRANCH   2  10
TORSDOF 6
ENDMDL
MODEL 7
REMARK VINA RESULT:    -4.175     17.765     19.580
REMARK INTER + INTRA:          -7.307
REMARK INTER:                  -5.684
REMARK INTRA:                  -1.623
REMARK UNBOUND:                -1.668
REMARK SMILES CC(=O)CCC=C(C)CCC=C(C)C
REMARK SMILES IDX 7 1 6 2 8 3 9 4 10 5 11 6 13 7 12 8 14 9 5 10 4 11 2 12 3 13
REMARK SMILES IDX 1 14
REMARK H PARENT
REMARK Flexibility Score: inf
ROOT
ATOM      1  C   UNL     1      61.543  70.169  32.294  1.00  0.00    -0.077 C 
ATOM      2  C   UNL     1      61.284  68.854  32.471  1.00  0.00    -0.028 C 
ATOM      3  C   UNL     1      61.965  70.982  33.491  1.00  0.00     0.039 C 
ENDROOT
BRANCH   1   4
ATOM      4  C   UNL     1      61.407  70.860  30.948  1.00  0.00     0.034 C 
BRANCH   4   5
ATOM      5  C   UNL     1      60.310  71.935  30.962  1.00  0.00     0.032 C 
BRANCH   5   6
ATOM      6  C   UNL     1      58.966  71.374  30.557  1.00  0.00    -0.028 C 
ATOM      7  C   UNL     1      56.715  70.444  30.869  1.00  0.00     0.039 C 
ATOM      8  C   UNL     1      57.983  71.041  31.422  1.00  0.00    -0.080 C 
ATOM      9  C   UNL     1      58.113  71.267  32.910  1.00  0.00     0.039 C 
ENDBRANCH   5   6
ENDBRANCH   4   5
ENDBRANCH   1   4
BRANCH   2  10
ATOM     10  C   UNL     1      60.886  67.916  31.352  1.00  0.00     0.035 C 
BRANCH  10  11
ATOM     11  C   UNL     1      59.363  67.774  31.235  1.00  0.00     0.079 C 
BRANCH  11  12
ATOM     12  C   UNL     1      58.778  67.026  32.407  1.00  0.00     0.130 C 
ATOM     13  O   UNL     1      59.285  65.972  32.762  1.00  0.00    -0.300 OA
ATOM     14  C   UNL     1      57.579  67.544  33.144  1.00  0.00     0.087 C 
ENDBRANCH  11  12
ENDBRANCH  10  11
ENDBRANCH   2  10
TORSDOF 6
ENDMDL
MODEL 8
REMARK VINA RESULT:    -4.138      2.243      3.699
REMARK INTER + INTRA:          -7.257
REMARK INTER:                  -5.537
REMARK INTRA:                  -1.720
REMARK UNBOUND:                -1.668
REMARK SMILES CC(=O)CCC=C(C)CCC=C(C)C
REMARK SMILES IDX 7 1 6 2 8 3 9 4 10 5 11 6 13 7 12 8 14 9 5 10 4 11 2 12 3 13
REMARK SMILES IDX 1 14
REMARK H PARENT
REMARK Flexibility Score: inf
ROOT
ATOM      1  C   UNL     1      43.371  59.557  29.069  1.00  0.00    -0.077 C 
ATOM      2  C   UNL     1      43.349  59.026  30.312  1.00  0.00    -0.028 C 
ATOM      3  C   UNL     1      44.121  60.847  28.855  1.00  0.00     0.039 C 
ENDROOT
BRANCH   1   4
ATOM      4  C   UNL     1      42.658  58.918  27.889  1.00  0.00     0.034 C 
BRANCH   4   5
ATOM      5  C   UNL     1      43.645  58.318  26.877  1.00  0.00     0.032 C 
BRANCH   5   6
ATOM      6  C   UNL     1      44.074  56.923  27.268  1.00  0.00    -0.028 C 
ATOM      7  C   UNL     1      45.594  55.155  28.037  1.00  0.00     0.039 C 
ATOM      8  C   UNL     1      45.298  56.602  27.739  1.00  0.00    -0.080 C 
ATOM      9  C   UNL     1      46.361  57.646  27.990  1.00  0.00     0.039 C 
ENDBRANCH   5   6
ENDBRANCH   4   5
ENDBRANCH   1   4
BRANCH   2  10
ATOM     10  C   UNL     1      42.665  57.722  30.659  1.00  0.00     0.035 C 
BRANCH  10  11
ATOM     11  C   UNL     1      43.669  56.644  31.088  1.00  0.00     0.079 C 
BRANCH  11  12
ATOM     12  C   UNL     1      43.133  55.254  30.851  1.00  0.00     0.130 C 
ATOM     13  O   UNL     1      43.523  54.331  31.552  1.00  0.00    -0.300 OA
ATOM     14  C   UNL     1      42.138  54.975  29.765  1.00  0.00     0.087 C 
ENDBRANCH  11  12
ENDBRANCH  10  11
ENDBRANCH   2  10
TORSDOF 6
ENDMDL
MODEL 9
REMARK VINA RESULT:    -4.100      1.620      2.121
REMARK INTER + INTRA:          -7.207
REMARK INTER:                  -5.492
REMARK INTRA:                  -1.715
REMARK UNBOUND:                -1.668
REMARK SMILES CC(=O)CCC=C(C)CCC=C(C)C
REMARK SMILES IDX 7 1 6 2 8 3 9 4 10 5 11 6 13 7 12 8 14 9 5 10 4 11 2 12 3 13
REMARK SMILES IDX 1 14
REMARK H PARENT
REMARK Flexibility Score: inf
ROOT
ATOM      1  C   UNL     1      43.790  59.626  28.349  1.00  0.00    -0.077 C 
ATOM      2  C   UNL     1      44.968  59.382  27.731  1.00  0.00    -0.028 C 
ATOM      3  C   UNL     1      43.642  60.907  29.127  1.00  0.00     0.039 C 
ENDROOT
BRANCH   1   4
ATOM      4  C   UNL     1      42.623  58.654  28.305  1.00  0.00     0.034 C 
BRANCH   4   5
ATOM      5  C   UNL     1      42.239  58.152  29.704  1.00  0.00     0.032 C 
BRANCH   5   6
ATOM      6  C   UNL     1      43.117  57.006  30.151  1.00  0.00    -0.028 C 
ATOM      7  C   UNL     1      44.906  55.879  31.400  1.00  0.00     0.039 C 
ATOM      8  C   UNL     1      44.076  57.099  31.099  1.00  0.00    -0.080 C 
ATOM      9  C   UNL     1      44.322  58.376  31.867  1.00  0.00     0.039 C 
ENDBRANCH   5   6
ENDBRANCH   4   5
ENDBRANCH   1   4
BRANCH   2  10
ATOM     10  C   UNL     1      45.240  58.155  26.890  1.00  0.00     0.035 C 
BRANCH  10  11
ATOM     11  C   UNL     1      46.055  57.103  27.654  1.00  0.00     0.079 C 
BRANCH  11  12
ATOM     12  C   UNL     1      45.385  55.752  27.635  1.00  0.00     0.130 C 
ATOM     13  O   UNL     1      45.905  54.814  28.220  1.00  0.00    -0.300 OA
ATOM     14  C   UNL     1      44.095  55.530  26.903  1.00  0.00     0.087 C 
ENDBRANCH  11  12
ENDBRANCH  10  11
ENDBRANCH   2  10
TORSDOF 6
ENDMDL
