MODEL 1
REMARK VINA RESULT:    -2.356      0.000      0.000
REMARK INTER + INTRA:          -2.356
REMARK INTER:                  -2.356
REMARK INTRA:                   0.000
REMARK UNBOUND:                 0.000
REMARK SMILES CC(=O)[O-]
REMARK SMILES IDX 1 1 2 2 3 3 4 4
REMARK H PARENT
REMARK Flexibility Score: inf
ROOT
ATOM      1  C   UNL     1      -3.664  -1.906  22.776  1.00  0.00     0.063 C 
ATOM      2  C   UNL     1      -2.381  -2.274  23.442  1.00  0.00     0.038 C 
ATOM      3  O   UNL     1      -1.522  -2.954  22.823  1.00  0.00    -0.550 OA
ATOM      4  O   UNL     1      -2.107  -1.819  24.726  1.00  0.00    -0.550 OA
ENDROOT
TORSDOF 0
ENDMDL
MODEL 2
REMARK VINA RESULT:    -2.280     13.268     13.695
REMARK INTER + INTRA:          -2.280
REMARK INTER:                  -2.280
REMARK INTRA:                   0.000
REMARK UNBOUND:                 0.000
REMARK SMILES CC(=O)[O-]
REMARK SMILES IDX 1 1 2 2 3 3 4 4
REMARK H PARENT
REMARK Flexibility Score: inf
ROOT
ATOM      1  C   UNL     1     -12.844  -0.891  13.482  1.00  0.00     0.063 C 
ATOM      2  C   UNL     1     -12.049   0.163  14.175  1.00  0.00     0.038 C 
ATOM      3  O   UNL     1     -12.589   0.886  15.052  1.00  0.00    -0.550 OA
ATOM      4  O   UNL     1     -10.697   0.313  13.894  1.00  0.00    -0.550 OA
ENDROOT
TORSDOF 0
ENDMDL
MODEL 3
REMARK VINA RESULT:    -2.269     12.961     13.506
REMARK INTER + INTRA:          -2.269
REMARK INTER:                  -2.269
REMARK INTRA:                   0.000
REMARK UNBOUND:                 0.000
REMARK SMILES CC(=O)[O-]
REMARK SMILES IDX 1 1 2 2 3 3 4 4
REMARK H PARENT
REMARK Flexibility Score: inf
ROOT
ATOM      1  C   UNL     1     -12.301   1.021  15.402  1.00  0.00     0.063 C 
ATOM      2  C   UNL     1     -11.826   0.285  14.195  1.00  0.00     0.038 C 
ATOM      3  O   UNL     1     -12.654  -0.145  13.352  1.00  0.00    -0.550 OA
ATOM      4  O   UNL     1     -10.464   0.122  13.972  1.00  0.00    -0.550 OA
ENDROOT
TORSDOF 0
ENDMDL
MODEL 4
REMARK VINA RESULT:    -2.266     13.073     13.530
REMARK INTER + INTRA:          -2.266
REMARK INTER:                  -2.266
REMARK INTRA:                   0.000
REMARK UNBOUND:                 0.000
REMARK SMILES CC(=O)[O-]
REMARK SMILES IDX 1 1 2 2 3 3 4 4
REMARK H PARENT
REMARK Flexibility Score: inf
ROOT
ATOM      1  C   UNL     1     -10.411   0.349  14.094  1.00  0.00     0.063 C 
ATOM      2  C   UNL     1     -11.897   0.324  14.216  1.00  0.00     0.038 C 
ATOM      3  O   UNL     1     -12.596  -0.202  13.311  1.00  0.00    -0.550 OA
ATOM      4  O   UNL     1     -12.511   0.833  15.354  1.00  0.00    -0.550 OA
ENDROOT
TORSDOF 0
ENDMDL
MODEL 5
REMARK VINA RESULT:    -2.239     13.012     13.565
REMARK INTER + INTRA:          -2.239
REMARK INTER:                  -2.239
REMARK INTRA:                   0.000
REMARK UNBOUND:                 0.000
REMARK SMILES CC(=O)[O-]
REMARK SMILES IDX 1 1 2 2 3 3 4 4
REMARK H PARENT
REMARK Flexibility Score: inf
ROOT
ATOM      1  C   UNL     1     -12.336   0.932  15.378  1.00  0.00     0.063 C 
ATOM      2  C   UNL     1     -11.831   0.230  14.164  1.00  0.00     0.038 C 
ATOM      3  O   UNL     1     -10.594   0.070  13.996  1.00  0.00    -0.550 OA
ATOM      4  O   UNL     1     -12.726  -0.298  13.242  1.00  0.00    -0.550 OA
ENDROOT
TORSDOF 0
ENDMDL
MODEL 6
REMARK VINA RESULT:    -2.124      1.340      1.834
REMARK INTER + INTRA:          -2.124
REMARK INTER:                  -2.124
REMARK INTRA:                   0.000
REMARK UNBOUND:                 0.000
REMARK SMILES CC(=O)[O-]
REMARK SMILES IDX 1 1 2 2 3 3 4 4
REMARK H PARENT
REMARK Flexibility Score: inf
ROOT
ATOM      1  C   UNL     1      -1.961  -2.906  22.329  1.00  0.00     0.063 C 
ATOM      2  C   UNL     1      -2.551  -2.063  23.409  1.00  0.00     0.038 C 
ATOM      3  O   UNL     1      -2.047  -2.070  24.562  1.00  0.00    -0.550 OA
ATOM      4  O   UNL     1      -3.625  -1.227  23.130  1.00  0.00    -0.550 OA
ENDROOT
TORSDOF 0
ENDMDL
MODEL 7
REMARK VINA RESULT:    -1.974     11.775     12.181
REMARK INTER + INTRA:          -1.974
REMARK INTER:                  -1.974
REMARK INTRA:                   0.000
REMARK UNBOUND:                 0.000
REMARK SMILES CC(=O)[O-]
REMARK SMILES IDX 1 1 2 2 3 3 4 4
REMARK H PARENT
REMARK Flexibility Score: inf
ROOT
ATOM      1  C   UNL     1      -9.631   0.413  13.957  1.00  0.00     0.063 C 
ATOM      2  C   UNL     1     -10.222   1.364  14.942  1.00  0.00     0.038 C 
ATOM      3  O   UNL     1     -11.459   1.346  15.173  1.00  0.00    -0.550 OA
ATOM      4  O   UNL     1      -9.401   2.235  15.648  1.00  0.00    -0.550 OA
ENDROOT
TORSDOF 0
ENDMDL
MODEL 8
REMARK VINA RESULT:    -1.910     11.024     11.591
REMARK INTER + INTRA:          -1.910
REMARK INTER:                  -1.910
REMARK INTRA:                   0.000
REMARK UNBOUND:                 0.000
REMARK SMILES CC(=O)[O-]
REMARK SMILES IDX 1 1 2 2 3 3 4 4
REMARK H PARENT
REMARK Flexibility Score: inf
ROOT
ATOM      1  C   UNL     1      -3.683 -11.387  14.837  1.00  0.00     0.063 C 
ATOM      2  C   UNL     1      -4.316 -10.269  15.595  1.00  0.00     0.038 C 
ATOM      3  O   UNL     1      -3.598  -9.400  16.155  1.00  0.00    -0.550 OA
ATOM      4  O   UNL     1      -5.700 -10.153  15.637  1.00  0.00    -0.550 OA
ENDROOT
TORSDOF 0
ENDMDL
MODEL 9
REMARK VINA RESULT:    -1.903     11.200     11.839
REMARK INTER + INTRA:          -1.903
REMARK INTER:                  -1.903
REMARK INTRA:                   0.000
REMARK UNBOUND:                 0.000
REMARK SMILES CC(=O)[O-]
REMARK SMILES IDX 1 1 2 2 3 3 4 4
REMARK H PARENT
REMARK Flexibility Score: inf
ROOT
ATOM      1  C   UNL     1      -3.503  -9.602  16.185  1.00  0.00     0.063 C 
ATOM      2  C   UNL     1      -4.477 -10.456  15.446  1.00  0.00     0.038 C 
ATOM      3  O   UNL     1      -5.714 -10.264  15.581  1.00  0.00    -0.550 OA
ATOM      4  O   UNL     1      -4.021 -11.428  14.564  1.00  0.00    -0.550 OA
ENDROOT
TORSDOF 0
ENDMDL
