MODEL 1
REMARK VINA RESULT:    -4.777      0.000      0.000
REMARK INTER + INTRA:          -8.682
REMARK INTER:                  -7.290
REMARK INTRA:                  -1.392
REMARK UNBOUND:                -1.392
REMARK SMILES CCCCCCCCCCC(=O)[O-]
REMARK SMILES IDX 7 1 8 2 9 3 10 4 11 5 12 6 13 7 6 8 5 9 4 10 3 11 2 12 1 13
REMARK H PARENT
REMARK Flexibility Score: inf
ROOT
ATOM      1  C   UNL     1      52.996  14.585  -0.939  1.00  0.00     0.000 C 
ENDROOT
BRANCH   1   2
ATOM      2  C   UNL     1      54.036  14.020   0.044  1.00  0.00     0.000 C 
BRANCH   2   3
ATOM      3  C   UNL     1      53.998  14.721   1.412  1.00  0.00     0.006 C 
BRANCH   3   4
ATOM      4  C   UNL     1      52.627  15.333   1.726  1.00  0.00     0.053 C 
BRANCH   4   5
ATOM      5  C   UNL     1      52.768  16.785   2.061  1.00  0.00     0.041 C 
ATOM      6  O   UNL     1      53.750  17.186   2.740  1.00  0.00    -0.550 OA
ATOM      7  O   UNL     1      51.842  17.702   1.581  1.00  0.00    -0.550 OA
ENDBRANCH   4   5
ENDBRANCH   3   4
ENDBRANCH   2   3
ENDBRANCH   1   2
BRANCH   1   8
ATOM      8  C   UNL     1      53.606  15.595  -1.924  1.00  0.00     0.000 C 
BRANCH   8   9
ATOM      9  C   UNL     1      53.164  17.041  -1.633  1.00  0.00    -0.000 C 
BRANCH   9  10
ATOM     10  C   UNL     1      54.289  17.900  -1.024  1.00  0.00    -0.000 C 
BRANCH  10  11
ATOM     11  C   UNL     1      55.669  17.221  -0.965  1.00  0.00    -0.000 C 
BRANCH  11  12
ATOM     12  C   UNL     1      56.288  17.246   0.440  1.00  0.00    -0.003 C 
ATOM     13  C   UNL     1      57.363  16.172   0.586  1.00  0.00     0.004 C 
ENDBRANCH  11  12
ENDBRANCH  10  11
ENDBRANCH   9  10
ENDBRANCH   8   9
ENDBRANCH   1   8
TORSDOF 9
ENDMDL
MODEL 2
REMARK VINA RESULT:    -4.754      2.020      3.556
REMARK INTER + INTRA:          -8.648
REMARK INTER:                  -7.600
REMARK INTRA:                  -1.048
REMARK UNBOUND:                -1.392
REMARK SMILES CCCCCCCCCCC(=O)[O-]
REMARK SMILES IDX 7 1 8 2 9 3 10 4 11 5 12 6 13 7 6 8 5 9 4 10 3 11 2 12 1 13
REMARK H PARENT
REMARK Flexibility Score: inf
ROOT
ATOM      1  C   UNL     1      53.241  14.690  -0.904  1.00  0.00     0.000 C 
ENDROOT
BRANCH   1   2
ATOM      2  C   UNL     1      53.700  15.879  -1.766  1.00  0.00     0.000 C 
BRANCH   2   3
ATOM      3  C   UNL     1      52.530  16.769  -2.216  1.00  0.00     0.006 C 
BRANCH   3   4
ATOM      4  C   UNL     1      52.044  17.714  -1.110  1.00  0.00     0.053 C 
BRANCH   4   5
ATOM      5  C   UNL     1      50.718  18.305  -1.474  1.00  0.00     0.041 C 
ATOM      6  O   UNL     1      50.484  18.652  -2.662  1.00  0.00    -0.550 OA
ATOM      7  O   UNL     1      49.724  18.427  -0.511  1.00  0.00    -0.550 OA
ENDBRANCH   4   5
ENDBRANCH   3   4
ENDBRANCH   2   3
ENDBRANCH   1   2
BRANCH   1   8
ATOM      8  C   UNL     1      54.312  14.250   0.108  1.00  0.00     0.000 C 
BRANCH   8   9
ATOM      9  C   UNL     1      53.885  14.504   1.565  1.00  0.00    -0.000 C 
BRANCH   9  10
ATOM     10  C   UNL     1      53.381  15.941   1.800  1.00  0.00    -0.000 C 
BRANCH  10  11
ATOM     11  C   UNL     1      54.418  16.906   2.401  1.00  0.00    -0.000 C 
BRANCH  11  12
ATOM     12  C   UNL     1      55.139  17.748   1.337  1.00  0.00    -0.003 C 
ATOM     13  C   UNL     1      56.522  17.179   1.030  1.00  0.00     0.004 C 
ENDBRANCH  11  12
ENDBRANCH  10  11
ENDBRANCH   9  10
ENDBRANCH   8   9
ENDBRANCH   1   8
TORSDOF 9
ENDMDL
MODEL 3
REMARK VINA RESULT:    -4.742      1.946      3.890
REMARK INTER + INTRA:          -8.629
REMARK INTER:                  -7.476
REMARK INTRA:                  -1.153
REMARK UNBOUND:                -1.392
REMARK SMILES CCCCCCCCCCC(=O)[O-]
REMARK SMILES IDX 7 1 8 2 9 3 10 4 11 5 12 6 13 7 6 8 5 9 4 10 3 11 2 12 1 13
REMARK H PARENT
REMARK Flexibility Score: inf
ROOT
ATOM      1  C   UNL     1      52.655  15.817   1.638  1.00  0.00     0.000 C 
ENDROOT
BRANCH   1   2
ATOM      2  C   UNL     1      53.212  17.110   2.261  1.00  0.00     0.000 C 
BRANCH   2   3
ATOM      3  C   UNL     1      54.737  17.066   2.446  1.00  0.00     0.006 C 
BRANCH   3   4
ATOM      4  C   UNL     1      55.483  17.947   1.436  1.00  0.00     0.053 C 
BRANCH   4   5
ATOM      5  C   UNL     1      56.398  17.116   0.593  1.00  0.00     0.041 C 
ATOM      6  O   UNL     1      57.358  16.496   1.122  1.00  0.00    -0.550 OA
ATOM      7  O   UNL     1      56.161  16.985  -0.769  1.00  0.00    -0.550 OA
ENDBRANCH   4   5
ENDBRANCH   3   4
ENDBRANCH   2   3
ENDBRANCH   1   2
BRANCH   1   8
ATOM      8  C   UNL     1      53.682  14.673   1.641  1.00  0.00     0.000 C 
BRANCH   8   9
ATOM      9  C   UNL     1      54.144  14.292   0.223  1.00  0.00    -0.000 C 
BRANCH   9  10
ATOM     10  C   UNL     1      53.054  14.515  -0.842  1.00  0.00    -0.000 C 
BRANCH  10  11
ATOM     11  C   UNL     1      53.395  15.566  -1.914  1.00  0.00    -0.000 C 
BRANCH  11  12
ATOM     12  C   UNL     1      52.385  16.722  -1.962  1.00  0.00    -0.003 C 
ATOM     13  C   UNL     1      52.951  17.973  -1.294  1.00  0.00     0.004 C 
ENDBRANCH  11  12
ENDBRANCH  10  11
ENDBRANCH   9  10
ENDBRANCH   8   9
ENDBRANCH   1   8
TORSDOF 9
ENDMDL
MODEL 4
REMARK VINA RESULT:    -4.739      1.506      4.034
REMARK INTER + INTRA:          -8.625
REMARK INTER:                  -7.211
REMARK INTRA:                  -1.414
REMARK UNBOUND:                -1.392
REMARK SMILES CCCCCCCCCCC(=O)[O-]
REMARK SMILES IDX 7 1 8 2 9 3 10 4 11 5 12 6 13 7 6 8 5 9 4 10 3 11 2 12 1 13
REMARK H PARENT
REMARK Flexibility Score: inf
ROOT
ATOM      1  C   UNL     1      53.611  15.599  -1.897  1.00  0.00     0.000 C 
ENDROOT
BRANCH   1   2
ATOM      2  C   UNL     1      53.172  17.020  -1.505  1.00  0.00     0.000 C 
BRANCH   2   3
ATOM      3  C   UNL     1      54.324  17.855  -0.922  1.00  0.00     0.006 C 
BRANCH   3   4
ATOM      4  C   UNL     1      55.694  17.193  -1.119  1.00  0.00     0.053 C 
BRANCH   4   5
ATOM      5  C   UNL     1      56.333  16.912   0.204  1.00  0.00     0.041 C 
ATOM      6  O   UNL     1      56.097  17.656   1.193  1.00  0.00    -0.550 OA
ATOM      7  O   UNL     1      57.151  15.800   0.359  1.00  0.00    -0.550 OA
ENDBRANCH   4   5
ENDBRANCH   3   4
ENDBRANCH   2   3
ENDBRANCH   1   2
BRANCH   1   8
ATOM      8  C   UNL     1      52.992  14.521  -0.992  1.00  0.00     0.000 C 
BRANCH   8   9
ATOM      9  C   UNL     1      54.016  13.911  -0.018  1.00  0.00    -0.000 C 
BRANCH   9  10
ATOM     10  C   UNL     1      53.983  14.568   1.375  1.00  0.00    -0.000 C 
BRANCH  10  11
ATOM     11  C   UNL     1      52.666  15.282   1.728  1.00  0.00    -0.000 C 
BRANCH  11  12
ATOM     12  C   UNL     1      52.878  16.724   2.213  1.00  0.00    -0.003 C 
ATOM     13  C   UNL     1      51.704  17.615   1.817  1.00  0.00     0.004 C 
ENDBRANCH  11  12
ENDBRANCH  10  11
ENDBRANCH   9  10
ENDBRANCH   8   9
ENDBRANCH   1   8
TORSDOF 9
ENDMDL
MODEL 5
REMARK VINA RESULT:    -4.711      2.915      4.912
REMARK INTER + INTRA:          -8.582
REMARK INTER:                  -7.557
REMARK INTRA:                  -1.024
REMARK UNBOUND:                -1.392
REMARK SMILES CCCCCCCCCCC(=O)[O-]
REMARK SMILES IDX 7 1 8 2 9 3 10 4 11 5 12 6 13 7 6 8 5 9 4 10 3 11 2 12 1 13
REMARK H PARENT
REMARK Flexibility Score: inf
ROOT
ATOM      1  C   UNL     1      54.634  17.034   2.242  1.00  0.00     0.000 C 
ENDROOT
BRANCH   1   2
ATOM      2  C   UNL     1      55.433  17.766   1.150  1.00  0.00     0.000 C 
BRANCH   2   3
ATOM      3  C   UNL     1      56.889  17.279   1.057  1.00  0.00     0.006 C 
BRANCH   3   4
ATOM      4  C   UNL     1      57.025  15.962   0.284  1.00  0.00     0.053 C 
BRANCH   4   5
ATOM      5  C   UNL     1      58.465  15.566   0.177  1.00  0.00     0.041 C 
ATOM      6  O   UNL     1      58.794  14.549  -0.489  1.00  0.00    -0.550 OA
ATOM      7  O   UNL     1      59.447  16.348   0.772  1.00  0.00    -0.550 OA
ENDBRANCH   4   5
ENDBRANCH   3   4
ENDBRANCH   2   3
ENDBRANCH   1   2
BRANCH   1   8
ATOM      8  C   UNL     1      53.168  16.801   1.842  1.00  0.00     0.000 C 
BRANCH   8   9
ATOM      9  C   UNL     1      52.834  15.308   1.670  1.00  0.00    -0.000 C 
BRANCH   9  10
ATOM     10  C   UNL     1      53.748  14.604   0.649  1.00  0.00    -0.000 C 
BRANCH  10  11
ATOM     11  C   UNL     1      53.188  14.526  -0.783  1.00  0.00    -0.000 C 
BRANCH  11  12
ATOM     12  C   UNL     1      53.676  15.672  -1.680  1.00  0.00    -0.003 C 
ATOM     13  C   UNL     1      52.588  16.728  -1.863  1.00  0.00     0.004 C 
ENDBRANCH  11  12
ENDBRANCH  10  11
ENDBRANCH   9  10
ENDBRANCH   8   9
ENDBRANCH   1   8
TORSDOF 9
ENDMDL
MODEL 6
REMARK VINA RESULT:    -4.703      1.791      3.169
REMARK INTER + INTRA:          -8.570
REMARK INTER:                  -7.485
REMARK INTRA:                  -1.085
REMARK UNBOUND:                -1.392
REMARK SMILES CCCCCCCCCCC(=O)[O-]
REMARK SMILES IDX 7 1 8 2 9 3 10 4 11 5 12 6 13 7 6 8 5 9 4 10 3 11 2 12 1 13
REMARK H PARENT
REMARK Flexibility Score: inf
ROOT
ATOM      1  C   UNL     1      53.547  15.170   1.604  1.00  0.00     0.000 C 
ENDROOT
BRANCH   1   2
ATOM      2  C   UNL     1      54.203  16.485   2.058  1.00  0.00     0.000 C 
BRANCH   2   3
ATOM      3  C   UNL     1      53.183  17.491   2.618  1.00  0.00     0.006 C 
BRANCH   3   4
ATOM      4  C   UNL     1      51.842  17.449   1.876  1.00  0.00     0.053 C 
BRANCH   4   5
ATOM      5  C   UNL     1      50.941  18.541   2.364  1.00  0.00     0.041 C 
ATOM      6  O   UNL     1      50.669  18.637   3.590  1.00  0.00    -0.550 OA
ATOM      7  O   UNL     1      50.444  19.482   1.472  1.00  0.00    -0.550 OA
ENDBRANCH   4   5
ENDBRANCH   3   4
ENDBRANCH   2   3
ENDBRANCH   1   2
BRANCH   1   8
ATOM      8  C   UNL     1      54.560  14.187   0.994  1.00  0.00     0.000 C 
BRANCH   8   9
ATOM      9  C   UNL     1      54.197  13.784  -0.446  1.00  0.00    -0.000 C 
BRANCH   9  10
ATOM     10  C   UNL     1      53.060  14.637  -1.038  1.00  0.00    -0.000 C 
BRANCH  10  11
ATOM     11  C   UNL     1      53.512  15.752  -1.999  1.00  0.00    -0.000 C 
BRANCH  11  12
ATOM     12  C   UNL     1      53.087  17.152  -1.533  1.00  0.00    -0.003 C 
ATOM     13  C   UNL     1      54.300  17.996  -1.151  1.00  0.00     0.004 C 
ENDBRANCH  11  12
ENDBRANCH  10  11
ENDBRANCH   9  10
ENDBRANCH   8   9
ENDBRANCH   1   8
TORSDOF 9
ENDMDL
MODEL 7
REMARK VINA RESULT:    -4.661      1.644      3.333
REMARK INTER + INTRA:          -8.506
REMARK INTER:                  -7.492
REMARK INTRA:                  -1.014
REMARK UNBOUND:                -1.392
REMARK SMILES CCCCCCCCCCC(=O)[O-]
REMARK SMILES IDX 7 1 8 2 9 3 10 4 11 5 12 6 13 7 6 8 5 9 4 10 3 11 2 12 1 13
REMARK H PARENT
REMARK Flexibility Score: inf
ROOT
ATOM      1  C   UNL     1      55.174  17.740   1.466  1.00  0.00     0.000 C 
ENDROOT
BRANCH   1   2
ATOM      2  C   UNL     1      54.202  16.877   2.291  1.00  0.00     0.000 C 
BRANCH   2   3
ATOM      3  C   UNL     1      52.908  17.626   2.650  1.00  0.00     0.006 C 
BRANCH   3   4
ATOM      4  C   UNL     1      51.750  17.298   1.700  1.00  0.00     0.053 C 
BRANCH   4   5
ATOM      5  C   UNL     1      50.533  18.086   2.068  1.00  0.00     0.041 C 
ATOM      6  O   UNL     1      49.436  17.501   2.269  1.00  0.00    -0.550 OA
ATOM      7  O   UNL     1      50.621  19.462   2.239  1.00  0.00    -0.550 OA
ENDBRANCH   4   5
ENDBRANCH   3   4
ENDBRANCH   2   3
ENDBRANCH   1   2
BRANCH   1   8
ATOM      8  C   UNL     1      55.952  16.917   0.425  1.00  0.00     0.000 C 
BRANCH   8   9
ATOM      9  C   UNL     1      55.493  17.206  -1.016  1.00  0.00    -0.000 C 
BRANCH   9  10
ATOM     10  C   UNL     1      54.044  17.721  -1.091  1.00  0.00    -0.000 C 
BRANCH  10  11
ATOM     11  C   UNL     1      53.045  16.764  -1.768  1.00  0.00    -0.000 C 
BRANCH  11  12
ATOM     12  C   UNL     1      53.531  15.307  -1.786  1.00  0.00    -0.003 C 
ATOM     13  C   UNL     1      53.139  14.581  -0.502  1.00  0.00     0.004 C 
ENDBRANCH  11  12
ENDBRANCH  10  11
ENDBRANCH   9  10
ENDBRANCH   8   9
ENDBRANCH   1   8
TORSDOF 9
ENDMDL
MODEL 8
REMARK VINA RESULT:    -4.646      3.071      4.217
REMARK INTER + INTRA:          -8.483
REMARK INTER:                  -7.334
REMARK INTRA:                  -1.149
REMARK UNBOUND:                -1.392
REMARK SMILES CCCCCCCCCCC(=O)[O-]
REMARK SMILES IDX 7 1 8 2 9 3 10 4 11 5 12 6 13 7 6 8 5 9 4 10 3 11 2 12 1 13
REMARK H PARENT
REMARK Flexibility Score: inf
ROOT
ATOM      1  C   UNL     1      53.223  15.035   1.315  1.00  0.00     0.000 C 
ENDROOT
BRANCH   1   2
ATOM      2  C   UNL     1      53.238  14.634  -0.170  1.00  0.00     0.000 C 
BRANCH   2   3
ATOM      3  C   UNL     1      54.195  13.466  -0.456  1.00  0.00     0.006 C 
BRANCH   3   4
ATOM      4  C   UNL     1      55.472  13.524   0.391  1.00  0.00     0.053 C 
BRANCH   4   5
ATOM      5  C   UNL     1      56.456  12.498  -0.076  1.00  0.00     0.041 C 
ATOM      6  O   UNL     1      56.097  11.300  -0.229  1.00  0.00    -0.550 OA
ATOM      7  O   UNL     1      57.756  12.872  -0.390  1.00  0.00    -0.550 OA
ENDBRANCH   4   5
ENDBRANCH   3   4
ENDBRANCH   2   3
ENDBRANCH   1   2
BRANCH   1   8
ATOM      8  C   UNL     1      52.492  16.366   1.558  1.00  0.00     0.000 C 
BRANCH   8   9
ATOM      9  C   UNL     1      53.349  17.374   2.345  1.00  0.00    -0.000 C 
BRANCH   9  10
ATOM     10  C   UNL     1      54.849  17.027   2.328  1.00  0.00    -0.000 C 
BRANCH  10  11
ATOM     11  C   UNL     1      55.699  17.854   1.347  1.00  0.00    -0.000 C 
BRANCH  11  12
ATOM     12  C   UNL     1      55.938  17.137   0.011  1.00  0.00    -0.003 C 
ATOM     13  C   UNL     1      54.976  17.640  -1.063  1.00  0.00     0.004 C 
ENDBRANCH  11  12
ENDBRANCH  10  11
ENDBRANCH   9  10
ENDBRANCH   8   9
ENDBRANCH   1   8
TORSDOF 9
ENDMDL
MODEL 9
REMARK VINA RESULT:    -4.609      3.232      3.977
REMARK INTER + INTRA:          -8.425
REMARK INTER:                  -7.300
REMARK INTRA:                  -1.125
REMARK UNBOUND:                -1.392
REMARK SMILES CCCCCCCCCCC(=O)[O-]
REMARK SMILES IDX 7 1 8 2 9 3 10 4 11 5 12 6 13 7 6 8 5 9 4 10 3 11 2 12 1 13
REMARK H PARENT
REMARK Flexibility Score: inf
ROOT
ATOM      1  C   UNL     1      53.254  14.477  -0.561  1.00  0.00     0.000 C 
ENDROOT
BRANCH   1   2
ATOM      2  C   UNL     1      54.305  13.362  -0.419  1.00  0.00     0.000 C 
BRANCH   2   3
ATOM      3  C   UNL     1      55.343  13.665   0.674  1.00  0.00     0.006 C 
BRANCH   3   4
ATOM      4  C   UNL     1      56.781  13.382   0.221  1.00  0.00     0.053 C 
BRANCH   4   5
ATOM      5  C   UNL     1      57.091  11.924   0.348  1.00  0.00     0.041 C 
ATOM      6  O   UNL     1      56.992  11.350   1.465  1.00  0.00    -0.550 OA
ATOM      7  O   UNL     1      57.440  11.186  -0.776  1.00  0.00    -0.550 OA
ENDBRANCH   4   5
ENDBRANCH   3   4
ENDBRANCH   2   3
ENDBRANCH   1   2
BRANCH   1   8
ATOM      8  C   UNL     1      53.552  15.419  -1.738  1.00  0.00     0.000 C 
BRANCH   8   9
ATOM      9  C   UNL     1      53.092  16.863  -1.468  1.00  0.00    -0.000 C 
BRANCH   9  10
ATOM     10  C   UNL     1      54.190  17.733  -0.829  1.00  0.00    -0.000 C 
BRANCH  10  11
ATOM     11  C   UNL     1      55.605  17.126  -0.863  1.00  0.00    -0.000 C 
BRANCH  11  12
ATOM     12  C   UNL     1      56.291  17.132   0.511  1.00  0.00    -0.003 C 
ATOM     13  C   UNL     1      55.278  17.354   1.630  1.00  0.00     0.004 C 
ENDBRANCH  11  12
ENDBRANCH  10  11
ENDBRANCH   9  10
ENDBRANCH   8   9
ENDBRANCH   1   8
TORSDOF 9
ENDMDL
