MODEL 1
REMARK VINA RESULT:    -5.291      0.000      0.000
REMARK INTER + INTRA:         -11.443
REMARK INTER:                  -9.158
REMARK INTRA:                  -2.285
REMARK UNBOUND:                -2.285
REMARK SMILES OC[C@H]1O[C@@H](O[C@@H]2[C@@H](O)[C@H](O)[C@@H](O[C@H]3[C@@H](O)[C@H](O)[C@H](O)O[C@@H]3CO)O[C@@H]2CO)[C@@H](O)[C@@H](O)[C@@H]1O
REMARK SMILES IDX 7 1 26 2 25 3 12 4 10 5 8 6 6 7 5 8 3 9 33 10 4 11 31 12
REMARK SMILES IDX 29 13 2 14 1 15 34 17 32 19 30 21 27 23 28 24 9 26 11 28
REMARK SMILES IDX 13 30 14 31 22 32 15 33 21 34 17 35 19 36 23 37 24 38 16 40
REMARK SMILES IDX 18 42 20 44
REMARK H PARENT 1 16 34 18 32 20 30 22 28 25 9 27 11 29 24 39 16 41 18 43
REMARK H PARENT 20 45
REMARK Flexibility Score: inf
ROOT
ATOM      1  C   UNL     1      39.837  -5.553  28.198  1.00  0.00     0.184 C 
ATOM      2  C   UNL     1      40.703  -5.318  26.901  1.00  0.00     0.178 C 
ATOM      3  O   UNL     1      40.926  -6.521  26.183  1.00  0.00    -0.341 OA
ATOM      4  C   UNL     1      39.712  -7.118  25.784  1.00  0.00     0.282 C 
ATOM      5  C   UNL     1      39.015  -7.733  27.022  1.00  0.00     0.202 C 
ATOM      6  C   UNL     1      39.464  -7.061  28.367  1.00  0.00     0.180 C 
ENDROOT
BRANCH   1   7
ATOM      7  O   UNL     1      40.564  -5.069  29.320  1.00  0.00    -0.341 OA
BRANCH   7   8
ATOM      8  C   UNL     1      39.882  -4.135  30.138  1.00  0.00     0.282 C 
ATOM      9  C   UNL     1      38.955  -1.976  30.085  1.00  0.00     0.178 C 
ATOM     10  C   UNL     1      40.002  -1.396  31.076  1.00  0.00     0.177 C 
ATOM     11  O   UNL     1      39.572  -3.010  29.321  1.00  0.00    -0.341 OA
ATOM     12  C   UNL     1      40.384  -2.511  32.066  1.00  0.00     0.179 C 
ATOM     13  C   UNL     1      40.861  -3.746  31.283  1.00  0.00     0.202 C 
BRANCH   9  14
ATOM     14  C   UNL     1      38.427  -0.890  29.119  1.00  0.00     0.191 C 
BRANCH  14  15
ATOM     15  O   UNL     1      37.684  -1.475  28.086  1.00  0.00    -0.394 OA
ATOM     16  H   UNL     1      38.237  -2.202  27.706  1.00  0.00     0.210 HD
ENDBRANCH  14  15
ENDBRANCH   9  14
BRANCH  10  17
ATOM     17  O   UNL     1      39.565  -0.239  31.745  1.00  0.00    -0.387 OA
ATOM     18  H   UNL     1      38.638  -0.062  31.435  1.00  0.00     0.211 HD
ENDBRANCH  10  17
BRANCH  12  19
ATOM     19  O   UNL     1      41.406  -2.101  32.941  1.00  0.00    -0.387 OA
ATOM     20  H   UNL     1      41.084  -2.278  33.865  1.00  0.00     0.211 HD
ENDBRANCH  12  19
BRANCH  13  21
ATOM     21  O   UNL     1      42.137  -3.491  30.746  1.00  0.00    -0.385 OA
ATOM     22  H   UNL     1      41.997  -3.201  29.802  1.00  0.00     0.211 HD
ENDBRANCH  13  21
ENDBRANCH   7   8
ENDBRANCH   1   7
BRANCH   2  23
ATOM     23  C   UNL     1      42.084  -4.681  27.182  1.00  0.00     0.191 C 
BRANCH  23  24
ATOM     24  O   UNL     1      41.937  -3.343  27.583  1.00  0.00    -0.394 OA
ATOM     25  H   UNL     1      40.969  -3.139  27.534  1.00  0.00     0.210 HD
ENDBRANCH  23  24
ENDBRANCH   2  23
BRANCH   6  26
ATOM     26  O   UNL     1      38.406  -7.190  29.285  1.00  0.00    -0.387 OA
ATOM     27  H   UNL     1      37.999  -8.086  29.151  1.00  0.00     0.211 HD
ENDBRANCH   6  26
BRANCH   5  28
ATOM     28  O   UNL     1      39.261  -9.125  27.022  1.00  0.00    -0.385 OA
ATOM     29  H   UNL     1      40.103  -9.328  27.507  1.00  0.00     0.211 HD
ENDBRANCH   5  28
BRANCH   4  30
ATOM     30  O   UNL     1      38.845  -6.180  25.145  1.00  0.00    -0.341 OA
BRANCH  30  31
ATOM     31  C   UNL     1      38.298  -6.649  23.911  1.00  0.00     0.184 C 
ATOM     32  C   UNL     1      39.350  -6.572  22.762  1.00  0.00     0.178 C 
ATOM     33  C   UNL     1      37.089  -5.759  23.583  1.00  0.00     0.180 C 
ATOM     34  O   UNL     1      39.748  -5.242  22.448  1.00  0.00    -0.342 OA
ATOM     35  C   UNL     1      37.589  -4.339  23.257  1.00  0.00     0.201 C 
ATOM     36  C   UNL     1      38.675  -4.355  22.154  1.00  0.00     0.279 C 
BRANCH  32  37
ATOM     37  C   UNL     1      39.058  -7.452  21.528  1.00  0.00     0.191 C 
BRANCH  37  38
ATOM     38  O   UNL     1      39.838  -7.107  20.420  1.00  0.00    -0.394 OA
ATOM     39  H   UNL     1      40.163  -7.959  20.028  1.00  0.00     0.210 HD
ENDBRANCH  37  38
ENDBRANCH  32  37
BRANCH  33  40
ATOM     40  O   UNL     1      36.227  -5.705  24.697  1.00  0.00    -0.387 OA
ATOM     41  H   UNL     1      35.418  -6.226  24.463  1.00  0.00     0.211 HD
ENDBRANCH  33  40
BRANCH  35  42
ATOM     42  O   UNL     1      36.526  -3.486  22.908  1.00  0.00    -0.385 OA
ATOM     43  H   UNL     1      36.526  -2.716  23.535  1.00  0.00     0.211 HD
ENDBRANCH  35  42
BRANCH  36  44
ATOM     44  O   UNL     1      38.128  -4.625  20.895  1.00  0.00    -0.366 OA
ATOM     45  H   UNL     1      38.615  -5.415  20.547  1.00  0.00     0.213 HD
ENDBRANCH  36  44
ENDBRANCH  30  31
ENDBRANCH   4  30
TORSDOF 18
ENDMDL
MODEL 2
REMARK VINA RESULT:    -5.185      9.534     14.163
REMARK INTER + INTRA:         -11.259
REMARK INTER:                  -9.452
REMARK INTRA:                  -1.807
REMARK UNBOUND:                -2.285
REMARK SMILES OC[C@H]1O[C@@H](O[C@@H]2[C@@H](O)[C@H](O)[C@@H](O[C@H]3[C@@H](O)[C@H](O)[C@H](O)O[C@@H]3CO)O[C@@H]2CO)[C@@H](O)[C@@H](O)[C@@H]1O
REMARK SMILES IDX 7 1 26 2 25 3 12 4 10 5 8 6 6 7 5 8 3 9 33 10 4 11 31 12
REMARK SMILES IDX 29 13 2 14 1 15 34 17 32 19 30 21 27 23 28 24 9 26 11 28
REMARK SMILES IDX 13 30 14 31 22 32 15 33 21 34 17 35 19 36 23 37 24 38 16 40
REMARK SMILES IDX 18 42 20 44
REMARK H PARENT 1 16 34 18 32 20 30 22 28 25 9 27 11 29 24 39 16 41 18 43
REMARK H PARENT 20 45
REMARK Flexibility Score: inf
ROOT
ATOM      1  C   UNL     1      34.253   0.805  35.588  1.00  0.00     0.184 C 
ATOM      2  C   UNL     1      35.627   0.478  34.885  1.00  0.00     0.178 C 
ATOM      3  O   UNL     1      36.332   1.653  34.518  1.00  0.00    -0.341 OA
ATOM      4  C   UNL     1      36.606   2.464  35.638  1.00  0.00     0.282 C 
ATOM      5  C   UNL     1      35.297   3.138  36.114  1.00  0.00     0.202 C 
ATOM      6  C   UNL     1      34.014   2.346  35.679  1.00  0.00     0.180 C 
ENDROOT
BRANCH   1   7
ATOM      7  O   UNL     1      33.212   0.159  34.864  1.00  0.00    -0.341 OA
BRANCH   7   8
ATOM      8  C   UNL     1      32.160  -0.377  35.648  1.00  0.00     0.282 C 
ATOM      9  C   UNL     1      31.433  -0.555  37.875  1.00  0.00     0.178 C 
ATOM     10  C   UNL     1      31.646  -2.093  37.924  1.00  0.00     0.177 C 
ATOM     11  O   UNL     1      32.402   0.013  36.996  1.00  0.00    -0.341 OA
ATOM     12  C   UNL     1      31.355  -2.655  36.521  1.00  0.00     0.179 C 
ATOM     13  C   UNL     1      32.227  -1.922  35.488  1.00  0.00     0.202 C 
BRANCH   9  14
ATOM     14  C   UNL     1      31.594   0.084  39.275  1.00  0.00     0.191 C 
BRANCH  14  15
ATOM     15  O   UNL     1      32.226   1.330  39.173  1.00  0.00    -0.394 OA
ATOM     16  H   UNL     1      33.153   1.213  39.497  1.00  0.00     0.210 HD
ENDBRANCH  14  15
ENDBRANCH   9  14
BRANCH  10  17
ATOM     17  O   UNL     1      30.876  -2.738  38.909  1.00  0.00    -0.387 OA
ATOM     18  H   UNL     1      31.132  -2.336  39.781  1.00  0.00     0.211 HD
ENDBRANCH  10  17
BRANCH  12  19
ATOM     19  O   UNL     1      31.622  -4.035  36.449  1.00  0.00    -0.387 OA
ATOM     20  H   UNL     1      30.967  -4.488  37.045  1.00  0.00     0.211 HD
ENDBRANCH  12  19
BRANCH  13  21
ATOM     21  O   UNL     1      33.561  -2.352  35.618  1.00  0.00    -0.385 OA
ATOM     22  H   UNL     1      33.886  -2.014  36.498  1.00  0.00     0.211 HD
ENDBRANCH  13  21
ENDBRANCH   7   8
ENDBRANCH   1   7
BRANCH   2  23
ATOM     23  C   UNL     1      35.485  -0.396  33.616  1.00  0.00     0.191 C 
BRANCH  23  24
ATOM     24  O   UNL     1      36.622  -0.271  32.802  1.00  0.00    -0.394 OA
ATOM     25  H   UNL     1      36.790  -1.168  32.415  1.00  0.00     0.210 HD
ENDBRANCH  23  24
ENDBRANCH   2  23
BRANCH   6  26
ATOM     26  O   UNL     1      33.003   2.616  36.619  1.00  0.00    -0.387 OA
ATOM     27  H   UNL     1      32.935   3.603  36.713  1.00  0.00     0.211 HD
ENDBRANCH   6  26
BRANCH   5  28
ATOM     28  O   UNL     1      35.283   4.466  35.632  1.00  0.00    -0.385 OA
ATOM     29  H   UNL     1      35.237   5.109  36.389  1.00  0.00     0.211 HD
ENDBRANCH   5  28
BRANCH   4  30
ATOM     30  O   UNL     1      37.190   1.713  36.704  1.00  0.00    -0.341 OA
BRANCH  30  31
ATOM     31  C   UNL     1      37.524   2.501  37.849  1.00  0.00     0.184 C 
ATOM     32  C   UNL     1      38.536   3.629  37.481  1.00  0.00     0.178 C 
ATOM     33  C   UNL     1      38.141   1.552  38.889  1.00  0.00     0.180 C 
ATOM     34  O   UNL     1      39.802   3.135  37.055  1.00  0.00    -0.342 OA
ATOM     35  C   UNL     1      39.501   1.055  38.364  1.00  0.00     0.201 C 
ATOM     36  C   UNL     1      40.424   2.232  37.962  1.00  0.00     0.279 C 
BRANCH  32  37
ATOM     37  C   UNL     1      38.620   4.803  38.479  1.00  0.00     0.191 C 
BRANCH  37  38
ATOM     38  O   UNL     1      39.682   5.671  38.207  1.00  0.00    -0.394 OA
ATOM     39  H   UNL     1      40.475   5.100  38.035  1.00  0.00     0.210 HD
ENDBRANCH  37  38
ENDBRANCH  32  37
BRANCH  33  40
ATOM     40  O   UNL     1      37.287   0.449  39.086  1.00  0.00    -0.387 OA
ATOM     41  H   UNL     1      37.805  -0.235  39.581  1.00  0.00     0.211 HD
ENDBRANCH  33  40
BRANCH  35  42
ATOM     42  O   UNL     1      40.135   0.212  39.295  1.00  0.00    -0.385 OA
ATOM     43  H   UNL     1      40.417   0.762  40.073  1.00  0.00     0.211 HD
ENDBRANCH  35  42
BRANCH  36  44
ATOM     44  O   UNL     1      40.919   2.905  39.083  1.00  0.00    -0.366 OA
ATOM     45  H   UNL     1      41.786   2.476  39.303  1.00  0.00     0.213 HD
ENDBRANCH  36  44
ENDBRANCH  30  31
ENDBRANCH   4  30
TORSDOF 18
ENDMDL
MODEL 3
REMARK VINA RESULT:    -4.925      9.402     14.026
REMARK INTER + INTRA:         -10.809
REMARK INTER:                  -9.006
REMARK INTRA:                  -1.803
REMARK UNBOUND:                -2.285
REMARK SMILES OC[C@H]1O[C@@H](O[C@@H]2[C@@H](O)[C@H](O)[C@@H](O[C@H]3[C@@H](O)[C@H](O)[C@H](O)O[C@@H]3CO)O[C@@H]2CO)[C@@H](O)[C@@H](O)[C@@H]1O
REMARK SMILES IDX 7 1 26 2 25 3 12 4 10 5 8 6 6 7 5 8 3 9 33 10 4 11 31 12
REMARK SMILES IDX 29 13 2 14 1 15 34 17 32 19 30 21 27 23 28 24 9 26 11 28
REMARK SMILES IDX 13 30 14 31 22 32 15 33 21 34 17 35 19 36 23 37 24 38 16 40
REMARK SMILES IDX 18 42 20 44
REMARK H PARENT 1 16 34 18 32 20 30 22 28 25 9 27 11 29 24 39 16 41 18 43
REMARK H PARENT 20 45
REMARK Flexibility Score: inf
ROOT
ATOM      1  C   UNL     1      34.860   1.295  35.480  1.00  0.00     0.184 C 
ATOM      2  C   UNL     1      36.075   0.924  34.547  1.00  0.00     0.178 C 
ATOM      3  O   UNL     1      36.594   2.058  33.870  1.00  0.00    -0.341 OA
ATOM      4  C   UNL     1      37.035   3.045  34.775  1.00  0.00     0.282 C 
ATOM      5  C   UNL     1      35.806   3.726  35.426  1.00  0.00     0.202 C 
ATOM      6  C   UNL     1      34.526   2.819  35.401  1.00  0.00     0.180 C 
ENDROOT
BRANCH   1   7
ATOM      7  O   UNL     1      33.743   0.498  35.103  1.00  0.00    -0.341 OA
BRANCH   7   8
ATOM      8  C   UNL     1      33.513  -0.653  35.896  1.00  0.00     0.282 C 
ATOM      9  C   UNL     1      32.094  -2.519  36.062  1.00  0.00     0.178 C 
ATOM     10  C   UNL     1      31.447  -2.031  37.388  1.00  0.00     0.177 C 
ATOM     11  O   UNL     1      32.453  -1.379  35.283  1.00  0.00    -0.341 OA
ATOM     12  C   UNL     1      32.521  -1.269  38.185  1.00  0.00     0.179 C 
ATOM     13  C   UNL     1      33.106  -0.148  37.310  1.00  0.00     0.202 C 
BRANCH   9  14
ATOM     14  C   UNL     1      31.116  -3.395  35.244  1.00  0.00     0.191 C 
BRANCH  14  15
ATOM     15  O   UNL     1      30.875  -4.605  35.907  1.00  0.00    -0.394 OA
ATOM     16  H   UNL     1      29.985  -4.531  36.332  1.00  0.00     0.210 HD
ENDBRANCH  14  15
ENDBRANCH   9  14
BRANCH  10  17
ATOM     17  O   UNL     1      30.875  -3.065  38.150  1.00  0.00    -0.387 OA
ATOM     18  H   UNL     1      30.975  -3.900  37.621  1.00  0.00     0.211 HD
ENDBRANCH  10  17
BRANCH  12  19
ATOM     19  O   UNL     1      31.993  -0.704  39.360  1.00  0.00    -0.387 OA
ATOM     20  H   UNL     1      32.611  -0.944  40.101  1.00  0.00     0.211 HD
ENDBRANCH  12  19
BRANCH  13  21
ATOM     21  O   UNL     1      32.158   0.886  37.185  1.00  0.00    -0.385 OA
ATOM     22  H   UNL     1      31.428   0.536  36.603  1.00  0.00     0.211 HD
ENDBRANCH  13  21
ENDBRANCH   7   8
ENDBRANCH   1   7
BRANCH   2  23
ATOM     23  C   UNL     1      35.738  -0.143  33.479  1.00  0.00     0.191 C 
BRANCH  23  24
ATOM     24  O   UNL     1      36.775  -0.243  32.537  1.00  0.00    -0.394 OA
ATOM     25  H   UNL     1      37.475  -0.812  32.949  1.00  0.00     0.210 HD
ENDBRANCH  23  24
ENDBRANCH   2  23
BRANCH   6  26
ATOM     26  O   UNL     1      33.717   3.187  36.491  1.00  0.00    -0.387 OA
ATOM     27  H   UNL     1      34.040   2.688  37.287  1.00  0.00     0.211 HD
ENDBRANCH   6  26
BRANCH   5  28
ATOM     28  O   UNL     1      35.589   4.961  34.774  1.00  0.00    -0.385 OA
ATOM     29  H   UNL     1      35.781   5.716  35.390  1.00  0.00     0.211 HD
ENDBRANCH   5  28
BRANCH   4  30
ATOM     30  O   UNL     1      37.886   2.497  35.782  1.00  0.00    -0.341 OA
BRANCH  30  31
ATOM     31  C   UNL     1      37.838   3.202  37.024  1.00  0.00     0.184 C 
ATOM     32  C   UNL     1      39.051   4.172  37.170  1.00  0.00     0.178 C 
ATOM     33  C   UNL     1      37.862   2.150  38.145  1.00  0.00     0.180 C 
ATOM     34  O   UNL     1      40.305   3.502  37.233  1.00  0.00    -0.342 OA
ATOM     35  C   UNL     1      39.241   1.465  38.155  1.00  0.00     0.201 C 
ATOM     36  C   UNL     1      40.392   2.497  38.237  1.00  0.00     0.279 C 
BRANCH  32  37
ATOM     37  C   UNL     1      38.884   5.299  38.209  1.00  0.00     0.191 C 
BRANCH  37  38
ATOM     38  O   UNL     1      40.088   5.946  38.506  1.00  0.00    -0.394 OA
ATOM     39  H   UNL     1      40.592   5.341  39.110  1.00  0.00     0.210 HD
ENDBRANCH  37  38
ENDBRANCH  32  37
BRANCH  33  40
ATOM     40  O   UNL     1      36.864   1.185  37.907  1.00  0.00    -0.387 OA
ATOM     41  H   UNL     1      37.121   0.371  38.408  1.00  0.00     0.211 HD
ENDBRANCH  33  40
BRANCH  35  42
ATOM     42  O   UNL     1      39.337   0.517  39.190  1.00  0.00    -0.385 OA
ATOM     43  H   UNL     1      40.024  -0.154  38.936  1.00  0.00     0.211 HD
ENDBRANCH  35  42
BRANCH  36  44
ATOM     44  O   UNL     1      40.486   3.065  39.512  1.00  0.00    -0.366 OA
ATOM     45  H   UNL     1      39.555   3.235  39.807  1.00  0.00     0.213 HD
ENDBRANCH  36  44
ENDBRANCH  30  31
ENDBRANCH   4  30
TORSDOF 18
ENDMDL
MODEL 4
REMARK VINA RESULT:    -4.883      7.547     10.580
REMARK INTER + INTRA:         -10.737
REMARK INTER:                  -8.603
REMARK INTRA:                  -2.134
REMARK UNBOUND:                -2.285
REMARK SMILES OC[C@H]1O[C@@H](O[C@@H]2[C@@H](O)[C@H](O)[C@@H](O[C@H]3[C@@H](O)[C@H](O)[C@H](O)O[C@@H]3CO)O[C@@H]2CO)[C@@H](O)[C@@H](O)[C@@H]1O
REMARK SMILES IDX 7 1 26 2 25 3 12 4 10 5 8 6 6 7 5 8 3 9 33 10 4 11 31 12
REMARK SMILES IDX 29 13 2 14 1 15 34 17 32 19 30 21 27 23 28 24 9 26 11 28
REMARK SMILES IDX 13 30 14 31 22 32 15 33 21 34 17 35 19 36 23 37 24 38 16 40
REMARK SMILES IDX 18 42 20 44
REMARK H PARENT 1 16 34 18 32 20 30 22 28 25 9 27 11 29 24 39 16 41 18 43
REMARK H PARENT 20 45
REMARK Flexibility Score: inf
ROOT
ATOM      1  C   UNL     1      47.799   1.154  29.710  1.00  0.00     0.184 C 
ATOM      2  C   UNL     1      46.271   1.020  29.344  1.00  0.00     0.178 C 
ATOM      3  O   UNL     1      46.050   1.089  27.945  1.00  0.00    -0.341 OA
ATOM      4  C   UNL     1      46.746   0.073  27.258  1.00  0.00     0.282 C 
ATOM      5  C   UNL     1      48.258   0.403  27.253  1.00  0.00     0.202 C 
ATOM      6  C   UNL     1      48.675   1.352  28.432  1.00  0.00     0.180 C 
ENDROOT
BRANCH   1   7
ATOM      7  O   UNL     1      47.951   2.240  30.617  1.00  0.00    -0.341 OA
BRANCH   7   8
ATOM      8  C   UNL     1      48.940   2.071  31.617  1.00  0.00     0.282 C 
ATOM      9  C   UNL     1      49.999   0.407  32.894  1.00  0.00     0.178 C 
ATOM     10  C   UNL     1      49.377   0.899  34.230  1.00  0.00     0.177 C 
ATOM     11  O   UNL     1      49.079   0.672  31.837  1.00  0.00    -0.341 OA
ATOM     12  C   UNL     1      49.225   2.428  34.146  1.00  0.00     0.179 C 
ATOM     13  C   UNL     1      48.414   2.792  32.891  1.00  0.00     0.202 C 
BRANCH   9  14
ATOM     14  C   UNL     1      50.294  -1.111  32.932  1.00  0.00     0.191 C 
BRANCH  14  15
ATOM     15  O   UNL     1      49.435  -1.752  33.834  1.00  0.00    -0.394 OA
ATOM     16  H   UNL     1      49.270  -2.661  33.482  1.00  0.00     0.210 HD
ENDBRANCH  14  15
ENDBRANCH   9  14
BRANCH  10  17
ATOM     17  O   UNL     1      50.108   0.514  35.368  1.00  0.00    -0.387 OA
ATOM     18  H   UNL     1      51.026   0.877  35.256  1.00  0.00     0.211 HD
ENDBRANCH  10  17
BRANCH  12  19
ATOM     19  O   UNL     1      48.574   2.949  35.279  1.00  0.00    -0.387 OA
ATOM     20  H   UNL     1      47.613   2.707  35.198  1.00  0.00     0.211 HD
ENDBRANCH  12  19
BRANCH  13  21
ATOM     21  O   UNL     1      47.063   2.454  33.099  1.00  0.00    -0.385 OA
ATOM     22  H   UNL     1      46.681   3.156  33.694  1.00  0.00     0.211 HD
ENDBRANCH  13  21
ENDBRANCH   7   8
ENDBRANCH   1   7
BRANCH   2  23
ATOM     23  C   UNL     1      45.374   2.088  30.012  1.00  0.00     0.191 C 
BRANCH  23  24
ATOM     24  O   UNL     1      45.234   3.207  29.174  1.00  0.00    -0.394 OA
ATOM     25  H   UNL     1      44.303   3.527  29.288  1.00  0.00     0.210 HD
ENDBRANCH  23  24
ENDBRANCH   2  23
BRANCH   6  26
ATOM     26  O   UNL     1      50.025   1.093  28.734  1.00  0.00    -0.387 OA
ATOM     27  H   UNL     1      50.230   1.541  29.596  1.00  0.00     0.211 HD
ENDBRANCH   6  26
BRANCH   5  28
ATOM     28  O   UNL     1      48.586   0.953  25.994  1.00  0.00    -0.385 OA
ATOM     29  H   UNL     1      48.403   0.297  25.271  1.00  0.00     0.211 HD
ENDBRANCH   5  28
BRANCH   4  30
ATOM     30  O   UNL     1      46.523  -1.210  27.846  1.00  0.00    -0.341 OA
BRANCH  30  31
ATOM     31  C   UNL     1      47.439  -2.214  27.404  1.00  0.00     0.184 C 
ATOM     32  C   UNL     1      47.166  -2.613  25.921  1.00  0.00     0.178 C 
ATOM     33  C   UNL     1      47.257  -3.432  28.324  1.00  0.00     0.180 C 
ATOM     34  O   UNL     1      45.899  -3.232  25.727  1.00  0.00    -0.342 OA
ATOM     35  C   UNL     1      45.870  -4.048  28.065  1.00  0.00     0.201 C 
ATOM     36  C   UNL     1      45.653  -4.357  26.563  1.00  0.00     0.279 C 
BRANCH  32  37
ATOM     37  C   UNL     1      48.330  -3.316  25.193  1.00  0.00     0.191 C 
BRANCH  37  38
ATOM     38  O   UNL     1      47.945  -3.881  23.973  1.00  0.00    -0.394 OA
ATOM     39  H   UNL     1      48.258  -4.823  23.988  1.00  0.00     0.210 HD
ENDBRANCH  37  38
ENDBRANCH  32  37
BRANCH  33  40
ATOM     40  O   UNL     1      47.341  -3.023  29.669  1.00  0.00    -0.387 OA
ATOM     41  H   UNL     1      46.476  -3.247  30.096  1.00  0.00     0.211 HD
ENDBRANCH  33  40
BRANCH  35  42
ATOM     42  O   UNL     1      45.662  -5.196  28.851  1.00  0.00    -0.385 OA
ATOM     43  H   UNL     1      46.523  -5.685  28.923  1.00  0.00     0.211 HD
ENDBRANCH  35  42
BRANCH  36  44
ATOM     44  O   UNL     1      46.401  -5.465  26.150  1.00  0.00    -0.366 OA
ATOM     45  H   UNL     1      47.270  -5.108  25.833  1.00  0.00     0.213 HD
ENDBRANCH  36  44
ENDBRANCH  30  31
ENDBRANCH   4  30
TORSDOF 18
ENDMDL
MODEL 5
REMARK VINA RESULT:    -4.839      1.855      4.138
REMARK INTER + INTRA:         -10.660
REMARK INTER:                  -8.203
REMARK INTRA:                  -2.458
REMARK UNBOUND:                -2.285
REMARK SMILES OC[C@H]1O[C@@H](O[C@@H]2[C@@H](O)[C@H](O)[C@@H](O[C@H]3[C@@H](O)[C@H](O)[C@H](O)O[C@@H]3CO)O[C@@H]2CO)[C@@H](O)[C@@H](O)[C@@H]1O
REMARK SMILES IDX 7 1 26 2 25 3 12 4 10 5 8 6 6 7 5 8 3 9 33 10 4 11 31 12
REMARK SMILES IDX 29 13 2 14 1 15 34 17 32 19 30 21 27 23 28 24 9 26 11 28
REMARK SMILES IDX 13 30 14 31 22 32 15 33 21 34 17 35 19 36 23 37 24 38 16 40
REMARK SMILES IDX 18 42 20 44
REMARK H PARENT 1 16 34 18 32 20 30 22 28 25 9 27 11 29 24 39 16 41 18 43
REMARK H PARENT 20 45
REMARK Flexibility Score: inf
ROOT
ATOM      1  C   UNL     1      39.052  -5.395  26.379  1.00  0.00     0.184 C 
ATOM      2  C   UNL     1      38.807  -6.952  26.363  1.00  0.00     0.178 C 
ATOM      3  O   UNL     1      37.620  -7.298  25.667  1.00  0.00    -0.341 OA
ATOM      4  C   UNL     1      37.657  -6.856  24.328  1.00  0.00     0.282 C 
ATOM      5  C   UNL     1      37.486  -5.318  24.293  1.00  0.00     0.202 C 
ATOM      6  C   UNL     1      37.908  -4.631  25.639  1.00  0.00     0.180 C 
ENDROOT
BRANCH   1   7
ATOM      7  O   UNL     1      39.169  -4.971  27.732  1.00  0.00    -0.341 OA
BRANCH   7   8
ATOM      8  C   UNL     1      40.282  -4.144  28.023  1.00  0.00     0.282 C 
ATOM      9  C   UNL     1      42.631  -4.139  27.979  1.00  0.00     0.178 C 
ATOM     10  C   UNL     1      42.758  -4.082  29.527  1.00  0.00     0.177 C 
ATOM     11  O   UNL     1      41.450  -4.864  27.644  1.00  0.00    -0.341 OA
ATOM     12  C   UNL     1      41.569  -3.268  30.068  1.00  0.00     0.179 C 
ATOM     13  C   UNL     1      40.255  -3.883  29.556  1.00  0.00     0.202 C 
BRANCH   9  14
ATOM     14  C   UNL     1      43.849  -4.845  27.338  1.00  0.00     0.191 C 
BRANCH  14  15
ATOM     15  O   UNL     1      44.984  -4.026  27.415  1.00  0.00    -0.394 OA
ATOM     16  H   UNL     1      45.747  -4.554  27.073  1.00  0.00     0.210 HD
ENDBRANCH  14  15
ENDBRANCH   9  14
BRANCH  10  17
ATOM     17  O   UNL     1      43.986  -3.562  29.973  1.00  0.00    -0.387 OA
ATOM     18  H   UNL     1      44.612  -4.329  30.046  1.00  0.00     0.211 HD
ENDBRANCH  10  17
BRANCH  12  19
ATOM     19  O   UNL     1      41.549  -3.249  31.474  1.00  0.00    -0.387 OA
ATOM     20  H   UNL     1      41.354  -2.313  31.749  1.00  0.00     0.211 HD
ENDBRANCH  12  19
BRANCH  13  21
ATOM     21  O   UNL     1      40.013  -5.091  30.236  1.00  0.00    -0.385 OA
ATOM     22  H   UNL     1      39.149  -5.447  29.887  1.00  0.00     0.211 HD
ENDBRANCH  13  21
ENDBRANCH   7   8
ENDBRANCH   1   7
BRANCH   2  23
ATOM     23  C   UNL     1      38.722  -7.584  27.772  1.00  0.00     0.191 C 
BRANCH  23  24
ATOM     24  O   UNL     1      39.973  -7.540  28.408  1.00  0.00    -0.394 OA
ATOM     25  H   UNL     1      40.156  -8.459  28.732  1.00  0.00     0.210 HD
ENDBRANCH  23  24
ENDBRANCH   2  23
BRANCH   6  26
ATOM     26  O   UNL     1      38.325  -3.321  25.340  1.00  0.00    -0.387 OA
ATOM     27  H   UNL     1      38.915  -3.017  26.079  1.00  0.00     0.211 HD
ENDBRANCH   6  26
BRANCH   5  28
ATOM     28  O   UNL     1      36.145  -5.030  23.953  1.00  0.00    -0.385 OA
ATOM     29  H   UNL     1      35.965  -5.283  23.010  1.00  0.00     0.211 HD
ENDBRANCH   5  28
BRANCH   4  30
ATOM     30  O   UNL     1      38.873  -7.233  23.680  1.00  0.00    -0.341 OA
BRANCH  30  31
ATOM     31  C   UNL     1      39.185  -6.438  22.534  1.00  0.00     0.184 C 
ATOM     32  C   UNL     1      38.792  -7.170  21.215  1.00  0.00     0.178 C 
ATOM     33  C   UNL     1      40.699  -6.175  22.564  1.00  0.00     0.180 C 
ATOM     34  O   UNL     1      39.535  -8.362  20.987  1.00  0.00    -0.342 OA
ATOM     35  C   UNL     1      41.440  -7.501  22.314  1.00  0.00     0.201 C 
ATOM     36  C   UNL     1      40.948  -8.197  21.021  1.00  0.00     0.279 C 
BRANCH  32  37
ATOM     37  C   UNL     1      38.643  -6.271  19.970  1.00  0.00     0.191 C 
BRANCH  37  38
ATOM     38  O   UNL     1      38.343  -4.944  20.292  1.00  0.00    -0.394 OA
ATOM     39  H   UNL     1      38.934  -4.697  21.049  1.00  0.00     0.210 HD
ENDBRANCH  37  38
ENDBRANCH  32  37
BRANCH  33  40
ATOM     40  O   UNL     1      41.065  -5.667  23.826  1.00  0.00    -0.387 OA
ATOM     41  H   UNL     1      42.050  -5.745  23.896  1.00  0.00     0.211 HD
ENDBRANCH  33  40
BRANCH  35  42
ATOM     42  O   UNL     1      42.834  -7.316  22.289  1.00  0.00    -0.385 OA
ATOM     43  H   UNL     1      43.141  -7.126  23.215  1.00  0.00     0.211 HD
ENDBRANCH  35  42
BRANCH  36  44
ATOM     44  O   UNL     1      41.406  -7.539  19.875  1.00  0.00    -0.366 OA
ATOM     45  H   UNL     1      42.138  -6.941  20.174  1.00  0.00     0.213 HD
ENDBRANCH  36  44
ENDBRANCH  30  31
ENDBRANCH   4  30
TORSDOF 18
ENDMDL
MODEL 6
REMARK VINA RESULT:    -4.837      2.887      3.737
REMARK INTER + INTRA:         -10.657
REMARK INTER:                  -8.191
REMARK INTRA:                  -2.466
REMARK UNBOUND:                -2.285
REMARK SMILES OC[C@H]1O[C@@H](O[C@@H]2[C@@H](O)[C@H](O)[C@@H](O[C@H]3[C@@H](O)[C@H](O)[C@H](O)O[C@@H]3CO)O[C@@H]2CO)[C@@H](O)[C@@H](O)[C@@H]1O
REMARK SMILES IDX 7 1 26 2 25 3 12 4 10 5 8 6 6 7 5 8 3 9 33 10 4 11 31 12
REMARK SMILES IDX 29 13 2 14 1 15 34 17 32 19 30 21 27 23 28 24 9 26 11 28
REMARK SMILES IDX 13 30 14 31 22 32 15 33 21 34 17 35 19 36 23 37 24 38 16 40
REMARK SMILES IDX 18 42 20 44
REMARK H PARENT 1 16 34 18 32 20 30 22 28 25 9 27 11 29 24 39 16 41 18 43
REMARK H PARENT 20 45
REMARK Flexibility Score: inf
ROOT
ATOM      1  C   UNL     1      41.196  -6.313  27.433  1.00  0.00     0.184 C 
ATOM      2  C   UNL     1      41.162  -7.119  26.079  1.00  0.00     0.178 C 
ATOM      3  O   UNL     1      40.125  -8.088  26.060  1.00  0.00    -0.341 OA
ATOM      4  C   UNL     1      38.858  -7.495  26.236  1.00  0.00     0.282 C 
ATOM      5  C   UNL     1      38.706  -7.045  27.710  1.00  0.00     0.202 C 
ATOM      6  C   UNL     1      40.087  -6.806  28.417  1.00  0.00     0.180 C 
ENDROOT
BRANCH   1   7
ATOM      7  O   UNL     1      42.492  -6.445  28.004  1.00  0.00    -0.341 OA
BRANCH   7   8
ATOM      8  C   UNL     1      43.172  -5.231  28.272  1.00  0.00     0.282 C 
ATOM      9  C   UNL     1      43.755  -3.189  27.267  1.00  0.00     0.178 C 
ATOM     10  C   UNL     1      45.275  -3.513  27.263  1.00  0.00     0.177 C 
ATOM     11  O   UNL     1      43.028  -4.407  27.120  1.00  0.00    -0.341 OA
ATOM     12  C   UNL     1      45.579  -4.364  28.509  1.00  0.00     0.179 C 
ATOM     13  C   UNL     1      44.663  -5.599  28.519  1.00  0.00     0.202 C 
BRANCH   9  14
ATOM     14  C   UNL     1      43.377  -2.239  26.106  1.00  0.00     0.191 C 
BRANCH  14  15
ATOM     15  O   UNL     1      43.852  -0.945  26.360  1.00  0.00    -0.394 OA
ATOM     16  H   UNL     1      44.687  -1.040  26.881  1.00  0.00     0.210 HD
ENDBRANCH  14  15
ENDBRANCH   9  14
BRANCH  10  17
ATOM     17  O   UNL     1      46.095  -2.372  27.204  1.00  0.00    -0.387 OA
ATOM     18  H   UNL     1      46.320  -2.230  26.247  1.00  0.00     0.211 HD
ENDBRANCH  10  17
BRANCH  12  19
ATOM     19  O   UNL     1      46.920  -4.789  28.533  1.00  0.00    -0.387 OA
ATOM     20  H   UNL     1      46.936  -5.673  28.990  1.00  0.00     0.211 HD
ENDBRANCH  12  19
BRANCH  13  21
ATOM     21  O   UNL     1      45.093  -6.505  27.531  1.00  0.00    -0.385 OA
ATOM     22  H   UNL     1      45.262  -5.970  26.706  1.00  0.00     0.211 HD
ENDBRANCH  13  21
ENDBRANCH   7   8
ENDBRANCH   1   7
BRANCH   2  23
ATOM     23  C   UNL     1      42.487  -7.849  25.755  1.00  0.00     0.191 C 
BRANCH  23  24
ATOM     24  O   UNL     1      43.439  -6.944  25.257  1.00  0.00    -0.394 OA
ATOM     25  H   UNL     1      44.308  -7.204  25.656  1.00  0.00     0.210 HD
ENDBRANCH  23  24
ENDBRANCH   2  23
BRANCH   6  26
ATOM     26  O   UNL     1      39.890  -5.852  29.431  1.00  0.00    -0.387 OA
ATOM     27  H   UNL     1      40.759  -5.722  29.894  1.00  0.00     0.211 HD
ENDBRANCH   6  26
BRANCH   5  28
ATOM     28  O   UNL     1      37.928  -8.010  28.388  1.00  0.00    -0.385 OA
ATOM     29  H   UNL     1      37.051  -8.127  27.936  1.00  0.00     0.211 HD
ENDBRANCH   5  28
BRANCH   4  30
ATOM     30  O   UNL     1      38.668  -6.384  25.359  1.00  0.00    -0.341 OA
BRANCH  30  31
ATOM     31  C   UNL     1      38.241  -6.752  24.046  1.00  0.00     0.184 C 
ATOM     32  C   UNL     1      39.392  -6.579  23.009  1.00  0.00     0.178 C 
ATOM     33  C   UNL     1      37.057  -5.842  23.682  1.00  0.00     0.180 C 
ATOM     34  O   UNL     1      39.803  -5.226  22.842  1.00  0.00    -0.342 OA
ATOM     35  C   UNL     1      37.569  -4.399  23.519  1.00  0.00     0.201 C 
ATOM     36  C   UNL     1      38.752  -4.321  22.523  1.00  0.00     0.279 C 
BRANCH  32  37
ATOM     37  C   UNL     1      39.224  -7.355  21.687  1.00  0.00     0.191 C 
BRANCH  37  38
ATOM     38  O   UNL     1      40.089  -6.909  20.682  1.00  0.00    -0.394 OA
ATOM     39  H   UNL     1      40.188  -7.661  20.042  1.00  0.00     0.210 HD
ENDBRANCH  37  38
ENDBRANCH  32  37
BRANCH  33  40
ATOM     40  O   UNL     1      36.097  -5.882  24.712  1.00  0.00    -0.387 OA
ATOM     41  H   UNL     1      36.375  -6.594  25.341  1.00  0.00     0.211 HD
ENDBRANCH  33  40
BRANCH  35  42
ATOM     42  O   UNL     1      36.534  -3.524  23.144  1.00  0.00    -0.385 OA
ATOM     43  H   UNL     1      35.761  -3.678  23.748  1.00  0.00     0.211 HD
ENDBRANCH  35  42
BRANCH  36  44
ATOM     44  O   UNL     1      38.326  -4.490  21.201  1.00  0.00    -0.366 OA
ATOM     45  H   UNL     1      38.252  -5.468  21.058  1.00  0.00     0.213 HD
ENDBRANCH  36  44
ENDBRANCH  30  31
ENDBRANCH   4  30
TORSDOF 18
ENDMDL
MODEL 7
REMARK VINA RESULT:    -4.831      1.446      1.950
REMARK INTER + INTRA:         -10.647
REMARK INTER:                  -8.581
REMARK INTRA:                  -2.065
REMARK UNBOUND:                -2.285
REMARK SMILES OC[C@H]1O[C@@H](O[C@@H]2[C@@H](O)[C@H](O)[C@@H](O[C@H]3[C@@H](O)[C@H](O)[C@H](O)O[C@@H]3CO)O[C@@H]2CO)[C@@H](O)[C@@H](O)[C@@H]1O
REMARK SMILES IDX 7 1 26 2 25 3 12 4 10 5 8 6 6 7 5 8 3 9 33 10 4 11 31 12
REMARK SMILES IDX 29 13 2 14 1 15 34 17 32 19 30 21 27 23 28 24 9 26 11 28
REMARK SMILES IDX 13 30 14 31 22 32 15 33 21 34 17 35 19 36 23 37 24 38 16 40
REMARK SMILES IDX 18 42 20 44
REMARK H PARENT 1 16 34 18 32 20 30 22 28 25 9 27 11 29 24 39 16 41 18 43
REMARK H PARENT 20 45
REMARK Flexibility Score: inf
ROOT
ATOM      1  C   UNL     1      40.751  -5.922  27.616  1.00  0.00     0.184 C 
ATOM      2  C   UNL     1      41.054  -6.413  26.149  1.00  0.00     0.178 C 
ATOM      3  O   UNL     1      40.484  -7.685  25.883  1.00  0.00    -0.341 OA
ATOM      4  C   UNL     1      39.083  -7.670  26.049  1.00  0.00     0.282 C 
ATOM      5  C   UNL     1      38.748  -7.595  27.558  1.00  0.00     0.202 C 
ATOM      6  C   UNL     1      39.914  -6.977  28.408  1.00  0.00     0.180 C 
ENDROOT
BRANCH   1   7
ATOM      7  O   UNL     1      41.986  -5.647  28.264  1.00  0.00    -0.341 OA
BRANCH   7   8
ATOM      8  C   UNL     1      41.998  -4.509  29.108  1.00  0.00     0.282 C 
ATOM      9  C   UNL     1      40.583  -2.843  29.969  1.00  0.00     0.178 C 
ATOM     10  C   UNL     1      41.282  -1.702  29.178  1.00  0.00     0.177 C 
ATOM     11  O   UNL     1      40.656  -4.043  29.202  1.00  0.00    -0.341 OA
ATOM     12  C   UNL     1      42.774  -2.059  29.055  1.00  0.00     0.179 C 
ATOM     13  C   UNL     1      42.914  -3.455  28.423  1.00  0.00     0.202 C 
BRANCH   9  14
ATOM     14  C   UNL     1      39.095  -2.514  30.240  1.00  0.00     0.191 C 
BRANCH  14  15
ATOM     15  O   UNL     1      38.584  -1.696  29.224  1.00  0.00    -0.394 OA
ATOM     16  H   UNL     1      37.764  -1.271  29.578  1.00  0.00     0.210 HD
ENDBRANCH  14  15
ENDBRANCH   9  14
BRANCH  10  17
ATOM     17  O   UNL     1      41.100  -0.429  29.746  1.00  0.00    -0.387 OA
ATOM     18  H   UNL     1      40.199  -0.427  30.162  1.00  0.00     0.211 HD
ENDBRANCH  10  17
BRANCH  12  19
ATOM     19  O   UNL     1      43.468  -1.126  28.263  1.00  0.00    -0.387 OA
ATOM     20  H   UNL     1      43.787  -1.612  27.456  1.00  0.00     0.211 HD
ENDBRANCH  12  19
BRANCH  13  21
ATOM     21  O   UNL     1      42.599  -3.377  27.053  1.00  0.00    -0.385 OA
ATOM     22  H   UNL     1      42.142  -4.231  26.816  1.00  0.00     0.211 HD
ENDBRANCH  13  21
ENDBRANCH   7   8
ENDBRANCH   1   7
BRANCH   2  23
ATOM     23  C   UNL     1      42.563  -6.502  25.822  1.00  0.00     0.191 C 
BRANCH  23  24
ATOM     24  O   UNL     1      43.005  -5.317  25.211  1.00  0.00    -0.394 OA
ATOM     25  H   UNL     1      43.128  -5.526  24.249  1.00  0.00     0.210 HD
ENDBRANCH  23  24
ENDBRANCH   2  23
BRANCH   6  26
ATOM     26  O   UNL     1      39.345  -6.378  29.546  1.00  0.00    -0.387 OA
ATOM     27  H   UNL     1      39.943  -5.636  29.826  1.00  0.00     0.211 HD
ENDBRANCH   6  26
BRANCH   5  28
ATOM     28  O   UNL     1      38.405  -8.892  27.999  1.00  0.00    -0.385 OA
ATOM     29  H   UNL     1      39.100  -9.547  27.724  1.00  0.00     0.211 HD
ENDBRANCH   5  28
BRANCH   4  30
ATOM     30  O   UNL     1      38.481  -6.576  25.354  1.00  0.00    -0.341 OA
BRANCH  30  31
ATOM     31  C   UNL     1      38.144  -6.871  23.997  1.00  0.00     0.184 C 
ATOM     32  C   UNL     1      39.362  -6.641  23.051  1.00  0.00     0.178 C 
ATOM     33  C   UNL     1      36.985  -5.941  23.605  1.00  0.00     0.180 C 
ATOM     34  O   UNL     1      39.779  -5.282  22.987  1.00  0.00    -0.342 OA
ATOM     35  C   UNL     1      37.503  -4.492  23.558  1.00  0.00     0.201 C 
ATOM     36  C   UNL     1      38.750  -4.359  22.649  1.00  0.00     0.279 C 
BRANCH  32  37
ATOM     37  C   UNL     1      39.285  -7.342  21.679  1.00  0.00     0.191 C 
BRANCH  37  38
ATOM     38  O   UNL     1      40.214  -6.844  20.762  1.00  0.00    -0.394 OA
ATOM     39  H   UNL     1      40.898  -7.552  20.640  1.00  0.00     0.210 HD
ENDBRANCH  37  38
ENDBRANCH  32  37
BRANCH  33  40
ATOM     40  O   UNL     1      35.957  -6.037  24.565  1.00  0.00    -0.387 OA
ATOM     41  H   UNL     1      36.063  -6.912  25.017  1.00  0.00     0.211 HD
ENDBRANCH  33  40
BRANCH  35  42
ATOM     42  O   UNL     1      36.493  -3.596  23.163  1.00  0.00    -0.385 OA
ATOM     43  H   UNL     1      36.771  -2.678  23.423  1.00  0.00     0.211 HD
ENDBRANCH  35  42
BRANCH  36  44
ATOM     44  O   UNL     1      38.413  -4.454  21.295  1.00  0.00    -0.366 OA
ATOM     45  H   UNL     1      37.893  -3.637  21.082  1.00  0.00     0.213 HD
ENDBRANCH  36  44
ENDBRANCH  30  31
ENDBRANCH   4  30
TORSDOF 18
ENDMDL
MODEL 8
REMARK VINA RESULT:    -4.809      3.553      8.255
REMARK INTER + INTRA:         -10.608
REMARK INTER:                  -8.322
REMARK INTRA:                  -2.286
REMARK UNBOUND:                -2.285
REMARK SMILES OC[C@H]1O[C@@H](O[C@@H]2[C@@H](O)[C@H](O)[C@@H](O[C@H]3[C@@H](O)[C@H](O)[C@H](O)O[C@@H]3CO)O[C@@H]2CO)[C@@H](O)[C@@H](O)[C@@H]1O
REMARK SMILES IDX 7 1 26 2 25 3 12 4 10 5 8 6 6 7 5 8 3 9 33 10 4 11 31 12
REMARK SMILES IDX 29 13 2 14 1 15 34 17 32 19 30 21 27 23 28 24 9 26 11 28
REMARK SMILES IDX 13 30 14 31 22 32 15 33 21 34 17 35 19 36 23 37 24 38 16 40
REMARK SMILES IDX 18 42 20 44
REMARK H PARENT 1 16 34 18 32 20 30 22 28 25 9 27 11 29 24 39 16 41 18 43
REMARK H PARENT 20 45
REMARK Flexibility Score: inf
ROOT
ATOM      1  C   UNL     1      42.041  -4.315  26.751  1.00  0.00     0.184 C 
ATOM      2  C   UNL     1      41.640  -3.669  28.133  1.00  0.00     0.178 C 
ATOM      3  O   UNL     1      42.426  -4.169  29.203  1.00  0.00    -0.341 OA
ATOM      4  C   UNL     1      43.799  -3.922  28.997  1.00  0.00     0.282 C 
ATOM      5  C   UNL     1      44.326  -4.862  27.886  1.00  0.00     0.202 C 
ATOM      6  C   UNL     1      43.191  -5.358  26.923  1.00  0.00     0.180 C 
ENDROOT
BRANCH   1   7
ATOM      7  O   UNL     1      40.882  -4.909  26.179  1.00  0.00    -0.341 OA
BRANCH   7   8
ATOM      8  C   UNL     1      40.335  -4.235  25.058  1.00  0.00     0.282 C 
ATOM      9  C   UNL     1      38.370  -4.089  23.779  1.00  0.00     0.178 C 
ATOM     10  C   UNL     1      39.030  -4.706  22.515  1.00  0.00     0.177 C 
ATOM     11  O   UNL     1      38.980  -4.655  24.937  1.00  0.00    -0.341 OA
ATOM     12  C   UNL     1      40.507  -4.274  22.495  1.00  0.00     0.179 C 
ATOM     13  C   UNL     1      41.173  -4.671  23.823  1.00  0.00     0.202 C 
BRANCH   9  14
ATOM     14  C   UNL     1      36.851  -4.380  23.823  1.00  0.00     0.191 C 
BRANCH  14  15
ATOM     15  O   UNL     1      36.145  -3.387  23.131  1.00  0.00    -0.394 OA
ATOM     16  H   UNL     1      36.777  -2.646  22.960  1.00  0.00     0.210 HD
ENDBRANCH  14  15
ENDBRANCH   9  14
BRANCH  10  17
ATOM     17  O   UNL     1      38.377  -4.371  21.316  1.00  0.00    -0.387 OA
ATOM     18  H   UNL     1      38.104  -5.225  20.890  1.00  0.00     0.211 HD
ENDBRANCH  10  17
BRANCH  12  19
ATOM     19  O   UNL     1      41.210  -4.872  21.433  1.00  0.00    -0.387 OA
ATOM     20  H   UNL     1      41.503  -4.138  20.830  1.00  0.00     0.211 HD
ENDBRANCH  12  19
BRANCH  13  21
ATOM     21  O   UNL     1      41.360  -6.066  23.849  1.00  0.00    -0.385 OA
ATOM     22  H   UNL     1      40.451  -6.476  23.846  1.00  0.00     0.211 HD
ENDBRANCH  13  21
ENDBRANCH   7   8
ENDBRANCH   1   7
BRANCH   2  23
ATOM     23  C   UNL     1      40.155  -3.876  28.510  1.00  0.00     0.191 C 
BRANCH  23  24
ATOM     24  O   UNL     1      39.925  -5.206  28.897  1.00  0.00    -0.394 OA
ATOM     25  H   UNL     1      40.813  -5.643  28.942  1.00  0.00     0.210 HD
ENDBRANCH  23  24
ENDBRANCH   2  23
BRANCH   6  26
ATOM     26  O   UNL     1      43.777  -5.631  25.673  1.00  0.00    -0.387 OA
ATOM     27  H   UNL     1      44.755  -5.489  25.763  1.00  0.00     0.211 HD
ENDBRANCH   6  26
BRANCH   5  28
ATOM     28  O   UNL     1      45.001  -5.940  28.502  1.00  0.00    -0.385 OA
ATOM     29  H   UNL     1      45.977  -5.883  28.328  1.00  0.00     0.211 HD
ENDBRANCH   5  28
BRANCH   4  30
ATOM     30  O   UNL     1      44.045  -2.559  28.648  1.00  0.00    -0.341 OA
BRANCH  30  31
ATOM     31  C   UNL     1      45.251  -2.362  27.907  1.00  0.00     0.184 C 
ATOM     32  C   UNL     1      46.462  -2.114  28.857  1.00  0.00     0.178 C 
ATOM     33  C   UNL     1      45.031  -1.143  26.997  1.00  0.00     0.180 C 
ATOM     34  O   UNL     1      46.352  -0.911  29.610  1.00  0.00    -0.342 OA
ATOM     35  C   UNL     1      44.919   0.118  27.873  1.00  0.00     0.201 C 
ATOM     36  C   UNL     1      46.126   0.259  28.832  1.00  0.00     0.279 C 
BRANCH  32  37
ATOM     37  C   UNL     1      47.856  -2.345  28.238  1.00  0.00     0.191 C 
BRANCH  37  38
ATOM     38  O   UNL     1      48.893  -1.848  29.034  1.00  0.00    -0.394 OA
ATOM     39  H   UNL     1      49.280  -2.627  29.511  1.00  0.00     0.210 HD
ENDBRANCH  37  38
ENDBRANCH  32  37
BRANCH  33  40
ATOM     40  O   UNL     1      43.840  -1.310  26.265  1.00  0.00    -0.387 OA
ATOM     41  H   UNL     1      43.224  -0.586  26.542  1.00  0.00     0.211 HD
ENDBRANCH  33  40
BRANCH  35  42
ATOM     42  O   UNL     1      44.757   1.276  27.091  1.00  0.00    -0.385 OA
ATOM     43  H   UNL     1      44.633   2.050  27.701  1.00  0.00     0.211 HD
ENDBRANCH  35  42
BRANCH  36  44
ATOM     44  O   UNL     1      47.285   0.641  28.148  1.00  0.00    -0.366 OA
ATOM     45  H   UNL     1      47.004   0.844  27.219  1.00  0.00     0.213 HD
ENDBRANCH  36  44
ENDBRANCH  30  31
ENDBRANCH   4  30
TORSDOF 18
ENDMDL
MODEL 9
REMARK VINA RESULT:    -4.728      1.908      7.846
REMARK INTER + INTRA:         -10.467
REMARK INTER:                  -8.037
REMARK INTRA:                  -2.431
REMARK UNBOUND:                -2.285
REMARK SMILES OC[C@H]1O[C@@H](O[C@@H]2[C@@H](O)[C@H](O)[C@@H](O[C@H]3[C@@H](O)[C@H](O)[C@H](O)O[C@@H]3CO)O[C@@H]2CO)[C@@H](O)[C@@H](O)[C@@H]1O
REMARK SMILES IDX 7 1 26 2 25 3 12 4 10 5 8 6 6 7 5 8 3 9 33 10 4 11 31 12
REMARK SMILES IDX 29 13 2 14 1 15 34 17 32 19 30 21 27 23 28 24 9 26 11 28
REMARK SMILES IDX 13 30 14 31 22 32 15 33 21 34 17 35 19 36 23 37 24 38 16 40
REMARK SMILES IDX 18 42 20 44
REMARK H PARENT 1 16 34 18 32 20 30 22 28 25 9 27 11 29 24 39 16 41 18 43
REMARK H PARENT 20 45
REMARK Flexibility Score: inf
ROOT
ATOM      1  C   UNL     1      39.951  -6.718  26.085  1.00  0.00     0.184 C 
ATOM      2  C   UNL     1      39.550  -5.375  26.808  1.00  0.00     0.178 C 
ATOM      3  O   UNL     1      39.158  -5.591  28.155  1.00  0.00    -0.341 OA
ATOM      4  C   UNL     1      40.189  -6.191  28.906  1.00  0.00     0.282 C 
ATOM      5  C   UNL     1      40.333  -7.673  28.484  1.00  0.00     0.202 C 
ATOM      6  C   UNL     1      39.791  -7.947  27.037  1.00  0.00     0.180 C 
ENDROOT
BRANCH   1   7
ATOM      7  O   UNL     1      39.150  -6.858  24.918  1.00  0.00    -0.341 OA
BRANCH   7   8
ATOM      8  C   UNL     1      39.855  -6.891  23.689  1.00  0.00     0.282 C 
ATOM      9  C   UNL     1      41.430  -5.676  22.439  1.00  0.00     0.178 C 
ATOM     10  C   UNL     1      40.410  -5.313  21.324  1.00  0.00     0.177 C 
ATOM     11  O   UNL     1      40.735  -5.772  23.680  1.00  0.00    -0.341 OA
ATOM     12  C   UNL     1      39.421  -6.484  21.189  1.00  0.00     0.179 C 
ATOM     13  C   UNL     1      38.791  -6.779  22.561  1.00  0.00     0.202 C 
BRANCH   9  14
ATOM     14  C   UNL     1      42.535  -4.601  22.567  1.00  0.00     0.191 C 
BRANCH  14  15
ATOM     15  O   UNL     1      41.974  -3.318  22.523  1.00  0.00    -0.394 OA
ATOM     16  H   UNL     1      42.679  -2.683  22.802  1.00  0.00     0.210 HD
ENDBRANCH  14  15
ENDBRANCH   9  14
BRANCH  10  17
ATOM     17  O   UNL     1      41.010  -4.999  20.092  1.00  0.00    -0.387 OA
ATOM     18  H   UNL     1      40.669  -4.104  19.827  1.00  0.00     0.211 HD
ENDBRANCH  10  17
BRANCH  12  19
ATOM     19  O   UNL     1      38.398  -6.197  20.267  1.00  0.00    -0.387 OA
ATOM     20  H   UNL     1      38.836  -6.047  19.387  1.00  0.00     0.211 HD
ENDBRANCH  12  19
BRANCH  13  21
ATOM     21  O   UNL     1      37.873  -5.760  22.878  1.00  0.00    -0.385 OA
ATOM     22  H   UNL     1      37.568  -5.370  22.013  1.00  0.00     0.211 HD
ENDBRANCH  13  21
ENDBRANCH   7   8
ENDBRANCH   1   7
BRANCH   2  23
ATOM     23  C   UNL     1      38.406  -4.608  26.107  1.00  0.00     0.191 C 
BRANCH  23  24
ATOM     24  O   UNL     1      38.901  -3.872  25.018  1.00  0.00    -0.394 OA
ATOM     25  H   UNL     1      39.839  -3.639  25.239  1.00  0.00     0.210 HD
ENDBRANCH  23  24
ENDBRANCH   2  23
BRANCH   6  26
ATOM     26  O   UNL     1      40.494  -9.048  26.516  1.00  0.00    -0.387 OA
ATOM     27  H   UNL     1      40.250  -9.134  25.557  1.00  0.00     0.211 HD
ENDBRANCH   6  26
BRANCH   5  28
ATOM     28  O   UNL     1      39.683  -8.473  29.450  1.00  0.00    -0.385 OA
ATOM     29  H   UNL     1      40.349  -8.928  30.028  1.00  0.00     0.211 HD
ENDBRANCH   5  28
BRANCH   4  30
ATOM     30  O   UNL     1      41.432  -5.507  28.738  1.00  0.00    -0.341 OA
BRANCH  30  31
ATOM     31  C   UNL     1      41.808  -4.709  29.862  1.00  0.00     0.184 C 
ATOM     32  C   UNL     1      40.627  -3.808  30.334  1.00  0.00     0.178 C 
ATOM     33  C   UNL     1      42.997  -3.839  29.424  1.00  0.00     0.180 C 
ATOM     34  O   UNL     1      40.237  -2.835  29.370  1.00  0.00    -0.342 OA
ATOM     35  C   UNL     1      42.508  -2.815  28.383  1.00  0.00     0.201 C 
ATOM     36  C   UNL     1      41.295  -2.005  28.903  1.00  0.00     0.279 C 
BRANCH  32  37
ATOM     37  C   UNL     1      40.736  -3.262  31.773  1.00  0.00     0.191 C 
BRANCH  37  38
ATOM     38  O   UNL     1      39.948  -2.126  31.983  1.00  0.00    -0.394 OA
ATOM     39  H   UNL     1      39.409  -2.303  32.797  1.00  0.00     0.210 HD
ENDBRANCH  37  38
ENDBRANCH  32  37
BRANCH  33  40
ATOM     40  O   UNL     1      43.990  -4.654  28.845  1.00  0.00    -0.387 OA
ATOM     41  H   UNL     1      44.798  -4.574  29.412  1.00  0.00     0.211 HD
ENDBRANCH  33  40
BRANCH  35  42
ATOM     42  O   UNL     1      43.548  -1.960  27.974  1.00  0.00    -0.385 OA
ATOM     43  H   UNL     1      43.162  -1.260  27.384  1.00  0.00     0.211 HD
ENDBRANCH  35  42
BRANCH  36  44
ATOM     44  O   UNL     1      41.674  -1.076  29.877  1.00  0.00    -0.366 OA
ATOM     45  H   UNL     1      42.516  -1.419  30.273  1.00  0.00     0.213 HD
ENDBRANCH  36  44
ENDBRANCH  30  31
ENDBRANCH   4  30
TORSDOF 18
ENDMDL
