MODEL 1
REMARK VINA RESULT:    -3.618      0.000      0.000
REMARK INTER + INTRA:          -8.693
REMARK INTER:                  -6.368
REMARK INTRA:                  -2.326
REMARK UNBOUND:                -2.326
REMARK SMILES CCCCCCCCCCCCCCC(=O)[O-]
REMARK SMILES IDX 9 1 10 2 11 3 12 4 13 5 14 6 15 7 16 8 17 9 8 10 7 11 6 12
REMARK SMILES IDX 5 13 4 14 3 15 2 16 1 17
REMARK H PARENT
REMARK Flexibility Score: inf
ROOT
ATOM      1  C   UNL     1       2.794  38.082  -7.989  1.00  0.00     0.000 C 
ENDROOT
BRANCH   1   2
ATOM      2  C   UNL     1       3.106  36.784  -8.752  1.00  0.00     0.000 C 
BRANCH   2   3
ATOM      3  C   UNL     1       4.594  36.408  -8.696  1.00  0.00     0.000 C 
BRANCH   3   4
ATOM      4  C   UNL     1       4.822  35.211  -7.765  1.00  0.00     0.000 C 
BRANCH   4   5
ATOM      5  C   UNL     1       6.293  35.123  -7.331  1.00  0.00     0.006 C 
BRANCH   5   6
ATOM      6  C   UNL     1       6.532  33.999  -6.316  1.00  0.00     0.053 C 
BRANCH   6   7
ATOM      7  C   UNL     1       7.001  32.741  -6.981  1.00  0.00     0.041 C 
ATOM      8  O   UNL     1       7.688  32.799  -8.036  1.00  0.00    -0.550 OA
ATOM      9  O   UNL     1       6.709  31.505  -6.418  1.00  0.00    -0.550 OA
ENDBRANCH   6   7
ENDBRANCH   5   6
ENDBRANCH   4   5
ENDBRANCH   3   4
ENDBRANCH   2   3
ENDBRANCH   1   2
BRANCH   1  10
ATOM     10  C   UNL     1       3.681  39.257  -8.430  1.00  0.00     0.000 C 
BRANCH  10  11
ATOM     11  C   UNL     1       4.364  39.912  -7.224  1.00  0.00    -0.000 C 
BRANCH  11  12
ATOM     12  C   UNL     1       5.852  39.533  -7.162  1.00  0.00    -0.000 C 
BRANCH  12  13
ATOM     13  C   UNL     1       6.139  38.437  -6.124  1.00  0.00    -0.000 C 
BRANCH  13  14
ATOM     14  C   UNL     1       5.112  38.422  -4.980  1.00  0.00    -0.000 C 
BRANCH  14  15
ATOM     15  C   UNL     1       4.752  36.999  -4.519  1.00  0.00    -0.000 C 
BRANCH  15  16
ATOM     16  C   UNL     1       3.247  36.676  -4.627  1.00  0.00    -0.003 C 
ATOM     17  C   UNL     1       2.368  37.899  -4.370  1.00  0.00     0.004 C 
ENDBRANCH  15  16
ENDBRANCH  14  15
ENDBRANCH  13  14
ENDBRANCH  12  13
ENDBRANCH  11  12
ENDBRANCH  10  11
ENDBRANCH   1  10
TORSDOF 13
ENDMDL
MODEL 2
REMARK VINA RESULT:    -3.575      2.635      4.761
REMARK INTER + INTRA:          -8.618
REMARK INTER:                  -6.356
REMARK INTRA:                  -2.262
REMARK UNBOUND:                -2.326
REMARK SMILES CCCCCCCCCCCCCCC(=O)[O-]
REMARK SMILES IDX 9 1 10 2 11 3 12 4 13 5 14 6 15 7 16 8 17 9 8 10 7 11 6 12
REMARK SMILES IDX 5 13 4 14 3 15 2 16 1 17
REMARK H PARENT
REMARK Flexibility Score: inf
ROOT
ATOM      1  C   UNL     1       3.771  39.644  -8.338  1.00  0.00     0.000 C 
ENDROOT
BRANCH   1   2
ATOM      2  C   UNL     1       4.646  39.986  -7.121  1.00  0.00     0.000 C 
BRANCH   2   3
ATOM      3  C   UNL     1       6.029  39.320  -7.180  1.00  0.00     0.000 C 
BRANCH   3   4
ATOM      4  C   UNL     1       6.153  38.217  -6.122  1.00  0.00     0.000 C 
BRANCH   4   5
ATOM      5  C   UNL     1       5.100  38.393  -5.017  1.00  0.00     0.006 C 
BRANCH   5   6
ATOM      6  C   UNL     1       4.522  37.052  -4.548  1.00  0.00     0.053 C 
BRANCH   6   7
ATOM      7  C   UNL     1       3.032  37.109  -4.408  1.00  0.00     0.041 C 
ATOM      8  O   UNL     1       2.421  38.201  -4.557  1.00  0.00    -0.550 OA
ATOM      9  O   UNL     1       2.313  35.949  -4.147  1.00  0.00    -0.550 OA
ENDBRANCH   6   7
ENDBRANCH   5   6
ENDBRANCH   4   5
ENDBRANCH   3   4
ENDBRANCH   2   3
ENDBRANCH   1   2
BRANCH   1  10
ATOM     10  C   UNL     1       2.832  38.455  -8.078  1.00  0.00     0.000 C 
BRANCH  10  11
ATOM     11  C   UNL     1       3.465  37.141  -8.554  1.00  0.00    -0.000 C 
BRANCH  11  12
ATOM     12  C   UNL     1       2.874  35.941  -7.799  1.00  0.00    -0.000 C 
BRANCH  12  13
ATOM     13  C   UNL     1       3.932  34.882  -7.451  1.00  0.00    -0.000 C 
BRANCH  13  14
ATOM     14  C   UNL     1       5.293  35.169  -8.107  1.00  0.00    -0.000 C 
BRANCH  14  15
ATOM     15  C   UNL     1       6.425  34.295  -7.541  1.00  0.00    -0.000 C 
BRANCH  15  16
ATOM     16  C   UNL     1       6.779  34.617  -6.073  1.00  0.00    -0.003 C 
ATOM     17  C   UNL     1       6.717  33.383  -5.174  1.00  0.00     0.004 C 
ENDBRANCH  15  16
ENDBRANCH  14  15
ENDBRANCH  13  14
ENDBRANCH  12  13
ENDBRANCH  11  12
ENDBRANCH  10  11
ENDBRANCH   1  10
TORSDOF 13
ENDMDL
MODEL 3
REMARK VINA RESULT:    -3.575      1.097      1.630
REMARK INTER + INTRA:          -8.617
REMARK INTER:                  -6.294
REMARK INTRA:                  -2.323
REMARK UNBOUND:                -2.326
REMARK SMILES CCCCCCCCCCCCCCC(=O)[O-]
REMARK SMILES IDX 9 1 10 2 11 3 12 4 13 5 14 6 15 7 16 8 17 9 8 10 7 11 6 12
REMARK SMILES IDX 5 13 4 14 3 15 2 16 1 17
REMARK H PARENT
REMARK Flexibility Score: inf
ROOT
ATOM      1  C   UNL     1       3.550  39.020  -8.455  1.00  0.00     0.000 C 
ENDROOT
BRANCH   1   2
ATOM      2  C   UNL     1       4.262  37.811  -9.084  1.00  0.00     0.000 C 
BRANCH   2   3
ATOM      3  C   UNL     1       3.616  36.474  -8.691  1.00  0.00     0.000 C 
BRANCH   3   4
ATOM      4  C   UNL     1       4.674  35.373  -8.554  1.00  0.00     0.000 C 
BRANCH   4   5
ATOM      5  C   UNL     1       5.081  35.181  -7.085  1.00  0.00     0.006 C 
BRANCH   5   6
ATOM      6  C   UNL     1       6.591  34.966  -6.926  1.00  0.00     0.053 C 
BRANCH   6   7
ATOM      7  C   UNL     1       6.895  33.762  -6.087  1.00  0.00     0.041 C 
ATOM      8  O   UNL     1       7.022  32.629  -6.625  1.00  0.00    -0.550 OA
ATOM      9  O   UNL     1       7.070  33.895  -4.716  1.00  0.00    -0.550 OA
ENDBRANCH   6   7
ENDBRANCH   5   6
ENDBRANCH   4   5
ENDBRANCH   3   4
ENDBRANCH   2   3
ENDBRANCH   1   2
BRANCH   1  10
ATOM     10  C   UNL     1       4.429  39.760  -7.434  1.00  0.00     0.000 C 
BRANCH  10  11
ATOM     11  C   UNL     1       5.819  39.118  -7.340  1.00  0.00    -0.000 C 
BRANCH  11  12
ATOM     12  C   UNL     1       6.061  38.533  -5.940  1.00  0.00    -0.000 C 
BRANCH  12  13
ATOM     13  C   UNL     1       4.807  38.586  -5.053  1.00  0.00    -0.000 C 
BRANCH  13  14
ATOM     14  C   UNL     1       4.465  37.223  -4.429  1.00  0.00    -0.000 C 
BRANCH  14  15
ATOM     15  C   UNL     1       2.980  36.853  -4.581  1.00  0.00    -0.000 C 
BRANCH  15  16
ATOM     16  C   UNL     1       2.089  38.036  -5.014  1.00  0.00    -0.003 C 
ATOM     17  C   UNL     1       1.124  37.660  -6.138  1.00  0.00     0.004 C 
ENDBRANCH  15  16
ENDBRANCH  14  15
ENDBRANCH  13  14
ENDBRANCH  12  13
ENDBRANCH  11  12
ENDBRANCH  10  11
ENDBRANCH   1  10
TORSDOF 13
ENDMDL
MODEL 4
REMARK VINA RESULT:    -3.499      2.978      4.909
REMARK INTER + INTRA:          -8.483
REMARK INTER:                  -6.447
REMARK INTRA:                  -2.036
REMARK UNBOUND:                -2.326
REMARK SMILES CCCCCCCCCCCCCCC(=O)[O-]
REMARK SMILES IDX 9 1 10 2 11 3 12 4 13 5 14 6 15 7 16 8 17 9 8 10 7 11 6 12
REMARK SMILES IDX 5 13 4 14 3 15 2 16 1 17
REMARK H PARENT
REMARK Flexibility Score: inf
ROOT
ATOM      1  C   UNL     1       3.848  39.291  -7.344  1.00  0.00     0.000 C 
ENDROOT
BRANCH   1   2
ATOM      2  C   UNL     1       3.320  38.162  -8.244  1.00  0.00     0.000 C 
BRANCH   2   3
ATOM      3  C   UNL     1       2.015  37.546  -7.717  1.00  0.00     0.000 C 
BRANCH   3   4
ATOM      4  C   UNL     1       1.646  38.131  -6.348  1.00  0.00     0.000 C 
BRANCH   4   5
ATOM      5  C   UNL     1       1.131  37.036  -5.402  1.00  0.00     0.006 C 
BRANCH   5   6
ATOM      6  C   UNL     1       1.533  37.292  -3.944  1.00  0.00     0.053 C 
BRANCH   6   7
ATOM      7  C   UNL     1       1.195  36.129  -3.063  1.00  0.00     0.041 C 
ATOM      8  O   UNL     1       0.204  36.187  -2.286  1.00  0.00    -0.550 OA
ATOM      9  O   UNL     1       1.954  34.967  -3.123  1.00  0.00    -0.550 OA
ENDBRANCH   6   7
ENDBRANCH   5   6
ENDBRANCH   4   5
ENDBRANCH   3   4
ENDBRANCH   2   3
ENDBRANCH   1   2
BRANCH   1  10
ATOM     10  C   UNL     1       5.381  39.393  -7.360  1.00  0.00     0.000 C 
BRANCH  10  11
ATOM     11  C   UNL     1       6.005  38.464  -6.312  1.00  0.00    -0.000 C 
BRANCH  11  12
ATOM     12  C   UNL     1       5.164  38.442  -5.026  1.00  0.00    -0.000 C 
BRANCH  12  13
ATOM     13  C   UNL     1       4.966  37.022  -4.474  1.00  0.00    -0.000 C 
BRANCH  13  14
ATOM     14  C   UNL     1       4.760  35.978  -5.584  1.00  0.00    -0.000 C 
BRANCH  14  15
ATOM     15  C   UNL     1       5.251  34.577  -5.185  1.00  0.00    -0.000 C 
BRANCH  15  16
ATOM     16  C   UNL     1       6.711  34.293  -5.598  1.00  0.00    -0.003 C 
ATOM     17  C   UNL     1       6.972  34.605  -7.071  1.00  0.00     0.004 C 
ENDBRANCH  15  16
ENDBRANCH  14  15
ENDBRANCH  13  14
ENDBRANCH  12  13
ENDBRANCH  11  12
ENDBRANCH  10  11
ENDBRANCH   1  10
TORSDOF 13
ENDMDL
MODEL 5
REMARK VINA RESULT:    -3.487      1.762      3.244
REMARK INTER + INTRA:          -8.463
REMARK INTER:                  -6.026
REMARK INTRA:                  -2.437
REMARK UNBOUND:                -2.326
REMARK SMILES CCCCCCCCCCCCCCC(=O)[O-]
REMARK SMILES IDX 9 1 10 2 11 3 12 4 13 5 14 6 15 7 16 8 17 9 8 10 7 11 6 12
REMARK SMILES IDX 5 13 4 14 3 15 2 16 1 17
REMARK H PARENT
REMARK Flexibility Score: inf
ROOT
ATOM      1  C   UNL     1       3.249  35.364  -6.983  1.00  0.00     0.000 C 
ENDROOT
BRANCH   1   2
ATOM      2  C   UNL     1       4.267  35.653  -8.098  1.00  0.00     0.000 C 
BRANCH   2   3
ATOM      3  C   UNL     1       5.531  34.787  -7.986  1.00  0.00     0.000 C 
BRANCH   3   4
ATOM      4  C   UNL     1       6.431  35.278  -6.846  1.00  0.00     0.000 C 
BRANCH   4   5
ATOM      5  C   UNL     1       7.129  34.100  -6.150  1.00  0.00     0.006 C 
BRANCH   5   6
ATOM      6  C   UNL     1       6.136  33.022  -5.698  1.00  0.00     0.053 C 
BRANCH   6   7
ATOM      7  C   UNL     1       5.423  33.417  -4.440  1.00  0.00     0.041 C 
ATOM      8  O   UNL     1       6.022  34.080  -3.552  1.00  0.00    -0.550 OA
ATOM      9  O   UNL     1       4.087  33.080  -4.264  1.00  0.00    -0.550 OA
ENDBRANCH   6   7
ENDBRANCH   5   6
ENDBRANCH   4   5
ENDBRANCH   3   4
ENDBRANCH   2   3
ENDBRANCH   1   2
BRANCH   1  10
ATOM     10  C   UNL     1       2.874  36.621  -6.183  1.00  0.00     0.000 C 
BRANCH  10  11
ATOM     11  C   UNL     1       3.268  36.472  -4.708  1.00  0.00    -0.000 C 
BRANCH  11  12
ATOM     12  C   UNL     1       4.632  37.124  -4.435  1.00  0.00    -0.000 C 
BRANCH  12  13
ATOM     13  C   UNL     1       4.765  38.510  -5.087  1.00  0.00    -0.000 C 
BRANCH  13  14
ATOM     14  C   UNL     1       6.052  38.653  -5.916  1.00  0.00    -0.000 C 
BRANCH  14  15
ATOM     15  C   UNL     1       5.778  38.974  -7.395  1.00  0.00    -0.000 C 
BRANCH  15  16
ATOM     16  C   UNL     1       4.544  39.875  -7.613  1.00  0.00    -0.003 C 
ATOM     17  C   UNL     1       3.573  39.295  -8.641  1.00  0.00     0.004 C 
ENDBRANCH  15  16
ENDBRANCH  14  15
ENDBRANCH  13  14
ENDBRANCH  12  13
ENDBRANCH  11  12
ENDBRANCH  10  11
ENDBRANCH   1  10
TORSDOF 13
ENDMDL
MODEL 6
REMARK VINA RESULT:    -3.475      1.309      3.296
REMARK INTER + INTRA:          -8.442
REMARK INTER:                  -6.384
REMARK INTRA:                  -2.058
REMARK UNBOUND:                -2.326
REMARK SMILES CCCCCCCCCCCCCCC(=O)[O-]
REMARK SMILES IDX 9 1 10 2 11 3 12 4 13 5 14 6 15 7 16 8 17 9 8 10 7 11 6 12
REMARK SMILES IDX 5 13 4 14 3 15 2 16 1 17
REMARK H PARENT
REMARK Flexibility Score: inf
ROOT
ATOM      1  C   UNL     1       4.633  37.041  -4.589  1.00  0.00     0.000 C 
ENDROOT
BRANCH   1   2
ATOM      2  C   UNL     1       5.127  35.901  -5.495  1.00  0.00     0.000 C 
BRANCH   2   3
ATOM      3  C   UNL     1       5.594  34.673  -4.700  1.00  0.00     0.000 C 
BRANCH   3   4
ATOM      4  C   UNL     1       6.880  34.089  -5.297  1.00  0.00     0.000 C 
BRANCH   4   5
ATOM      5  C   UNL     1       6.980  34.399  -6.798  1.00  0.00     0.006 C 
BRANCH   5   6
ATOM      6  C   UNL     1       7.187  33.133  -7.639  1.00  0.00     0.053 C 
BRANCH   6   7
ATOM      7  C   UNL     1       5.903  32.651  -8.242  1.00  0.00     0.041 C 
ATOM      8  O   UNL     1       4.818  33.235  -7.976  1.00  0.00    -0.550 OA
ATOM      9  O   UNL     1       5.908  31.579  -9.124  1.00  0.00    -0.550 OA
ENDBRANCH   6   7
ENDBRANCH   5   6
ENDBRANCH   4   5
ENDBRANCH   3   4
ENDBRANCH   2   3
ENDBRANCH   1   2
BRANCH   1  10
ATOM     10  C   UNL     1       5.182  38.413  -5.010  1.00  0.00     0.000 C 
BRANCH  10  11
ATOM     11  C   UNL     1       6.200  38.271  -6.149  1.00  0.00    -0.000 C 
BRANCH  11  12
ATOM     12  C   UNL     1       5.983  39.354  -7.218  1.00  0.00    -0.000 C 
BRANCH  12  13
ATOM     13  C   UNL     1       4.529  39.848  -7.272  1.00  0.00    -0.000 C 
BRANCH  13  14
ATOM     14  C   UNL     1       3.694  39.113  -8.333  1.00  0.00    -0.000 C 
BRANCH  14  15
ATOM     15  C   UNL     1       2.734  38.077  -7.725  1.00  0.00    -0.000 C 
BRANCH  15  16
ATOM     16  C   UNL     1       2.949  36.646  -8.262  1.00  0.00    -0.003 C 
ATOM     17  C   UNL     1       4.207  36.528  -9.122  1.00  0.00     0.004 C 
ENDBRANCH  15  16
ENDBRANCH  14  15
ENDBRANCH  13  14
ENDBRANCH  12  13
ENDBRANCH  11  12
ENDBRANCH  10  11
ENDBRANCH   1  10
TORSDOF 13
ENDMDL
MODEL 7
REMARK VINA RESULT:    -3.464      2.847      5.064
REMARK INTER + INTRA:          -8.422
REMARK INTER:                  -6.143
REMARK INTRA:                  -2.279
REMARK UNBOUND:                -2.326
REMARK SMILES CCCCCCCCCCCCCCC(=O)[O-]
REMARK SMILES IDX 9 1 10 2 11 3 12 4 13 5 14 6 15 7 16 8 17 9 8 10 7 11 6 12
REMARK SMILES IDX 5 13 4 14 3 15 2 16 1 17
REMARK H PARENT
REMARK Flexibility Score: inf
ROOT
ATOM      1  C   UNL     1       3.055  35.361  -6.326  1.00  0.00     0.000 C 
ENDROOT
BRANCH   1   2
ATOM      2  C   UNL     1       2.148  36.182  -5.396  1.00  0.00     0.000 C 
BRANCH   2   3
ATOM      3  C   UNL     1       2.923  37.240  -4.596  1.00  0.00     0.000 C 
BRANCH   3   4
ATOM      4  C   UNL     1       4.413  36.885  -4.517  1.00  0.00     0.000 C 
BRANCH   4   5
ATOM      5  C   UNL     1       5.285  38.069  -4.960  1.00  0.00     0.006 C 
BRANCH   5   6
ATOM      6  C   UNL     1       4.494  39.099  -5.776  1.00  0.00     0.053 C 
BRANCH   6   7
ATOM      7  C   UNL     1       5.270  39.580  -6.964  1.00  0.00     0.041 C 
ATOM      8  O   UNL     1       4.790  40.467  -7.719  1.00  0.00    -0.550 OA
ATOM      9  O   UNL     1       6.537  39.072  -7.219  1.00  0.00    -0.550 OA
ENDBRANCH   6   7
ENDBRANCH   5   6
ENDBRANCH   4   5
ENDBRANCH   3   4
ENDBRANCH   2   3
ENDBRANCH   1   2
BRANCH   1  10
ATOM     10  C   UNL     1       3.192  35.986  -7.724  1.00  0.00     0.000 C 
BRANCH  10  11
ATOM     11  C   UNL     1       4.664  36.063  -8.148  1.00  0.00    -0.000 C 
BRANCH  11  12
ATOM     12  C   UNL     1       5.435  34.816  -7.689  1.00  0.00    -0.000 C 
BRANCH  12  13
ATOM     13  C   UNL     1       6.708  35.165  -6.903  1.00  0.00    -0.000 C 
BRANCH  13  14
ATOM     14  C   UNL     1       6.899  34.277  -5.662  1.00  0.00    -0.000 C 
BRANCH  14  15
ATOM     15  C   UNL     1       6.511  32.810  -5.912  1.00  0.00    -0.000 C 
BRANCH  15  16
ATOM     16  C   UNL     1       5.579  32.224  -4.831  1.00  0.00    -0.003 C 
ATOM     17  C   UNL     1       5.004  33.300  -3.911  1.00  0.00     0.004 C 
ENDBRANCH  15  16
ENDBRANCH  14  15
ENDBRANCH  13  14
ENDBRANCH  12  13
ENDBRANCH  11  12
ENDBRANCH  10  11
ENDBRANCH   1  10
TORSDOF 13
ENDMDL
MODEL 8
REMARK VINA RESULT:    -3.455      1.252      2.728
REMARK INTER + INTRA:          -8.407
REMARK INTER:                  -6.219
REMARK INTRA:                  -2.187
REMARK UNBOUND:                -2.326
REMARK SMILES CCCCCCCCCCCCCCC(=O)[O-]
REMARK SMILES IDX 9 1 10 2 11 3 12 4 13 5 14 6 15 7 16 8 17 9 8 10 7 11 6 12
REMARK SMILES IDX 5 13 4 14 3 15 2 16 1 17
REMARK H PARENT
REMARK Flexibility Score: inf
ROOT
ATOM      1  C   UNL     1       5.157  37.955  -5.052  1.00  0.00     0.000 C 
ENDROOT
BRANCH   1   2
ATOM      2  C   UNL     1       5.329  36.431  -4.950  1.00  0.00     0.000 C 
BRANCH   2   3
ATOM      3  C   UNL     1       4.412  35.665  -5.915  1.00  0.00     0.000 C 
BRANCH   3   4
ATOM      4  C   UNL     1       5.178  35.226  -7.169  1.00  0.00     0.000 C 
BRANCH   4   5
ATOM      5  C   UNL     1       6.667  35.016  -6.858  1.00  0.00     0.006 C 
BRANCH   5   6
ATOM      6  C   UNL     1       7.154  33.620  -7.266  1.00  0.00     0.053 C 
BRANCH   6   7
ATOM      7  C   UNL     1       6.690  32.568  -6.305  1.00  0.00     0.041 C 
ATOM      8  O   UNL     1       6.502  31.386  -6.700  1.00  0.00    -0.550 OA
ATOM      9  O   UNL     1       6.499  32.885  -4.966  1.00  0.00    -0.550 OA
ENDBRANCH   6   7
ENDBRANCH   5   6
ENDBRANCH   4   5
ENDBRANCH   3   4
ENDBRANCH   2   3
ENDBRANCH   1   2
BRANCH   1  10
ATOM     10  C   UNL     1       6.134  38.596  -6.050  1.00  0.00     0.000 C 
BRANCH  10  11
ATOM     11  C   UNL     1       5.388  39.139  -7.276  1.00  0.00    -0.000 C 
BRANCH  11  12
ATOM     12  C   UNL     1       3.888  39.290  -6.984  1.00  0.00    -0.000 C 
BRANCH  12  13
ATOM     13  C   UNL     1       3.013  38.472  -7.947  1.00  0.00    -0.000 C 
BRANCH  13  14
ATOM     14  C   UNL     1       1.792  37.847  -7.251  1.00  0.00    -0.000 C 
BRANCH  14  15
ATOM     15  C   UNL     1       1.643  38.298  -5.788  1.00  0.00    -0.000 C 
BRANCH  15  16
ATOM     16  C   UNL     1       1.299  37.148  -4.819  1.00  0.00    -0.003 C 
ATOM     17  C   UNL     1       0.715  35.933  -5.538  1.00  0.00     0.004 C 
ENDBRANCH  15  16
ENDBRANCH  14  15
ENDBRANCH  13  14
ENDBRANCH  12  13
ENDBRANCH  11  12
ENDBRANCH  10  11
ENDBRANCH   1  10
TORSDOF 13
ENDMDL
MODEL 9
REMARK VINA RESULT:    -3.372      1.351      2.279
REMARK INTER + INTRA:          -8.260
REMARK INTER:                  -6.038
REMARK INTRA:                  -2.222
REMARK UNBOUND:                -2.326
REMARK SMILES CCCCCCCCCCCCCCC(=O)[O-]
REMARK SMILES IDX 9 1 10 2 11 3 12 4 13 5 14 6 15 7 16 8 17 9 8 10 7 11 6 12
REMARK SMILES IDX 5 13 4 14 3 15 2 16 1 17
REMARK H PARENT
REMARK Flexibility Score: inf
ROOT
ATOM      1  C   UNL     1       3.732  39.462  -8.312  1.00  0.00     0.000 C 
ENDROOT
BRANCH   1   2
ATOM      2  C   UNL     1       4.041  38.016  -8.734  1.00  0.00     0.000 C 
BRANCH   2   3
ATOM      3  C   UNL     1       2.889  37.050  -8.422  1.00  0.00     0.000 C 
BRANCH   3   4
ATOM      4  C   UNL     1       3.424  35.679  -7.989  1.00  0.00     0.000 C 
BRANCH   4   5
ATOM      5  C   UNL     1       4.861  35.467  -8.487  1.00  0.00     0.006 C 
BRANCH   5   6
ATOM      6  C   UNL     1       5.368  34.046  -8.208  1.00  0.00     0.053 C 
BRANCH   6   7
ATOM      7  C   UNL     1       6.709  34.057  -7.540  1.00  0.00     0.041 C 
ATOM      8  O   UNL     1       7.471  33.058  -7.630  1.00  0.00    -0.550 OA
ATOM      9  O   UNL     1       7.131  35.184  -6.845  1.00  0.00    -0.550 OA
ENDBRANCH   6   7
ENDBRANCH   5   6
ENDBRANCH   4   5
ENDBRANCH   3   4
ENDBRANCH   2   3
ENDBRANCH   1   2
BRANCH   1  10
ATOM     10  C   UNL     1       4.722  39.999  -7.266  1.00  0.00     0.000 C 
BRANCH  10  11
ATOM     11  C   UNL     1       5.795  38.953  -6.938  1.00  0.00    -0.000 C 
BRANCH  11  12
ATOM     12  C   UNL     1       5.706  38.516  -5.468  1.00  0.00    -0.000 C 
BRANCH  12  13
ATOM     13  C   UNL     1       4.263  38.519  -4.937  1.00  0.00    -0.000 C 
BRANCH  13  14
ATOM     14  C   UNL     1       3.743  37.104  -4.631  1.00  0.00    -0.000 C 
BRANCH  14  15
ATOM     15  C   UNL     1       4.869  36.062  -4.535  1.00  0.00    -0.000 C 
BRANCH  15  16
ATOM     16  C   UNL     1       4.364  34.603  -4.543  1.00  0.00    -0.003 C 
ATOM     17  C   UNL     1       5.396  33.625  -3.985  1.00  0.00     0.004 C 
ENDBRANCH  15  16
ENDBRANCH  14  15
ENDBRANCH  13  14
ENDBRANCH  12  13
ENDBRANCH  11  12
ENDBRANCH  10  11
ENDBRANCH   1  10
TORSDOF 13
ENDMDL
