MODEL 1
REMARK VINA RESULT:    -3.185      0.000      0.000
REMARK INTER + INTRA:          -5.100
REMARK INTER:                  -4.488
REMARK INTRA:                  -0.611
REMARK UNBOUND:                -0.611
REMARK SMILES CCCCCCCCC(=O)[O-]
REMARK SMILES IDX 6 1 7 2 8 3 9 4 10 5 11 6 5 7 4 8 3 9 2 10 1 11
REMARK H PARENT
REMARK Flexibility Score: inf
ROOT
ATOM      1  C   UNL     1      31.939  10.500  23.219  1.00  0.00     0.000 C 
ENDROOT
BRANCH   1   2
ATOM      2  C   UNL     1      31.413   9.222  22.553  1.00  0.00     0.006 C 
BRANCH   2   3
ATOM      3  C   UNL     1      32.395   8.710  21.495  1.00  0.00     0.053 C 
BRANCH   3   4
ATOM      4  C   UNL     1      31.894   7.438  20.887  1.00  0.00     0.041 C 
ATOM      5  O   UNL     1      31.764   7.341  19.638  1.00  0.00    -0.550 OA
ATOM      6  O   UNL     1      31.523   6.376  21.703  1.00  0.00    -0.550 OA
ENDBRANCH   3   4
ENDBRANCH   2   3
ENDBRANCH   1   2
BRANCH   1   7
ATOM      7  C   UNL     1      32.429  11.506  22.167  1.00  0.00     0.000 C 
BRANCH   7   8
ATOM      8  C   UNL     1      33.819  12.075  22.490  1.00  0.00    -0.000 C 
BRANCH   8   9
ATOM      9  C   UNL     1      34.595  11.204  23.494  1.00  0.00    -0.000 C 
BRANCH   9  10
ATOM     10  C   UNL     1      35.966  10.766  22.955  1.00  0.00    -0.003 C 
ATOM     11  C   UNL     1      35.864   9.685  21.879  1.00  0.00     0.004 C 
ENDBRANCH   9  10
ENDBRANCH   8   9
ENDBRANCH   7   8
ENDBRANCH   1   7
TORSDOF 7
ENDMDL
MODEL 2
REMARK VINA RESULT:    -3.129      1.405      3.337
REMARK INTER + INTRA:          -5.021
REMARK INTER:                  -4.214
REMARK INTRA:                  -0.807
REMARK UNBOUND:                -0.611
REMARK SMILES CCCCCCCCC(=O)[O-]
REMARK SMILES IDX 6 1 7 2 8 3 9 4 10 5 11 6 5 7 4 8 3 9 2 10 1 11
REMARK H PARENT
REMARK Flexibility Score: inf
ROOT
ATOM      1  C   UNL     1      36.099  10.780  22.552  1.00  0.00     0.000 C 
ENDROOT
BRANCH   1   2
ATOM      2  C   UNL     1      35.879  10.073  21.209  1.00  0.00     0.006 C 
BRANCH   2   3
ATOM      3  C   UNL     1      34.844   8.951  21.341  1.00  0.00     0.053 C 
BRANCH   3   4
ATOM      4  C   UNL     1      33.815   9.056  20.260  1.00  0.00     0.041 C 
ATOM      5  O   UNL     1      33.602  10.161  19.693  1.00  0.00    -0.550 OA
ATOM      6  O   UNL     1      33.055   7.947  19.914  1.00  0.00    -0.550 OA
ENDBRANCH   3   4
ENDBRANCH   2   3
ENDBRANCH   1   2
BRANCH   1   7
ATOM      7  C   UNL     1      34.767  10.989  23.288  1.00  0.00     0.000 C 
BRANCH   7   8
ATOM      8  C   UNL     1      33.915  12.106  22.668  1.00  0.00    -0.000 C 
BRANCH   8   9
ATOM      9  C   UNL     1      32.416  11.759  22.641  1.00  0.00    -0.000 C 
BRANCH   9  10
ATOM     10  C   UNL     1      32.075  10.552  23.530  1.00  0.00    -0.003 C 
ATOM     11  C   UNL     1      31.300   9.466  22.784  1.00  0.00     0.004 C 
ENDBRANCH   9  10
ENDBRANCH   8   9
ENDBRANCH   7   8
ENDBRANCH   1   7
TORSDOF 7
ENDMDL
MODEL 3
REMARK VINA RESULT:    -3.118      2.623      4.614
REMARK INTER + INTRA:          -5.006
REMARK INTER:                  -4.618
REMARK INTRA:                  -0.388
REMARK UNBOUND:                -0.611
REMARK SMILES CCCCCCCCC(=O)[O-]
REMARK SMILES IDX 6 1 7 2 8 3 9 4 10 5 11 6 5 7 4 8 3 9 2 10 1 11
REMARK H PARENT
REMARK Flexibility Score: inf
ROOT
ATOM      1  C   UNL     1      32.387  11.457  22.227  1.00  0.00     0.000 C 
ENDROOT
BRANCH   1   2
ATOM      2  C   UNL     1      33.764  12.068  22.516  1.00  0.00     0.006 C 
BRANCH   2   3
ATOM      3  C   UNL     1      34.584  11.162  23.440  1.00  0.00     0.053 C 
BRANCH   3   4
ATOM      4  C   UNL     1      35.697  10.511  22.683  1.00  0.00     0.041 C 
ATOM      5  O   UNL     1      35.571  10.268  21.454  1.00  0.00    -0.550 OA
ATOM      6  O   UNL     1      36.856  10.125  23.345  1.00  0.00    -0.550 OA
ENDBRANCH   3   4
ENDBRANCH   2   3
ENDBRANCH   1   2
BRANCH   1   7
ATOM      7  C   UNL     1      31.999  10.439  23.310  1.00  0.00     0.000 C 
BRANCH   7   8
ATOM      8  C   UNL     1      31.143   9.286  22.764  1.00  0.00    -0.000 C 
BRANCH   8   9
ATOM      9  C   UNL     1      31.899   8.425  21.736  1.00  0.00    -0.000 C 
BRANCH   9  10
ATOM     10  C   UNL     1      31.090   7.196  21.292  1.00  0.00    -0.003 C 
ATOM     11  C   UNL     1      31.912   5.906  21.308  1.00  0.00     0.004 C 
ENDBRANCH   9  10
ENDBRANCH   8   9
ENDBRANCH   7   8
ENDBRANCH   1   7
TORSDOF 7
ENDMDL
MODEL 4
REMARK VINA RESULT:    -3.102      1.363      2.199
REMARK INTER + INTRA:          -4.983
REMARK INTER:                  -4.635
REMARK INTRA:                  -0.347
REMARK UNBOUND:                -0.611
REMARK SMILES CCCCCCCCC(=O)[O-]
REMARK SMILES IDX 6 1 7 2 8 3 9 4 10 5 11 6 5 7 4 8 3 9 2 10 1 11
REMARK H PARENT
REMARK Flexibility Score: inf
ROOT
ATOM      1  C   UNL     1      32.106   8.754  21.828  1.00  0.00     0.000 C 
ENDROOT
BRANCH   1   2
ATOM      2  C   UNL     1      31.402   7.437  21.479  1.00  0.00     0.006 C 
BRANCH   2   3
ATOM      3  C   UNL     1      32.374   6.451  20.824  1.00  0.00     0.053 C 
BRANCH   3   4
ATOM      4  C   UNL     1      32.051   5.048  21.230  1.00  0.00     0.041 C 
ATOM      5  O   UNL     1      31.113   4.425  20.664  1.00  0.00    -0.550 OA
ATOM      6  O   UNL     1      32.750   4.445  22.268  1.00  0.00    -0.550 OA
ENDBRANCH   3   4
ENDBRANCH   2   3
ENDBRANCH   1   2
BRANCH   1   7
ATOM      7  C   UNL     1      31.322   9.529  22.898  1.00  0.00     0.000 C 
BRANCH   7   8
ATOM      8  C   UNL     1      32.116  10.707  23.481  1.00  0.00    -0.000 C 
BRANCH   8   9
ATOM      9  C   UNL     1      33.237  11.186  22.542  1.00  0.00    -0.000 C 
BRANCH   9  10
ATOM     10  C   UNL     1      34.621  11.145  23.210  1.00  0.00    -0.003 C 
ATOM     11  C   UNL     1      35.611  10.243  22.472  1.00  0.00     0.004 C 
ENDBRANCH   9  10
ENDBRANCH   8   9
ENDBRANCH   7   8
ENDBRANCH   1   7
TORSDOF 7
ENDMDL
MODEL 5
REMARK VINA RESULT:    -3.015      1.702      3.169
REMARK INTER + INTRA:          -4.860
REMARK INTER:                  -4.397
REMARK INTRA:                  -0.463
REMARK UNBOUND:                -0.611
REMARK SMILES CCCCCCCCC(=O)[O-]
REMARK SMILES IDX 6 1 7 2 8 3 9 4 10 5 11 6 5 7 4 8 3 9 2 10 1 11
REMARK H PARENT
REMARK Flexibility Score: inf
ROOT
ATOM      1  C   UNL     1      34.738  11.426  23.438  1.00  0.00     0.000 C 
ENDROOT
BRANCH   1   2
ATOM      2  C   UNL     1      33.410  11.647  22.704  1.00  0.00     0.006 C 
BRANCH   2   3
ATOM      3  C   UNL     1      32.269  10.892  23.393  1.00  0.00     0.053 C 
BRANCH   3   4
ATOM      4  C   UNL     1      31.911   9.663  22.620  1.00  0.00     0.041 C 
ATOM      5  O   UNL     1      30.891   8.993  22.932  1.00  0.00    -0.550 OA
ATOM      6  O   UNL     1      32.731   9.227  21.587  1.00  0.00    -0.550 OA
ENDBRANCH   3   4
ENDBRANCH   2   3
ENDBRANCH   1   2
BRANCH   1   7
ATOM      7  C   UNL     1      35.881  11.175  22.443  1.00  0.00     0.000 C 
BRANCH   7   8
ATOM      8  C   UNL     1      37.004  10.308  23.033  1.00  0.00    -0.000 C 
BRANCH   8   9
ATOM      9  C   UNL     1      36.948   8.852  22.538  1.00  0.00    -0.000 C 
BRANCH   9  10
ATOM     10  C   UNL     1      36.232   8.718  21.184  1.00  0.00    -0.003 C 
ATOM     11  C   UNL     1      35.661   7.319  20.949  1.00  0.00     0.004 C 
ENDBRANCH   9  10
ENDBRANCH   8   9
ENDBRANCH   7   8
ENDBRANCH   1   7
TORSDOF 7
ENDMDL
MODEL 6
REMARK VINA RESULT:    -2.986      3.135      4.847
REMARK INTER + INTRA:          -4.820
REMARK INTER:                  -4.457
REMARK INTRA:                  -0.363
REMARK UNBOUND:                -0.611
REMARK SMILES CCCCCCCCC(=O)[O-]
REMARK SMILES IDX 6 1 7 2 8 3 9 4 10 5 11 6 5 7 4 8 3 9 2 10 1 11
REMARK H PARENT
REMARK Flexibility Score: inf
ROOT
ATOM      1  C   UNL     1      34.283  11.754  22.900  1.00  0.00     0.000 C 
ENDROOT
BRANCH   1   2
ATOM      2  C   UNL     1      35.194  10.557  22.601  1.00  0.00     0.006 C 
BRANCH   2   3
ATOM      3  C   UNL     1      36.654  10.881  22.931  1.00  0.00     0.053 C 
BRANCH   3   4
ATOM      4  C   UNL     1      37.477   9.633  22.950  1.00  0.00     0.041 C 
ATOM      5  O   UNL     1      36.967   8.532  22.609  1.00  0.00    -0.550 OA
ATOM      6  O   UNL     1      38.793   9.674  23.392  1.00  0.00    -0.550 OA
ENDBRANCH   3   4
ENDBRANCH   2   3
ENDBRANCH   1   2
BRANCH   1   7
ATOM      7  C   UNL     1      32.840  11.470  22.458  1.00  0.00     0.000 C 
BRANCH   7   8
ATOM      8  C   UNL     1      32.056  10.638  23.485  1.00  0.00    -0.000 C 
BRANCH   8   9
ATOM      9  C   UNL     1      31.265   9.490  22.835  1.00  0.00    -0.000 C 
BRANCH   9  10
ATOM     10  C   UNL     1      32.072   8.761  21.749  1.00  0.00    -0.003 C 
ATOM     11  C   UNL     1      31.494   7.389  21.399  1.00  0.00     0.004 C 
ENDBRANCH   9  10
ENDBRANCH   8   9
ENDBRANCH   7   8
ENDBRANCH   1   7
TORSDOF 7
ENDMDL
MODEL 7
REMARK VINA RESULT:    -2.932      2.186      3.538
REMARK INTER + INTRA:          -4.744
REMARK INTER:                  -4.457
REMARK INTRA:                  -0.287
REMARK UNBOUND:                -0.611
REMARK SMILES CCCCCCCCC(=O)[O-]
REMARK SMILES IDX 6 1 7 2 8 3 9 4 10 5 11 6 5 7 4 8 3 9 2 10 1 11
REMARK H PARENT
REMARK Flexibility Score: inf
ROOT
ATOM      1  C   UNL     1      34.907  11.190  23.490  1.00  0.00     0.000 C 
ENDROOT
BRANCH   1   2
ATOM      2  C   UNL     1      33.591  11.511  22.771  1.00  0.00     0.006 C 
BRANCH   2   3
ATOM      3  C   UNL     1      32.408  10.822  23.458  1.00  0.00     0.053 C 
BRANCH   3   4
ATOM      4  C   UNL     1      31.910   9.682  22.627  1.00  0.00     0.041 C 
ATOM      5  O   UNL     1      30.875   9.052  22.970  1.00  0.00    -0.550 OA
ATOM      6  O   UNL     1      32.618   9.282  21.501  1.00  0.00    -0.550 OA
ENDBRANCH   3   4
ENDBRANCH   2   3
ENDBRANCH   1   2
BRANCH   1   7
ATOM      7  C   UNL     1      35.914  10.540  22.530  1.00  0.00     0.000 C 
BRANCH   7   8
ATOM      8  C   UNL     1      37.163  10.007  23.248  1.00  0.00    -0.000 C 
BRANCH   8   9
ATOM      9  C   UNL     1      37.911   8.946  22.422  1.00  0.00    -0.000 C 
BRANCH   9  10
ATOM     10  C   UNL     1      37.714   7.525  22.973  1.00  0.00    -0.003 C 
ATOM     11  C   UNL     1      38.235   7.363  24.402  1.00  0.00     0.004 C 
ENDBRANCH   9  10
ENDBRANCH   8   9
ENDBRANCH   7   8
ENDBRANCH   1   7
TORSDOF 7
ENDMDL
MODEL 8
REMARK VINA RESULT:    -2.921      2.910      4.736
REMARK INTER + INTRA:          -4.728
REMARK INTER:                  -4.342
REMARK INTRA:                  -0.386
REMARK UNBOUND:                -0.611
REMARK SMILES CCCCCCCCC(=O)[O-]
REMARK SMILES IDX 6 1 7 2 8 3 9 4 10 5 11 6 5 7 4 8 3 9 2 10 1 11
REMARK H PARENT
REMARK Flexibility Score: inf
ROOT
ATOM      1  C   UNL     1      33.316  11.473  22.709  1.00  0.00     0.000 C 
ENDROOT
BRANCH   1   2
ATOM      2  C   UNL     1      34.542  11.375  23.625  1.00  0.00     0.006 C 
BRANCH   2   3
ATOM      3  C   UNL     1      35.826  11.713  22.862  1.00  0.00     0.053 C 
BRANCH   3   4
ATOM      4  C   UNL     1      36.684  10.497  22.715  1.00  0.00     0.041 C 
ATOM      5  O   UNL     1      37.913  10.550  22.990  1.00  0.00    -0.550 OA
ATOM      6  O   UNL     1      36.139   9.316  22.226  1.00  0.00    -0.550 OA
ENDBRANCH   3   4
ENDBRANCH   2   3
ENDBRANCH   1   2
BRANCH   1   7
ATOM      7  C   UNL     1      32.114  10.736  23.318  1.00  0.00     0.000 C 
BRANCH   7   8
ATOM      8  C   UNL     1      31.692   9.507  22.500  1.00  0.00    -0.000 C 
BRANCH   8   9
ATOM      9  C   UNL     1      32.732   9.121  21.434  1.00  0.00    -0.000 C 
BRANCH   9  10
ATOM     10  C   UNL     1      32.443   7.752  20.799  1.00  0.00    -0.003 C 
ATOM     11  C   UNL     1      31.196   7.081  21.375  1.00  0.00     0.004 C 
ENDBRANCH   9  10
ENDBRANCH   8   9
ENDBRANCH   7   8
ENDBRANCH   1   7
TORSDOF 7
ENDMDL
MODEL 9
REMARK VINA RESULT:    -2.870      2.863      4.878
REMARK INTER + INTRA:          -4.655
REMARK INTER:                  -4.392
REMARK INTRA:                  -0.263
REMARK UNBOUND:                -0.611
REMARK SMILES CCCCCCCCC(=O)[O-]
REMARK SMILES IDX 6 1 7 2 8 3 9 4 10 5 11 6 5 7 4 8 3 9 2 10 1 11
REMARK H PARENT
REMARK Flexibility Score: inf
ROOT
ATOM      1  C   UNL     1      31.209   9.468  22.845  1.00  0.00     0.000 C 
ENDROOT
BRANCH   1   2
ATOM      2  C   UNL     1      32.087  10.570  23.449  1.00  0.00     0.006 C 
BRANCH   2   3
ATOM      3  C   UNL     1      32.571  11.541  22.367  1.00  0.00     0.053 C 
BRANCH   3   4
ATOM      4  C   UNL     1      34.061  11.674  22.410  1.00  0.00     0.041 C 
ATOM      5  O   UNL     1      34.697  12.004  21.374  1.00  0.00    -0.550 OA
ATOM      6  O   UNL     1      34.752  11.384  23.579  1.00  0.00    -0.550 OA
ENDBRANCH   3   4
ENDBRANCH   2   3
ENDBRANCH   1   2
BRANCH   1   7
ATOM      7  C   UNL     1      31.974   8.683  21.769  1.00  0.00     0.000 C 
BRANCH   7   8
ATOM      8  C   UNL     1      31.346   7.313  21.473  1.00  0.00    -0.000 C 
BRANCH   8   9
ATOM      9  C   UNL     1      32.139   6.514  20.423  1.00  0.00    -0.000 C 
BRANCH   9  10
ATOM     10  C   UNL     1      33.195   5.595  21.058  1.00  0.00    -0.003 C 
ATOM     11  C   UNL     1      32.586   4.543  21.985  1.00  0.00     0.004 C 
ENDBRANCH   9  10
ENDBRANCH   8   9
ENDBRANCH   7   8
ENDBRANCH   1   7
TORSDOF 7
ENDMDL
