MODEL 1
REMARK VINA RESULT:    -7.428      0.000      0.000
REMARK INTER + INTRA:          -9.996
REMARK INTER:                  -9.382
REMARK INTRA:                  -0.614
REMARK UNBOUND:                -0.614
REMARK SMILES O=C(C=Cc1ccc(O)cc1)c1ccc(O)cc1O
REMARK SMILES IDX 4 1 3 2 5 3 6 4 7 5 8 6 11 7 10 8 9 9 2 11 1 12 12 13 18 14
REMARK SMILES IDX 13 15 17 16 14 17 15 18 19 19 16 21
REMARK H PARENT 9 10 19 20 16 22
REMARK Flexibility Score: inf
ROOT
ATOM      1  C   UNL     1      61.746 -17.738  -1.186  1.00  0.00     0.012 C 
ATOM      2  C   UNL     1      61.641 -18.047   0.114  1.00  0.00     0.053 C 
ENDROOT
BRANCH   1   3
ATOM      3  C   UNL     1      61.909 -16.353  -1.692  1.00  0.00    -0.025 A 
ATOM      4  C   UNL     1      60.895 -15.807  -2.498  1.00  0.00     0.012 A 
ATOM      5  C   UNL     1      61.002 -14.502  -2.988  1.00  0.00     0.047 A 
ATOM      6  C   UNL     1      62.115 -13.719  -2.672  1.00  0.00     0.115 A 
ATOM      7  C   UNL     1      63.023 -15.552  -1.364  1.00  0.00     0.012 A 
ATOM      8  C   UNL     1      63.125 -14.247  -1.856  1.00  0.00     0.047 A 
BRANCH   6   9
ATOM      9  O   UNL     1      62.208 -12.421  -3.168  1.00  0.00    -0.508 OA
ATOM     10  H   UNL     1      63.045 -11.864  -3.040  1.00  0.00     0.293 HD
ENDBRANCH   6   9
ENDBRANCH   1   3
BRANCH   2  11
ATOM     11  C   UNL     1      61.497 -19.445   0.582  1.00  0.00     0.189 C 
ATOM     12  O   UNL     1      61.770 -20.397  -0.200  1.00  0.00    -0.289 OA
BRANCH  11  13
ATOM     13  C   UNL     1      61.047 -19.745   1.965  1.00  0.00     0.064 A 
ATOM     14  C   UNL     1      61.846 -20.518   2.837  1.00  0.00     0.130 A 
ATOM     15  C   UNL     1      59.798 -19.278   2.420  1.00  0.00     0.020 A 
ATOM     16  C   UNL     1      61.393 -20.804   4.133  1.00  0.00     0.093 A 
ATOM     17  C   UNL     1      59.359 -19.568   3.714  1.00  0.00     0.047 A 
ATOM     18  C   UNL     1      60.152 -20.328   4.573  1.00  0.00     0.119 A 
BRANCH  14  19
ATOM     19  O   UNL     1      63.093 -20.987   2.423  1.00  0.00    -0.507 OA
ATOM     20  H   UNL     1      63.952 -20.662   2.849  1.00  0.00     0.293 HD
ENDBRANCH  14  19
BRANCH  18  21
ATOM     21  O   UNL     1      59.699 -20.609   5.861  1.00  0.00    -0.508 OA
ATOM     22  H   UNL     1      59.964 -21.460   6.342  1.00  0.00     0.293 HD
ENDBRANCH  18  21
ENDBRANCH  11  13
ENDBRANCH   2  11
TORSDOF 6
ENDMDL
MODEL 2
REMARK VINA RESULT:    -7.079      1.673      2.073
REMARK INTER + INTRA:          -9.555
REMARK INTER:                  -8.928
REMARK INTRA:                  -0.627
REMARK UNBOUND:                -0.614
REMARK SMILES O=C(C=Cc1ccc(O)cc1)c1ccc(O)cc1O
REMARK SMILES IDX 4 1 3 2 5 3 6 4 7 5 8 6 11 7 10 8 9 9 2 11 1 12 12 13 18 14
REMARK SMILES IDX 13 15 17 16 14 17 15 18 19 19 16 21
REMARK H PARENT 9 10 19 20 16 22
REMARK Flexibility Score: inf
ROOT
ATOM      1  C   UNL     1      62.014 -18.102   0.626  1.00  0.00     0.012 C 
ATOM      2  C   UNL     1      61.033 -18.562   1.415  1.00  0.00     0.053 C 
ENDROOT
BRANCH   1   3
ATOM      3  C   UNL     1      61.995 -16.764  -0.016  1.00  0.00    -0.025 A 
ATOM      4  C   UNL     1      61.205 -15.754   0.557  1.00  0.00     0.012 A 
ATOM      5  C   UNL     1      61.164 -14.476  -0.008  1.00  0.00     0.047 A 
ATOM      6  C   UNL     1      61.920 -14.185  -1.147  1.00  0.00     0.115 A 
ATOM      7  C   UNL     1      62.768 -16.459  -1.156  1.00  0.00     0.012 A 
ATOM      8  C   UNL     1      62.724 -15.180  -1.718  1.00  0.00     0.047 A 
BRANCH   6   9
ATOM      9  O   UNL     1      61.869 -12.907  -1.700  1.00  0.00    -0.508 OA
ATOM     10  H   UNL     1      62.461 -12.159  -1.358  1.00  0.00     0.293 HD
ENDBRANCH   6   9
ENDBRANCH   1   3
BRANCH   2  11
ATOM     11  C   UNL     1      61.096 -19.897   2.054  1.00  0.00     0.189 C 
ATOM     12  O   UNL     1      62.073 -20.658   1.814  1.00  0.00    -0.289 OA
BRANCH  11  13
ATOM     13  C   UNL     1      60.030 -20.350   2.983  1.00  0.00     0.064 A 
ATOM     14  C   UNL     1      60.346 -20.808   4.281  1.00  0.00     0.130 A 
ATOM     15  C   UNL     1      58.683 -20.351   2.570  1.00  0.00     0.020 A 
ATOM     16  C   UNL     1      59.326 -21.248   5.137  1.00  0.00     0.093 A 
ATOM     17  C   UNL     1      57.675 -20.789   3.431  1.00  0.00     0.047 A 
ATOM     18  C   UNL     1      57.991 -21.238   4.714  1.00  0.00     0.119 A 
BRANCH  14  19
ATOM     19  O   UNL     1      61.668 -20.812   4.727  1.00  0.00    -0.507 OA
ATOM     20  H   UNL     1      62.364 -20.191   4.334  1.00  0.00     0.293 HD
ENDBRANCH  14  19
BRANCH  18  21
ATOM     21  O   UNL     1      56.974 -21.673   5.561  1.00  0.00    -0.508 OA
ATOM     22  H   UNL     1      56.352 -21.020   6.022  1.00  0.00     0.293 HD
ENDBRANCH  18  21
ENDBRANCH  11  13
ENDBRANCH   2  11
TORSDOF 6
ENDMDL
MODEL 3
REMARK VINA RESULT:    -6.926      2.028      3.168
REMARK INTER + INTRA:          -9.362
REMARK INTER:                  -8.684
REMARK INTRA:                  -0.678
REMARK UNBOUND:                -0.614
REMARK SMILES O=C(C=Cc1ccc(O)cc1)c1ccc(O)cc1O
REMARK SMILES IDX 4 1 3 2 5 3 6 4 7 5 8 6 11 7 10 8 9 9 2 11 1 12 12 13 18 14
REMARK SMILES IDX 13 15 17 16 14 17 15 18 19 19 16 21
REMARK H PARENT 9 10 19 20 16 22
REMARK Flexibility Score: inf
ROOT
ATOM      1  C   UNL     1      60.715 -15.223  -0.303  1.00  0.00     0.012 C 
ATOM      2  C   UNL     1      59.871 -16.213  -0.627  1.00  0.00     0.053 C 
ENDROOT
BRANCH   1   3
ATOM      3  C   UNL     1      61.262 -14.255  -1.285  1.00  0.00    -0.025 A 
ATOM      4  C   UNL     1      62.191 -13.298  -0.841  1.00  0.00     0.012 A 
ATOM      5  C   UNL     1      62.741 -12.373  -1.733  1.00  0.00     0.047 A 
ATOM      6  C   UNL     1      62.381 -12.396  -3.083  1.00  0.00     0.115 A 
ATOM      7  C   UNL     1      60.915 -14.282  -2.652  1.00  0.00     0.012 A 
ATOM      8  C   UNL     1      61.468 -13.355  -3.541  1.00  0.00     0.047 A 
BRANCH   6   9
ATOM      9  O   UNL     1      62.936 -11.468  -3.960  1.00  0.00    -0.508 OA
ATOM     10  H   UNL     1      62.492 -10.573  -4.135  1.00  0.00     0.293 HD
ENDBRANCH   6   9
ENDBRANCH   1   3
BRANCH   2  11
ATOM     11  C   UNL     1      59.331 -17.150   0.385  1.00  0.00     0.189 C 
ATOM     12  O   UNL     1      58.194 -16.937   0.890  1.00  0.00    -0.289 OA
BRANCH  11  13
ATOM     13  C   UNL     1      60.103 -18.347   0.807  1.00  0.00     0.064 A 
ATOM     14  C   UNL     1      60.143 -18.742   2.163  1.00  0.00     0.130 A 
ATOM     15  C   UNL     1      60.828 -19.093  -0.142  1.00  0.00     0.020 A 
ATOM     16  C   UNL     1      60.893 -19.865   2.543  1.00  0.00     0.093 A 
ATOM     17  C   UNL     1      61.569 -20.210   0.248  1.00  0.00     0.047 A 
ATOM     18  C   UNL     1      61.604 -20.600   1.587  1.00  0.00     0.119 A 
BRANCH  14  19
ATOM     19  O   UNL     1      59.428 -18.032   3.128  1.00  0.00    -0.507 OA
ATOM     20  H   UNL     1      58.423 -18.121   3.219  1.00  0.00     0.293 HD
ENDBRANCH  14  19
BRANCH  18  21
ATOM     21  O   UNL     1      62.349 -21.717   1.960  1.00  0.00    -0.508 OA
ATOM     22  H   UNL     1      61.930 -22.638   2.022  1.00  0.00     0.293 HD
ENDBRANCH  18  21
ENDBRANCH  11  13
ENDBRANCH   2  11
TORSDOF 6
ENDMDL
MODEL 4
REMARK VINA RESULT:    -6.915      5.195      8.512
REMARK INTER + INTRA:          -9.348
REMARK INTER:                  -8.581
REMARK INTRA:                  -0.767
REMARK UNBOUND:                -0.614
REMARK SMILES O=C(C=Cc1ccc(O)cc1)c1ccc(O)cc1O
REMARK SMILES IDX 4 1 3 2 5 3 6 4 7 5 8 6 11 7 10 8 9 9 2 11 1 12 12 13 18 14
REMARK SMILES IDX 13 15 17 16 14 17 15 18 19 19 16 21
REMARK H PARENT 9 10 19 20 16 22
REMARK Flexibility Score: inf
ROOT
ATOM      1  C   UNL     1      56.925 -20.273   3.547  1.00  0.00     0.012 C 
ATOM      2  C   UNL     1      56.268 -20.972   4.483  1.00  0.00     0.053 C 
ENDROOT
BRANCH   1   3
ATOM      3  C   UNL     1      58.396 -20.327   3.361  1.00  0.00    -0.025 A 
ATOM      4  C   UNL     1      59.106 -21.404   3.920  1.00  0.00     0.012 A 
ATOM      5  C   UNL     1      60.491 -21.501   3.761  1.00  0.00     0.047 A 
ATOM      6  C   UNL     1      61.187 -20.533   3.033  1.00  0.00     0.115 A 
ATOM      7  C   UNL     1      59.103 -19.361   2.614  1.00  0.00     0.012 A 
ATOM      8  C   UNL     1      60.488 -19.463   2.457  1.00  0.00     0.047 A 
BRANCH   6   9
ATOM      9  O   UNL     1      62.567 -20.642   2.883  1.00  0.00    -0.508 OA
ATOM     10  H   UNL     1      63.018 -20.483   1.989  1.00  0.00     0.293 HD
ENDBRANCH   6   9
ENDBRANCH   1   3
BRANCH   2  11
ATOM     11  C   UNL     1      54.795 -20.906   4.628  1.00  0.00     0.189 C 
ATOM     12  O   UNL     1      54.287 -20.728   5.769  1.00  0.00    -0.289 OA
BRANCH  11  13
ATOM     13  C   UNL     1      53.906 -21.033   3.445  1.00  0.00     0.064 A 
ATOM     14  C   UNL     1      53.008 -19.999   3.099  1.00  0.00     0.130 A 
ATOM     15  C   UNL     1      53.930 -22.205   2.664  1.00  0.00     0.020 A 
ATOM     16  C   UNL     1      52.163 -20.147   1.988  1.00  0.00     0.093 A 
ATOM     17  C   UNL     1      53.086 -22.340   1.560  1.00  0.00     0.047 A 
ATOM     18  C   UNL     1      52.203 -21.316   1.218  1.00  0.00     0.119 A 
BRANCH  14  19
ATOM     19  O   UNL     1      52.964 -18.821   3.844  1.00  0.00    -0.507 OA
ATOM     20  H   UNL     1      52.615 -18.805   4.795  1.00  0.00     0.293 HD
ENDBRANCH  14  19
BRANCH  18  21
ATOM     21  O   UNL     1      51.367 -21.467   0.113  1.00  0.00    -0.508 OA
ATOM     22  H   UNL     1      50.385 -21.221   0.154  1.00  0.00     0.293 HD
ENDBRANCH  18  21
ENDBRANCH  11  13
ENDBRANCH   2  11
TORSDOF 6
ENDMDL
MODEL 5
REMARK VINA RESULT:    -6.901      4.858      7.710
REMARK INTER + INTRA:          -9.330
REMARK INTER:                  -8.724
REMARK INTRA:                  -0.607
REMARK UNBOUND:                -0.614
REMARK SMILES O=C(C=Cc1ccc(O)cc1)c1ccc(O)cc1O
REMARK SMILES IDX 4 1 3 2 5 3 6 4 7 5 8 6 11 7 10 8 9 9 2 11 1 12 12 13 18 14
REMARK SMILES IDX 13 15 17 16 14 17 15 18 19 19 16 21
REMARK H PARENT 9 10 19 20 16 22
REMARK Flexibility Score: inf
ROOT
ATOM      1  C   UNL     1      57.966 -18.608   2.823  1.00  0.00     0.012 C 
ATOM      2  C   UNL     1      56.834 -19.325   2.846  1.00  0.00     0.053 C 
ENDROOT
BRANCH   1   3
ATOM      3  C   UNL     1      59.320 -19.210   2.731  1.00  0.00    -0.025 A 
ATOM      4  C   UNL     1      59.826 -19.901   3.844  1.00  0.00     0.012 A 
ATOM      5  C   UNL     1      61.092 -20.492   3.799  1.00  0.00     0.047 A 
ATOM      6  C   UNL     1      61.865 -20.413   2.638  1.00  0.00     0.115 A 
ATOM      7  C   UNL     1      60.099 -19.147   1.557  1.00  0.00     0.012 A 
ATOM      8  C   UNL     1      61.364 -19.741   1.515  1.00  0.00     0.047 A 
BRANCH   6   9
ATOM      9  O   UNL     1      63.125 -21.007   2.607  1.00  0.00    -0.508 OA
ATOM     10  H   UNL     1      63.802 -20.851   3.346  1.00  0.00     0.293 HD
ENDBRANCH   6   9
ENDBRANCH   1   3
BRANCH   2  11
ATOM     11  C   UNL     1      55.499 -18.687   2.921  1.00  0.00     0.189 C 
ATOM     12  O   UNL     1      55.327 -17.538   2.429  1.00  0.00    -0.289 OA
BRANCH  11  13
ATOM     13  C   UNL     1      54.354 -19.385   3.558  1.00  0.00     0.064 A 
ATOM     14  C   UNL     1      53.056 -19.303   3.006  1.00  0.00     0.130 A 
ATOM     15  C   UNL     1      54.544 -20.124   4.742  1.00  0.00     0.020 A 
ATOM     16  C   UNL     1      51.985 -19.955   3.633  1.00  0.00     0.093 A 
ATOM     17  C   UNL     1      53.470 -20.772   5.356  1.00  0.00     0.047 A 
ATOM     18  C   UNL     1      52.191 -20.691   4.806  1.00  0.00     0.119 A 
BRANCH  14  19
ATOM     19  O   UNL     1      52.833 -18.588   1.828  1.00  0.00    -0.507 OA
ATOM     20  H   UNL     1      52.975 -19.005   0.917  1.00  0.00     0.293 HD
ENDBRANCH  14  19
BRANCH  18  21
ATOM     21  O   UNL     1      51.130 -21.342   5.432  1.00  0.00    -0.508 OA
ATOM     22  H   UNL     1      51.017 -21.326   6.439  1.00  0.00     0.293 HD
ENDBRANCH  18  21
ENDBRANCH  11  13
ENDBRANCH   2  11
TORSDOF 6
ENDMDL
MODEL 6
REMARK VINA RESULT:    -6.841      3.919      8.420
REMARK INTER + INTRA:          -9.255
REMARK INTER:                  -8.836
REMARK INTRA:                  -0.420
REMARK UNBOUND:                -0.614
REMARK SMILES O=C(C=Cc1ccc(O)cc1)c1ccc(O)cc1O
REMARK SMILES IDX 4 1 3 2 5 3 6 4 7 5 8 6 11 7 10 8 9 9 2 11 1 12 12 13 18 14
REMARK SMILES IDX 13 15 17 16 14 17 15 18 19 19 16 21
REMARK H PARENT 9 10 19 20 16 22
REMARK Flexibility Score: inf
ROOT
ATOM      1  C   UNL     1      56.967 -21.198   3.421  1.00  0.00     0.012 C 
ATOM      2  C   UNL     1      58.061 -21.015   4.174  1.00  0.00     0.053 C 
ENDROOT
BRANCH   1   3
ATOM      3  C   UNL     1      55.582 -21.105   3.945  1.00  0.00    -0.025 A 
ATOM      4  C   UNL     1      54.857 -22.291   4.147  1.00  0.00     0.012 A 
ATOM      5  C   UNL     1      53.553 -22.252   4.649  1.00  0.00     0.047 A 
ATOM      6  C   UNL     1      52.958 -21.029   4.968  1.00  0.00     0.115 A 
ATOM      7  C   UNL     1      54.980 -19.874   4.284  1.00  0.00     0.012 A 
ATOM      8  C   UNL     1      53.676 -19.840   4.786  1.00  0.00     0.047 A 
BRANCH   6   9
ATOM      9  O   UNL     1      51.657 -21.005   5.467  1.00  0.00    -0.508 OA
ATOM     10  H   UNL     1      51.142 -20.137   5.559  1.00  0.00     0.293 HD
ENDBRANCH   6   9
ENDBRANCH   1   3
BRANCH   2  11
ATOM     11  C   UNL     1      59.428 -21.099   3.610  1.00  0.00     0.189 C 
ATOM     12  O   UNL     1      60.135 -22.119   3.836  1.00  0.00    -0.289 OA
BRANCH  11  13
ATOM     13  C   UNL     1      59.977 -20.003   2.772  1.00  0.00     0.064 A 
ATOM     14  C   UNL     1      61.142 -20.196   1.998  1.00  0.00     0.130 A 
ATOM     15  C   UNL     1      59.352 -18.741   2.758  1.00  0.00     0.020 A 
ATOM     16  C   UNL     1      61.655 -19.142   1.227  1.00  0.00     0.093 A 
ATOM     17  C   UNL     1      59.869 -17.699   1.984  1.00  0.00     0.047 A 
ATOM     18  C   UNL     1      61.018 -17.895   1.218  1.00  0.00     0.119 A 
BRANCH  14  19
ATOM     19  O   UNL     1      61.782 -21.436   1.980  1.00  0.00    -0.507 OA
ATOM     20  H   UNL     1      61.982 -21.944   2.833  1.00  0.00     0.293 HD
ENDBRANCH  14  19
BRANCH  18  21
ATOM     21  O   UNL     1      61.523 -16.846   0.453  1.00  0.00    -0.508 OA
ATOM     22  H   UNL     1      61.107 -15.922   0.480  1.00  0.00     0.293 HD
ENDBRANCH  18  21
ENDBRANCH  11  13
ENDBRANCH   2  11
TORSDOF 6
ENDMDL
MODEL 7
REMARK VINA RESULT:    -6.831      1.878      7.992
REMARK INTER + INTRA:          -9.242
REMARK INTER:                  -8.571
REMARK INTRA:                  -0.671
REMARK UNBOUND:                -0.614
REMARK SMILES O=C(C=Cc1ccc(O)cc1)c1ccc(O)cc1O
REMARK SMILES IDX 4 1 3 2 5 3 6 4 7 5 8 6 11 7 10 8 9 9 2 11 1 12 12 13 18 14
REMARK SMILES IDX 13 15 17 16 14 17 15 18 19 19 16 21
REMARK H PARENT 9 10 19 20 16 22
REMARK Flexibility Score: inf
ROOT
ATOM      1  C   UNL     1      60.320 -16.946   1.258  1.00  0.00     0.012 C 
ATOM      2  C   UNL     1      61.336 -16.324   0.641  1.00  0.00     0.053 C 
ENDROOT
BRANCH   1   3
ATOM      3  C   UNL     1      60.422 -18.305   1.843  1.00  0.00    -0.025 A 
ATOM      4  C   UNL     1      61.473 -19.140   1.428  1.00  0.00     0.012 A 
ATOM      5  C   UNL     1      61.613 -20.425   1.960  1.00  0.00     0.047 A 
ATOM      6  C   UNL     1      60.714 -20.891   2.923  1.00  0.00     0.115 A 
ATOM      7  C   UNL     1      59.527 -18.776   2.827  1.00  0.00     0.012 A 
ATOM      8  C   UNL     1      59.671 -20.062   3.357  1.00  0.00     0.047 A 
BRANCH   6   9
ATOM      9  O   UNL     1      60.866 -22.174   3.444  1.00  0.00    -0.508 OA
ATOM     10  H   UNL     1      61.242 -22.931   2.885  1.00  0.00     0.293 HD
ENDBRANCH   6   9
ENDBRANCH   1   3
BRANCH   2  11
ATOM     11  C   UNL     1      61.202 -14.958   0.084  1.00  0.00     0.189 C 
ATOM     12  O   UNL     1      61.089 -13.974   0.865  1.00  0.00    -0.289 OA
BRANCH  11  13
ATOM     13  C   UNL     1      61.210 -14.728  -1.383  1.00  0.00     0.064 A 
ATOM     14  C   UNL     1      61.910 -13.635  -1.941  1.00  0.00     0.130 A 
ATOM     15  C   UNL     1      60.496 -15.588  -2.239  1.00  0.00     0.020 A 
ATOM     16  C   UNL     1      61.891 -13.425  -3.328  1.00  0.00     0.093 A 
ATOM     17  C   UNL     1      60.486 -15.371  -3.619  1.00  0.00     0.047 A 
ATOM     18  C   UNL     1      61.181 -14.292  -4.167  1.00  0.00     0.119 A 
BRANCH  14  19
ATOM     19  O   UNL     1      62.636 -12.768  -1.123  1.00  0.00    -0.507 OA
ATOM     20  H   UNL     1      62.187 -12.209  -0.409  1.00  0.00     0.293 HD
ENDBRANCH  14  19
BRANCH  18  21
ATOM     21  O   UNL     1      61.160 -14.088  -5.545  1.00  0.00    -0.508 OA
ATOM     22  H   UNL     1      61.995 -13.827  -6.055  1.00  0.00     0.293 HD
ENDBRANCH  18  21
ENDBRANCH  11  13
ENDBRANCH   2  11
TORSDOF 6
ENDMDL
MODEL 8
REMARK VINA RESULT:    -6.830      3.201      6.033
REMARK INTER + INTRA:          -9.242
REMARK INTER:                  -8.564
REMARK INTRA:                  -0.678
REMARK UNBOUND:                -0.614
REMARK SMILES O=C(C=Cc1ccc(O)cc1)c1ccc(O)cc1O
REMARK SMILES IDX 4 1 3 2 5 3 6 4 7 5 8 6 11 7 10 8 9 9 2 11 1 12 12 13 18 14
REMARK SMILES IDX 13 15 17 16 14 17 15 18 19 19 16 21
REMARK H PARENT 9 10 19 20 16 22
REMARK Flexibility Score: inf
ROOT
ATOM      1  C   UNL     1      60.154 -13.257  -3.181  1.00  0.00     0.012 C 
ATOM      2  C   UNL     1      61.484 -13.370  -3.049  1.00  0.00     0.053 C 
ENDROOT
BRANCH   1   3
ATOM      3  C   UNL     1      59.466 -13.122  -4.488  1.00  0.00    -0.025 A 
ATOM      4  C   UNL     1      58.173 -12.571  -4.515  1.00  0.00     0.012 A 
ATOM      5  C   UNL     1      57.491 -12.415  -5.725  1.00  0.00     0.047 A 
ATOM      6  C   UNL     1      58.093 -12.796  -6.927  1.00  0.00     0.115 A 
ATOM      7  C   UNL     1      60.073 -13.489  -5.707  1.00  0.00     0.012 A 
ATOM      8  C   UNL     1      59.387 -13.331  -6.915  1.00  0.00     0.047 A 
BRANCH   6   9
ATOM      9  O   UNL     1      57.401 -12.635  -8.125  1.00  0.00    -0.508 OA
ATOM     10  H   UNL     1      57.862 -12.295  -8.961  1.00  0.00     0.293 HD
ENDBRANCH   6   9
ENDBRANCH   1   3
BRANCH   2  11
ATOM     11  C   UNL     1      62.134 -13.521  -1.727  1.00  0.00     0.189 C 
ATOM     12  O   UNL     1      62.712 -12.532  -1.198  1.00  0.00    -0.289 OA
BRANCH  11  13
ATOM     13  C   UNL     1      62.107 -14.819  -1.006  1.00  0.00     0.064 A 
ATOM     14  C   UNL     1      61.290 -15.000   0.132  1.00  0.00     0.130 A 
ATOM     15  C   UNL     1      62.919 -15.886  -1.438  1.00  0.00     0.020 A 
ATOM     16  C   UNL     1      61.292 -16.229   0.808  1.00  0.00     0.093 A 
ATOM     17  C   UNL     1      62.911 -17.106  -0.758  1.00  0.00     0.047 A 
ATOM     18  C   UNL     1      62.100 -17.282   0.363  1.00  0.00     0.119 A 
BRANCH  14  19
ATOM     19  O   UNL     1      60.465 -13.968   0.582  1.00  0.00    -0.507 OA
ATOM     20  H   UNL     1      60.653 -13.475   1.446  1.00  0.00     0.293 HD
ENDBRANCH  14  19
BRANCH  18  21
ATOM     21  O   UNL     1      62.105 -18.505   1.032  1.00  0.00    -0.508 OA
ATOM     22  H   UNL     1      61.386 -19.200   0.869  1.00  0.00     0.293 HD
ENDBRANCH  18  21
ENDBRANCH  11  13
ENDBRANCH   2  11
TORSDOF 6
ENDMDL
MODEL 9
REMARK VINA RESULT:    -6.720      4.282      6.131
REMARK INTER + INTRA:          -9.102
REMARK INTER:                  -8.511
REMARK INTRA:                  -0.591
REMARK UNBOUND:                -0.614
REMARK SMILES O=C(C=Cc1ccc(O)cc1)c1ccc(O)cc1O
REMARK SMILES IDX 4 1 3 2 5 3 6 4 7 5 8 6 11 7 10 8 9 9 2 11 1 12 12 13 18 14
REMARK SMILES IDX 13 15 17 16 14 17 15 18 19 19 16 21
REMARK H PARENT 9 10 19 20 16 22
REMARK Flexibility Score: inf
ROOT
ATOM      1  C   UNL     1      58.954 -19.513   3.103  1.00  0.00     0.012 C 
ATOM      2  C   UNL     1      57.631 -19.730   3.090  1.00  0.00     0.053 C 
ENDROOT
BRANCH   1   3
ATOM      3  C   UNL     1      59.613 -18.403   2.371  1.00  0.00    -0.025 A 
ATOM      4  C   UNL     1      60.756 -18.686   1.605  1.00  0.00     0.012 A 
ATOM      5  C   UNL     1      61.404 -17.674   0.891  1.00  0.00     0.047 A 
ATOM      6  C   UNL     1      60.912 -16.366   0.921  1.00  0.00     0.115 A 
ATOM      7  C   UNL     1      59.113 -17.084   2.384  1.00  0.00     0.012 A 
ATOM      8  C   UNL     1      59.763 -16.074   1.668  1.00  0.00     0.047 A 
BRANCH   6   9
ATOM      9  O   UNL     1      61.568 -15.368   0.205  1.00  0.00    -0.508 OA
ATOM     10  H   UNL     1      61.611 -15.384  -0.808  1.00  0.00     0.293 HD
ENDBRANCH   6   9
ENDBRANCH   1   3
BRANCH   2  11
ATOM     11  C   UNL     1      57.007 -20.839   3.848  1.00  0.00     0.189 C 
ATOM     12  O   UNL     1      57.730 -21.766   4.306  1.00  0.00    -0.289 OA
BRANCH  11  13
ATOM     13  C   UNL     1      55.542 -20.871   4.088  1.00  0.00     0.064 A 
ATOM     14  C   UNL     1      54.828 -22.090   4.056  1.00  0.00     0.130 A 
ATOM     15  C   UNL     1      54.838 -19.675   4.329  1.00  0.00     0.020 A 
ATOM     16  C   UNL     1      53.442 -22.095   4.268  1.00  0.00     0.093 A 
ATOM     17  C   UNL     1      53.458 -19.694   4.542  1.00  0.00     0.047 A 
ATOM     18  C   UNL     1      52.757 -20.899   4.512  1.00  0.00     0.119 A 
BRANCH  14  19
ATOM     19  O   UNL     1      55.496 -23.294   3.830  1.00  0.00    -0.507 OA
ATOM     20  H   UNL     1      56.362 -23.333   3.308  1.00  0.00     0.293 HD
ENDBRANCH  14  19
BRANCH  18  21
ATOM     21  O   UNL     1      51.379 -20.900   4.725  1.00  0.00    -0.508 OA
ATOM     22  H   UNL     1      50.724 -20.941   3.954  1.00  0.00     0.293 HD
ENDBRANCH  18  21
ENDBRANCH  11  13
ENDBRANCH   2  11
TORSDOF 6
ENDMDL
