MODEL 1
REMARK VINA RESULT:    -3.356      0.000      0.000
REMARK INTER + INTRA:          -7.978
REMARK INTER:                  -6.103
REMARK INTRA:                  -1.875
REMARK UNBOUND:                -1.875
REMARK SMILES CCCCCCCCCCCCCCCC(=O)[O-]
REMARK SMILES IDX 9 1 10 2 11 3 12 4 13 5 14 6 15 7 16 8 17 9 18 10 8 11 7 12
REMARK SMILES IDX 6 13 5 14 4 15 3 16 2 17 1 18
REMARK H PARENT
REMARK Flexibility Score: inf
ROOT
ATOM      1  C   UNL     1      61.686  32.947  58.535  1.00  0.00     0.000 C 
ENDROOT
BRANCH   1   2
ATOM      2  C   UNL     1      60.621  32.501  59.557  1.00  0.00     0.000 C 
BRANCH   2   3
ATOM      3  C   UNL     1      61.105  32.431  61.019  1.00  0.00     0.000 C 
BRANCH   3   4
ATOM      4  C   UNL     1      60.767  31.119  61.749  1.00  0.00     0.000 C 
BRANCH   4   5
ATOM      5  C   UNL     1      61.950  30.136  61.785  1.00  0.00     0.000 C 
BRANCH   5   6
ATOM      6  C   UNL     1      63.308  30.834  61.588  1.00  0.00     0.006 C 
BRANCH   6   7
ATOM      7  C   UNL     1      64.416  29.915  61.048  1.00  0.00     0.053 C 
BRANCH   7   8
ATOM      8  C   UNL     1      64.936  30.380  59.723  1.00  0.00     0.041 C 
ATOM      9  O   UNL     1      65.019  31.611  59.471  1.00  0.00    -0.550 OA
ATOM     10  O   UNL     1      65.357  29.454  58.776  1.00  0.00    -0.550 OA
ENDBRANCH   7   8
ENDBRANCH   6   7
ENDBRANCH   5   6
ENDBRANCH   4   5
ENDBRANCH   3   4
ENDBRANCH   2   3
ENDBRANCH   1   2
BRANCH   1  11
ATOM     11  C   UNL     1      61.275  34.133  57.644  1.00  0.00     0.000 C 
BRANCH  11  12
ATOM     12  C   UNL     1      61.695  35.490  58.227  1.00  0.00    -0.000 C 
BRANCH  12  13
ATOM     13  C   UNL     1      60.491  36.216  58.845  1.00  0.00    -0.000 C 
BRANCH  13  14
ATOM     14  C   UNL     1      60.763  36.708  60.277  1.00  0.00    -0.000 C 
BRANCH  14  15
ATOM     15  C   UNL     1      61.845  35.920  61.038  1.00  0.00    -0.000 C 
BRANCH  15  16
ATOM     16  C   UNL     1      63.040  36.784  61.494  1.00  0.00    -0.000 C 
BRANCH  16  17
ATOM     17  C   UNL     1      64.290  35.941  61.790  1.00  0.00    -0.003 C 
ATOM     18  C   UNL     1      64.138  34.523  61.249  1.00  0.00     0.004 C 
ENDBRANCH  16  17
ENDBRANCH  15  16
ENDBRANCH  14  15
ENDBRANCH  13  14
ENDBRANCH  12  13
ENDBRANCH  11  12
ENDBRANCH   1  11
TORSDOF 14
ENDMDL
MODEL 2
REMARK VINA RESULT:    -3.322     12.096     14.009
REMARK INTER + INTRA:          -7.916
REMARK INTER:                  -6.349
REMARK INTRA:                  -1.568
REMARK UNBOUND:                -1.875
REMARK SMILES CCCCCCCCCCCCCCCC(=O)[O-]
REMARK SMILES IDX 9 1 10 2 11 3 12 4 13 5 14 6 15 7 16 8 17 9 18 10 8 11 7 12
REMARK SMILES IDX 6 13 5 14 4 15 3 16 2 17 1 18
REMARK H PARENT
REMARK Flexibility Score: inf
ROOT
ATOM      1  C   UNL     1      60.099  28.133  50.217  1.00  0.00     0.000 C 
ENDROOT
BRANCH   1   2
ATOM      2  C   UNL     1      59.996  26.779  49.488  1.00  0.00     0.000 C 
BRANCH   2   3
ATOM      3  C   UNL     1      58.956  25.799  50.068  1.00  0.00     0.000 C 
BRANCH   3   4
ATOM      4  C   UNL     1      59.530  24.449  50.534  1.00  0.00     0.000 C 
BRANCH   4   5
ATOM      5  C   UNL     1      60.995  24.248  50.111  1.00  0.00     0.000 C 
BRANCH   5   6
ATOM      6  C   UNL     1      61.382  22.762  49.998  1.00  0.00     0.006 C 
BRANCH   6   7
ATOM      7  C   UNL     1      60.385  21.910  49.196  1.00  0.00     0.053 C 
BRANCH   7   8
ATOM      8  C   UNL     1      59.816  20.792  50.015  1.00  0.00     0.041 C 
ATOM      9  O   UNL     1      59.838  20.852  51.272  1.00  0.00    -0.550 OA
ATOM     10  O   UNL     1      59.236  19.696  49.388  1.00  0.00    -0.550 OA
ENDBRANCH   7   8
ENDBRANCH   6   7
ENDBRANCH   5   6
ENDBRANCH   4   5
ENDBRANCH   3   4
ENDBRANCH   2   3
ENDBRANCH   1   2
BRANCH   1  11
ATOM     11  C   UNL     1      58.831  28.558  50.981  1.00  0.00     0.000 C 
BRANCH  11  12
ATOM     12  C   UNL     1      57.878  29.408  50.127  1.00  0.00    -0.000 C 
BRANCH  12  13
ATOM     13  C   UNL     1      56.448  28.852  50.185  1.00  0.00    -0.000 C 
BRANCH  13  14
ATOM     14  C   UNL     1      56.190  28.002  51.441  1.00  0.00    -0.000 C 
BRANCH  14  15
ATOM     15  C   UNL     1      55.348  26.734  51.204  1.00  0.00    -0.000 C 
BRANCH  15  16
ATOM     16  C   UNL     1      55.353  26.249  49.738  1.00  0.00    -0.000 C 
BRANCH  16  17
ATOM     17  C   UNL     1      53.936  26.136  49.156  1.00  0.00    -0.003 C 
ATOM     18  C   UNL     1      53.074  27.323  49.574  1.00  0.00     0.004 C 
ENDBRANCH  16  17
ENDBRANCH  15  16
ENDBRANCH  14  15
ENDBRANCH  13  14
ENDBRANCH  12  13
ENDBRANCH  11  12
ENDBRANCH   1  11
TORSDOF 14
ENDMDL
MODEL 3
REMARK VINA RESULT:    -3.249     10.847     12.950
REMARK INTER + INTRA:          -7.783
REMARK INTER:                  -5.780
REMARK INTRA:                  -2.002
REMARK UNBOUND:                -1.875
REMARK SMILES CCCCCCCCCCCCCCCC(=O)[O-]
REMARK SMILES IDX 9 1 10 2 11 3 12 4 13 5 14 6 15 7 16 8 17 9 18 10 8 11 7 12
REMARK SMILES IDX 6 13 5 14 4 15 3 16 2 17 1 18
REMARK H PARENT
REMARK Flexibility Score: inf
ROOT
ATOM      1  C   UNL     1      56.217  25.940  51.166  1.00  0.00     0.000 C 
ENDROOT
BRANCH   1   2
ATOM      2  C   UNL     1      57.691  26.193  51.539  1.00  0.00     0.000 C 
BRANCH   2   3
ATOM      3  C   UNL     1      58.713  25.288  50.823  1.00  0.00     0.000 C 
BRANCH   3   4
ATOM      4  C   UNL     1      59.413  25.934  49.614  1.00  0.00     0.000 C 
BRANCH   4   5
ATOM      5  C   UNL     1      60.006  27.315  49.938  1.00  0.00     0.000 C 
BRANCH   5   6
ATOM      6  C   UNL     1      59.394  28.440  49.084  1.00  0.00     0.006 C 
BRANCH   6   7
ATOM      7  C   UNL     1      58.380  29.320  49.833  1.00  0.00     0.053 C 
BRANCH   7   8
ATOM      8  C   UNL     1      58.906  29.779  51.158  1.00  0.00     0.041 C 
ATOM      9  O   UNL     1      58.254  29.553  52.211  1.00  0.00    -0.550 OA
ATOM     10  O   UNL     1      60.131  30.429  51.234  1.00  0.00    -0.550 OA
ENDBRANCH   7   8
ENDBRANCH   6   7
ENDBRANCH   5   6
ENDBRANCH   4   5
ENDBRANCH   3   4
ENDBRANCH   2   3
ENDBRANCH   1   2
BRANCH   1  11
ATOM     11  C   UNL     1      55.825  26.366  49.739  1.00  0.00     0.000 C 
BRANCH  11  12
ATOM     12  C   UNL     1      54.328  26.180  49.451  1.00  0.00    -0.000 C 
BRANCH  12  13
ATOM     13  C   UNL     1      53.481  27.080  50.363  1.00  0.00    -0.000 C 
BRANCH  13  14
ATOM     14  C   UNL     1      53.089  28.408  49.693  1.00  0.00    -0.000 C 
BRANCH  14  15
ATOM     15  C   UNL     1      53.598  29.671  50.412  1.00  0.00    -0.000 C 
BRANCH  15  16
ATOM     16  C   UNL     1      54.903  29.451  51.209  1.00  0.00    -0.000 C 
BRANCH  16  17
ATOM     17  C   UNL     1      54.742  29.798  52.697  1.00  0.00    -0.003 C 
ATOM     18  C   UNL     1      55.171  28.633  53.583  1.00  0.00     0.004 C 
ENDBRANCH  16  17
ENDBRANCH  15  16
ENDBRANCH  14  15
ENDBRANCH  13  14
ENDBRANCH  12  13
ENDBRANCH  11  12
ENDBRANCH   1  11
TORSDOF 14
ENDMDL
MODEL 4
REMARK VINA RESULT:    -3.223      2.508      6.119
REMARK INTER + INTRA:          -7.736
REMARK INTER:                  -5.609
REMARK INTRA:                  -2.127
REMARK UNBOUND:                -1.875
REMARK SMILES CCCCCCCCCCCCCCCC(=O)[O-]
REMARK SMILES IDX 9 1 10 2 11 3 12 4 13 5 14 6 15 7 16 8 17 9 18 10 8 11 7 12
REMARK SMILES IDX 6 13 5 14 4 15 3 16 2 17 1 18
REMARK H PARENT
REMARK Flexibility Score: inf
ROOT
ATOM      1  C   UNL     1      62.135  32.191  59.458  1.00  0.00     0.000 C 
ENDROOT
BRANCH   1   2
ATOM      2  C   UNL     1      63.433  33.023  59.468  1.00  0.00     0.000 C 
BRANCH   2   3
ATOM      3  C   UNL     1      64.076  33.218  60.857  1.00  0.00     0.000 C 
BRANCH   3   4
ATOM      4  C   UNL     1      64.059  34.666  61.379  1.00  0.00     0.000 C 
BRANCH   4   5
ATOM      5  C   UNL     1      63.969  35.705  60.249  1.00  0.00     0.000 C 
BRANCH   5   6
ATOM      6  C   UNL     1      62.802  36.690  60.438  1.00  0.00     0.006 C 
BRANCH   6   7
ATOM      7  C   UNL     1      61.438  36.016  60.661  1.00  0.00     0.053 C 
BRANCH   7   8
ATOM      8  C   UNL     1      60.588  36.047  59.428  1.00  0.00     0.041 C 
ATOM      9  O   UNL     1      60.947  35.422  58.395  1.00  0.00    -0.550 OA
ATOM     10  O   UNL     1      59.385  36.742  59.429  1.00  0.00    -0.550 OA
ENDBRANCH   7   8
ENDBRANCH   6   7
ENDBRANCH   5   6
ENDBRANCH   4   5
ENDBRANCH   3   4
ENDBRANCH   2   3
ENDBRANCH   1   2
BRANCH   1  11
ATOM     11  C   UNL     1      61.175  32.471  60.629  1.00  0.00     0.000 C 
BRANCH  11  12
ATOM     12  C   UNL     1      60.742  31.192  61.362  1.00  0.00    -0.000 C 
BRANCH  12  13
ATOM     13  C   UNL     1      61.965  30.393  61.835  1.00  0.00    -0.000 C 
BRANCH  13  14
ATOM     14  C   UNL     1      61.947  28.933  61.349  1.00  0.00    -0.000 C 
BRANCH  14  15
ATOM     15  C   UNL     1      63.329  28.348  61.005  1.00  0.00    -0.000 C 
BRANCH  15  16
ATOM     16  C   UNL     1      64.122  29.187  59.978  1.00  0.00    -0.000 C 
BRANCH  16  17
ATOM     17  C   UNL     1      65.407  29.780  60.577  1.00  0.00    -0.003 C 
ATOM     18  C   UNL     1      66.456  30.023  59.497  1.00  0.00     0.004 C 
ENDBRANCH  16  17
ENDBRANCH  15  16
ENDBRANCH  14  15
ENDBRANCH  13  14
ENDBRANCH  12  13
ENDBRANCH  11  12
ENDBRANCH   1  11
TORSDOF 14
ENDMDL
MODEL 5
REMARK VINA RESULT:    -3.210     10.464     12.221
REMARK INTER + INTRA:          -7.713
REMARK INTER:                  -5.571
REMARK INTRA:                  -2.142
REMARK UNBOUND:                -1.875
REMARK SMILES CCCCCCCCCCCCCCCC(=O)[O-]
REMARK SMILES IDX 9 1 10 2 11 3 12 4 13 5 14 6 15 7 16 8 17 9 18 10 8 11 7 12
REMARK SMILES IDX 6 13 5 14 4 15 3 16 2 17 1 18
REMARK H PARENT
REMARK Flexibility Score: inf
ROOT
ATOM      1  C   UNL     1      54.350  28.659  50.112  1.00  0.00     0.000 C 
ENDROOT
BRANCH   1   2
ATOM      2  C   UNL     1      53.676  27.335  49.700  1.00  0.00     0.000 C 
BRANCH   2   3
ATOM      3  C   UNL     1      54.589  26.093  49.742  1.00  0.00     0.000 C 
BRANCH   3   4
ATOM      4  C   UNL     1      56.065  26.388  50.063  1.00  0.00     0.000 C 
BRANCH   4   5
ATOM      5  C   UNL     1      56.501  25.829  51.428  1.00  0.00     0.000 C 
BRANCH   5   6
ATOM      6  C   UNL     1      57.953  25.319  51.426  1.00  0.00     0.006 C 
BRANCH   6   7
ATOM      7  C   UNL     1      58.763  25.729  50.185  1.00  0.00     0.053 C 
BRANCH   7   8
ATOM      8  C   UNL     1      60.045  26.411  50.552  1.00  0.00     0.041 C 
ATOM      9  O   UNL     1      60.405  26.479  51.756  1.00  0.00    -0.550 OA
ATOM     10  O   UNL     1      60.857  26.947  49.560  1.00  0.00    -0.550 OA
ENDBRANCH   7   8
ENDBRANCH   6   7
ENDBRANCH   5   6
ENDBRANCH   4   5
ENDBRANCH   3   4
ENDBRANCH   2   3
ENDBRANCH   1   2
BRANCH   1  11
ATOM     11  C   UNL     1      53.383  29.833  50.349  1.00  0.00     0.000 C 
BRANCH  11  12
ATOM     12  C   UNL     1      53.841  30.762  51.484  1.00  0.00    -0.000 C 
BRANCH  12  13
ATOM     13  C   UNL     1      54.751  30.013  52.469  1.00  0.00    -0.000 C 
BRANCH  13  14
ATOM     14  C   UNL     1      55.804  30.927  53.119  1.00  0.00    -0.000 C 
BRANCH  14  15
ATOM     15  C   UNL     1      57.207  30.306  53.251  1.00  0.00    -0.000 C 
BRANCH  15  16
ATOM     16  C   UNL     1      57.502  29.204  52.210  1.00  0.00    -0.000 C 
BRANCH  16  17
ATOM     17  C   UNL     1      58.530  29.653  51.161  1.00  0.00    -0.003 C 
ATOM     18  C   UNL     1      58.011  29.419  49.746  1.00  0.00     0.004 C 
ENDBRANCH  16  17
ENDBRANCH  15  16
ENDBRANCH  14  15
ENDBRANCH  13  14
ENDBRANCH  12  13
ENDBRANCH  11  12
ENDBRANCH   1  11
TORSDOF 14
ENDMDL
MODEL 6
REMARK VINA RESULT:    -3.170     10.631     13.184
REMARK INTER + INTRA:          -7.639
REMARK INTER:                  -5.335
REMARK INTRA:                  -2.304
REMARK UNBOUND:                -1.875
REMARK SMILES CCCCCCCCCCCCCCCC(=O)[O-]
REMARK SMILES IDX 9 1 10 2 11 3 12 4 13 5 14 6 15 7 16 8 17 9 18 10 8 11 7 12
REMARK SMILES IDX 6 13 5 14 4 15 3 16 2 17 1 18
REMARK H PARENT
REMARK Flexibility Score: inf
ROOT
ATOM      1  C   UNL     1      59.926  28.723  49.387  1.00  0.00     0.000 C 
ENDROOT
BRANCH   1   2
ATOM      2  C   UNL     1      58.549  29.333  49.058  1.00  0.00     0.000 C 
BRANCH   2   3
ATOM      3  C   UNL     1      57.617  29.538  50.268  1.00  0.00     0.000 C 
BRANCH   3   4
ATOM      4  C   UNL     1      58.334  29.886  51.585  1.00  0.00     0.000 C 
BRANCH   4   5
ATOM      5  C   UNL     1      57.365  30.043  52.768  1.00  0.00     0.000 C 
BRANCH   5   6
ATOM      6  C   UNL     1      56.007  29.361  52.519  1.00  0.00     0.006 C 
BRANCH   6   7
ATOM      7  C   UNL     1      54.832  30.001  53.275  1.00  0.00     0.053 C 
BRANCH   7   8
ATOM      8  C   UNL     1      54.383  31.280  52.637  1.00  0.00     0.041 C 
ATOM      9  O   UNL     1      54.762  32.387  53.100  1.00  0.00    -0.550 OA
ATOM     10  O   UNL     1      53.569  31.248  51.511  1.00  0.00    -0.550 OA
ENDBRANCH   7   8
ENDBRANCH   6   7
ENDBRANCH   5   6
ENDBRANCH   4   5
ENDBRANCH   3   4
ENDBRANCH   2   3
ENDBRANCH   1   2
BRANCH   1  11
ATOM     11  C   UNL     1      59.959  27.185  49.445  1.00  0.00     0.000 C 
BRANCH  11  12
ATOM     12  C   UNL     1      60.303  26.648  50.843  1.00  0.00    -0.000 C 
BRANCH  12  13
ATOM     13  C   UNL     1      59.048  26.110  51.545  1.00  0.00    -0.000 C 
BRANCH  13  14
ATOM     14  C   UNL     1      57.940  25.704  50.558  1.00  0.00    -0.000 C 
BRANCH  14  15
ATOM     15  C   UNL     1      56.520  26.142  50.962  1.00  0.00    -0.000 C 
BRANCH  15  16
ATOM     16  C   UNL     1      55.592  26.430  49.761  1.00  0.00    -0.000 C 
BRANCH  16  17
ATOM     17  C   UNL     1      54.159  26.767  50.200  1.00  0.00    -0.003 C 
ATOM     18  C   UNL     1      53.802  28.209  49.852  1.00  0.00     0.004 C 
ENDBRANCH  16  17
ENDBRANCH  15  16
ENDBRANCH  14  15
ENDBRANCH  13  14
ENDBRANCH  12  13
ENDBRANCH  11  12
ENDBRANCH   1  11
TORSDOF 14
ENDMDL
MODEL 7
REMARK VINA RESULT:    -3.167      1.918      3.704
REMARK INTER + INTRA:          -7.633
REMARK INTER:                  -5.699
REMARK INTRA:                  -1.934
REMARK UNBOUND:                -1.875
REMARK SMILES CCCCCCCCCCCCCCCC(=O)[O-]
REMARK SMILES IDX 9 1 10 2 11 3 12 4 13 5 14 6 15 7 16 8 17 9 18 10 8 11 7 12
REMARK SMILES IDX 6 13 5 14 4 15 3 16 2 17 1 18
REMARK H PARENT
REMARK Flexibility Score: inf
ROOT
ATOM      1  C   UNL     1      64.367  34.864  60.593  1.00  0.00     0.000 C 
ENDROOT
BRANCH   1   2
ATOM      2  C   UNL     1      63.797  33.444  60.784  1.00  0.00     0.000 C 
BRANCH   2   3
ATOM      3  C   UNL     1      63.575  32.647  59.483  1.00  0.00     0.000 C 
BRANCH   3   4
ATOM      4  C   UNL     1      62.654  31.421  59.625  1.00  0.00     0.000 C 
BRANCH   4   5
ATOM      5  C   UNL     1      61.771  31.483  60.883  1.00  0.00     0.000 C 
BRANCH   5   6
ATOM      6  C   UNL     1      62.124  30.393  61.910  1.00  0.00     0.006 C 
BRANCH   6   7
ATOM      7  C   UNL     1      63.232  29.430  61.453  1.00  0.00     0.053 C 
BRANCH   7   8
ATOM      8  C   UNL     1      62.753  28.013  61.386  1.00  0.00     0.041 C 
ATOM      9  O   UNL     1      61.557  27.734  61.664  1.00  0.00    -0.550 OA
ATOM     10  O   UNL     1      63.619  27.003  60.986  1.00  0.00    -0.550 OA
ENDBRANCH   7   8
ENDBRANCH   6   7
ENDBRANCH   5   6
ENDBRANCH   4   5
ENDBRANCH   3   4
ENDBRANCH   2   3
ENDBRANCH   1   2
BRANCH   1  11
ATOM     11  C   UNL     1      64.592  35.653  61.895  1.00  0.00     0.000 C 
BRANCH  11  12
ATOM     12  C   UNL     1      63.643  36.852  62.038  1.00  0.00    -0.000 C 
BRANCH  12  13
ATOM     13  C   UNL     1      62.905  37.125  60.718  1.00  0.00    -0.000 C 
BRANCH  13  14
ATOM     14  C   UNL     1      61.380  36.971  60.846  1.00  0.00    -0.000 C 
BRANCH  14  15
ATOM     15  C   UNL     1      60.824  35.616  60.373  1.00  0.00    -0.000 C 
BRANCH  15  16
ATOM     16  C   UNL     1      60.986  35.371  58.857  1.00  0.00    -0.000 C 
BRANCH  16  17
ATOM     17  C   UNL     1      60.262  34.098  58.391  1.00  0.00    -0.003 C 
ATOM     18  C   UNL     1      60.829  33.596  57.067  1.00  0.00     0.004 C 
ENDBRANCH  16  17
ENDBRANCH  15  16
ENDBRANCH  14  15
ENDBRANCH  13  14
ENDBRANCH  12  13
ENDBRANCH  11  12
ENDBRANCH   1  11
TORSDOF 14
ENDMDL
MODEL 8
REMARK VINA RESULT:    -3.146     10.727     13.253
REMARK INTER + INTRA:          -7.596
REMARK INTER:                  -5.588
REMARK INTRA:                  -2.008
REMARK UNBOUND:                -1.875
REMARK SMILES CCCCCCCCCCCCCCCC(=O)[O-]
REMARK SMILES IDX 9 1 10 2 11 3 12 4 13 5 14 6 15 7 16 8 17 9 18 10 8 11 7 12
REMARK SMILES IDX 6 13 5 14 4 15 3 16 2 17 1 18
REMARK H PARENT
REMARK Flexibility Score: inf
ROOT
ATOM      1  C   UNL     1      60.132  26.674  52.647  1.00  0.00     0.000 C 
ENDROOT
BRANCH   1   2
ATOM      2  C   UNL     1      60.865  26.569  51.295  1.00  0.00     0.000 C 
BRANCH   2   3
ATOM      3  C   UNL     1      60.059  25.900  50.163  1.00  0.00     0.000 C 
BRANCH   3   4
ATOM      4  C   UNL     1      59.146  26.851  49.371  1.00  0.00     0.000 C 
BRANCH   4   5
ATOM      5  C   UNL     1      59.823  28.194  49.046  1.00  0.00     0.000 C 
BRANCH   5   6
ATOM      6  C   UNL     1      58.853  29.386  49.135  1.00  0.00     0.006 C 
BRANCH   6   7
ATOM      7  C   UNL     1      57.748  29.221  50.191  1.00  0.00     0.053 C 
BRANCH   7   8
ATOM      8  C   UNL     1      58.171  29.737  51.532  1.00  0.00     0.041 C 
ATOM      9  O   UNL     1      57.373  29.705  52.505  1.00  0.00    -0.550 OA
ATOM     10  O   UNL     1      59.458  30.227  51.715  1.00  0.00    -0.550 OA
ENDBRANCH   7   8
ENDBRANCH   6   7
ENDBRANCH   5   6
ENDBRANCH   4   5
ENDBRANCH   3   4
ENDBRANCH   2   3
ENDBRANCH   1   2
BRANCH   1  11
ATOM     11  C   UNL     1      59.094  25.569  52.911  1.00  0.00     0.000 C 
BRANCH  11  12
ATOM     12  C   UNL     1      57.661  26.112  53.021  1.00  0.00    -0.000 C 
BRANCH  12  13
ATOM     13  C   UNL     1      56.761  25.502  51.935  1.00  0.00    -0.000 C 
BRANCH  13  14
ATOM     14  C   UNL     1      55.801  26.530  51.312  1.00  0.00    -0.000 C 
BRANCH  14  15
ATOM     15  C   UNL     1      55.510  26.320  49.814  1.00  0.00    -0.000 C 
BRANCH  15  16
ATOM     16  C   UNL     1      54.005  26.306  49.468  1.00  0.00    -0.000 C 
BRANCH  16  17
ATOM     17  C   UNL     1      53.189  27.234  50.380  1.00  0.00    -0.003 C 
ATOM     18  C   UNL     1      53.140  28.652  49.820  1.00  0.00     0.004 C 
ENDBRANCH  16  17
ENDBRANCH  15  16
ENDBRANCH  14  15
ENDBRANCH  13  14
ENDBRANCH  12  13
ENDBRANCH  11  12
ENDBRANCH   1  11
TORSDOF 14
ENDMDL
MODEL 9
REMARK VINA RESULT:    -3.118      4.388      5.724
REMARK INTER + INTRA:          -7.545
REMARK INTER:                  -6.286
REMARK INTRA:                  -1.259
REMARK UNBOUND:                -1.875
REMARK SMILES CCCCCCCCCCCCCCCC(=O)[O-]
REMARK SMILES IDX 9 1 10 2 11 3 12 4 13 5 14 6 15 7 16 8 17 9 18 10 8 11 7 12
REMARK SMILES IDX 6 13 5 14 4 15 3 16 2 17 1 18
REMARK H PARENT
REMARK Flexibility Score: inf
ROOT
ATOM      1  C   UNL     1      62.632  29.872  61.770  1.00  0.00     0.000 C 
ENDROOT
BRANCH   1   2
ATOM      2  C   UNL     1      61.376  30.765  61.723  1.00  0.00     0.000 C 
BRANCH   2   3
ATOM      3  C   UNL     1      60.428  30.500  60.536  1.00  0.00     0.000 C 
BRANCH   3   4
ATOM      4  C   UNL     1      59.655  29.171  60.612  1.00  0.00     0.000 C 
BRANCH   4   5
ATOM      5  C   UNL     1      58.562  29.055  59.536  1.00  0.00     0.000 C 
BRANCH   5   6
ATOM      6  C   UNL     1      57.355  28.221  60.002  1.00  0.00     0.006 C 
BRANCH   6   7
ATOM      7  C   UNL     1      57.167  28.182  61.527  1.00  0.00     0.053 C 
BRANCH   7   8
ATOM      8  C   UNL     1      55.748  28.449  61.925  1.00  0.00     0.041 C 
ATOM      9  O   UNL     1      55.011  29.168  61.201  1.00  0.00    -0.550 OA
ATOM     10  O   UNL     1      55.231  27.881  63.083  1.00  0.00    -0.550 OA
ENDBRANCH   7   8
ENDBRANCH   6   7
ENDBRANCH   5   6
ENDBRANCH   4   5
ENDBRANCH   3   4
ENDBRANCH   2   3
ENDBRANCH   1   2
BRANCH   1  11
ATOM     11  C   UNL     1      63.823  30.382  60.936  1.00  0.00     0.000 C 
BRANCH  11  12
ATOM     12  C   UNL     1      63.970  31.910  60.980  1.00  0.00    -0.000 C 
BRANCH  12  13
ATOM     13  C   UNL     1      63.867  32.510  59.570  1.00  0.00    -0.000 C 
BRANCH  13  14
ATOM     14  C   UNL     1      62.747  33.558  59.449  1.00  0.00    -0.000 C 
BRANCH  14  15
ATOM     15  C   UNL     1      62.320  34.206  60.779  1.00  0.00    -0.000 C 
BRANCH  15  16
ATOM     16  C   UNL     1      62.137  35.737  60.695  1.00  0.00    -0.000 C 
BRANCH  16  17
ATOM     17  C   UNL     1      63.225  36.497  61.469  1.00  0.00    -0.003 C 
ATOM     18  C   UNL     1      64.326  35.553  61.940  1.00  0.00     0.004 C 
ENDBRANCH  16  17
ENDBRANCH  15  16
ENDBRANCH  14  15
ENDBRANCH  13  14
ENDBRANCH  12  13
ENDBRANCH  11  12
ENDBRANCH   1  11
TORSDOF 14
ENDMDL
