MODEL 1
REMARK VINA RESULT:    -5.428      0.000      0.000
REMARK INTER + INTRA:         -10.746
REMARK INTER:                  -9.236
REMARK INTRA:                  -1.511
REMARK UNBOUND:                -1.511
REMARK SMILES CCCCCCCCCCCCCC(=O)[O-]
REMARK SMILES IDX 8 1 9 2 10 3 11 4 12 5 13 6 14 7 15 8 16 9 7 10 6 11 5 12
REMARK SMILES IDX 4 13 3 14 2 15 1 16
REMARK H PARENT
REMARK Flexibility Score: inf
ROOT
ATOM      1  C   UNL     1     -97.091 -60.993 -64.443  1.00  0.00     0.000 C 
ENDROOT
BRANCH   1   2
ATOM      2  C   UNL     1     -95.998 -61.707 -65.248  1.00  0.00     0.000 C 
BRANCH   2   3
ATOM      3  C   UNL     1     -95.499 -60.825 -66.400  1.00  0.00     0.000 C 
BRANCH   3   4
ATOM      4  C   UNL     1     -94.324 -61.489 -67.132  1.00  0.00     0.000 C 
BRANCH   4   5
ATOM      5  C   UNL     1     -94.708 -62.040 -68.517  1.00  0.00     0.006 C 
BRANCH   5   6
ATOM      6  C   UNL     1     -96.014 -61.454 -69.082  1.00  0.00     0.053 C 
BRANCH   6   7
ATOM      7  C   UNL     1     -96.272 -61.872 -70.498  1.00  0.00     0.041 C 
ATOM      8  O   UNL     1     -96.986 -61.160 -71.251  1.00  0.00    -0.550 OA
ATOM      9  O   UNL     1     -95.696 -63.034 -70.997  1.00  0.00    -0.550 OA
ENDBRANCH   6   7
ENDBRANCH   5   6
ENDBRANCH   4   5
ENDBRANCH   3   4
ENDBRANCH   2   3
ENDBRANCH   1   2
BRANCH   1  10
ATOM     10  C   UNL     1     -98.194 -61.973 -64.022  1.00  0.00     0.000 C 
BRANCH  10  11
ATOM     11  C   UNL     1     -99.544 -61.580 -64.643  1.00  0.00    -0.000 C 
BRANCH  11  12
ATOM     12  C   UNL     1     -99.688 -62.052 -66.098  1.00  0.00    -0.000 C 
BRANCH  12  13
ATOM     13  C   UNL     1    -100.260 -60.961 -67.019  1.00  0.00    -0.000 C 
BRANCH  13  14
ATOM     14  C   UNL     1     -99.848 -59.539 -66.592  1.00  0.00    -0.000 C 
BRANCH  14  15
ATOM     15  C   UNL     1     -98.646 -58.955 -67.355  1.00  0.00    -0.003 C 
ATOM     16  C   UNL     1     -97.857 -57.933 -66.537  1.00  0.00     0.004 C 
ENDBRANCH  14  15
ENDBRANCH  13  14
ENDBRANCH  12  13
ENDBRANCH  11  12
ENDBRANCH  10  11
ENDBRANCH   1  10
TORSDOF 12
ENDMDL
MODEL 2
REMARK VINA RESULT:    -5.081      1.250      1.776
REMARK INTER + INTRA:         -10.156
REMARK INTER:                  -8.829
REMARK INTRA:                  -1.327
REMARK UNBOUND:                -1.511
REMARK SMILES CCCCCCCCCCCCCC(=O)[O-]
REMARK SMILES IDX 8 1 9 2 10 3 11 4 12 5 13 6 14 7 15 8 16 9 7 10 6 11 5 12
REMARK SMILES IDX 4 13 3 14 2 15 1 16
REMARK H PARENT
REMARK Flexibility Score: inf
ROOT
ATOM      1  C   UNL     1     -97.811 -61.963 -63.975  1.00  0.00     0.000 C 
ENDROOT
BRANCH   1   2
ATOM      2  C   UNL     1     -96.850 -60.958 -64.624  1.00  0.00     0.000 C 
BRANCH   2   3
ATOM      3  C   UNL     1     -96.239 -61.533 -65.908  1.00  0.00     0.000 C 
BRANCH   3   4
ATOM      4  C   UNL     1     -94.708 -61.593 -65.809  1.00  0.00     0.000 C 
BRANCH   4   5
ATOM      5  C   UNL     1     -94.088 -62.687 -66.696  1.00  0.00     0.006 C 
BRANCH   5   6
ATOM      6  C   UNL     1     -93.452 -62.154 -67.992  1.00  0.00     0.053 C 
BRANCH   6   7
ATOM      7  C   UNL     1     -94.331 -62.347 -69.190  1.00  0.00     0.041 C 
ATOM      8  O   UNL     1     -94.110 -63.288 -69.997  1.00  0.00    -0.550 OA
ATOM      9  O   UNL     1     -95.417 -61.506 -69.400  1.00  0.00    -0.550 OA
ENDBRANCH   6   7
ENDBRANCH   5   6
ENDBRANCH   4   5
ENDBRANCH   3   4
ENDBRANCH   2   3
ENDBRANCH   1   2
BRANCH   1  10
ATOM     10  C   UNL     1     -99.267 -61.648 -64.338  1.00  0.00     0.000 C 
BRANCH  10  11
ATOM     11  C   UNL     1     -99.687 -62.387 -65.617  1.00  0.00    -0.000 C 
BRANCH  11  12
ATOM     12  C   UNL     1    -100.356 -61.461 -66.645  1.00  0.00    -0.000 C 
BRANCH  12  13
ATOM     13  C   UNL     1    -100.487 -60.014 -66.139  1.00  0.00    -0.000 C 
BRANCH  13  14
ATOM     14  C   UNL     1     -99.901 -58.980 -67.119  1.00  0.00    -0.000 C 
BRANCH  14  15
ATOM     15  C   UNL     1     -98.366 -58.986 -67.227  1.00  0.00    -0.003 C 
ATOM     16  C   UNL     1     -97.706 -57.857 -66.437  1.00  0.00     0.004 C 
ENDBRANCH  14  15
ENDBRANCH  13  14
ENDBRANCH  12  13
ENDBRANCH  11  12
ENDBRANCH  10  11
ENDBRANCH   1  10
TORSDOF 12
ENDMDL
MODEL 3
REMARK VINA RESULT:    -4.994      2.677      5.407
REMARK INTER + INTRA:         -10.009
REMARK INTER:                  -8.594
REMARK INTRA:                  -1.415
REMARK UNBOUND:                -1.511
REMARK SMILES CCCCCCCCCCCCCC(=O)[O-]
REMARK SMILES IDX 8 1 9 2 10 3 11 4 12 5 13 6 14 7 15 8 16 9 7 10 6 11 5 12
REMARK SMILES IDX 4 13 3 14 2 15 1 16
REMARK H PARENT
REMARK Flexibility Score: inf
ROOT
ATOM      1  C   UNL     1     -96.287 -60.486 -66.446  1.00  0.00     0.000 C 
ENDROOT
BRANCH   1   2
ATOM      2  C   UNL     1     -97.003 -59.458 -65.562  1.00  0.00     0.000 C 
BRANCH   2   3
ATOM      3  C   UNL     1     -97.569 -58.307 -66.405  1.00  0.00     0.000 C 
BRANCH   3   4
ATOM      4  C   UNL     1     -98.637 -58.816 -67.383  1.00  0.00     0.000 C 
BRANCH   4   5
ATOM      5  C   UNL     1     -99.963 -59.184 -66.692  1.00  0.00     0.006 C 
BRANCH   5   6
ATOM      6  C   UNL     1    -100.331 -60.674 -66.799  1.00  0.00     0.053 C 
BRANCH   6   7
ATOM      7  C   UNL     1    -100.167 -61.406 -65.502  1.00  0.00     0.041 C 
ATOM      8  O   UNL     1    -100.881 -61.108 -64.508  1.00  0.00    -0.550 OA
ATOM      9  O   UNL     1     -99.247 -62.442 -65.398  1.00  0.00    -0.550 OA
ENDBRANCH   6   7
ENDBRANCH   5   6
ENDBRANCH   4   5
ENDBRANCH   3   4
ENDBRANCH   2   3
ENDBRANCH   1   2
BRANCH   1  10
ATOM     10  C   UNL     1     -95.750 -61.654 -65.610  1.00  0.00     0.000 C 
BRANCH  10  11
ATOM     11  C   UNL     1     -94.378 -62.114 -66.125  1.00  0.00    -0.000 C 
BRANCH  11  12
ATOM     12  C   UNL     1     -94.082 -61.617 -67.550  1.00  0.00    -0.000 C 
BRANCH  12  13
ATOM     13  C   UNL     1     -94.027 -62.763 -68.575  1.00  0.00    -0.000 C 
BRANCH  13  14
ATOM     14  C   UNL     1     -94.538 -62.346 -69.967  1.00  0.00    -0.000 C 
BRANCH  14  15
ATOM     15  C   UNL     1     -95.664 -61.297 -69.958  1.00  0.00    -0.003 C 
ATOM     16  C   UNL     1     -97.050 -61.908 -69.755  1.00  0.00     0.004 C 
ENDBRANCH  14  15
ENDBRANCH  13  14
ENDBRANCH  12  13
ENDBRANCH  11  12
ENDBRANCH  10  11
ENDBRANCH   1  10
TORSDOF 12
ENDMDL
MODEL 4
REMARK VINA RESULT:    -4.922      1.022      2.461
REMARK INTER + INTRA:          -9.886
REMARK INTER:                  -8.563
REMARK INTRA:                  -1.323
REMARK UNBOUND:                -1.511
REMARK SMILES CCCCCCCCCCCCCC(=O)[O-]
REMARK SMILES IDX 8 1 9 2 10 3 11 4 12 5 13 6 14 7 15 8 16 9 7 10 6 11 5 12
REMARK SMILES IDX 4 13 3 14 2 15 1 16
REMARK H PARENT
REMARK Flexibility Score: inf
ROOT
ATOM      1  C   UNL     1     -96.727 -60.490 -66.529  1.00  0.00     0.000 C 
ENDROOT
BRANCH   1   2
ATOM      2  C   UNL     1     -96.037 -61.412 -65.515  1.00  0.00     0.000 C 
BRANCH   2   3
ATOM      3  C   UNL     1     -94.736 -61.986 -66.090  1.00  0.00     0.000 C 
BRANCH   3   4
ATOM      4  C   UNL     1     -94.465 -61.432 -67.496  1.00  0.00     0.000 C 
BRANCH   4   5
ATOM      5  C   UNL     1     -94.022 -62.514 -68.497  1.00  0.00     0.006 C 
BRANCH   5   6
ATOM      6  C   UNL     1     -94.202 -62.113 -69.971  1.00  0.00     0.053 C 
BRANCH   6   7
ATOM      7  C   UNL     1     -95.476 -62.636 -70.563  1.00  0.00     0.041 C 
ATOM      8  O   UNL     1     -96.585 -62.161 -70.204  1.00  0.00    -0.550 OA
ATOM      9  O   UNL     1     -95.437 -63.627 -71.535  1.00  0.00    -0.550 OA
ENDBRANCH   6   7
ENDBRANCH   5   6
ENDBRANCH   4   5
ENDBRANCH   3   4
ENDBRANCH   2   3
ENDBRANCH   1   2
BRANCH   1  10
ATOM     10  C   UNL     1     -97.034 -59.120 -65.910  1.00  0.00     0.000 C 
BRANCH  10  11
ATOM     11  C   UNL     1     -98.121 -58.387 -66.710  1.00  0.00    -0.000 C 
BRANCH  11  12
ATOM     12  C   UNL     1     -99.090 -59.350 -67.414  1.00  0.00    -0.000 C 
BRANCH  12  13
ATOM     13  C   UNL     1    -100.301 -59.716 -66.538  1.00  0.00    -0.000 C 
BRANCH  13  14
ATOM     14  C   UNL     1    -100.731 -61.186 -66.694  1.00  0.00    -0.000 C 
BRANCH  14  15
ATOM     15  C   UNL     1     -99.902 -62.196 -65.880  1.00  0.00    -0.003 C 
ATOM     16  C   UNL     1     -99.640 -61.737 -64.446  1.00  0.00     0.004 C 
ENDBRANCH  14  15
ENDBRANCH  13  14
ENDBRANCH  12  13
ENDBRANCH  11  12
ENDBRANCH  10  11
ENDBRANCH   1  10
TORSDOF 12
ENDMDL
MODEL 5
REMARK VINA RESULT:    -4.914      2.628      5.663
REMARK INTER + INTRA:          -9.872
REMARK INTER:                  -8.650
REMARK INTRA:                  -1.222
REMARK UNBOUND:                -1.511
REMARK SMILES CCCCCCCCCCCCCC(=O)[O-]
REMARK SMILES IDX 8 1 9 2 10 3 11 4 12 5 13 6 14 7 15 8 16 9 7 10 6 11 5 12
REMARK SMILES IDX 4 13 3 14 2 15 1 16
REMARK H PARENT
REMARK Flexibility Score: inf
ROOT
ATOM      1  C   UNL     1     -96.619 -60.968 -66.203  1.00  0.00     0.000 C 
ENDROOT
BRANCH   1   2
ATOM      2  C   UNL     1     -96.983 -60.687 -64.740  1.00  0.00     0.000 C 
BRANCH   2   3
ATOM      3  C   UNL     1     -97.748 -61.867 -64.127  1.00  0.00     0.000 C 
BRANCH   3   4
ATOM      4  C   UNL     1     -99.264 -61.634 -64.192  1.00  0.00     0.000 C 
BRANCH   4   5
ATOM      5  C   UNL     1     -99.960 -62.485 -65.269  1.00  0.00     0.006 C 
BRANCH   5   6
ATOM      6  C   UNL     1    -100.262 -61.722 -66.570  1.00  0.00     0.053 C 
BRANCH   6   7
ATOM      7  C   UNL     1    -100.693 -60.307 -66.326  1.00  0.00     0.041 C 
ATOM      8  O   UNL     1     -99.997 -59.348 -66.750  1.00  0.00    -0.550 OA
ATOM      9  O   UNL     1    -101.883 -60.048 -65.657  1.00  0.00    -0.550 OA
ENDBRANCH   6   7
ENDBRANCH   5   6
ENDBRANCH   4   5
ENDBRANCH   3   4
ENDBRANCH   2   3
ENDBRANCH   1   2
BRANCH   1  10
ATOM     10  C   UNL     1     -95.099 -60.957 -66.406  1.00  0.00     0.000 C 
BRANCH  10  11
ATOM     11  C   UNL     1     -94.476 -62.290 -65.963  1.00  0.00    -0.000 C 
BRANCH  11  12
ATOM     12  C   UNL     1     -93.620 -62.939 -67.062  1.00  0.00    -0.000 C 
BRANCH  12  13
ATOM     13  C   UNL     1     -93.587 -62.105 -68.354  1.00  0.00    -0.000 C 
BRANCH  13  14
ATOM     14  C   UNL     1     -93.768 -62.958 -69.623  1.00  0.00    -0.000 C 
BRANCH  14  15
ATOM     15  C   UNL     1     -95.098 -62.742 -70.367  1.00  0.00    -0.003 C 
ATOM     16  C   UNL     1     -95.777 -61.421 -70.008  1.00  0.00     0.004 C 
ENDBRANCH  14  15
ENDBRANCH  13  14
ENDBRANCH  12  13
ENDBRANCH  11  12
ENDBRANCH  10  11
ENDBRANCH   1  10
TORSDOF 12
ENDMDL
MODEL 6
REMARK VINA RESULT:    -4.895      2.537      5.202
REMARK INTER + INTRA:          -9.840
REMARK INTER:                  -8.499
REMARK INTRA:                  -1.341
REMARK UNBOUND:                -1.511
REMARK SMILES CCCCCCCCCCCCCC(=O)[O-]
REMARK SMILES IDX 8 1 9 2 10 3 11 4 12 5 13 6 14 7 15 8 16 9 7 10 6 11 5 12
REMARK SMILES IDX 4 13 3 14 2 15 1 16
REMARK H PARENT
REMARK Flexibility Score: inf
ROOT
ATOM      1  C   UNL     1     -97.232 -60.232 -64.851  1.00  0.00     0.000 C 
ENDROOT
BRANCH   1   2
ATOM      2  C   UNL     1     -97.544 -61.726 -64.708  1.00  0.00     0.000 C 
BRANCH   2   3
ATOM      3  C   UNL     1     -98.851 -61.944 -63.936  1.00  0.00     0.000 C 
BRANCH   3   4
ATOM      4  C   UNL     1     -99.961 -62.455 -64.866  1.00  0.00     0.000 C 
BRANCH   4   5
ATOM      5  C   UNL     1     -99.667 -62.199 -66.355  1.00  0.00     0.006 C 
BRANCH   5   6
ATOM      6  C   UNL     1    -100.682 -61.269 -67.042  1.00  0.00     0.053 C 
BRANCH   6   7
ATOM      7  C   UNL     1    -100.628 -59.866 -66.520  1.00  0.00     0.041 C 
ATOM      8  O   UNL     1     -99.788 -59.048 -66.980  1.00  0.00    -0.550 OA
ATOM      9  O   UNL     1    -101.527 -59.449 -65.547  1.00  0.00    -0.550 OA
ENDBRANCH   6   7
ENDBRANCH   5   6
ENDBRANCH   4   5
ENDBRANCH   3   4
ENDBRANCH   2   3
ENDBRANCH   1   2
BRANCH   1  10
ATOM     10  C   UNL     1     -96.103 -59.998 -65.862  1.00  0.00     0.000 C 
BRANCH  10  11
ATOM     11  C   UNL     1     -95.549 -61.331 -66.386  1.00  0.00    -0.000 C 
BRANCH  11  12
ATOM     12  C   UNL     1     -95.527 -61.403 -67.921  1.00  0.00    -0.000 C 
BRANCH  12  13
ATOM     13  C   UNL     1     -96.893 -61.073 -68.547  1.00  0.00    -0.000 C 
BRANCH  13  14
ATOM     14  C   UNL     1     -97.039 -61.610 -69.983  1.00  0.00    -0.000 C 
BRANCH  14  15
ATOM     15  C   UNL     1     -95.853 -62.452 -70.486  1.00  0.00    -0.003 C 
ATOM     16  C   UNL     1     -95.514 -62.194 -71.953  1.00  0.00     0.004 C 
ENDBRANCH  14  15
ENDBRANCH  13  14
ENDBRANCH  12  13
ENDBRANCH  11  12
ENDBRANCH  10  11
ENDBRANCH   1  10
TORSDOF 12
ENDMDL
MODEL 7
REMARK VINA RESULT:    -4.871      1.173      2.147
REMARK INTER + INTRA:          -9.798
REMARK INTER:                  -8.385
REMARK INTRA:                  -1.413
REMARK UNBOUND:                -1.511
REMARK SMILES CCCCCCCCCCCCCC(=O)[O-]
REMARK SMILES IDX 8 1 9 2 10 3 11 4 12 5 13 6 14 7 15 8 16 9 7 10 6 11 5 12
REMARK SMILES IDX 4 13 3 14 2 15 1 16
REMARK H PARENT
REMARK Flexibility Score: inf
ROOT
ATOM      1  C   UNL     1     -95.303 -61.739 -65.637  1.00  0.00     0.000 C 
ENDROOT
BRANCH   1   2
ATOM      2  C   UNL     1     -95.983 -60.837 -66.675  1.00  0.00     0.000 C 
BRANCH   2   3
ATOM      3  C   UNL     1     -95.802 -61.395 -68.092  1.00  0.00     0.000 C 
BRANCH   3   4
ATOM      4  C   UNL     1     -97.014 -61.059 -68.973  1.00  0.00     0.000 C 
BRANCH   4   5
ATOM      5  C   UNL     1     -96.795 -61.404 -70.457  1.00  0.00     0.006 C 
BRANCH   5   6
ATOM      6  C   UNL     1     -95.338 -61.248 -70.927  1.00  0.00     0.053 C 
BRANCH   6   7
ATOM      7  C   UNL     1     -94.768 -62.518 -71.482  1.00  0.00     0.041 C 
ATOM      8  O   UNL     1     -95.441 -63.582 -71.454  1.00  0.00    -0.550 OA
ATOM      9  O   UNL     1     -93.505 -62.521 -72.060  1.00  0.00    -0.550 OA
ENDBRANCH   6   7
ENDBRANCH   5   6
ENDBRANCH   4   5
ENDBRANCH   3   4
ENDBRANCH   2   3
ENDBRANCH   1   2
BRANCH   1  10
ATOM     10  C   UNL     1     -96.262 -62.079 -64.489  1.00  0.00     0.000 C 
BRANCH  10  11
ATOM     11  C   UNL     1     -97.490 -61.156 -64.507  1.00  0.00    -0.000 C 
BRANCH  11  12
ATOM     12  C   UNL     1     -98.815 -61.934 -64.559  1.00  0.00    -0.000 C 
BRANCH  12  13
ATOM     13  C   UNL     1     -99.971 -61.092 -65.128  1.00  0.00    -0.000 C 
BRANCH  13  14
ATOM     14  C   UNL     1     -99.916 -60.959 -66.662  1.00  0.00    -0.000 C 
BRANCH  14  15
ATOM     15  C   UNL     1    -100.053 -59.521 -67.193  1.00  0.00    -0.003 C 
ATOM     16  C   UNL     1     -98.876 -58.625 -66.808  1.00  0.00     0.004 C 
ENDBRANCH  14  15
ENDBRANCH  13  14
ENDBRANCH  12  13
ENDBRANCH  11  12
ENDBRANCH  10  11
ENDBRANCH   1  10
TORSDOF 12
ENDMDL
MODEL 8
REMARK VINA RESULT:    -4.829      2.691      5.587
REMARK INTER + INTRA:          -9.728
REMARK INTER:                  -8.111
REMARK INTRA:                  -1.617
REMARK UNBOUND:                -1.511
REMARK SMILES CCCCCCCCCCCCCC(=O)[O-]
REMARK SMILES IDX 8 1 9 2 10 3 11 4 12 5 13 6 14 7 15 8 16 9 7 10 6 11 5 12
REMARK SMILES IDX 4 13 3 14 2 15 1 16
REMARK H PARENT
REMARK Flexibility Score: inf
ROOT
ATOM      1  C   UNL     1     -98.119 -60.307 -68.135  1.00  0.00     0.000 C 
ENDROOT
BRANCH   1   2
ATOM      2  C   UNL     1     -97.907 -59.409 -66.910  1.00  0.00     0.000 C 
BRANCH   2   3
ATOM      3  C   UNL     1     -96.592 -59.750 -66.199  1.00  0.00     0.000 C 
BRANCH   3   4
ATOM      4  C   UNL     1     -96.846 -60.177 -64.746  1.00  0.00     0.000 C 
BRANCH   4   5
ATOM      5  C   UNL     1     -97.166 -61.676 -64.604  1.00  0.00     0.006 C 
BRANCH   5   6
ATOM      6  C   UNL     1     -98.483 -61.966 -63.863  1.00  0.00     0.053 C 
BRANCH   6   7
ATOM      7  C   UNL     1     -99.676 -61.939 -64.769  1.00  0.00     0.041 C 
ATOM      8  O   UNL     1    -100.675 -61.227 -64.484  1.00  0.00    -0.550 OA
ATOM      9  O   UNL     1     -99.674 -62.677 -65.946  1.00  0.00    -0.550 OA
ENDBRANCH   6   7
ENDBRANCH   5   6
ENDBRANCH   4   5
ENDBRANCH   3   4
ENDBRANCH   2   3
ENDBRANCH   1   2
BRANCH   1  10
ATOM     10  C   UNL     1     -97.022 -61.374 -68.233  1.00  0.00     0.000 C 
BRANCH  10  11
ATOM     11  C   UNL     1     -96.130 -61.134 -69.461  1.00  0.00    -0.000 C 
BRANCH  11  12
ATOM     12  C   UNL     1     -95.228 -62.336 -69.782  1.00  0.00    -0.000 C 
BRANCH  12  13
ATOM     13  C   UNL     1     -93.822 -62.199 -69.173  1.00  0.00    -0.000 C 
BRANCH  13  14
ATOM     14  C   UNL     1     -93.627 -63.065 -67.915  1.00  0.00    -0.000 C 
BRANCH  14  15
ATOM     15  C   UNL     1     -93.864 -62.336 -66.580  1.00  0.00    -0.003 C 
ATOM     16  C   UNL     1     -93.069 -61.036 -66.459  1.00  0.00     0.004 C 
ENDBRANCH  14  15
ENDBRANCH  13  14
ENDBRANCH  12  13
ENDBRANCH  11  12
ENDBRANCH  10  11
ENDBRANCH   1  10
TORSDOF 12
ENDMDL
MODEL 9
REMARK VINA RESULT:    -4.804      1.013      3.520
REMARK INTER + INTRA:          -9.685
REMARK INTER:                  -8.117
REMARK INTRA:                  -1.568
REMARK UNBOUND:                -1.511
REMARK SMILES CCCCCCCCCCCCCC(=O)[O-]
REMARK SMILES IDX 8 1 9 2 10 3 11 4 12 5 13 6 14 7 15 8 16 9 7 10 6 11 5 12
REMARK SMILES IDX 4 13 3 14 2 15 1 16
REMARK H PARENT
REMARK Flexibility Score: inf
ROOT
ATOM      1  C   UNL     1    -100.935 -61.279 -66.415  1.00  0.00     0.000 C 
ENDROOT
BRANCH   1   2
ATOM      2  C   UNL     1     -99.888 -61.097 -67.521  1.00  0.00     0.000 C 
BRANCH   2   3
ATOM      3  C   UNL     1     -99.099 -59.797 -67.322  1.00  0.00     0.000 C 
BRANCH   3   4
ATOM      4  C   UNL     1     -97.661 -59.941 -67.842  1.00  0.00     0.000 C 
BRANCH   4   5
ATOM      5  C   UNL     1     -97.388 -61.311 -68.489  1.00  0.00     0.006 C 
BRANCH   5   6
ATOM      6  C   UNL     1     -96.069 -61.378 -69.279  1.00  0.00     0.053 C 
BRANCH   6   7
ATOM      7  C   UNL     1     -96.257 -61.870 -70.681  1.00  0.00     0.041 C 
ATOM      8  O   UNL     1     -95.781 -62.981 -71.034  1.00  0.00    -0.550 OA
ATOM      9  O   UNL     1     -96.988 -61.117 -71.591  1.00  0.00    -0.550 OA
ENDBRANCH   6   7
ENDBRANCH   5   6
ENDBRANCH   4   5
ENDBRANCH   3   4
ENDBRANCH   2   3
ENDBRANCH   1   2
BRANCH   1  10
ATOM     10  C   UNL     1    -100.310 -61.088 -65.027  1.00  0.00     0.000 C 
BRANCH  10  11
ATOM     11  C   UNL     1     -99.326 -62.224 -64.707  1.00  0.00    -0.000 C 
BRANCH  11  12
ATOM     12  C   UNL     1     -98.218 -61.792 -63.733  1.00  0.00    -0.000 C 
BRANCH  12  13
ATOM     13  C   UNL     1     -97.064 -61.059 -64.439  1.00  0.00    -0.000 C 
BRANCH  13  14
ATOM     14  C   UNL     1     -96.021 -62.020 -65.038  1.00  0.00    -0.000 C 
BRANCH  14  15
ATOM     15  C   UNL     1     -94.937 -61.347 -65.899  1.00  0.00    -0.003 C 
ATOM     16  C   UNL     1     -93.830 -62.309 -66.327  1.00  0.00     0.004 C 
ENDBRANCH  14  15
ENDBRANCH  13  14
ENDBRANCH  12  13
ENDBRANCH  11  12
ENDBRANCH  10  11
ENDBRANCH   1  10
TORSDOF 12
ENDMDL
