MODEL 1
REMARK VINA RESULT:    -5.665      0.000      0.000
REMARK INTER + INTRA:         -10.176
REMARK INTER:                  -8.646
REMARK INTRA:                  -1.530
REMARK UNBOUND:                -1.530
REMARK SMILES OC[C@H]1O[C@H](O[C@]2(CO)O[C@H](CO)[C@@H](O)[C@H]2O)[C@@H](O)[C@@H](O)[C@@H]1O
REMARK SMILES IDX 6 1 5 2 3 3 22 4 4 5 20 6 18 7 2 8 1 9 23 11 21 13 19 15
REMARK SMILES IDX 7 17 16 18 10 19 14 20 11 21 8 22 9 23 17 25 15 27 12 29
REMARK SMILES IDX 13 30
REMARK H PARENT 1 10 23 12 21 14 19 16 9 24 17 26 15 28 13 31
REMARK Flexibility Score: inf
ROOT
ATOM      1  O   UNL     1     -17.190 -29.701  17.624  1.00  0.00    -0.313 OA
ENDROOT
BRANCH   1   2
ATOM      2  C   UNL     1     -16.019 -30.511  17.740  1.00  0.00     0.285 C 
ATOM      3  C   UNL     1     -14.933 -32.518  17.099  1.00  0.00     0.178 C 
ATOM      4  C   UNL     1     -13.643 -31.890  17.702  1.00  0.00     0.177 C 
ATOM      5  O   UNL     1     -15.956 -31.573  16.800  1.00  0.00    -0.341 OA
ATOM      6  C   UNL     1     -13.518 -30.435  17.220  1.00  0.00     0.179 C 
ATOM      7  C   UNL     1     -14.749 -29.620  17.677  1.00  0.00     0.202 C 
BRANCH   3   8
ATOM      8  C   UNL     1     -15.483 -33.649  17.978  1.00  0.00     0.191 C 
BRANCH   8   9
ATOM      9  O   UNL     1     -14.472 -34.125  18.822  1.00  0.00    -0.394 OA
ATOM     10  H   UNL     1     -13.613 -33.904  18.378  1.00  0.00     0.210 HD
ENDBRANCH   8   9
ENDBRANCH   3   8
BRANCH   4  11
ATOM     11  O   UNL     1     -12.526 -32.639  17.291  1.00  0.00    -0.387 OA
ATOM     12  H   UNL     1     -12.445 -32.526  16.309  1.00  0.00     0.211 HD
ENDBRANCH   4  11
BRANCH   6  13
ATOM     13  O   UNL     1     -12.342 -29.848  17.716  1.00  0.00    -0.387 OA
ATOM     14  H   UNL     1     -12.591 -28.961  18.084  1.00  0.00     0.211 HD
ENDBRANCH   6  13
BRANCH   7  15
ATOM     15  O   UNL     1     -14.509 -29.056  18.942  1.00  0.00    -0.385 OA
ATOM     16  H   UNL     1     -14.725 -28.089  18.870  1.00  0.00     0.211 HD
ENDBRANCH   7  15
ENDBRANCH   1   2
BRANCH   1  17
ATOM     17  C   UNL     1     -17.993 -29.473  18.786  1.00  0.00     0.224 C 
ATOM     18  C   UNL     1     -19.389 -30.170  18.663  1.00  0.00     0.208 C 
ATOM     19  O   UNL     1     -17.311 -30.127  19.843  1.00  0.00    -0.337 OA
ATOM     20  C   UNL     1     -19.364 -31.272  19.705  1.00  0.00     0.180 C 
ATOM     21  C   UNL     1     -18.256 -30.811  20.630  1.00  0.00     0.179 C 
BRANCH  17  22
ATOM     22  C   UNL     1     -18.016 -27.970  19.200  1.00  0.00     0.225 C 
BRANCH  22  23
ATOM     23  O   UNL     1     -18.557 -27.137  18.214  1.00  0.00    -0.391 OA
ATOM     24  H   UNL     1     -18.745 -26.268  18.656  1.00  0.00     0.210 HD
ENDBRANCH  22  23
ENDBRANCH  17  22
BRANCH  18  25
ATOM     25  O   UNL     1     -20.472 -29.284  18.838  1.00  0.00    -0.385 OA
ATOM     26  H   UNL     1     -20.904 -29.141  17.954  1.00  0.00     0.211 HD
ENDBRANCH  18  25
BRANCH  20  27
ATOM     27  O   UNL     1     -20.591 -31.392  20.380  1.00  0.00    -0.387 OA
ATOM     28  H   UNL     1     -20.429 -31.102  21.315  1.00  0.00     0.211 HD
ENDBRANCH  20  27
BRANCH  21  29
ATOM     29  C   UNL     1     -17.582 -31.984  21.353  1.00  0.00     0.191 C 
BRANCH  29  30
ATOM     30  O   UNL     1     -18.462 -32.554  22.283  1.00  0.00    -0.394 OA
ATOM     31  H   UNL     1     -18.078 -32.385  23.182  1.00  0.00     0.210 HD
ENDBRANCH  29  30
ENDBRANCH  21  29
ENDBRANCH   1  17
TORSDOF 13
ENDMDL
MODEL 2
REMARK VINA RESULT:    -5.410      2.731      4.997
REMARK INTER + INTRA:          -9.787
REMARK INTER:                  -8.526
REMARK INTRA:                  -1.261
REMARK UNBOUND:                -1.530
REMARK SMILES OC[C@H]1O[C@H](O[C@]2(CO)O[C@H](CO)[C@@H](O)[C@H]2O)[C@@H](O)[C@@H](O)[C@@H]1O
REMARK SMILES IDX 6 1 5 2 3 3 22 4 4 5 20 6 18 7 2 8 1 9 23 11 21 13 19 15
REMARK SMILES IDX 7 17 16 18 10 19 14 20 11 21 8 22 9 23 17 25 15 27 12 29
REMARK SMILES IDX 13 30
REMARK H PARENT 1 10 23 12 21 14 19 16 9 24 17 26 15 28 13 31
REMARK Flexibility Score: inf
ROOT
ATOM      1  O   UNL     1     -18.097 -32.388  18.233  1.00  0.00    -0.313 OA
ENDROOT
BRANCH   1   2
ATOM      2  C   UNL     1     -17.823 -32.311  16.833  1.00  0.00     0.285 C 
ATOM      3  C   UNL     1     -16.167 -32.359  15.137  1.00  0.00     0.178 C 
ATOM      4  C   UNL     1     -17.348 -32.501  14.133  1.00  0.00     0.177 C 
ATOM      5  O   UNL     1     -16.502 -32.694  16.481  1.00  0.00    -0.341 OA
ATOM      6  C   UNL     1     -18.334 -33.557  14.660  1.00  0.00     0.179 C 
ATOM      7  C   UNL     1     -18.881 -33.125  16.040  1.00  0.00     0.202 C 
BRANCH   3   8
ATOM      8  C   UNL     1     -15.524 -30.968  15.071  1.00  0.00     0.191 C 
BRANCH   8   9
ATOM      9  O   UNL     1     -15.930 -30.316  13.900  1.00  0.00    -0.394 OA
ATOM     10  H   UNL     1     -16.526 -30.949  13.422  1.00  0.00     0.210 HD
ENDBRANCH   8   9
ENDBRANCH   3   8
BRANCH   4  11
ATOM     11  O   UNL     1     -16.846 -32.884  12.876  1.00  0.00    -0.387 OA
ATOM     12  H   UNL     1     -17.625 -32.973  12.267  1.00  0.00     0.211 HD
ENDBRANCH   4  11
BRANCH   6  13
ATOM     13  O   UNL     1     -19.396 -33.737  13.757  1.00  0.00    -0.387 OA
ATOM     14  H   UNL     1     -19.965 -32.926  13.809  1.00  0.00     0.211 HD
ENDBRANCH   6  13
BRANCH   7  15
ATOM     15  O   UNL     1     -20.042 -32.350  15.876  1.00  0.00    -0.385 OA
ATOM     16  H   UNL     1     -20.590 -32.478  16.695  1.00  0.00     0.211 HD
ENDBRANCH   7  15
ENDBRANCH   1   2
BRANCH   1  17
ATOM     17  C   UNL     1     -18.099 -31.183  19.005  1.00  0.00     0.224 C 
ATOM     18  C   UNL     1     -16.672 -30.854  19.557  1.00  0.00     0.208 C 
ATOM     19  O   UNL     1     -18.420 -30.152  18.085  1.00  0.00    -0.337 OA
ATOM     20  C   UNL     1     -16.251 -29.599  18.816  1.00  0.00     0.180 C 
ATOM     21  C   UNL     1     -17.579 -29.052  18.335  1.00  0.00     0.179 C 
BRANCH  17  22
ATOM     22  C   UNL     1     -19.256 -31.155  20.049  1.00  0.00     0.225 C 
BRANCH  22  23
ATOM     23  O   UNL     1     -19.051 -32.034  21.120  1.00  0.00    -0.391 OA
ATOM     24  H   UNL     1     -18.328 -31.636  21.671  1.00  0.00     0.210 HD
ENDBRANCH  22  23
ENDBRANCH  17  22
BRANCH  18  25
ATOM     25  O   UNL     1     -16.639 -30.694  20.957  1.00  0.00    -0.385 OA
ATOM     26  H   UNL     1     -16.289 -29.785  21.159  1.00  0.00     0.211 HD
ENDBRANCH  18  25
BRANCH  20  27
ATOM     27  O   UNL     1     -15.584 -28.687  19.654  1.00  0.00    -0.387 OA
ATOM     28  H   UNL     1     -15.982 -28.790  20.557  1.00  0.00     0.211 HD
ENDBRANCH  20  27
BRANCH  21  29
ATOM     29  C   UNL     1     -17.430 -28.210  17.062  1.00  0.00     0.191 C 
BRANCH  29  30
ATOM     30  O   UNL     1     -17.957 -26.926  17.262  1.00  0.00    -0.394 OA
ATOM     31  H   UNL     1     -17.954 -26.474  16.378  1.00  0.00     0.210 HD
ENDBRANCH  29  30
ENDBRANCH  21  29
ENDBRANCH   1  17
TORSDOF 13
ENDMDL
MODEL 3
REMARK VINA RESULT:    -5.409      1.786      5.194
REMARK INTER + INTRA:          -9.784
REMARK INTER:                  -8.235
REMARK INTRA:                  -1.549
REMARK UNBOUND:                -1.530
REMARK SMILES OC[C@H]1O[C@H](O[C@]2(CO)O[C@H](CO)[C@@H](O)[C@H]2O)[C@@H](O)[C@@H](O)[C@@H]1O
REMARK SMILES IDX 6 1 5 2 3 3 22 4 4 5 20 6 18 7 2 8 1 9 23 11 21 13 19 15
REMARK SMILES IDX 7 17 16 18 10 19 14 20 11 21 8 22 9 23 17 25 15 27 12 29
REMARK SMILES IDX 13 30
REMARK H PARENT 1 10 23 12 21 14 19 16 9 24 17 26 15 28 13 31
REMARK Flexibility Score: inf
ROOT
ATOM      1  O   UNL     1     -18.185 -29.462  17.757  1.00  0.00    -0.313 OA
ENDROOT
BRANCH   1   2
ATOM      2  C   UNL     1     -18.406 -30.697  18.441  1.00  0.00     0.285 C 
ATOM      3  C   UNL     1     -19.326 -31.761  20.349  1.00  0.00     0.178 C 
ATOM      4  C   UNL     1     -19.119 -33.096  19.576  1.00  0.00     0.177 C 
ATOM      5  O   UNL     1     -19.322 -30.601  19.522  1.00  0.00    -0.341 OA
ATOM      6  C   UNL     1     -19.620 -32.924  18.132  1.00  0.00     0.179 C 
ATOM      7  C   UNL     1     -18.832 -31.795  17.430  1.00  0.00     0.202 C 
BRANCH   3   8
ATOM      8  C   UNL     1     -18.323 -31.606  21.501  1.00  0.00     0.191 C 
BRANCH   8   9
ATOM      9  O   UNL     1     -18.470 -32.670  22.399  1.00  0.00    -0.394 OA
ATOM     10  H   UNL     1     -17.929 -32.437  23.197  1.00  0.00     0.210 HD
ENDBRANCH   8   9
ENDBRANCH   3   8
BRANCH   4  11
ATOM     11  O   UNL     1     -19.830 -34.123  20.223  1.00  0.00    -0.387 OA
ATOM     12  H   UNL     1     -19.234 -34.489  20.927  1.00  0.00     0.211 HD
ENDBRANCH   4  11
BRANCH   6  13
ATOM     13  O   UNL     1     -19.482 -34.125  17.415  1.00  0.00    -0.387 OA
ATOM     14  H   UNL     1     -18.528 -34.391  17.471  1.00  0.00     0.211 HD
ENDBRANCH   6  13
BRANCH   7  15
ATOM     15  O   UNL     1     -17.689 -32.324  16.805  1.00  0.00    -0.385 OA
ATOM     16  H   UNL     1     -17.805 -33.311  16.784  1.00  0.00     0.211 HD
ENDBRANCH   7  15
ENDBRANCH   1   2
BRANCH   1  17
ATOM     17  C   UNL     1     -16.854 -28.941  17.682  1.00  0.00     0.224 C 
ATOM     18  C   UNL     1     -15.983 -29.422  18.890  1.00  0.00     0.208 C 
ATOM     19  O   UNL     1     -16.289 -29.528  16.522  1.00  0.00    -0.337 OA
ATOM     20  C   UNL     1     -14.948 -30.346  18.276  1.00  0.00     0.180 C 
ATOM     21  C   UNL     1     -14.974 -29.931  16.819  1.00  0.00     0.179 C 
BRANCH  17  22
ATOM     22  C   UNL     1     -16.838 -27.408  17.398  1.00  0.00     0.225 C 
BRANCH  22  23
ATOM     23  O   UNL     1     -18.119 -26.865  17.243  1.00  0.00    -0.391 OA
ATOM     24  H   UNL     1     -18.112 -25.996  17.722  1.00  0.00     0.210 HD
ENDBRANCH  22  23
ENDBRANCH  17  22
BRANCH  18  25
ATOM     25  O   UNL     1     -15.400 -28.361  19.615  1.00  0.00    -0.385 OA
ATOM     26  H   UNL     1     -14.550 -28.687  20.014  1.00  0.00     0.211 HD
ENDBRANCH  18  25
BRANCH  20  27
ATOM     27  O   UNL     1     -13.675 -30.170  18.846  1.00  0.00    -0.387 OA
ATOM     28  H   UNL     1     -13.186 -31.024  18.715  1.00  0.00     0.211 HD
ENDBRANCH  20  27
BRANCH  21  29
ATOM     29  C   UNL     1     -14.554 -31.074  15.886  1.00  0.00     0.191 C 
BRANCH  29  30
ATOM     30  O   UNL     1     -14.729 -32.311  16.522  1.00  0.00    -0.394 OA
ATOM     31  H   UNL     1     -13.839 -32.749  16.546  1.00  0.00     0.210 HD
ENDBRANCH  29  30
ENDBRANCH  21  29
ENDBRANCH   1  17
TORSDOF 13
ENDMDL
MODEL 4
REMARK VINA RESULT:    -5.387      1.530      6.168
REMARK INTER + INTRA:          -9.751
REMARK INTER:                  -8.826
REMARK INTRA:                  -0.925
REMARK UNBOUND:                -1.530
REMARK SMILES OC[C@H]1O[C@H](O[C@]2(CO)O[C@H](CO)[C@@H](O)[C@H]2O)[C@@H](O)[C@@H](O)[C@@H]1O
REMARK SMILES IDX 6 1 5 2 3 3 22 4 4 5 20 6 18 7 2 8 1 9 23 11 21 13 19 15
REMARK SMILES IDX 7 17 16 18 10 19 14 20 11 21 8 22 9 23 17 25 15 27 12 29
REMARK SMILES IDX 13 30
REMARK H PARENT 1 10 23 12 21 14 19 16 9 24 17 26 15 28 13 31
REMARK Flexibility Score: inf
ROOT
ATOM      1  O   UNL     1     -15.592 -30.210  18.818  1.00  0.00    -0.313 OA
ENDROOT
BRANCH   1   2
ATOM      2  C   UNL     1     -16.905 -30.663  19.150  1.00  0.00     0.285 C 
ATOM      3  C   UNL     1     -18.440 -31.174  20.883  1.00  0.00     0.178 C 
ATOM      4  C   UNL     1     -19.526 -31.208  19.769  1.00  0.00     0.177 C 
ATOM      5  O   UNL     1     -17.250 -30.482  20.515  1.00  0.00    -0.341 OA
ATOM      6  C   UNL     1     -19.351 -29.983  18.856  1.00  0.00     0.179 C 
ATOM      7  C   UNL     1     -17.948 -30.004  18.208  1.00  0.00     0.202 C 
BRANCH   3   8
ATOM      8  C   UNL     1     -18.109 -32.579  21.403  1.00  0.00     0.191 C 
BRANCH   8   9
ATOM      9  O   UNL     1     -18.440 -32.669  22.761  1.00  0.00    -0.394 OA
ATOM     10  H   UNL     1     -19.334 -33.097  22.801  1.00  0.00     0.210 HD
ENDBRANCH   8   9
ENDBRANCH   3   8
BRANCH   4  11
ATOM     11  O   UNL     1     -20.801 -31.198  20.362  1.00  0.00    -0.387 OA
ATOM     12  H   UNL     1     -21.452 -31.451  19.657  1.00  0.00     0.211 HD
ENDBRANCH   4  11
BRANCH   6  13
ATOM     13  O   UNL     1     -20.341 -29.963  17.859  1.00  0.00    -0.387 OA
ATOM     14  H   UNL     1     -20.728 -29.049  17.851  1.00  0.00     0.211 HD
ENDBRANCH   6  13
BRANCH   7  15
ATOM     15  O   UNL     1     -17.991 -30.708  16.992  1.00  0.00    -0.385 OA
ATOM     16  H   UNL     1     -18.588 -30.195  16.385  1.00  0.00     0.211 HD
ENDBRANCH   7  15
ENDBRANCH   1   2
BRANCH   1  17
ATOM     17  C   UNL     1     -14.638 -31.155  18.322  1.00  0.00     0.224 C 
ATOM     18  C   UNL     1     -14.643 -31.205  16.758  1.00  0.00     0.208 C 
ATOM     19  O   UNL     1     -13.372 -30.640  18.703  1.00  0.00    -0.337 OA
ATOM     20  C   UNL     1     -13.300 -30.630  16.349  1.00  0.00     0.180 C 
ATOM     21  C   UNL     1     -12.487 -30.784  17.618  1.00  0.00     0.179 C 
BRANCH  17  22
ATOM     22  C   UNL     1     -14.740 -32.530  19.048  1.00  0.00     0.225 C 
BRANCH  22  23
ATOM     23  O   UNL     1     -14.198 -32.512  20.339  1.00  0.00    -0.391 OA
ATOM     24  H   UNL     1     -13.395 -33.095  20.312  1.00  0.00     0.210 HD
ENDBRANCH  22  23
ENDBRANCH  17  22
BRANCH  18  25
ATOM     25  O   UNL     1     -14.857 -32.500  16.242  1.00  0.00    -0.385 OA
ATOM     26  H   UNL     1     -14.064 -32.755  15.700  1.00  0.00     0.211 HD
ENDBRANCH  18  25
BRANCH  20  27
ATOM     27  O   UNL     1     -12.727 -31.333  15.274  1.00  0.00    -0.387 OA
ATOM     28  H   UNL     1     -13.327 -32.100  15.085  1.00  0.00     0.211 HD
ENDBRANCH  20  27
BRANCH  21  29
ATOM     29  C   UNL     1     -11.368 -29.740  17.717  1.00  0.00     0.191 C 
BRANCH  29  30
ATOM     30  O   UNL     1     -11.527 -28.761  16.726  1.00  0.00    -0.394 OA
ATOM     31  H   UNL     1     -10.746 -28.839  16.118  1.00  0.00     0.210 HD
ENDBRANCH  29  30
ENDBRANCH  21  29
ENDBRANCH   1  17
TORSDOF 13
ENDMDL
MODEL 5
REMARK VINA RESULT:    -5.363      1.619      2.027
REMARK INTER + INTRA:          -9.715
REMARK INTER:                  -8.092
REMARK INTRA:                  -1.623
REMARK UNBOUND:                -1.530
REMARK SMILES OC[C@H]1O[C@H](O[C@]2(CO)O[C@H](CO)[C@@H](O)[C@H]2O)[C@@H](O)[C@@H](O)[C@@H]1O
REMARK SMILES IDX 6 1 5 2 3 3 22 4 4 5 20 6 18 7 2 8 1 9 23 11 21 13 19 15
REMARK SMILES IDX 7 17 16 18 10 19 14 20 11 21 8 22 9 23 17 25 15 27 12 29
REMARK SMILES IDX 13 30
REMARK H PARENT 1 10 23 12 21 14 19 16 9 24 17 26 15 28 13 31
REMARK Flexibility Score: inf
ROOT
ATOM      1  O   UNL     1     -15.695 -28.583  18.238  1.00  0.00    -0.313 OA
ENDROOT
BRANCH   1   2
ATOM      2  C   UNL     1     -15.339 -29.812  17.603  1.00  0.00     0.285 C 
ATOM      3  C   UNL     1     -15.720 -31.276  15.778  1.00  0.00     0.178 C 
ATOM      4  C   UNL     1     -14.414 -31.998  16.218  1.00  0.00     0.177 C 
ATOM      5  O   UNL     1     -15.855 -29.952  16.287  1.00  0.00    -0.341 OA
ATOM      6  C   UNL     1     -13.329 -30.946  16.506  1.00  0.00     0.179 C 
ATOM      7  C   UNL     1     -13.798 -29.998  17.632  1.00  0.00     0.202 C 
BRANCH   3   8
ATOM      8  C   UNL     1     -16.969 -32.108  16.097  1.00  0.00     0.191 C 
BRANCH   8   9
ATOM      9  O   UNL     1     -16.630 -33.155  16.963  1.00  0.00    -0.394 OA
ATOM     10  H   UNL     1     -15.721 -33.450  16.698  1.00  0.00     0.210 HD
ENDBRANCH   8   9
ENDBRANCH   3   8
BRANCH   4  11
ATOM     11  O   UNL     1     -13.995 -32.867  15.195  1.00  0.00    -0.387 OA
ATOM     12  H   UNL     1     -14.749 -32.947  14.555  1.00  0.00     0.211 HD
ENDBRANCH   4  11
BRANCH   6  13
ATOM     13  O   UNL     1     -12.122 -31.567  16.871  1.00  0.00    -0.387 OA
ATOM     14  H   UNL     1     -11.390 -30.931  16.657  1.00  0.00     0.211 HD
ENDBRANCH   6  13
BRANCH   7  15
ATOM     15  O   UNL     1     -13.411 -30.510  18.883  1.00  0.00    -0.385 OA
ATOM     16  H   UNL     1     -13.633 -29.814  19.557  1.00  0.00     0.211 HD
ENDBRANCH   7  15
ENDBRANCH   1   2
BRANCH   1  17
ATOM     17  C   UNL     1     -16.798 -28.569  19.150  1.00  0.00     0.224 C 
ATOM     18  C   UNL     1     -18.164 -28.465  18.395  1.00  0.00     0.208 C 
ATOM     19  O   UNL     1     -16.781 -29.843  19.774  1.00  0.00    -0.337 OA
ATOM     20  C   UNL     1     -18.839 -29.803  18.630  1.00  0.00     0.180 C 
ATOM     21  C   UNL     1     -18.102 -30.322  19.848  1.00  0.00     0.179 C 
BRANCH  17  22
ATOM     22  C   UNL     1     -16.585 -27.556  20.315  1.00  0.00     0.225 C 
BRANCH  22  23
ATOM     23  O   UNL     1     -16.776 -26.224  19.927  1.00  0.00    -0.391 OA
ATOM     24  H   UNL     1     -16.235 -26.094  19.105  1.00  0.00     0.210 HD
ENDBRANCH  22  23
ENDBRANCH  17  22
BRANCH  18  25
ATOM     25  O   UNL     1     -18.955 -27.377  18.819  1.00  0.00    -0.385 OA
ATOM     26  H   UNL     1     -18.858 -26.644  18.156  1.00  0.00     0.211 HD
ENDBRANCH  18  25
BRANCH  20  27
ATOM     27  O   UNL     1     -20.217 -29.667  18.873  1.00  0.00    -0.387 OA
ATOM     28  H   UNL     1     -20.453 -30.350  19.553  1.00  0.00     0.211 HD
ENDBRANCH  20  27
BRANCH  21  29
ATOM     29  C   UNL     1     -18.098 -31.854  19.910  1.00  0.00     0.191 C 
BRANCH  29  30
ATOM     30  O   UNL     1     -18.923 -32.385  18.909  1.00  0.00    -0.394 OA
ATOM     31  H   UNL     1     -19.279 -31.615  18.393  1.00  0.00     0.210 HD
ENDBRANCH  29  30
ENDBRANCH  21  29
ENDBRANCH   1  17
TORSDOF 13
ENDMDL
MODEL 6
REMARK VINA RESULT:    -5.360      1.598      6.118
REMARK INTER + INTRA:          -9.709
REMARK INTER:                  -8.330
REMARK INTRA:                  -1.379
REMARK UNBOUND:                -1.530
REMARK SMILES OC[C@H]1O[C@H](O[C@]2(CO)O[C@H](CO)[C@@H](O)[C@H]2O)[C@@H](O)[C@@H](O)[C@@H]1O
REMARK SMILES IDX 6 1 5 2 3 3 22 4 4 5 20 6 18 7 2 8 1 9 23 11 21 13 19 15
REMARK SMILES IDX 7 17 16 18 10 19 14 20 11 21 8 22 9 23 17 25 15 27 12 29
REMARK SMILES IDX 13 30
REMARK H PARENT 1 10 23 12 21 14 19 16 9 24 17 26 15 28 13 31
REMARK Flexibility Score: inf
ROOT
ATOM      1  O   UNL     1     -15.322 -33.021  18.669  1.00  0.00    -0.313 OA
ENDROOT
BRANCH   1   2
ATOM      2  C   UNL     1     -16.485 -32.377  19.192  1.00  0.00     0.285 C 
ATOM      3  C   UNL     1     -18.704 -31.657  18.771  1.00  0.00     0.178 C 
ATOM      4  C   UNL     1     -18.818 -31.449  20.309  1.00  0.00     0.177 C 
ATOM      5  O   UNL     1     -17.639 -32.518  18.377  1.00  0.00    -0.341 OA
ATOM      6  C   UNL     1     -18.237 -32.678  21.028  1.00  0.00     0.179 C 
ATOM      7  C   UNL     1     -16.752 -32.863  20.643  1.00  0.00     0.202 C 
BRANCH   3   8
ATOM      8  C   UNL     1     -18.628 -30.323  18.016  1.00  0.00     0.191 C 
BRANCH   8   9
ATOM      9  O   UNL     1     -19.672 -29.487  18.432  1.00  0.00    -0.394 OA
ATOM     10  H   UNL     1     -19.689 -29.535  19.422  1.00  0.00     0.210 HD
ENDBRANCH   8   9
ENDBRANCH   3   8
BRANCH   4  11
ATOM     11  O   UNL     1     -20.170 -31.272  20.655  1.00  0.00    -0.387 OA
ATOM     12  H   UNL     1     -20.187 -30.744  21.495  1.00  0.00     0.211 HD
ENDBRANCH   4  11
BRANCH   6  13
ATOM     13  O   UNL     1     -18.359 -32.539  22.422  1.00  0.00    -0.387 OA
ATOM     14  H   UNL     1     -18.487 -31.573  22.609  1.00  0.00     0.211 HD
ENDBRANCH   6  13
BRANCH   7  15
ATOM     15  O   UNL     1     -15.932 -32.149  21.534  1.00  0.00    -0.385 OA
ATOM     16  H   UNL     1     -15.235 -31.701  20.986  1.00  0.00     0.211 HD
ENDBRANCH   7  15
ENDBRANCH   1   2
BRANCH   1  17
ATOM     17  C   UNL     1     -14.111 -32.268  18.545  1.00  0.00     0.224 C 
ATOM     18  C   UNL     1     -13.710 -32.073  17.045  1.00  0.00     0.208 C 
ATOM     19  O   UNL     1     -14.421 -30.979  19.048  1.00  0.00    -0.337 OA
ATOM     20  C   UNL     1     -13.883 -30.587  16.789  1.00  0.00     0.180 C 
ATOM     21  C   UNL     1     -13.853 -30.016  18.193  1.00  0.00     0.179 C 
BRANCH  17  22
ATOM     22  C   UNL     1     -12.989 -32.800  19.487  1.00  0.00     0.225 C 
BRANCH  22  23
ATOM     23  O   UNL     1     -12.608 -34.117  19.199  1.00  0.00    -0.391 OA
ATOM     24  H   UNL     1     -13.409 -34.680  19.365  1.00  0.00     0.210 HD
ENDBRANCH  22  23
ENDBRANCH  17  22
BRANCH  18  25
ATOM     25  O   UNL     1     -12.406 -32.524  16.753  1.00  0.00    -0.385 OA
ATOM     26  H   UNL     1     -11.995 -31.892  16.105  1.00  0.00     0.211 HD
ENDBRANCH  18  25
BRANCH  20  27
ATOM     27  O   UNL     1     -12.850 -30.062  15.992  1.00  0.00    -0.387 OA
ATOM     28  H   UNL     1     -12.829 -30.607  15.162  1.00  0.00     0.211 HD
ENDBRANCH  20  27
BRANCH  21  29
ATOM     29  C   UNL     1     -14.635 -28.701  18.297  1.00  0.00     0.191 C 
BRANCH  29  30
ATOM     30  O   UNL     1     -15.465 -28.715  19.426  1.00  0.00    -0.394 OA
ATOM     31  H   UNL     1     -15.055 -28.103  20.091  1.00  0.00     0.210 HD
ENDBRANCH  29  30
ENDBRANCH  21  29
ENDBRANCH   1  17
TORSDOF 13
ENDMDL
MODEL 7
REMARK VINA RESULT:    -5.219      1.548      6.152
REMARK INTER + INTRA:          -9.495
REMARK INTER:                  -8.012
REMARK INTRA:                  -1.483
REMARK UNBOUND:                -1.530
REMARK SMILES OC[C@H]1O[C@H](O[C@]2(CO)O[C@H](CO)[C@@H](O)[C@H]2O)[C@@H](O)[C@@H](O)[C@@H]1O
REMARK SMILES IDX 6 1 5 2 3 3 22 4 4 5 20 6 18 7 2 8 1 9 23 11 21 13 19 15
REMARK SMILES IDX 7 17 16 18 10 19 14 20 11 21 8 22 9 23 17 25 15 27 12 29
REMARK SMILES IDX 13 30
REMARK H PARENT 1 10 23 12 21 14 19 16 9 24 17 26 15 28 13 31
REMARK Flexibility Score: inf
ROOT
ATOM      1  O   UNL     1     -15.305 -33.038  18.660  1.00  0.00    -0.313 OA
ENDROOT
BRANCH   1   2
ATOM      2  C   UNL     1     -16.459 -32.388  19.195  1.00  0.00     0.285 C 
ATOM      3  C   UNL     1     -18.667 -31.628  18.787  1.00  0.00     0.178 C 
ATOM      4  C   UNL     1     -18.779 -31.447  20.329  1.00  0.00     0.177 C 
ATOM      5  O   UNL     1     -17.614 -32.497  18.377  1.00  0.00    -0.341 OA
ATOM      6  C   UNL     1     -18.216 -32.697  21.025  1.00  0.00     0.179 C 
ATOM      7  C   UNL     1     -16.734 -32.896  20.636  1.00  0.00     0.202 C 
BRANCH   3   8
ATOM      8  C   UNL     1     -18.572 -30.282  18.057  1.00  0.00     0.191 C 
BRANCH   8   9
ATOM      9  O   UNL     1     -19.675 -29.486  18.391  1.00  0.00    -0.394 OA
ATOM     10  H   UNL     1     -19.708 -28.760  17.717  1.00  0.00     0.210 HD
ENDBRANCH   8   9
ENDBRANCH   3   8
BRANCH   4  11
ATOM     11  O   UNL     1     -20.128 -31.257  20.678  1.00  0.00    -0.387 OA
ATOM     12  H   UNL     1     -20.141 -30.652  21.465  1.00  0.00     0.211 HD
ENDBRANCH   4  11
BRANCH   6  13
ATOM     13  O   UNL     1     -18.336 -32.582  22.421  1.00  0.00    -0.387 OA
ATOM     14  H   UNL     1     -19.298 -32.442  22.621  1.00  0.00     0.211 HD
ENDBRANCH   6  13
BRANCH   7  15
ATOM     15  O   UNL     1     -15.903 -32.210  21.541  1.00  0.00    -0.385 OA
ATOM     16  H   UNL     1     -14.969 -32.474  21.328  1.00  0.00     0.211 HD
ENDBRANCH   7  15
ENDBRANCH   1   2
BRANCH   1  17
ATOM     17  C   UNL     1     -14.537 -32.368  17.655  1.00  0.00     0.224 C 
ATOM     18  C   UNL     1     -14.345 -30.853  17.997  1.00  0.00     0.208 C 
ATOM     19  O   UNL     1     -13.249 -32.959  17.716  1.00  0.00    -0.337 OA
ATOM     20  C   UNL     1     -12.863 -30.708  18.291  1.00  0.00     0.180 C 
ATOM     21  C   UNL     1     -12.284 -31.939  17.623  1.00  0.00     0.179 C 
BRANCH  17  22
ATOM     22  C   UNL     1     -15.048 -32.682  16.217  1.00  0.00     0.225 C 
BRANCH  22  23
ATOM     23  O   UNL     1     -16.232 -32.007  15.895  1.00  0.00    -0.391 OA
ATOM     24  H   UNL     1     -16.198 -31.141  16.378  1.00  0.00     0.210 HD
ENDBRANCH  22  23
ENDBRANCH  17  22
BRANCH  18  25
ATOM     25  O   UNL     1     -14.781 -29.990  16.971  1.00  0.00    -0.385 OA
ATOM     26  H   UNL     1     -14.604 -29.054  17.255  1.00  0.00     0.211 HD
ENDBRANCH  18  25
BRANCH  20  27
ATOM     27  O   UNL     1     -12.329 -29.524  17.753  1.00  0.00    -0.387 OA
ATOM     28  H   UNL     1     -12.512 -29.548  16.778  1.00  0.00     0.211 HD
ENDBRANCH  20  27
BRANCH  21  29
ATOM     29  C   UNL     1     -10.978 -32.394  18.287  1.00  0.00     0.191 C 
BRANCH  29  30
ATOM     30  O   UNL     1      -9.960 -31.461  18.049  1.00  0.00    -0.394 OA
ATOM     31  H   UNL     1      -9.376 -31.462  18.851  1.00  0.00     0.210 HD
ENDBRANCH  29  30
ENDBRANCH  21  29
ENDBRANCH   1  17
TORSDOF 13
ENDMDL
MODEL 8
REMARK VINA RESULT:    -5.091      1.961      3.935
REMARK INTER + INTRA:          -9.300
REMARK INTER:                  -7.371
REMARK INTRA:                  -1.929
REMARK UNBOUND:                -1.530
REMARK SMILES OC[C@H]1O[C@H](O[C@]2(CO)O[C@H](CO)[C@@H](O)[C@H]2O)[C@@H](O)[C@@H](O)[C@@H]1O
REMARK SMILES IDX 6 1 5 2 3 3 22 4 4 5 20 6 18 7 2 8 1 9 23 11 21 13 19 15
REMARK SMILES IDX 7 17 16 18 10 19 14 20 11 21 8 22 9 23 17 25 15 27 12 29
REMARK SMILES IDX 13 30
REMARK H PARENT 1 10 23 12 21 14 19 16 9 24 17 26 15 28 13 31
REMARK Flexibility Score: inf
ROOT
ATOM      1  O   UNL     1     -16.539 -32.664  17.879  1.00  0.00    -0.313 OA
ENDROOT
BRANCH   1   2
ATOM      2  C   UNL     1     -15.669 -32.273  16.816  1.00  0.00     0.285 C 
ATOM      3  C   UNL     1     -13.438 -31.828  16.150  1.00  0.00     0.178 C 
ATOM      4  C   UNL     1     -13.979 -31.850  14.691  1.00  0.00     0.177 C 
ATOM      5  O   UNL     1     -14.291 -32.464  17.098  1.00  0.00    -0.341 OA
ATOM      6  C   UNL     1     -14.899 -33.070  14.514  1.00  0.00     0.179 C 
ATOM      7  C   UNL     1     -16.085 -32.985  15.501  1.00  0.00     0.202 C 
BRANCH   3   8
ATOM      8  C   UNL     1     -13.087 -30.406  16.609  1.00  0.00     0.191 C 
BRANCH   8   9
ATOM      9  O   UNL     1     -13.018 -30.366  18.007  1.00  0.00    -0.394 OA
ATOM     10  H   UNL     1     -13.649 -31.056  18.337  1.00  0.00     0.210 HD
ENDBRANCH   8   9
ENDBRANCH   3   8
BRANCH   4  11
ATOM     11  O   UNL     1     -12.897 -31.918  13.795  1.00  0.00    -0.387 OA
ATOM     12  H   UNL     1     -12.473 -31.021  13.784  1.00  0.00     0.211 HD
ENDBRANCH   4  11
BRANCH   6  13
ATOM     13  O   UNL     1     -15.376 -33.142  13.193  1.00  0.00    -0.387 OA
ATOM     14  H   UNL     1     -16.336 -32.891  13.216  1.00  0.00     0.211 HD
ENDBRANCH   6  13
BRANCH   7  15
ATOM     15  O   UNL     1     -17.154 -32.289  14.909  1.00  0.00    -0.385 OA
ATOM     16  H   UNL     1     -17.747 -32.972  14.498  1.00  0.00     0.211 HD
ENDBRANCH   7  15
ENDBRANCH   1   2
BRANCH   1  17
ATOM     17  C   UNL     1     -16.710 -31.784  18.994  1.00  0.00     0.224 C 
ATOM     18  C   UNL     1     -16.582 -30.285  18.564  1.00  0.00     0.208 C 
ATOM     19  O   UNL     1     -18.054 -31.967  19.410  1.00  0.00    -0.337 OA
ATOM     20  C   UNL     1     -17.976 -29.711  18.740  1.00  0.00     0.180 C 
ATOM     21  C   UNL     1     -18.612 -30.706  19.690  1.00  0.00     0.179 C 
BRANCH  17  22
ATOM     22  C   UNL     1     -15.853 -32.216  20.222  1.00  0.00     0.225 C 
BRANCH  22  23
ATOM     23  O   UNL     1     -14.478 -32.041  20.021  1.00  0.00    -0.391 OA
ATOM     24  H   UNL     1     -14.263 -32.495  19.166  1.00  0.00     0.210 HD
ENDBRANCH  22  23
ENDBRANCH  17  22
BRANCH  18  25
ATOM     25  O   UNL     1     -15.608 -29.575  19.296  1.00  0.00    -0.385 OA
ATOM     26  H   UNL     1     -15.941 -29.456  20.225  1.00  0.00     0.211 HD
ENDBRANCH  18  25
BRANCH  20  27
ATOM     27  O   UNL     1     -17.951 -28.414  19.283  1.00  0.00    -0.387 OA
ATOM     28  H   UNL     1     -18.392 -27.822  18.621  1.00  0.00     0.211 HD
ENDBRANCH  20  27
BRANCH  21  29
ATOM     29  C   UNL     1     -20.136 -30.763  19.529  1.00  0.00     0.191 C 
BRANCH  29  30
ATOM     30  O   UNL     1     -20.604 -29.601  18.900  1.00  0.00    -0.394 OA
ATOM     31  H   UNL     1     -19.871 -29.278  18.313  1.00  0.00     0.210 HD
ENDBRANCH  29  30
ENDBRANCH  21  29
ENDBRANCH   1  17
TORSDOF 13
ENDMDL
