MODEL 1
REMARK VINA RESULT:    -3.705      0.000      0.000
REMARK INTER + INTRA:         -14.796
REMARK INTER:                  -9.337
REMARK INTRA:                  -5.459
REMARK UNBOUND:                -5.459
REMARK SMILES CCCCCCCCCCCCCCCCCCCCCCCCCCCC(=O)[O-]
REMARK SMILES IDX 15 1 16 2 17 3 18 4 19 5 20 6 21 7 22 8 23 9 24 10 25 11
REMARK SMILES IDX 26 12 27 13 28 14 29 15 30 16 14 17 13 18 12 19 11 20 10 21
REMARK SMILES IDX 9 22 8 23 7 24 6 25 5 26 4 27 3 28 2 29 1 30
REMARK H PARENT
REMARK Flexibility Score: inf
ROOT
ATOM      1  C   UNL     1      21.112  -5.141  50.434  1.00  0.00     0.000 C 
ENDROOT
BRANCH   1   2
ATOM      2  C   UNL     1      21.732  -6.031  49.340  1.00  0.00     0.000 C 
BRANCH   2   3
ATOM      3  C   UNL     1      23.194  -5.655  49.038  1.00  0.00     0.000 C 
BRANCH   3   4
ATOM      4  C   UNL     1      23.796  -6.553  47.939  1.00  0.00     0.000 C 
BRANCH   4   5
ATOM      5  C   UNL     1      23.537  -6.030  46.515  1.00  0.00     0.000 C 
BRANCH   5   6
ATOM      6  C   UNL     1      22.541  -6.872  45.687  1.00  0.00     0.000 C 
BRANCH   6   7
ATOM      7  C   UNL     1      21.409  -6.054  45.031  1.00  0.00     0.000 C 
BRANCH   7   8
ATOM      8  C   UNL     1      20.582  -5.169  45.984  1.00  0.00     0.000 C 
BRANCH   8   9
ATOM      9  C   UNL     1      20.687  -3.658  45.708  1.00  0.00     0.000 C 
BRANCH   9  10
ATOM     10  C   UNL     1      21.398  -2.893  46.841  1.00  0.00     0.000 C 
BRANCH  10  11
ATOM     11  C   UNL     1      22.793  -2.401  46.428  1.00  0.00     0.000 C 
BRANCH  11  12
ATOM     12  C   UNL     1      23.696  -2.145  47.651  1.00  0.00     0.006 C 
BRANCH  12  13
ATOM     13  C   UNL     1      25.084  -2.786  47.506  1.00  0.00     0.053 C 
BRANCH  13  14
ATOM     14  C   UNL     1      26.178  -1.786  47.273  1.00  0.00     0.041 C 
ATOM     15  O   UNL     1      25.964  -0.551  47.421  1.00  0.00    -0.550 OA
ATOM     16  O   UNL     1      27.459  -2.230  46.958  1.00  0.00    -0.550 OA
ENDBRANCH  13  14
ENDBRANCH  12  13
ENDBRANCH  11  12
ENDBRANCH  10  11
ENDBRANCH   9  10
ENDBRANCH   8   9
ENDBRANCH   7   8
ENDBRANCH   6   7
ENDBRANCH   5   6
ENDBRANCH   4   5
ENDBRANCH   3   4
ENDBRANCH   2   3
ENDBRANCH   1   2
BRANCH   1  17
ATOM     17  C   UNL     1      21.571  -3.676  50.333  1.00  0.00     0.000 C 
BRANCH  17  18
ATOM     18  C   UNL     1      22.125  -3.131  51.659  1.00  0.00     0.000 C 
BRANCH  18  19
ATOM     19  C   UNL     1      23.648  -3.306  51.782  1.00  0.00     0.000 C 
BRANCH  19  20
ATOM     20  C   UNL     1      24.042  -4.205  52.965  1.00  0.00     0.000 C 
BRANCH  20  21
ATOM     21  C   UNL     1      24.265  -5.656  52.514  1.00  0.00     0.000 C 
BRANCH  21  22
ATOM     22  C   UNL     1      23.160  -6.605  53.023  1.00  0.00    -0.000 C 
BRANCH  22  23
ATOM     23  C   UNL     1      22.331  -6.037  54.187  1.00  0.00    -0.000 C 
BRANCH  23  24
ATOM     24  C   UNL     1      20.818  -6.042  53.909  1.00  0.00    -0.000 C 
BRANCH  24  25
ATOM     25  C   UNL     1      20.126  -4.764  54.414  1.00  0.00    -0.000 C 
BRANCH  25  26
ATOM     26  C   UNL     1      20.936  -4.064  55.520  1.00  0.00    -0.000 C 
BRANCH  26  27
ATOM     27  C   UNL     1      21.306  -2.613  55.163  1.00  0.00    -0.000 C 
BRANCH  27  28
ATOM     28  C   UNL     1      22.269  -1.924  56.148  1.00  0.00    -0.000 C 
BRANCH  28  29
ATOM     29  C   UNL     1      23.760  -2.046  55.788  1.00  0.00    -0.003 C 
ATOM     30  C   UNL     1      24.468  -3.160  56.559  1.00  0.00     0.004 C 
ENDBRANCH  28  29
ENDBRANCH  27  28
ENDBRANCH  26  27
ENDBRANCH  25  26
ENDBRANCH  24  25
ENDBRANCH  23  24
ENDBRANCH  22  23
ENDBRANCH  21  22
ENDBRANCH  20  21
ENDBRANCH  19  20
ENDBRANCH  18  19
ENDBRANCH  17  18
ENDBRANCH   1  17
TORSDOF 26
ENDMDL
MODEL 2
REMARK VINA RESULT:    -3.624     11.693     15.440
REMARK INTER + INTRA:         -14.592
REMARK INTER:                  -9.911
REMARK INTRA:                  -4.681
REMARK UNBOUND:                -5.459
REMARK SMILES CCCCCCCCCCCCCCCCCCCCCCCCCCCC(=O)[O-]
REMARK SMILES IDX 15 1 16 2 17 3 18 4 19 5 20 6 21 7 22 8 23 9 24 10 25 11
REMARK SMILES IDX 26 12 27 13 28 14 29 15 30 16 14 17 13 18 12 19 11 20 10 21
REMARK SMILES IDX 9 22 8 23 7 24 6 25 5 26 4 27 3 28 2 29 1 30
REMARK H PARENT
REMARK Flexibility Score: inf
ROOT
ATOM      1  C   UNL     1      31.599   5.012  39.962  1.00  0.00     0.000 C 
ENDROOT
BRANCH   1   2
ATOM      2  C   UNL     1      30.425   5.384  39.036  1.00  0.00     0.000 C 
BRANCH   2   3
ATOM      3  C   UNL     1      30.490   6.848  38.566  1.00  0.00     0.000 C 
BRANCH   3   4
ATOM      4  C   UNL     1      31.881   7.462  38.815  1.00  0.00     0.000 C 
BRANCH   4   5
ATOM      5  C   UNL     1      31.864   8.613  39.837  1.00  0.00     0.000 C 
BRANCH   5   6
ATOM      6  C   UNL     1      30.499   8.852  40.521  1.00  0.00     0.000 C 
BRANCH   6   7
ATOM      7  C   UNL     1      30.463   8.476  42.016  1.00  0.00     0.000 C 
BRANCH   7   8
ATOM      8  C   UNL     1      29.095   8.023  42.563  1.00  0.00     0.000 C 
BRANCH   8   9
ATOM      9  C   UNL     1      27.979   7.938  41.505  1.00  0.00     0.000 C 
BRANCH   9  10
ATOM     10  C   UNL     1      27.188   6.618  41.577  1.00  0.00     0.000 C 
BRANCH  10  11
ATOM     11  C   UNL     1      28.030   5.464  42.140  1.00  0.00     0.000 C 
BRANCH  11  12
ATOM     12  C   UNL     1      27.578   4.099  41.582  1.00  0.00     0.006 C 
BRANCH  12  13
ATOM     13  C   UNL     1      26.115   3.776  41.922  1.00  0.00     0.053 C 
BRANCH  13  14
ATOM     14  C   UNL     1      25.279   3.471  40.715  1.00  0.00     0.041 C 
ATOM     15  O   UNL     1      25.812   3.328  39.580  1.00  0.00    -0.550 OA
ATOM     16  O   UNL     1      23.908   3.275  40.860  1.00  0.00    -0.550 OA
ENDBRANCH  13  14
ENDBRANCH  12  13
ENDBRANCH  11  12
ENDBRANCH  10  11
ENDBRANCH   9  10
ENDBRANCH   8   9
ENDBRANCH   7   8
ENDBRANCH   6   7
ENDBRANCH   5   6
ENDBRANCH   4   5
ENDBRANCH   3   4
ENDBRANCH   2   3
ENDBRANCH   1   2
BRANCH   1  17
ATOM     17  C   UNL     1      31.199   5.002  41.447  1.00  0.00     0.000 C 
BRANCH  17  18
ATOM     18  C   UNL     1      32.345   5.431  42.378  1.00  0.00     0.000 C 
BRANCH  18  19
ATOM     19  C   UNL     1      31.918   5.498  43.853  1.00  0.00     0.000 C 
BRANCH  19  20
ATOM     20  C   UNL     1      32.967   6.190  44.739  1.00  0.00     0.000 C 
BRANCH  20  21
ATOM     21  C   UNL     1      33.473   7.489  44.095  1.00  0.00     0.000 C 
BRANCH  21  22
ATOM     22  C   UNL     1      33.220   8.723  44.986  1.00  0.00    -0.000 C 
BRANCH  22  23
ATOM     23  C   UNL     1      32.225   8.476  46.132  1.00  0.00    -0.000 C 
BRANCH  23  24
ATOM     24  C   UNL     1      30.801   8.961  45.811  1.00  0.00    -0.000 C 
BRANCH  24  25
ATOM     25  C   UNL     1      29.743   8.316  46.723  1.00  0.00    -0.000 C 
BRANCH  25  26
ATOM     26  C   UNL     1      29.738   6.782  46.611  1.00  0.00    -0.000 C 
BRANCH  26  27
ATOM     27  C   UNL     1      30.027   6.083  47.952  1.00  0.00    -0.000 C 
BRANCH  27  28
ATOM     28  C   UNL     1      31.320   5.245  47.986  1.00  0.00    -0.000 C 
BRANCH  28  29
ATOM     29  C   UNL     1      31.872   4.965  49.395  1.00  0.00    -0.003 C 
ATOM     30  C   UNL     1      31.779   3.491  49.788  1.00  0.00     0.004 C 
ENDBRANCH  28  29
ENDBRANCH  27  28
ENDBRANCH  26  27
ENDBRANCH  25  26
ENDBRANCH  24  25
ENDBRANCH  23  24
ENDBRANCH  22  23
ENDBRANCH  21  22
ENDBRANCH  20  21
ENDBRANCH  19  20
ENDBRANCH  18  19
ENDBRANCH  17  18
ENDBRANCH   1  17
TORSDOF 26
ENDMDL
MODEL 3
REMARK VINA RESULT:    -3.617     13.490     17.975
REMARK INTER + INTRA:         -14.574
REMARK INTER:                  -8.848
REMARK INTRA:                  -5.726
REMARK UNBOUND:                -5.459
REMARK SMILES CCCCCCCCCCCCCCCCCCCCCCCCCCCC(=O)[O-]
REMARK SMILES IDX 15 1 16 2 17 3 18 4 19 5 20 6 21 7 22 8 23 9 24 10 25 11
REMARK SMILES IDX 26 12 27 13 28 14 29 15 30 16 14 17 13 18 12 19 11 20 10 21
REMARK SMILES IDX 9 22 8 23 7 24 6 25 5 26 4 27 3 28 2 29 1 30
REMARK H PARENT
REMARK Flexibility Score: inf
ROOT
ATOM      1  C   UNL     1      33.125   5.335  41.394  1.00  0.00     0.000 C 
ENDROOT
BRANCH   1   2
ATOM      2  C   UNL     1      32.512   5.739  40.039  1.00  0.00     0.000 C 
BRANCH   2   3
ATOM      3  C   UNL     1      31.220   4.963  39.726  1.00  0.00     0.000 C 
BRANCH   3   4
ATOM      4  C   UNL     1      30.435   5.611  38.569  1.00  0.00     0.000 C 
BRANCH   4   5
ATOM      5  C   UNL     1      31.116   6.869  38.000  1.00  0.00     0.000 C 
BRANCH   5   6
ATOM      6  C   UNL     1      30.315   8.177  38.181  1.00  0.00     0.000 C 
BRANCH   6   7
ATOM      7  C   UNL     1      30.618   8.931  39.493  1.00  0.00     0.000 C 
BRANCH   7   8
ATOM      8  C   UNL     1      29.731   8.563  40.699  1.00  0.00     0.000 C 
BRANCH   8   9
ATOM      9  C   UNL     1      30.500   8.025  41.919  1.00  0.00     0.000 C 
BRANCH   9  10
ATOM     10  C   UNL     1      29.767   6.866  42.623  1.00  0.00     0.000 C 
BRANCH  10  11
ATOM     11  C   UNL     1      28.511   6.422  41.859  1.00  0.00     0.000 C 
BRANCH  11  12
ATOM     12  C   UNL     1      28.204   4.927  42.082  1.00  0.00     0.006 C 
BRANCH  12  13
ATOM     13  C   UNL     1      27.767   4.214  40.794  1.00  0.00     0.053 C 
BRANCH  13  14
ATOM     14  C   UNL     1      26.343   3.745  40.829  1.00  0.00     0.041 C 
ATOM     15  O   UNL     1      25.754   3.554  41.928  1.00  0.00    -0.550 OA
ATOM     16  O   UNL     1      25.643   3.586  39.636  1.00  0.00    -0.550 OA
ENDBRANCH  13  14
ENDBRANCH  12  13
ENDBRANCH  11  12
ENDBRANCH  10  11
ENDBRANCH   9  10
ENDBRANCH   8   9
ENDBRANCH   7   8
ENDBRANCH   6   7
ENDBRANCH   5   6
ENDBRANCH   4   5
ENDBRANCH   3   4
ENDBRANCH   2   3
ENDBRANCH   1   2
BRANCH   1  17
ATOM     17  C   UNL     1      34.593   4.894  41.269  1.00  0.00     0.000 C 
BRANCH  17  18
ATOM     18  C   UNL     1      35.021   4.649  39.812  1.00  0.00     0.000 C 
BRANCH  18  19
ATOM     19  C   UNL     1      36.505   4.971  39.568  1.00  0.00     0.000 C 
BRANCH  19  20
ATOM     20  C   UNL     1      36.715   5.884  38.349  1.00  0.00     0.000 C 
BRANCH  20  21
ATOM     21  C   UNL     1      35.518   6.824  38.143  1.00  0.00     0.000 C 
BRANCH  21  22
ATOM     22  C   UNL     1      35.678   8.154  38.908  1.00  0.00    -0.000 C 
BRANCH  22  23
ATOM     23  C   UNL     1      34.348   8.823  39.291  1.00  0.00    -0.000 C 
BRANCH  23  24
ATOM     24  C   UNL     1      34.153   8.953  40.812  1.00  0.00    -0.000 C 
BRANCH  24  25
ATOM     25  C   UNL     1      35.374   8.455  41.603  1.00  0.00    -0.000 C 
BRANCH  25  26
ATOM     26  C   UNL     1      35.250   8.749  43.108  1.00  0.00    -0.000 C 
BRANCH  26  27
ATOM     27  C   UNL     1      33.794   8.723  43.605  1.00  0.00    -0.000 C 
BRANCH  27  28
ATOM     28  C   UNL     1      33.411   7.486  44.439  1.00  0.00    -0.000 C 
BRANCH  28  29
ATOM     29  C   UNL     1      32.815   7.798  45.824  1.00  0.00    -0.003 C 
ATOM     30  C   UNL     1      31.470   8.520  45.743  1.00  0.00     0.004 C 
ENDBRANCH  28  29
ENDBRANCH  27  28
ENDBRANCH  26  27
ENDBRANCH  25  26
ENDBRANCH  24  25
ENDBRANCH  23  24
ENDBRANCH  22  23
ENDBRANCH  21  22
ENDBRANCH  20  21
ENDBRANCH  19  20
ENDBRANCH  18  19
ENDBRANCH  17  18
ENDBRANCH   1  17
TORSDOF 26
ENDMDL
MODEL 4
REMARK VINA RESULT:    -3.560     12.431     17.046
REMARK INTER + INTRA:         -14.429
REMARK INTER:                 -10.270
REMARK INTRA:                  -4.159
REMARK UNBOUND:                -5.459
REMARK SMILES CCCCCCCCCCCCCCCCCCCCCCCCCCCC(=O)[O-]
REMARK SMILES IDX 15 1 16 2 17 3 18 4 19 5 20 6 21 7 22 8 23 9 24 10 25 11
REMARK SMILES IDX 26 12 27 13 28 14 29 15 30 16 14 17 13 18 12 19 11 20 10 21
REMARK SMILES IDX 9 22 8 23 7 24 6 25 5 26 4 27 3 28 2 29 1 30
REMARK H PARENT
REMARK Flexibility Score: inf
ROOT
ATOM      1  C   UNL     1      32.277   6.077  42.793  1.00  0.00     0.000 C 
ENDROOT
BRANCH   1   2
ATOM      2  C   UNL     1      31.420   7.356  42.720  1.00  0.00     0.000 C 
BRANCH   2   3
ATOM      3  C   UNL     1      32.274   8.626  42.562  1.00  0.00     0.000 C 
BRANCH   3   4
ATOM      4  C   UNL     1      33.780   8.300  42.562  1.00  0.00     0.000 C 
BRANCH   4   5
ATOM      5  C   UNL     1      34.547   8.971  43.716  1.00  0.00     0.000 C 
BRANCH   5   6
ATOM      6  C   UNL     1      33.679   9.348  44.938  1.00  0.00     0.000 C 
BRANCH   6   7
ATOM      7  C   UNL     1      33.802   8.376  46.129  1.00  0.00     0.000 C 
BRANCH   7   8
ATOM      8  C   UNL     1      32.625   7.398  46.321  1.00  0.00     0.000 C 
BRANCH   8   9
ATOM      9  C   UNL     1      31.232   8.044  46.210  1.00  0.00     0.000 C 
BRANCH   9  10
ATOM     10  C   UNL     1      30.168   7.314  47.052  1.00  0.00     0.000 C 
BRANCH  10  11
ATOM     11  C   UNL     1      30.520   5.837  47.285  1.00  0.00     0.000 C 
BRANCH  11  12
ATOM     12  C   UNL     1      30.463   5.463  48.780  1.00  0.00     0.006 C 
BRANCH  12  13
ATOM     13  C   UNL     1      31.853   5.421  49.432  1.00  0.00     0.053 C 
BRANCH  13  14
ATOM     14  C   UNL     1      32.239   4.056  49.919  1.00  0.00     0.041 C 
ATOM     15  O   UNL     1      32.632   3.882  51.105  1.00  0.00    -0.550 OA
ATOM     16  O   UNL     1      32.094   2.959  49.074  1.00  0.00    -0.550 OA
ENDBRANCH  13  14
ENDBRANCH  12  13
ENDBRANCH  11  12
ENDBRANCH  10  11
ENDBRANCH   9  10
ENDBRANCH   8   9
ENDBRANCH   7   8
ENDBRANCH   6   7
ENDBRANCH   5   6
ENDBRANCH   4   5
ENDBRANCH   3   4
ENDBRANCH   2   3
ENDBRANCH   1   2
BRANCH   1  17
ATOM     17  C   UNL     1      31.808   4.996  41.804  1.00  0.00     0.000 C 
BRANCH  17  18
ATOM     18  C   UNL     1      32.061   5.378  40.337  1.00  0.00     0.000 C 
BRANCH  18  19
ATOM     19  C   UNL     1      30.841   5.120  39.438  1.00  0.00     0.000 C 
BRANCH  19  20
ATOM     20  C   UNL     1      30.674   6.195  38.351  1.00  0.00     0.000 C 
BRANCH  20  21
ATOM     21  C   UNL     1      30.951   7.599  38.908  1.00  0.00     0.000 C 
BRANCH  21  22
ATOM     22  C   UNL     1      30.118   8.687  38.198  1.00  0.00    -0.000 C 
BRANCH  22  23
ATOM     23  C   UNL     1      29.125   9.417  39.118  1.00  0.00    -0.000 C 
BRANCH  23  24
ATOM     24  C   UNL     1      29.102   8.855  40.550  1.00  0.00    -0.000 C 
BRANCH  24  25
ATOM     25  C   UNL     1      27.676   8.759  41.119  1.00  0.00    -0.000 C 
BRANCH  25  26
ATOM     26  C   UNL     1      27.664   8.270  42.578  1.00  0.00    -0.000 C 
BRANCH  26  27
ATOM     27  C   UNL     1      27.409   6.758  42.699  1.00  0.00    -0.000 C 
BRANCH  27  28
ATOM     28  C   UNL     1      28.165   5.884  41.680  1.00  0.00    -0.000 C 
BRANCH  28  29
ATOM     29  C   UNL     1      27.859   4.378  41.766  1.00  0.00    -0.003 C 
ATOM     30  C   UNL     1      27.211   3.829  40.495  1.00  0.00     0.004 C 
ENDBRANCH  28  29
ENDBRANCH  27  28
ENDBRANCH  26  27
ENDBRANCH  25  26
ENDBRANCH  24  25
ENDBRANCH  23  24
ENDBRANCH  22  23
ENDBRANCH  21  22
ENDBRANCH  20  21
ENDBRANCH  19  20
ENDBRANCH  18  19
ENDBRANCH  17  18
ENDBRANCH   1  17
TORSDOF 26
ENDMDL
MODEL 5
REMARK VINA RESULT:    -3.541     11.461     15.950
REMARK INTER + INTRA:         -14.381
REMARK INTER:                  -9.944
REMARK INTRA:                  -4.437
REMARK UNBOUND:                -5.459
REMARK SMILES CCCCCCCCCCCCCCCCCCCCCCCCCCCC(=O)[O-]
REMARK SMILES IDX 15 1 16 2 17 3 18 4 19 5 20 6 21 7 22 8 23 9 24 10 25 11
REMARK SMILES IDX 26 12 27 13 28 14 29 15 30 16 14 17 13 18 12 19 11 20 10 21
REMARK SMILES IDX 9 22 8 23 7 24 6 25 5 26 4 27 3 28 2 29 1 30
REMARK H PARENT
REMARK Flexibility Score: inf
ROOT
ATOM      1  C   UNL     1      31.661   5.001  39.972  1.00  0.00     0.000 C 
ENDROOT
BRANCH   1   2
ATOM      2  C   UNL     1      30.474   5.271  39.027  1.00  0.00     0.000 C 
BRANCH   2   3
ATOM      3  C   UNL     1      30.680   6.536  38.175  1.00  0.00     0.000 C 
BRANCH   3   4
ATOM      4  C   UNL     1      31.816   7.416  38.730  1.00  0.00     0.000 C 
BRANCH   4   5
ATOM      5  C   UNL     1      31.372   8.855  39.046  1.00  0.00     0.000 C 
BRANCH   5   6
ATOM      6  C   UNL     1      29.850   9.100  38.945  1.00  0.00     0.000 C 
BRANCH   6   7
ATOM      7  C   UNL     1      29.219   9.709  40.215  1.00  0.00     0.000 C 
BRANCH   7   8
ATOM      8  C   UNL     1      29.566   9.004  41.541  1.00  0.00     0.000 C 
BRANCH   8   9
ATOM      9  C   UNL     1      28.888   7.635  41.735  1.00  0.00     0.000 C 
BRANCH   9  10
ATOM     10  C   UNL     1      27.354   7.707  41.608  1.00  0.00     0.000 C 
BRANCH  10  11
ATOM     11  C   UNL     1      26.677   6.372  41.956  1.00  0.00     0.000 C 
BRANCH  11  12
ATOM     12  C   UNL     1      27.566   5.167  41.591  1.00  0.00     0.006 C 
BRANCH  12  13
ATOM     13  C   UNL     1      27.230   3.913  42.412  1.00  0.00     0.053 C 
BRANCH  13  14
ATOM     14  C   UNL     1      27.687   3.997  43.838  1.00  0.00     0.041 C 
ATOM     15  O   UNL     1      26.995   3.499  44.768  1.00  0.00    -0.550 OA
ATOM     16  O   UNL     1      28.923   4.568  44.130  1.00  0.00    -0.550 OA
ENDBRANCH  13  14
ENDBRANCH  12  13
ENDBRANCH  11  12
ENDBRANCH  10  11
ENDBRANCH   9  10
ENDBRANCH   8   9
ENDBRANCH   7   8
ENDBRANCH   6   7
ENDBRANCH   5   6
ENDBRANCH   4   5
ENDBRANCH   3   4
ENDBRANCH   2   3
ENDBRANCH   1   2
BRANCH   1  17
ATOM     17  C   UNL     1      31.249   5.015  41.454  1.00  0.00     0.000 C 
BRANCH  17  18
ATOM     18  C   UNL     1      32.377   5.492  42.383  1.00  0.00     0.000 C 
BRANCH  18  19
ATOM     19  C   UNL     1      33.657   5.866  41.618  1.00  0.00     0.000 C 
BRANCH  19  20
ATOM     20  C   UNL     1      34.079   7.325  41.854  1.00  0.00     0.000 C 
BRANCH  20  21
ATOM     21  C   UNL     1      32.961   8.125  42.539  1.00  0.00     0.000 C 
BRANCH  21  22
ATOM     22  C   UNL     1      33.463   8.891  43.781  1.00  0.00    -0.000 C 
BRANCH  22  23
ATOM     23  C   UNL     1      33.982   7.985  44.910  1.00  0.00    -0.000 C 
BRANCH  23  24
ATOM     24  C   UNL     1      33.460   8.392  46.299  1.00  0.00    -0.000 C 
BRANCH  24  25
ATOM     25  C   UNL     1      32.662   7.264  46.977  1.00  0.00    -0.000 C 
BRANCH  25  26
ATOM     26  C   UNL     1      31.931   6.375  45.956  1.00  0.00    -0.000 C 
BRANCH  26  27
ATOM     27  C   UNL     1      31.500   5.020  46.543  1.00  0.00    -0.000 C 
BRANCH  27  28
ATOM     28  C   UNL     1      31.324   4.998  48.074  1.00  0.00    -0.000 C 
BRANCH  28  29
ATOM     29  C   UNL     1      32.045   3.844  48.792  1.00  0.00    -0.003 C 
ATOM     30  C   UNL     1      31.520   3.601  50.207  1.00  0.00     0.004 C 
ENDBRANCH  28  29
ENDBRANCH  27  28
ENDBRANCH  26  27
ENDBRANCH  25  26
ENDBRANCH  24  25
ENDBRANCH  23  24
ENDBRANCH  22  23
ENDBRANCH  21  22
ENDBRANCH  20  21
ENDBRANCH  19  20
ENDBRANCH  18  19
ENDBRANCH  17  18
ENDBRANCH   1  17
TORSDOF 26
ENDMDL
MODEL 6
REMARK VINA RESULT:    -3.522     13.630     18.271
REMARK INTER + INTRA:         -14.335
REMARK INTER:                  -8.818
REMARK INTRA:                  -5.517
REMARK UNBOUND:                -5.459
REMARK SMILES CCCCCCCCCCCCCCCCCCCCCCCCCCCC(=O)[O-]
REMARK SMILES IDX 15 1 16 2 17 3 18 4 19 5 20 6 21 7 22 8 23 9 24 10 25 11
REMARK SMILES IDX 26 12 27 13 28 14 29 15 30 16 14 17 13 18 12 19 11 20 10 21
REMARK SMILES IDX 9 22 8 23 7 24 6 25 5 26 4 27 3 28 2 29 1 30
REMARK H PARENT
REMARK Flexibility Score: inf
ROOT
ATOM      1  C   UNL     1      33.262   5.356  41.429  1.00  0.00     0.000 C 
ENDROOT
BRANCH   1   2
ATOM      2  C   UNL     1      32.587   5.725  40.094  1.00  0.00     0.000 C 
BRANCH   2   3
ATOM      3  C   UNL     1      31.312   4.903  39.834  1.00  0.00     0.000 C 
BRANCH   3   4
ATOM      4  C   UNL     1      30.385   5.598  38.818  1.00  0.00     0.000 C 
BRANCH   4   5
ATOM      5  C   UNL     1      31.077   6.730  38.038  1.00  0.00     0.000 C 
BRANCH   5   6
ATOM      6  C   UNL     1      30.373   8.102  38.126  1.00  0.00     0.000 C 
BRANCH   6   7
ATOM      7  C   UNL     1      31.065   9.112  39.065  1.00  0.00     0.000 C 
BRANCH   7   8
ATOM      8  C   UNL     1      30.271   9.509  40.326  1.00  0.00     0.000 C 
BRANCH   8   9
ATOM      9  C   UNL     1      30.868   8.991  41.648  1.00  0.00     0.000 C 
BRANCH   9  10
ATOM     10  C   UNL     1      30.217   7.678  42.123  1.00  0.00     0.000 C 
BRANCH  10  11
ATOM     11  C   UNL     1      30.712   7.251  43.513  1.00  0.00     0.000 C 
BRANCH  11  12
ATOM     12  C   UNL     1      30.522   5.739  43.749  1.00  0.00     0.006 C 
BRANCH  12  13
ATOM     13  C   UNL     1      29.826   5.432  45.083  1.00  0.00     0.053 C 
BRANCH  13  14
ATOM     14  C   UNL     1      30.692   5.698  46.279  1.00  0.00     0.041 C 
ATOM     15  O   UNL     1      31.683   4.960  46.534  1.00  0.00    -0.550 OA
ATOM     16  O   UNL     1      30.440   6.811  47.076  1.00  0.00    -0.550 OA
ENDBRANCH  13  14
ENDBRANCH  12  13
ENDBRANCH  11  12
ENDBRANCH  10  11
ENDBRANCH   9  10
ENDBRANCH   8   9
ENDBRANCH   7   8
ENDBRANCH   6   7
ENDBRANCH   5   6
ENDBRANCH   4   5
ENDBRANCH   3   4
ENDBRANCH   2   3
ENDBRANCH   1   2
BRANCH   1  17
ATOM     17  C   UNL     1      34.732   4.942  41.252  1.00  0.00     0.000 C 
BRANCH  17  18
ATOM     18  C   UNL     1      35.093   4.632  39.790  1.00  0.00     0.000 C 
BRANCH  18  19
ATOM     19  C   UNL     1      36.580   4.877  39.482  1.00  0.00     0.000 C 
BRANCH  19  20
ATOM     20  C   UNL     1      36.785   5.829  38.292  1.00  0.00     0.000 C 
BRANCH  20  21
ATOM     21  C   UNL     1      35.621   6.824  38.167  1.00  0.00     0.000 C 
BRANCH  21  22
ATOM     22  C   UNL     1      35.874   8.125  38.957  1.00  0.00    -0.000 C 
BRANCH  22  23
ATOM     23  C   UNL     1      34.594   8.815  39.457  1.00  0.00    -0.000 C 
BRANCH  23  24
ATOM     24  C   UNL     1      34.474   8.828  40.991  1.00  0.00    -0.000 C 
BRANCH  24  25
ATOM     25  C   UNL     1      35.800   8.469  41.684  1.00  0.00    -0.000 C 
BRANCH  25  26
ATOM     26  C   UNL     1      35.826   8.917  43.156  1.00  0.00    -0.000 C 
BRANCH  26  27
ATOM     27  C   UNL     1      34.426   8.950  43.795  1.00  0.00    -0.000 C 
BRANCH  27  28
ATOM     28  C   UNL     1      34.159   7.849  44.839  1.00  0.00    -0.000 C 
BRANCH  28  29
ATOM     29  C   UNL     1      33.542   8.344  46.159  1.00  0.00    -0.003 C 
ATOM     30  C   UNL     1      32.638   9.563  45.974  1.00  0.00     0.004 C 
ENDBRANCH  28  29
ENDBRANCH  27  28
ENDBRANCH  26  27
ENDBRANCH  25  26
ENDBRANCH  24  25
ENDBRANCH  23  24
ENDBRANCH  22  23
ENDBRANCH  21  22
ENDBRANCH  20  21
ENDBRANCH  19  20
ENDBRANCH  18  19
ENDBRANCH  17  18
ENDBRANCH   1  17
TORSDOF 26
ENDMDL
MODEL 7
REMARK VINA RESULT:    -3.490     10.988     14.594
REMARK INTER + INTRA:         -14.253
REMARK INTER:                 -10.923
REMARK INTRA:                  -3.331
REMARK UNBOUND:                -5.459
REMARK SMILES CCCCCCCCCCCCCCCCCCCCCCCCCCCC(=O)[O-]
REMARK SMILES IDX 15 1 16 2 17 3 18 4 19 5 20 6 21 7 22 8 23 9 24 10 25 11
REMARK SMILES IDX 26 12 27 13 28 14 29 15 30 16 14 17 13 18 12 19 11 20 10 21
REMARK SMILES IDX 9 22 8 23 7 24 6 25 5 26 4 27 3 28 2 29 1 30
REMARK H PARENT
REMARK Flexibility Score: inf
ROOT
ATOM      1  C   UNL     1      30.351   6.413  38.995  1.00  0.00     0.000 C 
ENDROOT
BRANCH   1   2
ATOM      2  C   UNL     1      30.711   7.658  39.829  1.00  0.00     0.000 C 
BRANCH   2   3
ATOM      3  C   UNL     1      29.464   8.397  40.347  1.00  0.00     0.000 C 
BRANCH   3   4
ATOM      4  C   UNL     1      29.180   8.064  41.824  1.00  0.00     0.000 C 
BRANCH   4   5
ATOM      5  C   UNL     1      28.230   6.867  42.007  1.00  0.00     0.000 C 
BRANCH   5   6
ATOM      6  C   UNL     1      28.874   5.621  42.654  1.00  0.00     0.000 C 
BRANCH   6   7
ATOM      7  C   UNL     1      28.325   4.278  42.131  1.00  0.00     0.000 C 
BRANCH   7   8
ATOM      8  C   UNL     1      27.650   4.323  40.746  1.00  0.00     0.000 C 
BRANCH   8   9
ATOM      9  C   UNL     1      26.142   4.014  40.758  1.00  0.00     0.000 C 
BRANCH   9  10
ATOM     10  C   UNL     1      25.735   2.985  39.686  1.00  0.00     0.000 C 
BRANCH  10  11
ATOM     11  C   UNL     1      24.358   3.291  39.077  1.00  0.00     0.000 C 
BRANCH  11  12
ATOM     12  C   UNL     1      23.391   2.098  39.218  1.00  0.00     0.006 C 
BRANCH  12  13
ATOM     13  C   UNL     1      23.170   1.686  40.680  1.00  0.00     0.053 C 
BRANCH  13  14
ATOM     14  C   UNL     1      22.495   2.745  41.500  1.00  0.00     0.041 C 
ATOM     15  O   UNL     1      21.311   3.099  41.246  1.00  0.00    -0.550 OA
ATOM     16  O   UNL     1      23.157   3.291  42.596  1.00  0.00    -0.550 OA
ENDBRANCH  13  14
ENDBRANCH  12  13
ENDBRANCH  11  12
ENDBRANCH  10  11
ENDBRANCH   9  10
ENDBRANCH   8   9
ENDBRANCH   7   8
ENDBRANCH   6   7
ENDBRANCH   5   6
ENDBRANCH   4   5
ENDBRANCH   3   4
ENDBRANCH   2   3
ENDBRANCH   1   2
BRANCH   1  17
ATOM     17  C   UNL     1      30.997   5.129  39.543  1.00  0.00     0.000 C 
BRANCH  17  18
ATOM     18  C   UNL     1      32.381   5.376  40.167  1.00  0.00     0.000 C 
BRANCH  18  19
ATOM     19  C   UNL     1      32.422   5.043  41.668  1.00  0.00     0.000 C 
BRANCH  19  20
ATOM     20  C   UNL     1      33.328   6.002  42.458  1.00  0.00     0.000 C 
BRANCH  20  21
ATOM     21  C   UNL     1      32.768   6.267  43.863  1.00  0.00     0.000 C 
BRANCH  21  22
ATOM     22  C   UNL     1      31.984   7.593  43.941  1.00  0.00    -0.000 C 
BRANCH  22  23
ATOM     23  C   UNL     1      31.216   7.792  45.258  1.00  0.00    -0.000 C 
BRANCH  23  24
ATOM     24  C   UNL     1      31.884   7.098  46.458  1.00  0.00    -0.000 C 
BRANCH  24  25
ATOM     25  C   UNL     1      31.175   5.790  46.847  1.00  0.00    -0.000 C 
BRANCH  25  26
ATOM     26  C   UNL     1      29.864   6.046  47.612  1.00  0.00    -0.000 C 
BRANCH  26  27
ATOM     27  C   UNL     1      29.961   5.684  49.104  1.00  0.00    -0.000 C 
BRANCH  27  28
ATOM     28  C   UNL     1      31.348   5.199  49.569  1.00  0.00    -0.000 C 
BRANCH  28  29
ATOM     29  C   UNL     1      31.429   3.700  49.909  1.00  0.00    -0.003 C 
ATOM     30  C   UNL     1      32.539   2.976  49.148  1.00  0.00     0.004 C 
ENDBRANCH  28  29
ENDBRANCH  27  28
ENDBRANCH  26  27
ENDBRANCH  25  26
ENDBRANCH  24  25
ENDBRANCH  23  24
ENDBRANCH  22  23
ENDBRANCH  21  22
ENDBRANCH  20  21
ENDBRANCH  19  20
ENDBRANCH  18  19
ENDBRANCH  17  18
ENDBRANCH   1  17
TORSDOF 26
ENDMDL
MODEL 8
REMARK VINA RESULT:    -3.466     13.033     17.594
REMARK INTER + INTRA:         -14.193
REMARK INTER:                  -9.328
REMARK INTRA:                  -4.865
REMARK UNBOUND:                -5.459
REMARK SMILES CCCCCCCCCCCCCCCCCCCCCCCCCCCC(=O)[O-]
REMARK SMILES IDX 15 1 16 2 17 3 18 4 19 5 20 6 21 7 22 8 23 9 24 10 25 11
REMARK SMILES IDX 26 12 27 13 28 14 29 15 30 16 14 17 13 18 12 19 11 20 10 21
REMARK SMILES IDX 9 22 8 23 7 24 6 25 5 26 4 27 3 28 2 29 1 30
REMARK H PARENT
REMARK Flexibility Score: inf
ROOT
ATOM      1  C   UNL     1      32.174   5.403  40.572  1.00  0.00     0.000 C 
ENDROOT
BRANCH   1   2
ATOM      2  C   UNL     1      30.903   5.024  39.787  1.00  0.00     0.000 C 
BRANCH   2   3
ATOM      3  C   UNL     1      30.737   5.858  38.504  1.00  0.00     0.000 C 
BRANCH   3   4
ATOM      4  C   UNL     1      31.302   7.281  38.675  1.00  0.00     0.000 C 
BRANCH   4   5
ATOM      5  C   UNL     1      30.224   8.327  39.013  1.00  0.00     0.000 C 
BRANCH   5   6
ATOM      6  C   UNL     1      30.172   8.745  40.500  1.00  0.00     0.000 C 
BRANCH   6   7
ATOM      7  C   UNL     1      29.054   8.060  41.313  1.00  0.00     0.000 C 
BRANCH   7   8
ATOM      8  C   UNL     1      29.523   7.169  42.481  1.00  0.00     0.000 C 
BRANCH   8   9
ATOM      9  C   UNL     1      28.697   5.885  42.678  1.00  0.00     0.000 C 
BRANCH   9  10
ATOM     10  C   UNL     1      27.473   5.814  41.745  1.00  0.00     0.000 C 
BRANCH  10  11
ATOM     11  C   UNL     1      27.475   4.547  40.876  1.00  0.00     0.000 C 
BRANCH  11  12
ATOM     12  C   UNL     1      26.190   3.717  41.072  1.00  0.00     0.006 C 
BRANCH  12  13
ATOM     13  C   UNL     1      25.628   3.177  39.749  1.00  0.00     0.053 C 
BRANCH  13  14
ATOM     14  C   UNL     1      24.331   2.441  39.911  1.00  0.00     0.041 C 
ATOM     15  O   UNL     1      24.163   1.306  39.386  1.00  0.00    -0.550 OA
ATOM     16  O   UNL     1      23.328   2.985  40.709  1.00  0.00    -0.550 OA
ENDBRANCH  13  14
ENDBRANCH  12  13
ENDBRANCH  11  12
ENDBRANCH  10  11
ENDBRANCH   9  10
ENDBRANCH   8   9
ENDBRANCH   7   8
ENDBRANCH   6   7
ENDBRANCH   5   6
ENDBRANCH   4   5
ENDBRANCH   3   4
ENDBRANCH   2   3
ENDBRANCH   1   2
BRANCH   1  17
ATOM     17  C   UNL     1      33.410   4.612  40.112  1.00  0.00     0.000 C 
BRANCH  17  18
ATOM     18  C   UNL     1      34.616   4.790  41.048  1.00  0.00     0.000 C 
BRANCH  18  19
ATOM     19  C   UNL     1      35.919   4.233  40.450  1.00  0.00     0.000 C 
BRANCH  19  20
ATOM     20  C   UNL     1      36.109   4.637  38.978  1.00  0.00     0.000 C 
BRANCH  20  21
ATOM     21  C   UNL     1      36.522   6.111  38.853  1.00  0.00     0.000 C 
BRANCH  21  22
ATOM     22  C   UNL     1      35.386   6.994  38.297  1.00  0.00    -0.000 C 
BRANCH  22  23
ATOM     23  C   UNL     1      34.982   8.154  39.221  1.00  0.00    -0.000 C 
BRANCH  23  24
ATOM     24  C   UNL     1      35.971   8.376  40.379  1.00  0.00    -0.000 C 
BRANCH  24  25
ATOM     25  C   UNL     1      35.287   8.299  41.755  1.00  0.00    -0.000 C 
BRANCH  25  26
ATOM     26  C   UNL     1      33.753   8.288  41.641  1.00  0.00    -0.000 C 
BRANCH  26  27
ATOM     27  C   UNL     1      33.057   8.895  42.872  1.00  0.00    -0.000 C 
BRANCH  27  28
ATOM     28  C   UNL     1      33.073   8.010  44.133  1.00  0.00    -0.000 C 
BRANCH  28  29
ATOM     29  C   UNL     1      32.966   6.498  43.865  1.00  0.00    -0.003 C 
ATOM     30  C   UNL     1      32.183   5.755  44.947  1.00  0.00     0.004 C 
ENDBRANCH  28  29
ENDBRANCH  27  28
ENDBRANCH  26  27
ENDBRANCH  25  26
ENDBRANCH  24  25
ENDBRANCH  23  24
ENDBRANCH  22  23
ENDBRANCH  21  22
ENDBRANCH  20  21
ENDBRANCH  19  20
ENDBRANCH  18  19
ENDBRANCH  17  18
ENDBRANCH   1  17
TORSDOF 26
ENDMDL
MODEL 9
REMARK VINA RESULT:    -3.377     12.897     15.732
REMARK INTER + INTRA:         -13.969
REMARK INTER:                  -8.582
REMARK INTRA:                  -5.387
REMARK UNBOUND:                -5.459
REMARK SMILES CCCCCCCCCCCCCCCCCCCCCCCCCCCC(=O)[O-]
REMARK SMILES IDX 15 1 16 2 17 3 18 4 19 5 20 6 21 7 22 8 23 9 24 10 25 11
REMARK SMILES IDX 26 12 27 13 28 14 29 15 30 16 14 17 13 18 12 19 11 20 10 21
REMARK SMILES IDX 9 22 8 23 7 24 6 25 5 26 4 27 3 28 2 29 1 30
REMARK H PARENT
REMARK Flexibility Score: inf
ROOT
ATOM      1  C   UNL     1      33.347   5.448  41.248  1.00  0.00     0.000 C 
ENDROOT
BRANCH   1   2
ATOM      2  C   UNL     1      32.646   5.427  39.876  1.00  0.00     0.000 C 
BRANCH   2   3
ATOM      3  C   UNL     1      31.168   5.010  39.979  1.00  0.00     0.000 C 
BRANCH   3   4
ATOM      4  C   UNL     1      30.233   6.089  39.400  1.00  0.00     0.000 C 
BRANCH   4   5
ATOM      5  C   UNL     1      30.684   7.524  39.725  1.00  0.00     0.000 C 
BRANCH   5   6
ATOM      6  C   UNL     1      30.144   8.085  41.060  1.00  0.00     0.000 C 
BRANCH   6   7
ATOM      7  C   UNL     1      28.848   7.410  41.555  1.00  0.00     0.000 C 
BRANCH   7   8
ATOM      8  C   UNL     1      28.951   6.665  42.901  1.00  0.00     0.000 C 
BRANCH   8   9
ATOM      9  C   UNL     1      28.683   5.151  42.816  1.00  0.00     0.000 C 
BRANCH   9  10
ATOM     10  C   UNL     1      27.697   4.782  41.691  1.00  0.00     0.000 C 
BRANCH  10  11
ATOM     11  C   UNL     1      26.250   4.674  42.196  1.00  0.00     0.000 C 
BRANCH  11  12
ATOM     12  C   UNL     1      25.230   4.989  41.084  1.00  0.00     0.006 C 
BRANCH  12  13
ATOM     13  C   UNL     1      24.217   6.067  41.498  1.00  0.00     0.053 C 
BRANCH  13  14
ATOM     14  C   UNL     1      24.850   7.246  42.177  1.00  0.00     0.041 C 
ATOM     15  O   UNL     1      25.529   8.081  41.519  1.00  0.00    -0.550 OA
ATOM     16  O   UNL     1      24.626   7.459  43.535  1.00  0.00    -0.550 OA
ENDBRANCH  13  14
ENDBRANCH  12  13
ENDBRANCH  11  12
ENDBRANCH  10  11
ENDBRANCH   9  10
ENDBRANCH   8   9
ENDBRANCH   7   8
ENDBRANCH   6   7
ENDBRANCH   5   6
ENDBRANCH   4   5
ENDBRANCH   3   4
ENDBRANCH   2   3
ENDBRANCH   1   2
BRANCH   1  17
ATOM     17  C   UNL     1      32.355   5.345  42.418  1.00  0.00     0.000 C 
BRANCH  17  18
ATOM     18  C   UNL     1      32.641   6.362  43.535  1.00  0.00     0.000 C 
BRANCH  18  19
ATOM     19  C   UNL     1      33.335   7.633  43.017  1.00  0.00     0.000 C 
BRANCH  19  20
ATOM     20  C   UNL     1      34.098   8.379  44.124  1.00  0.00     0.000 C 
BRANCH  20  21
ATOM     21  C   UNL     1      34.011   7.632  45.463  1.00  0.00     0.000 C 
BRANCH  21  22
ATOM     22  C   UNL     1      33.353   8.483  46.568  1.00  0.00    -0.000 C 
BRANCH  22  23
ATOM     23  C   UNL     1      32.947   9.896  46.115  1.00  0.00    -0.000 C 
BRANCH  23  24
ATOM     24  C   UNL     1      31.423  10.109  46.096  1.00  0.00    -0.000 C 
BRANCH  24  25
ATOM     25  C   UNL     1      30.687   9.003  45.320  1.00  0.00    -0.000 C 
BRANCH  25  26
ATOM     26  C   UNL     1      29.492   8.439  46.108  1.00  0.00    -0.000 C 
BRANCH  26  27
ATOM     27  C   UNL     1      29.910   7.408  47.171  1.00  0.00    -0.000 C 
BRANCH  27  28
ATOM     28  C   UNL     1      30.160   5.984  46.638  1.00  0.00    -0.000 C 
BRANCH  28  29
ATOM     29  C   UNL     1      31.454   5.322  47.143  1.00  0.00    -0.003 C 
ATOM     30  C   UNL     1      31.769   5.664  48.599  1.00  0.00     0.004 C 
ENDBRANCH  28  29
ENDBRANCH  27  28
ENDBRANCH  26  27
ENDBRANCH  25  26
ENDBRANCH  24  25
ENDBRANCH  23  24
ENDBRANCH  22  23
ENDBRANCH  21  22
ENDBRANCH  20  21
ENDBRANCH  19  20
ENDBRANCH  18  19
ENDBRANCH  17  18
ENDBRANCH   1  17
TORSDOF 26
ENDMDL
