MODEL 1
REMARK VINA RESULT:    -5.328      0.000      0.000
REMARK INTER + INTRA:          -8.937
REMARK INTER:                  -7.509
REMARK INTRA:                  -1.429
REMARK UNBOUND:                -1.429
REMARK SMILES COc1c(O[C@H]2O[C@@H](C(=O)[O-])[C@@H](O)[C@H](O)[C@@H]2O)cc(O)c2c(=O)cc(-c3ccccc3)oc12
REMARK SMILES IDX 5 1 6 2 8 3 12 4 7 5 14 6 16 7 9 8 10 9 11 10 13 11 15 13
REMARK SMILES IDX 17 15 4 17 3 18 18 19 33 20 19 21 21 22 32 23 22 24 25 25
REMARK SMILES IDX 24 26 23 27 2 28 1 29 20 30 26 32 27 33 31 34 28 35 30 36
REMARK SMILES IDX 29 37
REMARK H PARENT 13 12 15 14 17 16 20 31
REMARK Flexibility Score: inf
ROOT
ATOM      1  O   UNL     1      58.213  -1.055 -48.557  1.00  0.00    -0.458 OA
ENDROOT
BRANCH   1   2
ATOM      2  C   UNL     1      59.603  -1.378 -48.482  1.00  0.00     0.339 C 
ATOM      3  C   UNL     1      59.366  -3.205 -46.965  1.00  0.00     0.199 C 
ATOM      4  C   UNL     1      59.741  -4.233 -48.061  1.00  0.00     0.180 C 
ATOM      5  O   UNL     1      59.951  -1.930 -47.213  1.00  0.00    -0.328 OA
ATOM      6  C   UNL     1      59.378  -3.695 -49.454  1.00  0.00     0.181 C 
ATOM      7  C   UNL     1      59.995  -2.302 -49.646  1.00  0.00     0.214 C 
BRANCH   3   8
ATOM      8  C   UNL     1      57.888  -3.092 -46.653  1.00  0.00     0.073 C 
ATOM      9  O   UNL     1      57.503  -2.315 -45.736  1.00  0.00    -0.547 OA
ATOM     10  O   UNL     1      56.943  -3.835 -47.349  1.00  0.00    -0.547 OA
ENDBRANCH   3   8
BRANCH   4  11
ATOM     11  O   UNL     1      59.100  -5.464 -47.820  1.00  0.00    -0.387 OA
ATOM     12  H   UNL     1      59.003  -5.555 -46.835  1.00  0.00     0.211 HD
ENDBRANCH   4  11
BRANCH   6  13
ATOM     13  O   UNL     1      59.849  -4.561 -50.456  1.00  0.00    -0.387 OA
ATOM     14  H   UNL     1      59.871  -5.474 -50.066  1.00  0.00     0.211 HD
ENDBRANCH   6  13
BRANCH   7  15
ATOM     15  O   UNL     1      61.397  -2.381 -49.719  1.00  0.00    -0.384 OA
ATOM     16  H   UNL     1      61.626  -3.336 -49.863  1.00  0.00     0.211 HD
ENDBRANCH   7  15
ENDBRANCH   1   2
BRANCH   1  17
ATOM     17  C   UNL     1      57.646   0.205 -48.833  1.00  0.00     0.172 A 
ATOM     18  C   UNL     1      57.429   1.212 -47.859  1.00  0.00     0.205 A 
ATOM     19  C   UNL     1      57.304   0.450 -50.165  1.00  0.00     0.097 A 
ATOM     20  C   UNL     1      56.873   2.452 -48.257  1.00  0.00     0.188 A 
ATOM     21  C   UNL     1      56.790   1.683 -50.572  1.00  0.00     0.134 A 
ATOM     22  C   UNL     1      56.574   2.701 -49.622  1.00  0.00     0.111 A 
ATOM     23  O   UNL     1      56.610   3.383 -47.345  1.00  0.00    -0.452 OA
ATOM     24  C   UNL     1      56.050   3.966 -49.964  1.00  0.00     0.197 A 
ATOM     25  C   UNL     1      56.108   4.580 -47.633  1.00  0.00     0.138 A 
ATOM     26  C   UNL     1      55.825   4.910 -48.965  1.00  0.00     0.100 A 
ATOM     27  O   UNL     1      55.775   4.263 -51.157  1.00  0.00    -0.289 OA
BRANCH  18  28
ATOM     28  O   UNL     1      57.751   0.948 -46.516  1.00  0.00    -0.490 OA
ATOM     29  C   UNL     1      58.992   1.262 -45.888  1.00  0.00     0.278 C 
ENDBRANCH  18  28
BRANCH  21  30
ATOM     30  O   UNL     1      56.493   1.885 -51.922  1.00  0.00    -0.507 OA
ATOM     31  H   UNL     1      56.744   2.741 -52.402  1.00  0.00     0.293 HD
ENDBRANCH  21  30
BRANCH  25  32
ATOM     32  C   UNL     1      55.843   5.531 -46.527  1.00  0.00     0.017 A 
ATOM     33  C   UNL     1      55.836   6.912 -46.784  1.00  0.00     0.012 A 
ATOM     34  C   UNL     1      55.590   5.082 -45.217  1.00  0.00     0.012 A 
ATOM     35  C   UNL     1      55.603   7.826 -45.751  1.00  0.00     0.001 A 
ATOM     36  C   UNL     1      55.352   5.998 -44.187  1.00  0.00     0.001 A 
ATOM     37  C   UNL     1      55.369   7.369 -44.452  1.00  0.00     0.000 A 
ENDBRANCH  25  32
ENDBRANCH   1  17
TORSDOF 9
ENDMDL
MODEL 2
REMARK VINA RESULT:    -5.298      4.879      8.242
REMARK INTER + INTRA:          -8.894
REMARK INTER:                  -7.726
REMARK INTRA:                  -1.168
REMARK UNBOUND:                -1.429
REMARK SMILES COc1c(O[C@H]2O[C@@H](C(=O)[O-])[C@@H](O)[C@H](O)[C@@H]2O)cc(O)c2c(=O)cc(-c3ccccc3)oc12
REMARK SMILES IDX 5 1 6 2 8 3 12 4 7 5 14 6 16 7 9 8 10 9 11 10 13 11 15 13
REMARK SMILES IDX 17 15 4 17 3 18 18 19 33 20 19 21 21 22 32 23 22 24 25 25
REMARK SMILES IDX 24 26 23 27 2 28 1 29 20 30 26 32 27 33 31 34 28 35 30 36
REMARK SMILES IDX 29 37
REMARK H PARENT 13 12 15 14 17 16 20 31
REMARK Flexibility Score: inf
ROOT
ATOM      1  O   UNL     1      57.274  -1.672 -48.912  1.00  0.00    -0.458 OA
ENDROOT
BRANCH   1   2
ATOM      2  C   UNL     1      58.666  -1.409 -49.100  1.00  0.00     0.339 C 
ATOM      3  C   UNL     1      59.317  -1.818 -46.841  1.00  0.00     0.199 C 
ATOM      4  C   UNL     1      60.062  -3.117 -47.233  1.00  0.00     0.180 C 
ATOM      5  O   UNL     1      59.271  -0.887 -47.918  1.00  0.00    -0.328 OA
ATOM      6  C   UNL     1      59.445  -3.733 -48.500  1.00  0.00     0.181 C 
ATOM      7  C   UNL     1      59.379  -2.673 -49.609  1.00  0.00     0.214 C 
BRANCH   3   8
ATOM      8  C   UNL     1      57.953  -2.012 -46.211  1.00  0.00     0.073 C 
ATOM      9  O   UNL     1      57.247  -1.004 -45.930  1.00  0.00    -0.547 OA
ATOM     10  O   UNL     1      57.463  -3.280 -45.923  1.00  0.00    -0.547 OA
ENDBRANCH   3   8
BRANCH   4  11
ATOM     11  O   UNL     1      60.038  -4.040 -46.169  1.00  0.00    -0.387 OA
ATOM     12  H   UNL     1      60.789  -3.803 -45.562  1.00  0.00     0.211 HD
ENDBRANCH   4  11
BRANCH   6  13
ATOM     13  O   UNL     1      60.211  -4.828 -48.940  1.00  0.00    -0.387 OA
ATOM     14  H   UNL     1      60.930  -4.466 -49.519  1.00  0.00     0.211 HD
ENDBRANCH   6  13
BRANCH   7  15
ATOM     15  O   UNL     1      60.669  -2.327 -50.050  1.00  0.00    -0.384 OA
ATOM     16  H   UNL     1      60.574  -1.976 -50.973  1.00  0.00     0.211 HD
ENDBRANCH   7  15
ENDBRANCH   1   2
BRANCH   1  17
ATOM     17  C   UNL     1      56.372  -2.194 -49.861  1.00  0.00     0.172 A 
ATOM     18  C   UNL     1      55.601  -3.367 -49.666  1.00  0.00     0.205 A 
ATOM     19  C   UNL     1      56.243  -1.475 -51.052  1.00  0.00     0.097 A 
ATOM     20  C   UNL     1      54.708  -3.785 -50.682  1.00  0.00     0.188 A 
ATOM     21  C   UNL     1      55.338  -1.860 -52.043  1.00  0.00     0.134 A 
ATOM     22  C   UNL     1      54.555  -3.018 -51.865  1.00  0.00     0.111 A 
ATOM     23  O   UNL     1      54.021  -4.915 -50.537  1.00  0.00    -0.452 OA
ATOM     24  C   UNL     1      53.627  -3.467 -52.830  1.00  0.00     0.197 A 
ATOM     25  C   UNL     1      53.147  -5.370 -51.429  1.00  0.00     0.138 A 
ATOM     26  C   UNL     1      52.916  -4.644 -52.605  1.00  0.00     0.100 A 
ATOM     27  O   UNL     1      53.429  -2.829 -53.898  1.00  0.00    -0.289 OA
BRANCH  18  28
ATOM     28  O   UNL     1      55.756  -4.100 -48.477  1.00  0.00    -0.490 OA
ATOM     29  C   UNL     1      54.777  -4.217 -47.446  1.00  0.00     0.278 C 
ENDBRANCH  18  28
BRANCH  21  30
ATOM     30  O   UNL     1      55.228  -1.088 -53.201  1.00  0.00    -0.507 OA
ATOM     31  H   UNL     1      55.735  -1.319 -54.048  1.00  0.00     0.293 HD
ENDBRANCH  21  30
BRANCH  25  32
ATOM     32  C   UNL     1      52.453  -6.652 -51.162  1.00  0.00     0.017 A 
ATOM     33  C   UNL     1      51.995  -7.432 -52.239  1.00  0.00     0.012 A 
ATOM     34  C   UNL     1      52.243  -7.116 -49.850  1.00  0.00     0.012 A 
ATOM     35  C   UNL     1      51.324  -8.637 -52.009  1.00  0.00     0.001 A 
ATOM     36  C   UNL     1      51.577  -8.324 -49.623  1.00  0.00     0.001 A 
ATOM     37  C   UNL     1      51.108  -9.079 -50.700  1.00  0.00     0.000 A 
ENDBRANCH  25  32
ENDBRANCH   1  17
TORSDOF 9
ENDMDL
MODEL 3
REMARK VINA RESULT:    -5.229      2.447      4.296
REMARK INTER + INTRA:          -8.797
REMARK INTER:                  -7.381
REMARK INTRA:                  -1.415
REMARK UNBOUND:                -1.429
REMARK SMILES COc1c(O[C@H]2O[C@@H](C(=O)[O-])[C@@H](O)[C@H](O)[C@@H]2O)cc(O)c2c(=O)cc(-c3ccccc3)oc12
REMARK SMILES IDX 5 1 6 2 8 3 12 4 7 5 14 6 16 7 9 8 10 9 11 10 13 11 15 13
REMARK SMILES IDX 17 15 4 17 3 18 18 19 33 20 19 21 21 22 32 23 22 24 25 25
REMARK SMILES IDX 24 26 23 27 2 28 1 29 20 30 26 32 27 33 31 34 28 35 30 36
REMARK SMILES IDX 29 37
REMARK H PARENT 13 12 15 14 17 16 20 31
REMARK Flexibility Score: inf
ROOT
ATOM      1  O   UNL     1      57.598   0.893 -48.428  1.00  0.00    -0.458 OA
ENDROOT
BRANCH   1   2
ATOM      2  C   UNL     1      58.004  -0.205 -47.609  1.00  0.00     0.339 C 
ATOM      3  C   UNL     1      56.891  -1.897 -48.871  1.00  0.00     0.199 C 
ATOM      4  C   UNL     1      58.234  -2.479 -49.376  1.00  0.00     0.180 C 
ATOM      5  O   UNL     1      57.034  -1.251 -47.609  1.00  0.00    -0.328 OA
ATOM      6  C   UNL     1      59.318  -1.390 -49.407  1.00  0.00     0.181 C 
ATOM      7  C   UNL     1      59.395  -0.700 -48.037  1.00  0.00     0.214 C 
BRANCH   3   8
ATOM      8  C   UNL     1      56.141  -1.030 -49.861  1.00  0.00     0.073 C 
ATOM      9  O   UNL     1      54.993  -0.596 -49.565  1.00  0.00    -0.547 OA
ATOM     10  O   UNL     1      56.686  -0.708 -51.098  1.00  0.00    -0.547 OA
ENDBRANCH   3   8
BRANCH   4  11
ATOM     11  O   UNL     1      58.072  -3.057 -50.651  1.00  0.00    -0.387 OA
ATOM     12  H   UNL     1      57.372  -3.758 -50.566  1.00  0.00     0.211 HD
ENDBRANCH   4  11
BRANCH   6  13
ATOM     13  O   UNL     1      60.569  -1.948 -49.724  1.00  0.00    -0.387 OA
ATOM     14  H   UNL     1      60.453  -2.469 -50.561  1.00  0.00     0.211 HD
ENDBRANCH   6  13
BRANCH   7  15
ATOM     15  O   UNL     1      59.892  -1.579 -47.060  1.00  0.00    -0.384 OA
ATOM     16  H   UNL     1      60.881  -1.497 -47.073  1.00  0.00     0.211 HD
ENDBRANCH   7  15
ENDBRANCH   1   2
BRANCH   1  17
ATOM     17  C   UNL     1      57.156   2.160 -47.995  1.00  0.00     0.172 A 
ATOM     18  C   UNL     1      56.475   3.090 -48.818  1.00  0.00     0.205 A 
ATOM     19  C   UNL     1      57.407   2.478 -46.658  1.00  0.00     0.097 A 
ATOM     20  C   UNL     1      56.056   4.326 -48.268  1.00  0.00     0.188 A 
ATOM     21  C   UNL     1      56.965   3.678 -46.097  1.00  0.00     0.134 A 
ATOM     22  C   UNL     1      56.278   4.613 -46.896  1.00  0.00     0.111 A 
ATOM     23  O   UNL     1      55.468   5.232 -49.043  1.00  0.00    -0.452 OA
ATOM     24  C   UNL     1      55.812   5.847 -46.395  1.00  0.00     0.197 A 
ATOM     25  C   UNL     1      55.025   6.406 -48.604  1.00  0.00     0.138 A 
ATOM     26  C   UNL     1      55.176   6.742 -47.253  1.00  0.00     0.100 A 
ATOM     27  O   UNL     1      55.961   6.164 -45.185  1.00  0.00    -0.289 OA
BRANCH  18  28
ATOM     28  O   UNL     1      56.249   2.775 -50.170  1.00  0.00    -0.490 OA
ATOM     29  C   UNL     1      57.176   2.989 -51.232  1.00  0.00     0.278 C 
ENDBRANCH  18  28
BRANCH  21  30
ATOM     30  O   UNL     1      57.217   3.932 -44.747  1.00  0.00    -0.507 OA
ATOM     31  H   UNL     1      57.954   3.453 -44.242  1.00  0.00     0.293 HD
ENDBRANCH  21  30
BRANCH  25  32
ATOM     32  C   UNL     1      54.399   7.342 -49.570  1.00  0.00     0.017 A 
ATOM     33  C   UNL     1      53.762   8.503 -49.098  1.00  0.00     0.012 A 
ATOM     34  C   UNL     1      54.431   7.098 -50.955  1.00  0.00     0.012 A 
ATOM     35  C   UNL     1      53.152   9.390 -49.991  1.00  0.00     0.001 A 
ATOM     36  C   UNL     1      53.825   7.990 -51.846  1.00  0.00     0.001 A 
ATOM     37  C   UNL     1      53.176   9.129 -51.364  1.00  0.00     0.000 A 
ENDBRANCH  25  32
ENDBRANCH   1  17
TORSDOF 9
ENDMDL
MODEL 4
REMARK VINA RESULT:    -5.187     10.290     11.734
REMARK INTER + INTRA:          -8.739
REMARK INTER:                  -7.505
REMARK INTRA:                  -1.234
REMARK UNBOUND:                -1.429
REMARK SMILES COc1c(O[C@H]2O[C@@H](C(=O)[O-])[C@@H](O)[C@H](O)[C@@H]2O)cc(O)c2c(=O)cc(-c3ccccc3)oc12
REMARK SMILES IDX 5 1 6 2 8 3 12 4 7 5 14 6 16 7 9 8 10 9 11 10 13 11 15 13
REMARK SMILES IDX 17 15 4 17 3 18 18 19 33 20 19 21 21 22 32 23 22 24 25 25
REMARK SMILES IDX 24 26 23 27 2 28 1 29 20 30 26 32 27 33 31 34 28 35 30 36
REMARK SMILES IDX 29 37
REMARK H PARENT 13 12 15 14 17 16 20 31
REMARK Flexibility Score: inf
ROOT
ATOM      1  O   UNL     1      49.676  -6.362 -50.076  1.00  0.00    -0.458 OA
ENDROOT
BRANCH   1   2
ATOM      2  C   UNL     1      49.772  -6.430 -51.500  1.00  0.00     0.339 C 
ATOM      3  C   UNL     1      52.012  -7.252 -51.572  1.00  0.00     0.199 C 
ATOM      4  C   UNL     1      51.544  -8.639 -52.077  1.00  0.00     0.180 C 
ATOM      5  O   UNL     1      51.108  -6.218 -51.951  1.00  0.00    -0.328 OA
ATOM      6  C   UNL     1      50.108  -8.929 -51.611  1.00  0.00     0.181 C 
ATOM      7  C   UNL     1      49.191  -7.762 -52.006  1.00  0.00     0.214 C 
BRANCH   3   8
ATOM      8  C   UNL     1      52.361  -7.177 -50.100  1.00  0.00     0.073 C 
ATOM      9  O   UNL     1      52.869  -6.120 -49.633  1.00  0.00    -0.547 OA
ATOM     10  O   UNL     1      52.145  -8.254 -49.249  1.00  0.00    -0.547 OA
ENDBRANCH   3   8
BRANCH   4  11
ATOM     11  O   UNL     1      52.423  -9.646 -51.636  1.00  0.00    -0.387 OA
ATOM     12  H   UNL     1      53.330  -9.407 -51.967  1.00  0.00     0.211 HD
ENDBRANCH   4  11
BRANCH   6  13
ATOM     13  O   UNL     1      49.631 -10.118 -52.190  1.00  0.00    -0.387 OA
ATOM     14  H   UNL     1      49.188  -9.871 -53.042  1.00  0.00     0.211 HD
ENDBRANCH   6  13
BRANCH   7  15
ATOM     15  O   UNL     1      49.038  -7.695 -53.402  1.00  0.00    -0.384 OA
ATOM     16  H   UNL     1      48.679  -6.793 -53.610  1.00  0.00     0.211 HD
ENDBRANCH   7  15
ENDBRANCH   1   2
BRANCH   1  17
ATOM     17  C   UNL     1      48.682  -5.707 -49.321  1.00  0.00     0.172 A 
ATOM     18  C   UNL     1      48.796  -5.410 -47.940  1.00  0.00     0.205 A 
ATOM     19  C   UNL     1      47.530  -5.327 -50.014  1.00  0.00     0.097 A 
ATOM     20  C   UNL     1      47.741  -4.726 -47.289  1.00  0.00     0.188 A 
ATOM     21  C   UNL     1      46.502  -4.619 -49.389  1.00  0.00     0.134 A 
ATOM     22  C   UNL     1      46.599  -4.306 -48.019  1.00  0.00     0.111 A 
ATOM     23  O   UNL     1      47.809  -4.492 -45.982  1.00  0.00    -0.452 OA
ATOM     24  C   UNL     1      45.593  -3.601 -47.324  1.00  0.00     0.197 A 
ATOM     25  C   UNL     1      46.876  -3.840 -45.296  1.00  0.00     0.138 A 
ATOM     26  C   UNL     1      45.738  -3.362 -45.959  1.00  0.00     0.100 A 
ATOM     27  O   UNL     1      44.558  -3.184 -47.909  1.00  0.00    -0.289 OA
BRANCH  18  28
ATOM     28  O   UNL     1      49.946  -5.821 -47.243  1.00  0.00    -0.490 OA
ATOM     29  C   UNL     1      50.111  -7.080 -46.594  1.00  0.00     0.278 C 
ENDBRANCH  18  28
BRANCH  21  30
ATOM     30  O   UNL     1      45.386  -4.237 -50.137  1.00  0.00    -0.507 OA
ATOM     31  H   UNL     1      45.469  -3.647 -50.957  1.00  0.00     0.293 HD
ENDBRANCH  21  30
BRANCH  25  32
ATOM     32  C   UNL     1      47.057  -3.655 -43.837  1.00  0.00     0.017 A 
ATOM     33  C   UNL     1      47.028  -4.773 -42.986  1.00  0.00     0.012 A 
ATOM     34  C   UNL     1      47.264  -2.380 -43.278  1.00  0.00     0.012 A 
ATOM     35  C   UNL     1      47.182  -4.618 -41.604  1.00  0.00     0.001 A 
ATOM     36  C   UNL     1      47.423  -2.229 -41.896  1.00  0.00     0.001 A 
ATOM     37  C   UNL     1      47.370  -3.345 -41.059  1.00  0.00     0.000 A 
ENDBRANCH  25  32
ENDBRANCH   1  17
TORSDOF 9
ENDMDL
MODEL 5
REMARK VINA RESULT:    -5.155      1.768      3.668
REMARK INTER + INTRA:          -8.693
REMARK INTER:                  -7.245
REMARK INTRA:                  -1.448
REMARK UNBOUND:                -1.429
REMARK SMILES COc1c(O[C@H]2O[C@@H](C(=O)[O-])[C@@H](O)[C@H](O)[C@@H]2O)cc(O)c2c(=O)cc(-c3ccccc3)oc12
REMARK SMILES IDX 5 1 6 2 8 3 12 4 7 5 14 6 16 7 9 8 10 9 11 10 13 11 15 13
REMARK SMILES IDX 17 15 4 17 3 18 18 19 33 20 19 21 21 22 32 23 22 24 25 25
REMARK SMILES IDX 24 26 23 27 2 28 1 29 20 30 26 32 27 33 31 34 28 35 30 36
REMARK SMILES IDX 29 37
REMARK H PARENT 13 12 15 14 17 16 20 31
REMARK Flexibility Score: inf
ROOT
ATOM      1  O   UNL     1      59.193  -1.000 -48.142  1.00  0.00    -0.458 OA
ENDROOT
BRANCH   1   2
ATOM      2  C   UNL     1      59.618  -2.267 -47.634  1.00  0.00     0.339 C 
ATOM      3  C   UNL     1      58.450  -3.596 -49.236  1.00  0.00     0.199 C 
ATOM      4  C   UNL     1      59.771  -4.034 -49.915  1.00  0.00     0.180 C 
ATOM      5  O   UNL     1      58.641  -3.282 -47.859  1.00  0.00    -0.328 OA
ATOM      6  C   UNL     1      60.861  -2.969 -49.714  1.00  0.00     0.181 C 
ATOM      7  C   UNL     1      60.990  -2.638 -48.220  1.00  0.00     0.214 C 
BRANCH   3   8
ATOM      8  C   UNL     1      57.674  -2.512 -49.954  1.00  0.00     0.073 C 
ATOM      9  O   UNL     1      56.565  -2.126 -49.489  1.00  0.00    -0.547 OA
ATOM     10  O   UNL     1      58.150  -1.936 -51.125  1.00  0.00    -0.547 OA
ENDBRANCH   3   8
BRANCH   4  11
ATOM     11  O   UNL     1      59.561  -4.278 -51.287  1.00  0.00    -0.387 OA
ATOM     12  H   UNL     1      58.700  -3.846 -51.531  1.00  0.00     0.211 HD
ENDBRANCH   4  11
BRANCH   6  13
ATOM     13  O   UNL     1      62.097  -3.430 -50.202  1.00  0.00    -0.387 OA
ATOM     14  H   UNL     1      61.904  -4.182 -50.820  1.00  0.00     0.211 HD
ENDBRANCH   6  13
BRANCH   7  15
ATOM     15  O   UNL     1      61.513  -3.732 -47.508  1.00  0.00    -0.384 OA
ATOM     16  H   UNL     1      60.744  -4.193 -47.081  1.00  0.00     0.211 HD
ENDBRANCH   7  15
ENDBRANCH   1   2
BRANCH   1  17
ATOM     17  C   UNL     1      58.832   0.139 -47.394  1.00  0.00     0.172 A 
ATOM     18  C   UNL     1      57.985   1.169 -47.871  1.00  0.00     0.205 A 
ATOM     19  C   UNL     1      59.348   0.215 -46.098  1.00  0.00     0.097 A 
ATOM     20  C   UNL     1      57.672   2.258 -47.020  1.00  0.00     0.188 A 
ATOM     21  C   UNL     1      59.015   1.265 -45.240  1.00  0.00     0.134 A 
ATOM     22  C   UNL     1      58.167   2.296 -45.691  1.00  0.00     0.111 A 
ATOM     23  O   UNL     1      56.926   3.260 -47.473  1.00  0.00    -0.452 OA
ATOM     24  C   UNL     1      57.797   3.389 -44.879  1.00  0.00     0.197 A 
ATOM     25  C   UNL     1      56.568   4.308 -46.738  1.00  0.00     0.138 A 
ATOM     26  C   UNL     1      56.988   4.394 -45.405  1.00  0.00     0.100 A 
ATOM     27  O   UNL     1      58.187   3.483 -43.684  1.00  0.00    -0.289 OA
BRANCH  18  28
ATOM     28  O   UNL     1      57.492   1.100 -49.185  1.00  0.00    -0.490 OA
ATOM     29  C   UNL     1      58.190   1.532 -50.352  1.00  0.00     0.278 C 
ENDBRANCH  18  28
BRANCH  21  30
ATOM     30  O   UNL     1      59.534   1.276 -43.944  1.00  0.00    -0.507 OA
ATOM     31  H   UNL     1      59.449   2.086 -43.340  1.00  0.00     0.293 HD
ENDBRANCH  21  30
BRANCH  25  32
ATOM     32  C   UNL     1      55.746   5.373 -47.361  1.00  0.00     0.017 A 
ATOM     33  C   UNL     1      55.102   6.320 -46.546  1.00  0.00     0.012 A 
ATOM     34  C   UNL     1      55.596   5.464 -48.757  1.00  0.00     0.012 A 
ATOM     35  C   UNL     1      54.309   7.323 -47.113  1.00  0.00     0.001 A 
ATOM     36  C   UNL     1      54.807   6.472 -49.322  1.00  0.00     0.001 A 
ATOM     37  C   UNL     1      54.155   7.393 -48.500  1.00  0.00     0.000 A 
ENDBRANCH  25  32
ENDBRANCH   1  17
TORSDOF 9
ENDMDL
MODEL 6
REMARK VINA RESULT:    -5.117      9.967     12.446
REMARK INTER + INTRA:          -8.639
REMARK INTER:                  -7.367
REMARK INTRA:                  -1.272
REMARK UNBOUND:                -1.429
REMARK SMILES COc1c(O[C@H]2O[C@@H](C(=O)[O-])[C@@H](O)[C@H](O)[C@@H]2O)cc(O)c2c(=O)cc(-c3ccccc3)oc12
REMARK SMILES IDX 5 1 6 2 8 3 12 4 7 5 14 6 16 7 9 8 10 9 11 10 13 11 15 13
REMARK SMILES IDX 17 15 4 17 3 18 18 19 33 20 19 21 21 22 32 23 22 24 25 25
REMARK SMILES IDX 24 26 23 27 2 28 1 29 20 30 26 32 27 33 31 34 28 35 30 36
REMARK SMILES IDX 29 37
REMARK H PARENT 13 12 15 14 17 16 20 31
REMARK Flexibility Score: inf
ROOT
ATOM      1  O   UNL     1      45.092   3.159 -47.498  1.00  0.00    -0.458 OA
ENDROOT
BRANCH   1   2
ATOM      2  C   UNL     1      43.703   3.422 -47.284  1.00  0.00     0.339 C 
ATOM      3  C   UNL     1      42.924   1.270 -47.961  1.00  0.00     0.199 C 
ATOM      4  C   UNL     1      42.523   0.900 -46.511  1.00  0.00     0.180 C 
ATOM      5  O   UNL     1      42.880   2.676 -48.180  1.00  0.00    -0.328 OA
ATOM      6  C   UNL     1      43.387   1.667 -45.498  1.00  0.00     0.181 C 
ATOM      7  C   UNL     1      43.338   3.170 -45.812  1.00  0.00     0.214 C 
BRANCH   3   8
ATOM      8  C   UNL     1      44.224   0.667 -48.452  1.00  0.00     0.073 C 
ATOM      9  O   UNL     1      44.550   0.794 -49.665  1.00  0.00    -0.547 OA
ATOM     10  O   UNL     1      45.065  -0.035 -47.598  1.00  0.00    -0.547 OA
ENDBRANCH   3   8
BRANCH   4  11
ATOM     11  O   UNL     1      42.634  -0.490 -46.309  1.00  0.00    -0.387 OA
ATOM     12  H   UNL     1      41.738  -0.883 -46.486  1.00  0.00     0.211 HD
ENDBRANCH   4  11
BRANCH   6  13
ATOM     13  O   UNL     1      42.927   1.445 -44.188  1.00  0.00    -0.387 OA
ATOM     14  H   UNL     1      43.358   2.125 -43.608  1.00  0.00     0.211 HD
ENDBRANCH   6  13
BRANCH   7  15
ATOM     15  O   UNL     1      42.058   3.693 -45.560  1.00  0.00    -0.384 OA
ATOM     16  H   UNL     1      41.535   2.975 -45.116  1.00  0.00     0.211 HD
ENDBRANCH   7  15
ENDBRANCH   1   2
BRANCH   1  17
ATOM     17  C   UNL     1      45.981   3.893 -48.309  1.00  0.00     0.172 A 
ATOM     18  C   UNL     1      47.249   4.359 -47.883  1.00  0.00     0.205 A 
ATOM     19  C   UNL     1      45.559   4.145 -49.617  1.00  0.00     0.097 A 
ATOM     20  C   UNL     1      48.069   5.068 -48.794  1.00  0.00     0.188 A 
ATOM     21  C   UNL     1      46.376   4.810 -50.533  1.00  0.00     0.134 A 
ATOM     22  C   UNL     1      47.644   5.274 -50.132  1.00  0.00     0.111 A 
ATOM     23  O   UNL     1      49.236   5.561 -48.390  1.00  0.00    -0.452 OA
ATOM     24  C   UNL     1      48.516   5.960 -51.004  1.00  0.00     0.197 A 
ATOM     25  C   UNL     1      50.075   6.220 -49.183  1.00  0.00     0.138 A 
ATOM     26  C   UNL     1      49.739   6.427 -50.527  1.00  0.00     0.100 A 
ATOM     27  O   UNL     1      48.213   6.167 -52.209  1.00  0.00    -0.289 OA
BRANCH  18  28
ATOM     28  O   UNL     1      47.655   4.127 -46.557  1.00  0.00    -0.490 OA
ATOM     29  C   UNL     1      48.333   2.960 -46.095  1.00  0.00     0.278 C 
ENDBRANCH  18  28
BRANCH  21  30
ATOM     30  O   UNL     1      45.917   5.008 -51.837  1.00  0.00    -0.507 OA
ATOM     31  H   UNL     1      45.869   5.931 -52.253  1.00  0.00     0.293 HD
ENDBRANCH  21  30
BRANCH  25  32
ATOM     32  C   UNL     1      51.342   6.737 -48.613  1.00  0.00     0.017 A 
ATOM     33  C   UNL     1      51.569   6.647 -47.229  1.00  0.00     0.012 A 
ATOM     34  C   UNL     1      52.333   7.315 -49.428  1.00  0.00     0.012 A 
ATOM     35  C   UNL     1      52.751   7.143 -46.669  1.00  0.00     0.001 A 
ATOM     36  C   UNL     1      53.517   7.804 -48.866  1.00  0.00     0.001 A 
ATOM     37  C   UNL     1      53.721   7.729 -47.487  1.00  0.00     0.000 A 
ENDBRANCH  25  32
ENDBRANCH   1  17
TORSDOF 9
ENDMDL
MODEL 7
REMARK VINA RESULT:    -5.085      2.245      3.750
REMARK INTER + INTRA:          -8.594
REMARK INTER:                  -7.310
REMARK INTRA:                  -1.284
REMARK UNBOUND:                -1.429
REMARK SMILES COc1c(O[C@H]2O[C@@H](C(=O)[O-])[C@@H](O)[C@H](O)[C@@H]2O)cc(O)c2c(=O)cc(-c3ccccc3)oc12
REMARK SMILES IDX 5 1 6 2 8 3 12 4 7 5 14 6 16 7 9 8 10 9 11 10 13 11 15 13
REMARK SMILES IDX 17 15 4 17 3 18 18 19 33 20 19 21 21 22 32 23 22 24 25 25
REMARK SMILES IDX 24 26 23 27 2 28 1 29 20 30 26 32 27 33 31 34 28 35 30 36
REMARK SMILES IDX 29 37
REMARK H PARENT 13 12 15 14 17 16 20 31
REMARK Flexibility Score: inf
ROOT
ATOM      1  O   UNL     1      57.388   0.441 -48.139  1.00  0.00    -0.458 OA
ENDROOT
BRANCH   1   2
ATOM      2  C   UNL     1      58.716  -0.072 -48.257  1.00  0.00     0.339 C 
ATOM      3  C   UNL     1      58.351  -2.045 -46.965  1.00  0.00     0.199 C 
ATOM      4  C   UNL     1      58.469  -2.951 -48.216  1.00  0.00     0.180 C 
ATOM      5  O   UNL     1      59.092  -0.838 -47.114  1.00  0.00    -0.328 OA
ATOM      6  C   UNL     1      58.065  -2.180 -49.482  1.00  0.00     0.181 C 
ATOM      7  C   UNL     1      58.861  -0.869 -49.564  1.00  0.00     0.214 C 
BRANCH   3   8
ATOM      8  C   UNL     1      56.940  -1.780 -46.482  1.00  0.00     0.073 C 
ATOM      9  O   UNL     1      56.759  -1.232 -45.359  1.00  0.00    -0.547 OA
ATOM     10  O   UNL     1      55.835  -2.137 -47.244  1.00  0.00    -0.547 OA
ENDBRANCH   3   8
BRANCH   4  11
ATOM     11  O   UNL     1      57.678  -4.106 -48.063  1.00  0.00    -0.387 OA
ATOM     12  H   UNL     1      58.119  -4.672 -47.374  1.00  0.00     0.211 HD
ENDBRANCH   4  11
BRANCH   6  13
ATOM     13  O   UNL     1      58.311  -2.953 -50.631  1.00  0.00    -0.387 OA
ATOM     14  H   UNL     1      57.428  -3.201 -51.010  1.00  0.00     0.211 HD
ENDBRANCH   6  13
BRANCH   7  15
ATOM     15  O   UNL     1      60.223  -1.124 -49.799  1.00  0.00    -0.384 OA
ATOM     16  H   UNL     1      60.270  -1.907 -50.408  1.00  0.00     0.211 HD
ENDBRANCH   7  15
ENDBRANCH   1   2
BRANCH   1  17
ATOM     17  C   UNL     1      57.006   1.708 -47.653  1.00  0.00     0.172 A 
ATOM     18  C   UNL     1      56.401   2.715 -48.446  1.00  0.00     0.205 A 
ATOM     19  C   UNL     1      57.238   1.945 -46.296  1.00  0.00     0.097 A 
ATOM     20  C   UNL     1      56.038   3.945 -47.844  1.00  0.00     0.188 A 
ATOM     21  C   UNL     1      56.848   3.140 -45.687  1.00  0.00     0.134 A 
ATOM     22  C   UNL     1      56.238   4.152 -46.454  1.00  0.00     0.111 A 
ATOM     23  O   UNL     1      55.524   4.920 -48.587  1.00  0.00    -0.452 OA
ATOM     24  C   UNL     1      55.828   5.385 -45.904  1.00  0.00     0.197 A 
ATOM     25  C   UNL     1      55.137   6.095 -48.101  1.00  0.00     0.138 A 
ATOM     26  C   UNL     1      55.268   6.356 -46.731  1.00  0.00     0.100 A 
ATOM     27  O   UNL     1      55.961   5.633 -44.676  1.00  0.00    -0.289 OA
BRANCH  18  28
ATOM     28  O   UNL     1      56.196   2.480 -49.816  1.00  0.00    -0.490 OA
ATOM     29  C   UNL     1      57.186   2.618 -50.834  1.00  0.00     0.278 C 
ENDBRANCH  18  28
BRANCH  21  30
ATOM     30  O   UNL     1      57.077   3.312 -44.320  1.00  0.00    -0.507 OA
ATOM     31  H   UNL     1      56.331   3.563 -43.681  1.00  0.00     0.293 HD
ENDBRANCH  21  30
BRANCH  25  32
ATOM     32  C   UNL     1      54.592   7.111 -49.033  1.00  0.00     0.017 A 
ATOM     33  C   UNL     1      53.757   8.129 -48.541  1.00  0.00     0.012 A 
ATOM     34  C   UNL     1      54.895   7.086 -50.407  1.00  0.00     0.012 A 
ATOM     35  C   UNL     1      53.219   9.088 -49.406  1.00  0.00     0.001 A 
ATOM     36  C   UNL     1      54.361   8.050 -51.269  1.00  0.00     0.001 A 
ATOM     37  C   UNL     1      53.515   9.043 -50.771  1.00  0.00     0.000 A 
ENDBRANCH  25  32
ENDBRANCH   1  17
TORSDOF 9
ENDMDL
MODEL 8
REMARK VINA RESULT:    -5.070      3.058      9.326
REMARK INTER + INTRA:          -8.574
REMARK INTER:                  -7.162
REMARK INTRA:                  -1.412
REMARK UNBOUND:                -1.429
REMARK SMILES COc1c(O[C@H]2O[C@@H](C(=O)[O-])[C@@H](O)[C@H](O)[C@@H]2O)cc(O)c2c(=O)cc(-c3ccccc3)oc12
REMARK SMILES IDX 5 1 6 2 8 3 12 4 7 5 14 6 16 7 9 8 10 9 11 10 13 11 15 13
REMARK SMILES IDX 17 15 4 17 3 18 18 19 33 20 19 21 21 22 32 23 22 24 25 25
REMARK SMILES IDX 24 26 23 27 2 28 1 29 20 30 26 32 27 33 31 34 28 35 30 36
REMARK SMILES IDX 29 37
REMARK H PARENT 13 12 15 14 17 16 20 31
REMARK Flexibility Score: inf
ROOT
ATOM      1  O   UNL     1      54.279   5.024 -47.724  1.00  0.00    -0.458 OA
ENDROOT
BRANCH   1   2
ATOM      2  C   UNL     1      53.955   6.272 -47.107  1.00  0.00     0.339 C 
ATOM      3  C   UNL     1      54.277   7.617 -49.052  1.00  0.00     0.199 C 
ATOM      4  C   UNL     1      52.759   7.899 -49.174  1.00  0.00     0.180 C 
ATOM      5  O   UNL     1      54.661   7.357 -47.705  1.00  0.00    -0.328 OA
ATOM      6  C   UNL     1      51.944   6.753 -48.553  1.00  0.00     0.181 C 
ATOM      7  C   UNL     1      52.433   6.489 -47.122  1.00  0.00     0.214 C 
BRANCH   3   8
ATOM      8  C   UNL     1      54.824   6.571 -50.002  1.00  0.00     0.073 C 
ATOM      9  O   UNL     1      56.064   6.331 -50.016  1.00  0.00    -0.547 OA
ATOM     10  O   UNL     1      53.992   5.874 -50.869  1.00  0.00    -0.547 OA
ENDBRANCH   3   8
BRANCH   4  11
ATOM     11  O   UNL     1      52.400   8.091 -50.522  1.00  0.00    -0.387 OA
ATOM     12  H   UNL     1      52.312   7.190 -50.932  1.00  0.00     0.211 HD
ENDBRANCH   4  11
BRANCH   6  13
ATOM     13  O   UNL     1      50.576   7.076 -48.531  1.00  0.00    -0.387 OA
ATOM     14  H   UNL     1      50.499   7.998 -48.173  1.00  0.00     0.211 HD
ENDBRANCH   6  13
BRANCH   7  15
ATOM     15  O   UNL     1      52.114   7.566 -46.276  1.00  0.00    -0.384 OA
ATOM     16  H   UNL     1      51.196   7.858 -46.515  1.00  0.00     0.211 HD
ENDBRANCH   7  15
ENDBRANCH   1   2
BRANCH   1  17
ATOM     17  C   UNL     1      55.351   4.168 -47.399  1.00  0.00     0.172 A 
ATOM     18  C   UNL     1      55.782   3.088 -48.210  1.00  0.00     0.205 A 
ATOM     19  C   UNL     1      56.018   4.440 -46.202  1.00  0.00     0.097 A 
ATOM     20  C   UNL     1      56.887   2.308 -47.792  1.00  0.00     0.188 A 
ATOM     21  C   UNL     1      57.132   3.699 -45.802  1.00  0.00     0.134 A 
ATOM     22  C   UNL     1      57.582   2.627 -46.597  1.00  0.00     0.111 A 
ATOM     23  O   UNL     1      57.267   1.257 -48.513  1.00  0.00    -0.452 OA
ATOM     24  C   UNL     1      58.695   1.833 -46.247  1.00  0.00     0.197 A 
ATOM     25  C   UNL     1      58.304   0.484 -48.206  1.00  0.00     0.138 A 
ATOM     26  C   UNL     1      59.060   0.762 -47.061  1.00  0.00     0.100 A 
ATOM     27  O   UNL     1      59.368   2.066 -45.208  1.00  0.00    -0.289 OA
BRANCH  18  28
ATOM     28  O   UNL     1      55.089   2.803 -49.399  1.00  0.00    -0.490 OA
ATOM     29  C   UNL     1      53.927   1.983 -49.500  1.00  0.00     0.278 C 
ENDBRANCH  18  28
BRANCH  21  30
ATOM     30  O   UNL     1      57.779   4.033 -44.611  1.00  0.00    -0.507 OA
ATOM     31  H   UNL     1      57.863   4.995 -44.300  1.00  0.00     0.293 HD
ENDBRANCH  21  30
BRANCH  25  32
ATOM     32  C   UNL     1      58.619  -0.671 -49.081  1.00  0.00     0.017 A 
ATOM     33  C   UNL     1      57.674  -1.106 -50.025  1.00  0.00     0.012 A 
ATOM     34  C   UNL     1      59.852  -1.345 -48.992  1.00  0.00     0.012 A 
ATOM     35  C   UNL     1      57.946  -2.204 -50.849  1.00  0.00     0.001 A 
ATOM     36  C   UNL     1      60.123  -2.438 -49.821  1.00  0.00     0.001 A 
ATOM     37  C   UNL     1      59.167  -2.874 -50.740  1.00  0.00     0.000 A 
ENDBRANCH  25  32
ENDBRANCH   1  17
TORSDOF 9
ENDMDL
MODEL 9
REMARK VINA RESULT:    -5.021     10.752     14.295
REMARK INTER + INTRA:          -8.505
REMARK INTER:                  -7.110
REMARK INTRA:                  -1.395
REMARK UNBOUND:                -1.429
REMARK SMILES COc1c(O[C@H]2O[C@@H](C(=O)[O-])[C@@H](O)[C@H](O)[C@@H]2O)cc(O)c2c(=O)cc(-c3ccccc3)oc12
REMARK SMILES IDX 5 1 6 2 8 3 12 4 7 5 14 6 16 7 9 8 10 9 11 10 13 11 15 13
REMARK SMILES IDX 17 15 4 17 3 18 18 19 33 20 19 21 21 22 32 23 22 24 25 25
REMARK SMILES IDX 24 26 23 27 2 28 1 29 20 30 26 32 27 33 31 34 28 35 30 36
REMARK SMILES IDX 29 37
REMARK H PARENT 13 12 15 14 17 16 20 31
REMARK Flexibility Score: inf
ROOT
ATOM      1  O   UNL     1      47.065   1.803 -44.112  1.00  0.00    -0.458 OA
ENDROOT
BRANCH   1   2
ATOM      2  C   UNL     1      45.988   2.722 -43.917  1.00  0.00     0.339 C 
ATOM      3  C   UNL     1      46.809   4.402 -45.400  1.00  0.00     0.199 C 
ATOM      4  C   UNL     1      45.677   4.130 -46.422  1.00  0.00     0.180 C 
ATOM      5  O   UNL     1      46.414   4.075 -44.072  1.00  0.00    -0.328 OA
ATOM      6  C   UNL     1      45.184   2.679 -46.308  1.00  0.00     0.181 C 
ATOM      7  C   UNL     1      44.817   2.370 -44.849  1.00  0.00     0.214 C 
BRANCH   3   8
ATOM      8  C   UNL     1      48.158   3.805 -45.746  1.00  0.00     0.073 C 
ATOM      9  O   UNL     1      49.154   4.049 -45.010  1.00  0.00    -0.547 OA
ATOM     10  O   UNL     1      48.327   3.001 -46.866  1.00  0.00    -0.547 OA
ENDBRANCH   3   8
BRANCH   4  11
ATOM     11  O   UNL     1      46.118   4.406 -47.731  1.00  0.00    -0.387 OA
ATOM     12  H   UNL     1      46.864   5.059 -47.655  1.00  0.00     0.211 HD
ENDBRANCH   4  11
BRANCH   6  13
ATOM     13  O   UNL     1      44.061   2.473 -47.130  1.00  0.00    -0.387 OA
ATOM     14  H   UNL     1      44.132   1.553 -47.495  1.00  0.00     0.211 HD
ENDBRANCH   6  13
BRANCH   7  15
ATOM     15  O   UNL     1      43.681   3.097 -44.454  1.00  0.00    -0.384 OA
ATOM     16  H   UNL     1      43.870   4.054 -44.641  1.00  0.00     0.211 HD
ENDBRANCH   7  15
ENDBRANCH   1   2
BRANCH   1  17
ATOM     17  C   UNL     1      47.125   0.461 -43.683  1.00  0.00     0.172 A 
ATOM     18  C   UNL     1      47.002  -0.657 -44.545  1.00  0.00     0.205 A 
ATOM     19  C   UNL     1      47.336   0.258 -42.317  1.00  0.00     0.097 A 
ATOM     20  C   UNL     1      47.102  -1.962 -44.005  1.00  0.00     0.188 A 
ATOM     21  C   UNL     1      47.473  -1.025 -41.782  1.00  0.00     0.134 A 
ATOM     22  C   UNL     1      47.363  -2.150 -42.623  1.00  0.00     0.111 A 
ATOM     23  O   UNL     1      46.931  -3.020 -44.792  1.00  0.00    -0.452 OA
ATOM     24  C   UNL     1      47.483  -3.473 -42.146  1.00  0.00     0.197 A 
ATOM     25  C   UNL     1      47.028  -4.278 -44.373  1.00  0.00     0.138 A 
ATOM     26  C   UNL     1      47.322  -4.539 -43.028  1.00  0.00     0.100 A 
ATOM     27  O   UNL     1      47.729  -3.716 -40.935  1.00  0.00    -0.289 OA
BRANCH  18  28
ATOM     28  O   UNL     1      46.762  -0.445 -45.914  1.00  0.00    -0.490 OA
ATOM     29  C   UNL     1      47.758  -0.432 -46.934  1.00  0.00     0.278 C 
ENDBRANCH  18  28
BRANCH  21  30
ATOM     30  O   UNL     1      47.714  -1.169 -40.414  1.00  0.00    -0.507 OA
ATOM     31  H   UNL     1      46.987  -1.463 -39.772  1.00  0.00     0.293 HD
ENDBRANCH  21  30
BRANCH  25  32
ATOM     32  C   UNL     1      46.800  -5.376 -45.343  1.00  0.00     0.017 A 
ATOM     33  C   UNL     1      45.886  -5.194 -46.395  1.00  0.00     0.012 A 
ATOM     34  C   UNL     1      47.484  -6.601 -45.240  1.00  0.00     0.012 A 
ATOM     35  C   UNL     1      45.645  -6.223 -47.312  1.00  0.00     0.001 A 
ATOM     36  C   UNL     1      47.245  -7.626 -46.162  1.00  0.00     0.001 A 
ATOM     37  C   UNL     1      46.318  -7.441 -47.190  1.00  0.00     0.000 A 
ENDBRANCH  25  32
ENDBRANCH   1  17
TORSDOF 9
ENDMDL
