MODEL 1
REMARK VINA RESULT:    -3.687      0.000      0.000
REMARK INTER + INTRA:          -4.406
REMARK INTER:                  -4.333
REMARK INTRA:                  -0.073
REMARK UNBOUND:                -0.073
REMARK SMILES CCCCC(=O)[O-]
REMARK SMILES IDX 4 1 5 2 6 3 7 4 3 5 2 6 1 7
REMARK H PARENT
REMARK Flexibility Score: inf
ROOT
ATOM      1  C   UNL     1      10.302  53.775  23.839  1.00  0.00     0.053 C 
ENDROOT
BRANCH   1   2
ATOM      2  C   UNL     1       9.593  52.467  23.686  1.00  0.00     0.041 C 
ATOM      3  O   UNL     1       8.337  52.413  23.760  1.00  0.00    -0.550 OA
ATOM      4  O   UNL     1      10.322  51.297  23.509  1.00  0.00    -0.550 OA
ENDBRANCH   1   2
BRANCH   1   5
ATOM      5  C   UNL     1       9.376  54.815  24.477  1.00  0.00     0.006 C 
BRANCH   5   6
ATOM      6  C   UNL     1       9.563  54.857  25.998  1.00  0.00    -0.003 C 
ATOM      7  C   UNL     1      11.014  54.575  26.382  1.00  0.00     0.004 C 
ENDBRANCH   5   6
ENDBRANCH   1   5
TORSDOF 3
ENDMDL
MODEL 2
REMARK VINA RESULT:    -3.608      2.774      3.873
REMARK INTER + INTRA:          -4.313
REMARK INTER:                  -4.296
REMARK INTRA:                  -0.018
REMARK UNBOUND:                -0.073
REMARK SMILES CCCCC(=O)[O-]
REMARK SMILES IDX 4 1 5 2 6 3 7 4 3 5 2 6 1 7
REMARK H PARENT
REMARK Flexibility Score: inf
ROOT
ATOM      1  C   UNL     1       9.753  54.354  23.978  1.00  0.00     0.053 C 
ENDROOT
BRANCH   1   2
ATOM      2  C   UNL     1      10.024  54.601  25.428  1.00  0.00     0.041 C 
ATOM      3  O   UNL     1      11.192  54.486  25.884  1.00  0.00    -0.550 OA
ATOM      4  O   UNL     1       8.977  54.909  26.288  1.00  0.00    -0.550 OA
ENDBRANCH   1   2
BRANCH   1   5
ATOM      5  C   UNL     1       8.525  55.146  23.519  1.00  0.00     0.006 C 
BRANCH   5   6
ATOM      6  C   UNL     1       8.460  55.221  21.989  1.00  0.00    -0.003 C 
ATOM      7  C   UNL     1       7.757  56.496  21.530  1.00  0.00     0.004 C 
ENDBRANCH   5   6
ENDBRANCH   1   5
TORSDOF 3
ENDMDL
MODEL 3
REMARK VINA RESULT:    -3.555      2.001      3.013
REMARK INTER + INTRA:          -4.251
REMARK INTER:                  -4.203
REMARK INTRA:                  -0.048
REMARK UNBOUND:                -0.073
REMARK SMILES CCCCC(=O)[O-]
REMARK SMILES IDX 4 1 5 2 6 3 7 4 3 5 2 6 1 7
REMARK H PARENT
REMARK Flexibility Score: inf
ROOT
ATOM      1  C   UNL     1       9.913  53.897  23.001  1.00  0.00     0.053 C 
ENDROOT
BRANCH   1   2
ATOM      2  C   UNL     1       9.461  52.577  23.539  1.00  0.00     0.041 C 
ATOM      3  O   UNL     1       8.357  52.479  24.136  1.00  0.00    -0.550 OA
ATOM      4  O   UNL     1      10.281  51.461  23.425  1.00  0.00    -0.550 OA
ENDBRANCH   1   2
BRANCH   1   5
ATOM      5  C   UNL     1       8.768  54.914  23.043  1.00  0.00     0.006 C 
BRANCH   5   6
ATOM      6  C   UNL     1       8.180  55.137  21.645  1.00  0.00    -0.003 C 
ATOM      7  C   UNL     1       7.717  56.580  21.466  1.00  0.00     0.004 C 
ENDBRANCH   5   6
ENDBRANCH   1   5
TORSDOF 3
ENDMDL
MODEL 4
REMARK VINA RESULT:    -3.535      2.626      3.448
REMARK INTER + INTRA:          -4.229
REMARK INTER:                  -4.139
REMARK INTRA:                  -0.090
REMARK UNBOUND:                -0.073
REMARK SMILES CCCCC(=O)[O-]
REMARK SMILES IDX 4 1 5 2 6 3 7 4 3 5 2 6 1 7
REMARK H PARENT
REMARK Flexibility Score: inf
ROOT
ATOM      1  C   UNL     1      10.198  53.825  23.868  1.00  0.00     0.053 C 
ENDROOT
BRANCH   1   2
ATOM      2  C   UNL     1      10.227  54.667  25.104  1.00  0.00     0.041 C 
ATOM      3  O   UNL     1       9.407  55.611  25.248  1.00  0.00    -0.550 OA
ATOM      4  O   UNL     1      11.192  54.440  26.078  1.00  0.00    -0.550 OA
ENDBRANCH   1   2
BRANCH   1   5
ATOM      5  C   UNL     1       9.040  54.247  22.958  1.00  0.00     0.006 C 
BRANCH   5   6
ATOM      6  C   UNL     1       7.828  53.329  23.151  1.00  0.00    -0.003 C 
ATOM      7  C   UNL     1       6.558  54.139  23.400  1.00  0.00     0.004 C 
ENDBRANCH   5   6
ENDBRANCH   1   5
TORSDOF 3
ENDMDL
MODEL 5
REMARK VINA RESULT:    -3.530      2.789      3.385
REMARK INTER + INTRA:          -4.222
REMARK INTER:                  -4.184
REMARK INTRA:                  -0.038
REMARK UNBOUND:                -0.073
REMARK SMILES CCCCC(=O)[O-]
REMARK SMILES IDX 4 1 5 2 6 3 7 4 3 5 2 6 1 7
REMARK H PARENT
REMARK Flexibility Score: inf
ROOT
ATOM      1  C   UNL     1       8.468  55.118  22.967  1.00  0.00     0.053 C 
ENDROOT
BRANCH   1   2
ATOM      2  C   UNL     1       8.067  55.435  21.561  1.00  0.00     0.041 C 
ATOM      3  O   UNL     1       7.941  56.632  21.192  1.00  0.00    -0.550 OA
ATOM      4  O   UNL     1       7.785  54.407  20.670  1.00  0.00    -0.550 OA
ENDBRANCH   1   2
BRANCH   1   5
ATOM      5  C   UNL     1       9.613  54.100  22.982  1.00  0.00     0.006 C 
BRANCH   5   6
ATOM      6  C   UNL     1      10.320  54.090  24.342  1.00  0.00    -0.003 C 
ATOM      7  C   UNL     1       9.712  55.125  25.287  1.00  0.00     0.004 C 
ENDBRANCH   5   6
ENDBRANCH   1   5
TORSDOF 3
ENDMDL
MODEL 6
REMARK VINA RESULT:    -3.523      1.752      2.386
REMARK INTER + INTRA:          -4.214
REMARK INTER:                  -4.141
REMARK INTRA:                  -0.073
REMARK UNBOUND:                -0.073
REMARK SMILES CCCCC(=O)[O-]
REMARK SMILES IDX 4 1 5 2 6 3 7 4 3 5 2 6 1 7
REMARK H PARENT
REMARK Flexibility Score: inf
ROOT
ATOM      1  C   UNL     1       9.711  54.196  22.793  1.00  0.00     0.053 C 
ENDROOT
BRANCH   1   2
ATOM      2  C   UNL     1       8.226  54.374  22.800  1.00  0.00     0.041 C 
ATOM      3  O   UNL     1       7.467  53.370  22.820  1.00  0.00    -0.550 OA
ATOM      4  O   UNL     1       7.677  55.649  22.734  1.00  0.00    -0.550 OA
ENDBRANCH   1   2
BRANCH   1   5
ATOM      5  C   UNL     1      10.201  53.723  24.165  1.00  0.00     0.006 C 
BRANCH   5   6
ATOM      6  C   UNL     1      10.075  54.839  25.208  1.00  0.00    -0.003 C 
ATOM      7  C   UNL     1      11.005  54.593  26.393  1.00  0.00     0.004 C 
ENDBRANCH   5   6
ENDBRANCH   1   5
TORSDOF 3
ENDMDL
MODEL 7
REMARK VINA RESULT:    -3.511      2.787      3.564
REMARK INTER + INTRA:          -4.199
REMARK INTER:                  -4.108
REMARK INTRA:                  -0.092
REMARK UNBOUND:                -0.073
REMARK SMILES CCCCC(=O)[O-]
REMARK SMILES IDX 4 1 5 2 6 3 7 4 3 5 2 6 1 7
REMARK H PARENT
REMARK Flexibility Score: inf
ROOT
ATOM      1  C   UNL     1       8.356  55.250  21.943  1.00  0.00     0.053 C 
ENDROOT
BRANCH   1   2
ATOM      2  C   UNL     1       7.472  54.326  21.167  1.00  0.00     0.041 C 
ATOM      3  O   UNL     1       6.595  53.642  21.756  1.00  0.00    -0.550 OA
ATOM      4  O   UNL     1       7.649  54.183  19.796  1.00  0.00    -0.550 OA
ENDBRANCH   1   2
BRANCH   1   5
ATOM      5  C   UNL     1       8.827  54.579  23.237  1.00  0.00     0.006 C 
BRANCH   5   6
ATOM      6  C   UNL     1      10.240  54.007  23.076  1.00  0.00    -0.003 C 
ATOM      7  C   UNL     1      10.224  52.481  23.121  1.00  0.00     0.004 C 
ENDBRANCH   5   6
ENDBRANCH   1   5
TORSDOF 3
ENDMDL
MODEL 8
REMARK VINA RESULT:    -3.379      3.022      4.182
REMARK INTER + INTRA:          -4.044
REMARK INTER:                  -3.964
REMARK INTRA:                  -0.081
REMARK UNBOUND:                -0.073
REMARK SMILES CCCCC(=O)[O-]
REMARK SMILES IDX 4 1 5 2 6 3 7 4 3 5 2 6 1 7
REMARK H PARENT
REMARK Flexibility Score: inf
ROOT
ATOM      1  C   UNL     1       8.331  55.177  23.157  1.00  0.00     0.053 C 
ENDROOT
BRANCH   1   2
ATOM      2  C   UNL     1       9.202  53.980  23.371  1.00  0.00     0.041 C 
ATOM      3  O   UNL     1      10.413  54.007  23.029  1.00  0.00    -0.550 OA
ATOM      4  O   UNL     1       8.664  52.815  23.905  1.00  0.00    -0.550 OA
ENDBRANCH   1   2
BRANCH   1   5
ATOM      5  C   UNL     1       8.105  55.415  21.660  1.00  0.00     0.006 C 
BRANCH   5   6
ATOM      6  C   UNL     1       7.258  54.293  21.048  1.00  0.00    -0.003 C 
ATOM      7  C   UNL     1       7.292  54.347  19.523  1.00  0.00     0.004 C 
ENDBRANCH   5   6
ENDBRANCH   1   5
TORSDOF 3
ENDMDL
MODEL 9
REMARK VINA RESULT:    -3.317      3.728      4.769
REMARK INTER + INTRA:          -3.972
REMARK INTER:                  -3.898
REMARK INTRA:                  -0.074
REMARK UNBOUND:                -0.073
REMARK SMILES CCCCC(=O)[O-]
REMARK SMILES IDX 4 1 5 2 6 3 7 4 3 5 2 6 1 7
REMARK H PARENT
REMARK Flexibility Score: inf
ROOT
ATOM      1  C   UNL     1       7.520  56.470  21.807  1.00  0.00     0.053 C 
ENDROOT
BRANCH   1   2
ATOM      2  C   UNL     1       6.128  56.429  22.353  1.00  0.00     0.041 C 
ATOM      3  O   UNL     1       5.421  57.470  22.367  1.00  0.00    -0.550 OA
ATOM      4  O   UNL     1       5.628  55.251  22.894  1.00  0.00    -0.550 OA
ENDBRANCH   1   2
BRANCH   1   5
ATOM      5  C   UNL     1       8.075  55.051  21.645  1.00  0.00     0.006 C 
BRANCH   5   6
ATOM      6  C   UNL     1       9.101  54.736  22.739  1.00  0.00    -0.003 C 
ATOM      7  C   UNL     1       8.978  53.288  23.208  1.00  0.00     0.004 C 
ENDBRANCH   5   6
ENDBRANCH   1   5
TORSDOF 3
ENDMDL
