MODEL 1
REMARK VINA RESULT:    -2.932      0.000      0.000
REMARK INTER + INTRA:          -9.108
REMARK INTER:                  -5.675
REMARK INTRA:                  -3.433
REMARK UNBOUND:                -3.433
REMARK SMILES CCCCCC=CCC=CCCCCCCCCOC(C)=O
REMARK SMILES IDX 12 1 11 2 10 3 9 4 8 5 7 6 6 7 5 8 4 9 3 10 2 11 1 12 13 13
REMARK SMILES IDX 14 14 15 15 16 16 17 17 18 18 19 19 20 20 22 21 21 22
REMARK H PARENT
REMARK Flexibility Score: inf
ROOT
ATOM      1  C   UNL     1     104.846  80.579  16.078  1.00  0.00     0.004 C 
ENDROOT
BRANCH   1   2
ATOM      2  C   UNL     1     103.384  80.576  16.543  1.00  0.00     0.027 C 
BRANCH   2   3
ATOM      3  C   UNL     1     103.295  80.483  18.040  1.00  0.00    -0.031 C 
ATOM      4  C   UNL     1     102.856  81.511  18.783  1.00  0.00    -0.027 C 
BRANCH   4   5
ATOM      5  C   UNL     1     102.763  81.413  20.278  1.00  0.00     0.054 C 
BRANCH   5   6
ATOM      6  C   UNL     1     103.844  80.503  20.804  1.00  0.00    -0.027 C 
ATOM      7  C   UNL     1     105.080  80.892  21.165  1.00  0.00    -0.031 C 
BRANCH   7   8
ATOM      8  C   UNL     1     105.575  82.318  21.166  1.00  0.00     0.027 C 
BRANCH   8   9
ATOM      9  C   UNL     1     105.353  83.018  22.518  1.00  0.00     0.004 C 
BRANCH   9  10
ATOM     10  C   UNL     1     104.277  84.118  22.489  1.00  0.00     0.000 C 
BRANCH  10  11
ATOM     11  C   UNL     1     104.255  84.895  21.166  1.00  0.00    -0.003 C 
ATOM     12  C   UNL     1     102.824  85.150  20.702  1.00  0.00     0.004 C 
ENDBRANCH  10  11
ENDBRANCH   9  10
ENDBRANCH   8   9
ENDBRANCH   7   8
ENDBRANCH   5   6
ENDBRANCH   4   5
ENDBRANCH   2   3
ENDBRANCH   1   2
BRANCH   1  13
ATOM     13  C   UNL     1     105.791  80.233  17.238  1.00  0.00     0.000 C 
BRANCH  13  14
ATOM     14  C   UNL     1     106.716  81.401  17.628  1.00  0.00     0.000 C 
BRANCH  14  15
ATOM     15  C   UNL     1     106.367  82.753  16.979  1.00  0.00     0.000 C 
BRANCH  15  16
ATOM     16  C   UNL     1     105.680  83.724  17.951  1.00  0.00     0.003 C 
BRANCH  16  17
ATOM     17  C   UNL     1     104.435  84.351  17.312  1.00  0.00     0.042 C 
BRANCH  17  18
ATOM     18  C   UNL     1     104.745  84.884  15.911  1.00  0.00     0.233 C 
BRANCH  18  19
ATOM     19  O   UNL     1     105.358  86.170  15.988  1.00  0.00    -0.466 OA
BRANCH  19  20
ATOM     20  C   UNL     1     106.721  86.387  15.761  1.00  0.00     0.302 C 
ATOM     21  O   UNL     1     107.234  86.158  14.633  1.00  0.00    -0.253 OA
ATOM     22  C   UNL     1     107.567  86.937  16.858  1.00  0.00     0.139 C 
ENDBRANCH  19  20
ENDBRANCH  18  19
ENDBRANCH  17  18
ENDBRANCH  16  17
ENDBRANCH  15  16
ENDBRANCH  14  15
ENDBRANCH  13  14
ENDBRANCH   1  13
TORSDOF 16
ENDMDL
MODEL 2
REMARK VINA RESULT:    -2.923      1.536      3.081
REMARK INTER + INTRA:          -9.090
REMARK INTER:                  -5.536
REMARK INTRA:                  -3.554
REMARK UNBOUND:                -3.433
REMARK SMILES CCCCCC=CCC=CCCCCCCCCOC(C)=O
REMARK SMILES IDX 12 1 11 2 10 3 9 4 8 5 7 6 6 7 5 8 4 9 3 10 2 11 1 12 13 13
REMARK SMILES IDX 14 14 15 15 16 16 17 17 18 18 19 19 20 20 22 21 21 22
REMARK H PARENT
REMARK Flexibility Score: inf
ROOT
ATOM      1  C   UNL     1     103.168  81.310  16.862  1.00  0.00     0.004 C 
ENDROOT
BRANCH   1   2
ATOM      2  C   UNL     1     103.468  80.472  18.110  1.00  0.00     0.027 C 
BRANCH   2   3
ATOM      3  C   UNL     1     102.809  81.061  19.326  1.00  0.00    -0.031 C 
ATOM      4  C   UNL     1     102.237  82.274  19.296  1.00  0.00    -0.027 C 
BRANCH   4   5
ATOM      5  C   UNL     1     101.576  82.858  20.511  1.00  0.00     0.054 C 
BRANCH   5   6
ATOM      6  C   UNL     1     102.013  84.290  20.698  1.00  0.00    -0.027 C 
ATOM      7  C   UNL     1     102.923  84.714  21.594  1.00  0.00    -0.031 C 
BRANCH   7   8
ATOM      8  C   UNL     1     103.708  83.819  22.522  1.00  0.00     0.027 C 
BRANCH   8   9
ATOM      9  C   UNL     1     105.163  83.626  22.063  1.00  0.00     0.004 C 
BRANCH   9  10
ATOM     10  C   UNL     1     105.557  82.158  21.817  1.00  0.00     0.000 C 
BRANCH  10  11
ATOM     11  C   UNL     1     104.640  81.166  22.546  1.00  0.00    -0.003 C 
ATOM     12  C   UNL     1     105.303  80.634  23.814  1.00  0.00     0.004 C 
ENDBRANCH  10  11
ENDBRANCH   9  10
ENDBRANCH   8   9
ENDBRANCH   7   8
ENDBRANCH   5   6
ENDBRANCH   4   5
ENDBRANCH   2   3
ENDBRANCH   1   2
BRANCH   1  13
ATOM     13  C   UNL     1     104.424  81.470  15.994  1.00  0.00     0.000 C 
BRANCH  13  14
ATOM     14  C   UNL     1     105.711  81.630  16.824  1.00  0.00     0.000 C 
BRANCH  14  15
ATOM     15  C   UNL     1     106.144  83.086  17.080  1.00  0.00     0.000 C 
BRANCH  15  16
ATOM     16  C   UNL     1     105.611  83.644  18.408  1.00  0.00     0.003 C 
BRANCH  16  17
ATOM     17  C   UNL     1     104.617  84.786  18.165  1.00  0.00     0.042 C 
BRANCH  17  18
ATOM     18  C   UNL     1     104.922  85.508  16.850  1.00  0.00     0.233 C 
BRANCH  18  19
ATOM     19  O   UNL     1     103.713  85.879  16.190  1.00  0.00    -0.466 OA
BRANCH  19  20
ATOM     20  C   UNL     1     102.803  84.951  15.671  1.00  0.00     0.302 C 
ATOM     21  O   UNL     1     103.044  84.342  14.594  1.00  0.00    -0.253 OA
ATOM     22  C   UNL     1     101.555  84.648  16.426  1.00  0.00     0.139 C 
ENDBRANCH  19  20
ENDBRANCH  18  19
ENDBRANCH  17  18
ENDBRANCH  16  17
ENDBRANCH  15  16
ENDBRANCH  14  15
ENDBRANCH  13  14
ENDBRANCH   1  13
TORSDOF 16
ENDMDL
MODEL 3
REMARK VINA RESULT:    -2.916      4.060      6.875
REMARK INTER + INTRA:          -9.076
REMARK INTER:                  -5.896
REMARK INTRA:                  -3.180
REMARK UNBOUND:                -3.433
REMARK SMILES CCCCCC=CCC=CCCCCCCCCOC(C)=O
REMARK SMILES IDX 12 1 11 2 10 3 9 4 8 5 7 6 6 7 5 8 4 9 3 10 2 11 1 12 13 13
REMARK SMILES IDX 14 14 15 15 16 16 17 17 18 18 19 19 20 20 22 21 21 22
REMARK H PARENT
REMARK Flexibility Score: inf
ROOT
ATOM      1  C   UNL     1     102.381  84.953  19.638  1.00  0.00     0.004 C 
ENDROOT
BRANCH   1   2
ATOM      2  C   UNL     1     101.581  83.709  20.045  1.00  0.00     0.027 C 
BRANCH   2   3
ATOM      3  C   UNL     1     102.238  82.456  19.537  1.00  0.00    -0.031 C 
ATOM      4  C   UNL     1     102.339  81.357  20.301  1.00  0.00    -0.027 C 
BRANCH   4   5
ATOM      5  C   UNL     1     102.992  80.105  19.789  1.00  0.00     0.054 C 
BRANCH   5   6
ATOM      6  C   UNL     1     104.344  79.929  20.433  1.00  0.00    -0.027 C 
ATOM      7  C   UNL     1     105.514  80.341  19.910  1.00  0.00    -0.031 C 
BRANCH   7   8
ATOM      8  C   UNL     1     105.664  81.106  18.618  1.00  0.00     0.027 C 
BRANCH   8   9
ATOM      9  C   UNL     1     105.843  80.180  17.402  1.00  0.00     0.004 C 
BRANCH   9  10
ATOM     10  C   UNL     1     105.173  80.694  16.115  1.00  0.00     0.000 C 
BRANCH  10  11
ATOM     11  C   UNL     1     103.668  80.947  16.287  1.00  0.00    -0.003 C 
ATOM     12  C   UNL     1     103.334  82.424  16.097  1.00  0.00     0.004 C 
ENDBRANCH  10  11
ENDBRANCH   9  10
ENDBRANCH   8   9
ENDBRANCH   7   8
ENDBRANCH   5   6
ENDBRANCH   4   5
ENDBRANCH   2   3
ENDBRANCH   1   2
BRANCH   1  13
ATOM     13  C   UNL     1     103.880  84.750  19.895  1.00  0.00     0.000 C 
BRANCH  13  14
ATOM     14  C   UNL     1     104.226  84.660  21.393  1.00  0.00     0.000 C 
BRANCH  14  15
ATOM     15  C   UNL     1     105.230  83.554  21.765  1.00  0.00     0.000 C 
BRANCH  15  16
ATOM     16  C   UNL     1     104.774  82.712  22.966  1.00  0.00     0.003 C 
BRANCH  16  17
ATOM     17  C   UNL     1     103.388  83.152  23.451  1.00  0.00     0.042 C 
BRANCH  17  18
ATOM     18  C   UNL     1     102.605  81.967  24.024  1.00  0.00     0.233 C 
BRANCH  18  19
ATOM     19  O   UNL     1     103.141  81.576  25.287  1.00  0.00    -0.466 OA
BRANCH  19  20
ATOM     20  C   UNL     1     103.325  82.464  26.353  1.00  0.00     0.302 C 
ATOM     21  O   UNL     1     104.482  82.813  26.712  1.00  0.00    -0.253 OA
ATOM     22  C   UNL     1     102.134  83.038  27.042  1.00  0.00     0.139 C 
ENDBRANCH  19  20
ENDBRANCH  18  19
ENDBRANCH  17  18
ENDBRANCH  16  17
ENDBRANCH  15  16
ENDBRANCH  14  15
ENDBRANCH  13  14
ENDBRANCH   1  13
TORSDOF 16
ENDMDL
MODEL 4
REMARK VINA RESULT:    -2.898      1.421      2.205
REMARK INTER + INTRA:          -9.041
REMARK INTER:                  -5.798
REMARK INTRA:                  -3.244
REMARK UNBOUND:                -3.433
REMARK SMILES CCCCCC=CCC=CCCCCCCCCOC(C)=O
REMARK SMILES IDX 12 1 11 2 10 3 9 4 8 5 7 6 6 7 5 8 4 9 3 10 2 11 1 12 13 13
REMARK SMILES IDX 14 14 15 15 16 16 17 17 18 18 19 19 20 20 22 21 21 22
REMARK H PARENT
REMARK Flexibility Score: inf
ROOT
ATOM      1  C   UNL     1     104.710  80.937  16.049  1.00  0.00     0.004 C 
ENDROOT
BRANCH   1   2
ATOM      2  C   UNL     1     103.425  80.276  16.563  1.00  0.00     0.027 C 
BRANCH   2   3
ATOM      3  C   UNL     1     103.464  80.110  18.056  1.00  0.00    -0.031 C 
ATOM      4  C   UNL     1     102.797  80.939  18.873  1.00  0.00    -0.027 C 
BRANCH   4   5
ATOM      5  C   UNL     1     102.834  80.768  20.364  1.00  0.00     0.054 C 
BRANCH   5   6
ATOM      6  C   UNL     1     104.232  80.421  20.809  1.00  0.00    -0.027 C 
ATOM      7  C   UNL     1     104.799  80.809  21.967  1.00  0.00    -0.031 C 
BRANCH   7   8
ATOM      8  C   UNL     1     104.107  81.606  23.046  1.00  0.00     0.027 C 
BRANCH   8   9
ATOM      9  C   UNL     1     104.800  82.951  23.321  1.00  0.00     0.004 C 
BRANCH   9  10
ATOM     10  C   UNL     1     104.999  83.825  22.070  1.00  0.00     0.000 C 
BRANCH  10  11
ATOM     11  C   UNL     1     103.799  84.737  21.783  1.00  0.00    -0.003 C 
ATOM     12  C   UNL     1     103.200  84.443  20.411  1.00  0.00     0.004 C 
ENDBRANCH  10  11
ENDBRANCH   9  10
ENDBRANCH   8   9
ENDBRANCH   7   8
ENDBRANCH   5   6
ENDBRANCH   4   5
ENDBRANCH   2   3
ENDBRANCH   1   2
BRANCH   1  13
ATOM     13  C   UNL     1     105.883  80.671  17.003  1.00  0.00     0.000 C 
BRANCH  13  14
ATOM     14  C   UNL     1     106.592  81.960  17.457  1.00  0.00     0.000 C 
BRANCH  14  15
ATOM     15  C   UNL     1     105.684  82.996  18.145  1.00  0.00     0.000 C 
BRANCH  15  16
ATOM     16  C   UNL     1     105.917  84.426  17.637  1.00  0.00     0.003 C 
BRANCH  16  17
ATOM     17  C   UNL     1     106.389  84.422  16.178  1.00  0.00     0.042 C 
BRANCH  17  18
ATOM     18  C   UNL     1     105.360  85.096  15.266  1.00  0.00     0.233 C 
BRANCH  18  19
ATOM     19  O   UNL     1     104.276  84.210  14.992  1.00  0.00    -0.466 OA
BRANCH  19  20
ATOM     20  C   UNL     1     102.948  84.493  15.328  1.00  0.00     0.302 C 
ATOM     21  O   UNL     1     102.243  85.245  14.601  1.00  0.00    -0.253 OA
ATOM     22  C   UNL     1     102.348  83.862  16.537  1.00  0.00     0.139 C 
ENDBRANCH  19  20
ENDBRANCH  18  19
ENDBRANCH  17  18
ENDBRANCH  16  17
ENDBRANCH  15  16
ENDBRANCH  14  15
ENDBRANCH  13  14
ENDBRANCH   1  13
TORSDOF 16
ENDMDL
MODEL 5
REMARK VINA RESULT:    -2.862      2.613      4.872
REMARK INTER + INTRA:          -8.971
REMARK INTER:                  -5.839
REMARK INTRA:                  -3.132
REMARK UNBOUND:                -3.433
REMARK SMILES CCCCCC=CCC=CCCCCCCCCOC(C)=O
REMARK SMILES IDX 12 1 11 2 10 3 9 4 8 5 7 6 6 7 5 8 4 9 3 10 2 11 1 12 13 13
REMARK SMILES IDX 14 14 15 15 16 16 17 17 18 18 19 19 20 20 22 21 21 22
REMARK H PARENT
REMARK Flexibility Score: inf
ROOT
ATOM      1  C   UNL     1     104.215  84.130  21.429  1.00  0.00     0.004 C 
ENDROOT
BRANCH   1   2
ATOM      2  C   UNL     1     105.329  83.618  22.351  1.00  0.00     0.027 C 
BRANCH   2   3
ATOM      3  C   UNL     1     104.757  82.883  23.530  1.00  0.00    -0.031 C 
ATOM      4  C   UNL     1     104.651  81.546  23.540  1.00  0.00    -0.027 C 
BRANCH   4   5
ATOM      5  C   UNL     1     104.083  80.813  24.722  1.00  0.00     0.054 C 
BRANCH   5   6
ATOM      6  C   UNL     1     103.897  81.765  25.877  1.00  0.00    -0.027 C 
ATOM      7  C   UNL     1     102.756  82.414  26.172  1.00  0.00    -0.031 C 
BRANCH   7   8
ATOM      8  C   UNL     1     101.449  82.252  25.434  1.00  0.00     0.027 C 
BRANCH   8   9
ATOM      9  C   UNL     1     101.102  83.480  24.574  1.00  0.00     0.004 C 
BRANCH   9  10
ATOM     10  C   UNL     1     100.977  83.180  23.070  1.00  0.00     0.000 C 
BRANCH  10  11
ATOM     11  C   UNL     1     101.020  81.678  22.756  1.00  0.00    -0.003 C 
ATOM     12  C   UNL     1     101.527  81.428  21.338  1.00  0.00     0.004 C 
ENDBRANCH  10  11
ENDBRANCH   9  10
ENDBRANCH   8   9
ENDBRANCH   7   8
ENDBRANCH   5   6
ENDBRANCH   4   5
ENDBRANCH   2   3
ENDBRANCH   1   2
BRANCH   1  13
ATOM     13  C   UNL     1     104.406  83.610  19.997  1.00  0.00     0.000 C 
BRANCH  13  14
ATOM     14  C   UNL     1     105.468  82.498  19.899  1.00  0.00     0.000 C 
BRANCH  14  15
ATOM     15  C   UNL     1     104.906  81.069  19.784  1.00  0.00     0.000 C 
BRANCH  15  16
ATOM     16  C   UNL     1     105.563  80.257  18.659  1.00  0.00     0.003 C 
BRANCH  16  17
ATOM     17  C   UNL     1     106.023  81.172  17.517  1.00  0.00     0.042 C 
BRANCH  17  18
ATOM     18  C   UNL     1     105.291  80.836  16.215  1.00  0.00     0.233 C 
BRANCH  18  19
ATOM     19  O   UNL     1     104.777  82.022  15.609  1.00  0.00    -0.466 OA
BRANCH  19  20
ATOM     20  C   UNL     1     104.008  82.966  16.298  1.00  0.00     0.302 C 
ATOM     21  O   UNL     1     104.387  84.164  16.393  1.00  0.00    -0.253 OA
ATOM     22  C   UNL     1     102.701  82.557  16.887  1.00  0.00     0.139 C 
ENDBRANCH  19  20
ENDBRANCH  18  19
ENDBRANCH  17  18
ENDBRANCH  16  17
ENDBRANCH  15  16
ENDBRANCH  14  15
ENDBRANCH  13  14
ENDBRANCH   1  13
TORSDOF 16
ENDMDL
MODEL 6
REMARK VINA RESULT:    -2.745      2.915      6.069
REMARK INTER + INTRA:          -8.746
REMARK INTER:                  -5.545
REMARK INTRA:                  -3.201
REMARK UNBOUND:                -3.433
REMARK SMILES CCCCCC=CCC=CCCCCCCCCOC(C)=O
REMARK SMILES IDX 12 1 11 2 10 3 9 4 8 5 7 6 6 7 5 8 4 9 3 10 2 11 1 12 13 13
REMARK SMILES IDX 14 14 15 15 16 16 17 17 18 18 19 19 20 20 22 21 21 22
REMARK H PARENT
REMARK Flexibility Score: inf
ROOT
ATOM      1  C   UNL     1     104.967  83.502  21.391  1.00  0.00     0.004 C 
ENDROOT
BRANCH   1   2
ATOM      2  C   UNL     1     105.522  82.175  20.859  1.00  0.00     0.027 C 
BRANCH   2   3
ATOM      3  C   UNL     1     104.609  81.587  19.820  1.00  0.00    -0.031 C 
ATOM      4  C   UNL     1     103.439  82.163  19.506  1.00  0.00    -0.027 C 
BRANCH   4   5
ATOM      5  C   UNL     1     102.531  81.577  18.463  1.00  0.00     0.054 C 
BRANCH   5   6
ATOM      6  C   UNL     1     103.325  80.715  17.514  1.00  0.00    -0.027 C 
ATOM      7  C   UNL     1     103.786  81.104  16.311  1.00  0.00    -0.031 C 
BRANCH   7   8
ATOM      8  C   UNL     1     103.639  82.491  15.734  1.00  0.00     0.027 C 
BRANCH   8   9
ATOM      9  C   UNL     1     104.993  83.201  15.557  1.00  0.00     0.004 C 
BRANCH   9  10
ATOM     10  C   UNL     1     105.852  83.245  16.834  1.00  0.00     0.000 C 
BRANCH  10  11
ATOM     11  C   UNL     1     106.081  84.673  17.349  1.00  0.00    -0.003 C 
ATOM     12  C   UNL     1     104.847  85.199  18.077  1.00  0.00     0.004 C 
ENDBRANCH  10  11
ENDBRANCH   9  10
ENDBRANCH   8   9
ENDBRANCH   7   8
ENDBRANCH   5   6
ENDBRANCH   4   5
ENDBRANCH   2   3
ENDBRANCH   1   2
BRANCH   1  13
ATOM     13  C   UNL     1     105.150  83.603  22.912  1.00  0.00     0.000 C 
BRANCH  13  14
ATOM     14  C   UNL     1     104.669  82.345  23.660  1.00  0.00     0.000 C 
BRANCH  14  15
ATOM     15  C   UNL     1     103.187  82.362  24.076  1.00  0.00     0.000 C 
BRANCH  15  16
ATOM     16  C   UNL     1     102.276  81.635  23.076  1.00  0.00     0.003 C 
BRANCH  16  17
ATOM     17  C   UNL     1     101.262  82.602  22.452  1.00  0.00     0.042 C 
BRANCH  17  18
ATOM     18  C   UNL     1     101.419  84.011  23.030  1.00  0.00     0.233 C 
BRANCH  18  19
ATOM     19  O   UNL     1     101.558  84.970  21.983  1.00  0.00    -0.466 OA
BRANCH  19  20
ATOM     20  C   UNL     1     101.909  86.306  22.205  1.00  0.00     0.302 C 
ATOM     21  O   UNL     1     101.134  87.083  22.825  1.00  0.00    -0.253 OA
ATOM     22  C   UNL     1     103.234  86.802  21.739  1.00  0.00     0.139 C 
ENDBRANCH  19  20
ENDBRANCH  18  19
ENDBRANCH  17  18
ENDBRANCH  16  17
ENDBRANCH  15  16
ENDBRANCH  14  15
ENDBRANCH  13  14
ENDBRANCH   1  13
TORSDOF 16
ENDMDL
MODEL 7
REMARK VINA RESULT:    -2.733      2.915      5.050
REMARK INTER + INTRA:          -8.722
REMARK INTER:                  -6.081
REMARK INTRA:                  -2.641
REMARK UNBOUND:                -3.433
REMARK SMILES CCCCCC=CCC=CCCCCCCCCOC(C)=O
REMARK SMILES IDX 12 1 11 2 10 3 9 4 8 5 7 6 6 7 5 8 4 9 3 10 2 11 1 12 13 13
REMARK SMILES IDX 14 14 15 15 16 16 17 17 18 18 19 19 20 20 22 21 21 22
REMARK H PARENT
REMARK Flexibility Score: inf
ROOT
ATOM      1  C   UNL     1     105.716  82.362  21.655  1.00  0.00     0.004 C 
ENDROOT
BRANCH   1   2
ATOM      2  C   UNL     1     105.153  83.535  22.466  1.00  0.00     0.027 C 
BRANCH   2   3
ATOM      3  C   UNL     1     104.726  83.087  23.836  1.00  0.00    -0.031 C 
ATOM      4  C   UNL     1     104.388  81.813  24.084  1.00  0.00    -0.027 C 
BRANCH   4   5
ATOM      5  C   UNL     1     103.966  81.367  25.455  1.00  0.00     0.054 C 
BRANCH   5   6
ATOM      6  C   UNL     1     103.288  82.502  26.180  1.00  0.00    -0.027 C 
ATOM      7  C   UNL     1     101.984  82.820  26.079  1.00  0.00    -0.031 C 
BRANCH   7   8
ATOM      8  C   UNL     1     100.965  82.055  25.270  1.00  0.00     0.027 C 
BRANCH   8   9
ATOM      9  C   UNL     1     100.831  82.589  23.834  1.00  0.00     0.004 C 
BRANCH   9  10
ATOM     10  C   UNL     1     101.132  84.092  23.691  1.00  0.00     0.000 C 
BRANCH  10  11
ATOM     11  C   UNL     1     101.402  84.510  22.239  1.00  0.00    -0.003 C 
ATOM     12  C   UNL     1     100.142  84.380  21.386  1.00  0.00     0.004 C 
ENDBRANCH  10  11
ENDBRANCH   9  10
ENDBRANCH   8   9
ENDBRANCH   7   8
ENDBRANCH   5   6
ENDBRANCH   4   5
ENDBRANCH   2   3
ENDBRANCH   1   2
BRANCH   1  13
ATOM     13  C   UNL     1     104.999  82.236  20.303  1.00  0.00     0.000 C 
BRANCH  13  14
ATOM     14  C   UNL     1     103.947  81.111  20.284  1.00  0.00     0.000 C 
BRANCH  14  15
ATOM     15  C   UNL     1     102.496  81.580  20.074  1.00  0.00     0.000 C 
BRANCH  15  16
ATOM     16  C   UNL     1     102.370  82.674  19.004  1.00  0.00     0.003 C 
BRANCH  16  17
ATOM     17  C   UNL     1     102.672  82.116  17.609  1.00  0.00     0.042 C 
BRANCH  17  18
ATOM     18  C   UNL     1     103.726  82.965  16.894  1.00  0.00     0.233 C 
BRANCH  18  19
ATOM     19  O   UNL     1     104.448  82.177  15.948  1.00  0.00    -0.466 OA
BRANCH  19  20
ATOM     20  C   UNL     1     105.025  80.941  16.258  1.00  0.00     0.302 C 
ATOM     21  O   UNL     1     104.580  79.875  15.753  1.00  0.00    -0.253 OA
ATOM     22  C   UNL     1     106.207  80.891  17.164  1.00  0.00     0.139 C 
ENDBRANCH  19  20
ENDBRANCH  18  19
ENDBRANCH  17  18
ENDBRANCH  16  17
ENDBRANCH  15  16
ENDBRANCH  14  15
ENDBRANCH  13  14
ENDBRANCH   1  13
TORSDOF 16
ENDMDL
MODEL 8
REMARK VINA RESULT:    -2.702      2.283      4.928
REMARK INTER + INTRA:          -8.663
REMARK INTER:                  -5.327
REMARK INTRA:                  -3.336
REMARK UNBOUND:                -3.433
REMARK SMILES CCCCCC=CCC=CCCCCCCCCOC(C)=O
REMARK SMILES IDX 12 1 11 2 10 3 9 4 8 5 7 6 6 7 5 8 4 9 3 10 2 11 1 12 13 13
REMARK SMILES IDX 14 14 15 15 16 16 17 17 18 18 19 19 20 20 22 21 21 22
REMARK H PARENT
REMARK Flexibility Score: inf
ROOT
ATOM      1  C   UNL     1     104.609  82.273  24.671  1.00  0.00     0.004 C 
ENDROOT
BRANCH   1   2
ATOM      2  C   UNL     1     103.340  81.429  24.845  1.00  0.00     0.027 C 
BRANCH   2   3
ATOM      3  C   UNL     1     102.410  81.607  23.678  1.00  0.00    -0.031 C 
ATOM      4  C   UNL     1     102.128  80.593  22.845  1.00  0.00    -0.027 C 
BRANCH   4   5
ATOM      5  C   UNL     1     101.195  80.772  21.682  1.00  0.00     0.054 C 
BRANCH   5   6
ATOM      6  C   UNL     1     101.928  81.403  20.524  1.00  0.00    -0.027 C 
ATOM      7  C   UNL     1     101.762  82.667  20.095  1.00  0.00    -0.031 C 
BRANCH   7   8
ATOM      8  C   UNL     1     100.859  83.690  20.740  1.00  0.00     0.027 C 
BRANCH   8   9
ATOM      9  C   UNL     1     101.623  84.645  21.674  1.00  0.00     0.004 C 
BRANCH   9  10
ATOM     10  C   UNL     1     102.105  85.939  20.994  1.00  0.00     0.000 C 
BRANCH  10  11
ATOM     11  C   UNL     1     103.634  86.045  20.930  1.00  0.00    -0.003 C 
ATOM     12  C   UNL     1     104.169  85.496  19.610  1.00  0.00     0.004 C 
ENDBRANCH  10  11
ENDBRANCH   9  10
ENDBRANCH   8   9
ENDBRANCH   7   8
ENDBRANCH   5   6
ENDBRANCH   4   5
ENDBRANCH   2   3
ENDBRANCH   1   2
BRANCH   1  13
ATOM     13  C   UNL     1     104.426  83.316  23.560  1.00  0.00     0.000 C 
BRANCH  13  14
ATOM     14  C   UNL     1     105.547  83.273  22.505  1.00  0.00     0.000 C 
BRANCH  14  15
ATOM     15  C   UNL     1     105.251  82.394  21.275  1.00  0.00     0.000 C 
BRANCH  15  16
ATOM     16  C   UNL     1     106.440  81.511  20.872  1.00  0.00     0.003 C 
BRANCH  16  17
ATOM     17  C   UNL     1     106.078  80.612  19.683  1.00  0.00     0.042 C 
BRANCH  17  18
ATOM     18  C   UNL     1     107.039  80.838  18.512  1.00  0.00     0.233 C 
BRANCH  18  19
ATOM     19  O   UNL     1     106.333  81.326  17.372  1.00  0.00    -0.466 OA
BRANCH  19  20
ATOM     20  C   UNL     1     105.661  82.553  17.349  1.00  0.00     0.302 C 
ATOM     21  O   UNL     1     106.299  83.640  17.394  1.00  0.00    -0.253 OA
ATOM     22  C   UNL     1     104.176  82.573  17.228  1.00  0.00     0.139 C 
ENDBRANCH  19  20
ENDBRANCH  18  19
ENDBRANCH  17  18
ENDBRANCH  16  17
ENDBRANCH  15  16
ENDBRANCH  14  15
ENDBRANCH  13  14
ENDBRANCH   1  13
TORSDOF 16
ENDMDL
MODEL 9
REMARK VINA RESULT:    -2.678      1.621      2.536
REMARK INTER + INTRA:          -8.617
REMARK INTER:                  -5.123
REMARK INTRA:                  -3.493
REMARK UNBOUND:                -3.433
REMARK SMILES CCCCCC=CCC=CCCCCCCCCOC(C)=O
REMARK SMILES IDX 12 1 11 2 10 3 9 4 8 5 7 6 6 7 5 8 4 9 3 10 2 11 1 12 13 13
REMARK SMILES IDX 14 14 15 15 16 16 17 17 18 18 19 19 20 20 22 21 21 22
REMARK H PARENT
REMARK Flexibility Score: inf
ROOT
ATOM      1  C   UNL     1     106.053  81.720  18.780  1.00  0.00     0.004 C 
ENDROOT
BRANCH   1   2
ATOM      2  C   UNL     1     105.650  80.409  19.466  1.00  0.00     0.027 C 
BRANCH   2   3
ATOM      3  C   UNL     1     104.519  80.632  20.431  1.00  0.00    -0.031 C 
ATOM      4  C   UNL     1     103.262  80.263  20.137  1.00  0.00    -0.027 C 
BRANCH   4   5
ATOM      5  C   UNL     1     102.135  80.482  21.105  1.00  0.00     0.054 C 
BRANCH   5   6
ATOM      6  C   UNL     1     101.538  81.851  20.899  1.00  0.00    -0.027 C 
ATOM      7  C   UNL     1     101.837  82.946  21.621  1.00  0.00    -0.031 C 
BRANCH   7   8
ATOM      8  C   UNL     1     102.870  83.005  22.720  1.00  0.00     0.027 C 
BRANCH   8   9
ATOM      9  C   UNL     1     103.926  84.097  22.478  1.00  0.00     0.004 C 
BRANCH   9  10
ATOM     10  C   UNL     1     104.346  84.252  21.005  1.00  0.00     0.000 C 
BRANCH  10  11
ATOM     11  C   UNL     1     104.081  85.661  20.455  1.00  0.00    -0.003 C 
ATOM     12  C   UNL     1     103.322  86.513  21.469  1.00  0.00     0.004 C 
ENDBRANCH  10  11
ENDBRANCH   9  10
ENDBRANCH   8   9
ENDBRANCH   7   8
ENDBRANCH   5   6
ENDBRANCH   4   5
ENDBRANCH   2   3
ENDBRANCH   1   2
BRANCH   1  13
ATOM     13  C   UNL     1     106.170  81.530  17.261  1.00  0.00     0.000 C 
BRANCH  13  14
ATOM     14  C   UNL     1     104.972  80.774  16.656  1.00  0.00     0.000 C 
BRANCH  14  15
ATOM     15  C   UNL     1     103.835  81.670  16.130  1.00  0.00     0.000 C 
BRANCH  15  16
ATOM     16  C   UNL     1     102.756  81.948  17.187  1.00  0.00     0.003 C 
BRANCH  16  17
ATOM     17  C   UNL     1     102.820  83.403  17.667  1.00  0.00     0.042 C 
BRANCH  17  18
ATOM     18  C   UNL     1     102.927  84.368  16.483  1.00  0.00     0.233 C 
BRANCH  18  19
ATOM     19  O   UNL     1     103.944  85.340  16.719  1.00  0.00    -0.466 OA
BRANCH  19  20
ATOM     20  C   UNL     1     105.310  85.074  16.575  1.00  0.00     0.302 C 
ATOM     21  O   UNL     1     106.079  85.079  17.574  1.00  0.00    -0.253 OA
ATOM     22  C   UNL     1     105.853  84.738  15.229  1.00  0.00     0.139 C 
ENDBRANCH  19  20
ENDBRANCH  18  19
ENDBRANCH  17  18
ENDBRANCH  16  17
ENDBRANCH  15  16
ENDBRANCH  14  15
ENDBRANCH  13  14
ENDBRANCH   1  13
TORSDOF 16
ENDMDL
