MODEL 1
REMARK VINA RESULT:    -2.580      0.000      0.000
REMARK INTER + INTRA:          -3.574
REMARK INTER:                  -3.410
REMARK INTRA:                  -0.164
REMARK UNBOUND:                -0.164
REMARK SMILES CCCCCCCO
REMARK SMILES IDX 5 1 4 2 3 3 2 4 1 5 6 6 7 7 8 8
REMARK H PARENT 8 9
REMARK Flexibility Score: inf
ROOT
ATOM      1  C   UNL     1     112.985 122.655 108.405  1.00  0.00     0.002 C 
ENDROOT
BRANCH   1   2
ATOM      2  C   UNL     1     111.763 123.584 108.426  1.00  0.00     0.000 C 
BRANCH   2   3
ATOM      3  C   UNL     1     111.430 124.018 109.862  1.00  0.00    -0.000 C 
BRANCH   3   4
ATOM      4  C   UNL     1     109.937 124.325 110.055  1.00  0.00    -0.003 C 
ATOM      5  C   UNL     1     109.358 125.182 108.930  1.00  0.00     0.004 C 
ENDBRANCH   3   4
ENDBRANCH   2   3
ENDBRANCH   1   2
BRANCH   1   6
ATOM      6  C   UNL     1     113.188 121.912 109.736  1.00  0.00     0.028 C 
BRANCH   6   7
ATOM      7  C   UNL     1     113.000 120.396 109.603  1.00  0.00     0.156 C 
BRANCH   7   8
ATOM      8  O   UNL     1     113.725 119.732 110.602  1.00  0.00    -0.396 OA
ATOM      9  H   UNL     1     113.398 120.082 111.471  1.00  0.00     0.210 HD
ENDBRANCH   7   8
ENDBRANCH   6   7
ENDBRANCH   1   6
TORSDOF 6
ENDMDL
MODEL 2
REMARK VINA RESULT:    -2.545     13.033     13.868
REMARK INTER + INTRA:          -3.527
REMARK INTER:                  -3.302
REMARK INTRA:                  -0.226
REMARK UNBOUND:                -0.164
REMARK SMILES CCCCCCCO
REMARK SMILES IDX 5 1 4 2 3 3 2 4 1 5 6 6 7 7 8 8
REMARK H PARENT 8 9
REMARK Flexibility Score: inf
ROOT
ATOM      1  C   UNL     1     117.653 109.682 108.420  1.00  0.00     0.002 C 
ENDROOT
BRANCH   1   2
ATOM      2  C   UNL     1     116.637 110.691 107.865  1.00  0.00     0.000 C 
BRANCH   2   3
ATOM      3  C   UNL     1     115.260 110.035 107.679  1.00  0.00    -0.000 C 
BRANCH   3   4
ATOM      4  C   UNL     1     114.958 108.982 108.757  1.00  0.00    -0.003 C 
ATOM      5  C   UNL     1     114.540 107.635 108.169  1.00  0.00     0.004 C 
ENDBRANCH   3   4
ENDBRANCH   2   3
ENDBRANCH   1   2
BRANCH   1   6
ATOM      6  C   UNL     1     118.423 110.224 109.636  1.00  0.00     0.028 C 
BRANCH   6   7
ATOM      7  C   UNL     1     118.655 111.738 109.564  1.00  0.00     0.156 C 
BRANCH   7   8
ATOM      8  O   UNL     1     118.217 112.349 110.746  1.00  0.00    -0.396 OA
ATOM      9  H   UNL     1     119.023 112.723 111.189  1.00  0.00     0.210 HD
ENDBRANCH   7   8
ENDBRANCH   6   7
ENDBRANCH   1   6
TORSDOF 6
ENDMDL
MODEL 3
REMARK VINA RESULT:    -2.533     10.133     12.763
REMARK INTER + INTRA:          -3.512
REMARK INTER:                  -3.347
REMARK INTRA:                  -0.164
REMARK UNBOUND:                -0.164
REMARK SMILES CCCCCCCO
REMARK SMILES IDX 5 1 4 2 3 3 2 4 1 5 6 6 7 7 8 8
REMARK H PARENT 8 9
REMARK Flexibility Score: inf
ROOT
ATOM      1  C   UNL     1     122.344 117.508 108.381  1.00  0.00     0.002 C 
ENDROOT
BRANCH   1   2
ATOM      2  C   UNL     1     121.644 116.148 108.243  1.00  0.00     0.000 C 
BRANCH   2   3
ATOM      3  C   UNL     1     122.604 115.001 108.593  1.00  0.00    -0.000 C 
BRANCH   3   4
ATOM      4  C   UNL     1     123.708 114.813 107.540  1.00  0.00    -0.003 C 
ATOM      5  C   UNL     1     125.057 114.444 108.156  1.00  0.00     0.004 C 
ENDBRANCH   3   4
ENDBRANCH   2   3
ENDBRANCH   1   2
BRANCH   1   6
ATOM      6  C   UNL     1     121.766 118.358 109.524  1.00  0.00     0.028 C 
BRANCH   6   7
ATOM      7  C   UNL     1     120.245 118.527 109.428  1.00  0.00     0.156 C 
BRANCH   7   8
ATOM      8  O   UNL     1     119.649 118.232 110.662  1.00  0.00    -0.396 OA
ATOM      9  H   UNL     1     118.803 117.752 110.462  1.00  0.00     0.210 HD
ENDBRANCH   7   8
ENDBRANCH   6   7
ENDBRANCH   1   6
TORSDOF 6
ENDMDL
MODEL 4
REMARK VINA RESULT:    -2.531      2.737      4.630
REMARK INTER + INTRA:          -3.509
REMARK INTER:                  -3.341
REMARK INTRA:                  -0.169
REMARK UNBOUND:                -0.164
REMARK SMILES CCCCCCCO
REMARK SMILES IDX 5 1 4 2 3 3 2 4 1 5 6 6 7 7 8 8
REMARK H PARENT 8 9
REMARK Flexibility Score: inf
ROOT
ATOM      1  C   UNL     1     114.021 122.366 108.555  1.00  0.00     0.002 C 
ENDROOT
BRANCH   1   2
ATOM      2  C   UNL     1     115.157 121.423 108.131  1.00  0.00     0.000 C 
BRANCH   2   3
ATOM      3  C   UNL     1     116.353 122.219 107.587  1.00  0.00    -0.000 C 
BRANCH   3   4
ATOM      4  C   UNL     1     117.082 123.013 108.683  1.00  0.00    -0.003 C 
ATOM      5  C   UNL     1     117.454 124.428 108.242  1.00  0.00     0.004 C 
ENDBRANCH   3   4
ENDBRANCH   2   3
ENDBRANCH   1   2
BRANCH   1   6
ATOM      6  C   UNL     1     113.126 121.761 109.650  1.00  0.00     0.028 C 
BRANCH   6   7
ATOM      7  C   UNL     1     113.120 120.228 109.631  1.00  0.00     0.156 C 
BRANCH   7   8
ATOM      8  O   UNL     1     113.727 119.729 110.791  1.00  0.00    -0.396 OA
ATOM      9  H   UNL     1     113.656 120.441 111.478  1.00  0.00     0.210 HD
ENDBRANCH   7   8
ENDBRANCH   6   7
ENDBRANCH   1   6
TORSDOF 6
ENDMDL
MODEL 5
REMARK VINA RESULT:    -2.525      9.851     11.734
REMARK INTER + INTRA:          -3.501
REMARK INTER:                  -3.325
REMARK INTRA:                  -0.176
REMARK UNBOUND:                -0.164
REMARK SMILES CCCCCCCO
REMARK SMILES IDX 5 1 4 2 3 3 2 4 1 5 6 6 7 7 8 8
REMARK H PARENT 8 9
REMARK Flexibility Score: inf
ROOT
ATOM      1  C   UNL     1     109.507 112.504 108.333  1.00  0.00     0.002 C 
ENDROOT
BRANCH   1   2
ATOM      2  C   UNL     1     108.132 111.843 108.512  1.00  0.00     0.000 C 
BRANCH   2   3
ATOM      3  C   UNL     1     108.021 111.178 109.893  1.00  0.00    -0.000 C 
BRANCH   3   4
ATOM      4  C   UNL     1     107.576 109.710 109.807  1.00  0.00    -0.003 C 
ATOM      5  C   UNL     1     106.728 109.419 108.569  1.00  0.00     0.004 C 
ENDBRANCH   3   4
ENDBRANCH   2   3
ENDBRANCH   1   2
BRANCH   1   6
ATOM      6  C   UNL     1     110.158 112.890 109.671  1.00  0.00     0.028 C 
BRANCH   6   7
ATOM      7  C   UNL     1     111.668 113.124 109.550  1.00  0.00     0.156 C 
BRANCH   7   8
ATOM      8  O   UNL     1     112.161 113.707 110.725  1.00  0.00    -0.396 OA
ATOM      9  H   UNL     1     111.738 114.602 110.798  1.00  0.00     0.210 HD
ENDBRANCH   7   8
ENDBRANCH   6   7
ENDBRANCH   1   6
TORSDOF 6
ENDMDL
MODEL 6
REMARK VINA RESULT:    -2.517      6.898      8.431
REMARK INTER + INTRA:          -3.491
REMARK INTER:                  -3.326
REMARK INTRA:                  -0.165
REMARK UNBOUND:                -0.164
REMARK SMILES CCCCCCCO
REMARK SMILES IDX 5 1 4 2 3 3 2 4 1 5 6 6 7 7 8 8
REMARK H PARENT 8 9
REMARK Flexibility Score: inf
ROOT
ATOM      1  C   UNL     1     109.665 113.234 108.139  1.00  0.00     0.002 C 
ENDROOT
BRANCH   1   2
ATOM      2  C   UNL     1     108.846 114.525 107.996  1.00  0.00     0.000 C 
BRANCH   2   3
ATOM      3  C   UNL     1     109.767 115.753 107.927  1.00  0.00    -0.000 C 
BRANCH   3   4
ATOM      4  C   UNL     1     109.217 116.949 108.719  1.00  0.00    -0.003 C 
ATOM      5  C   UNL     1     107.817 117.363 108.269  1.00  0.00     0.004 C 
ENDBRANCH   3   4
ENDBRANCH   2   3
ENDBRANCH   1   2
BRANCH   1   6
ATOM      6  C   UNL     1     110.224 113.041 109.558  1.00  0.00     0.028 C 
BRANCH   6   7
ATOM      7  C   UNL     1     111.756 112.978 109.589  1.00  0.00     0.156 C 
BRANCH   7   8
ATOM      8  O   UNL     1     112.246 113.705 110.682  1.00  0.00    -0.396 OA
ATOM      9  H   UNL     1     111.480 114.218 111.049  1.00  0.00     0.210 HD
ENDBRANCH   7   8
ENDBRANCH   6   7
ENDBRANCH   1   6
TORSDOF 6
ENDMDL
MODEL 7
REMARK VINA RESULT:    -2.502      9.929     11.753
REMARK INTER + INTRA:          -3.471
REMARK INTER:                  -3.327
REMARK INTRA:                  -0.143
REMARK UNBOUND:                -0.164
REMARK SMILES CCCCCCCO
REMARK SMILES IDX 5 1 4 2 3 3 2 4 1 5 6 6 7 7 8 8
REMARK H PARENT 8 9
REMARK Flexibility Score: inf
ROOT
ATOM      1  C   UNL     1     122.457 119.294 108.307  1.00  0.00     0.002 C 
ENDROOT
BRANCH   1   2
ATOM      2  C   UNL     1     123.896 119.808 108.463  1.00  0.00     0.000 C 
BRANCH   2   3
ATOM      3  C   UNL     1     124.163 120.256 109.909  1.00  0.00    -0.000 C 
BRANCH   3   4
ATOM      4  C   UNL     1     124.297 121.781 110.039  1.00  0.00    -0.003 C 
ATOM      5  C   UNL     1     125.646 122.210 110.613  1.00  0.00     0.004 C 
ENDBRANCH   3   4
ENDBRANCH   2   3
ENDBRANCH   1   2
BRANCH   1   6
ATOM      6  C   UNL     1     121.812 118.922 109.653  1.00  0.00     0.028 C 
BRANCH   6   7
ATOM      7  C   UNL     1     120.280 118.993 109.616  1.00  0.00     0.156 C 
BRANCH   7   8
ATOM      8  O   UNL     1     119.738 118.261 110.680  1.00  0.00    -0.396 OA
ATOM      9  H   UNL     1     119.106 117.607 110.283  1.00  0.00     0.210 HD
ENDBRANCH   7   8
ENDBRANCH   6   7
ENDBRANCH   1   6
TORSDOF 6
ENDMDL
MODEL 8
REMARK VINA RESULT:    -2.492     12.960     16.090
REMARK INTER + INTRA:          -3.457
REMARK INTER:                  -3.360
REMARK INTRA:                  -0.097
REMARK UNBOUND:                -0.164
REMARK SMILES CCCCCCCO
REMARK SMILES IDX 5 1 4 2 3 3 2 4 1 5 6 6 7 7 8 8
REMARK H PARENT 8 9
REMARK Flexibility Score: inf
ROOT
ATOM      1  C   UNL     1     118.758 109.534 108.587  1.00  0.00     0.002 C 
ENDROOT
BRANCH   1   2
ATOM      2  C   UNL     1     119.776 109.267 109.707  1.00  0.00     0.000 C 
BRANCH   2   3
ATOM      3  C   UNL     1     120.343 107.843 109.602  1.00  0.00    -0.000 C 
BRANCH   3   4
ATOM      4  C   UNL     1     121.822 107.765 110.011  1.00  0.00    -0.003 C 
ATOM      5  C   UNL     1     122.646 106.872 109.083  1.00  0.00     0.004 C 
ENDBRANCH   3   4
ENDBRANCH   2   3
ENDBRANCH   1   2
BRANCH   1   6
ATOM      6  C   UNL     1     117.892 110.775 108.858  1.00  0.00     0.028 C 
BRANCH   6   7
ATOM      7  C   UNL     1     118.703 111.958 109.402  1.00  0.00     0.156 C 
BRANCH   7   8
ATOM      8  O   UNL     1     118.252 112.303 110.683  1.00  0.00    -0.396 OA
ATOM      9  H   UNL     1     118.869 113.003 111.022  1.00  0.00     0.210 HD
ENDBRANCH   7   8
ENDBRANCH   6   7
ENDBRANCH   1   6
TORSDOF 6
ENDMDL
MODEL 9
REMARK VINA RESULT:    -2.255      9.637     10.978
REMARK INTER + INTRA:          -3.144
REMARK INTER:                  -2.934
REMARK INTRA:                  -0.210
REMARK UNBOUND:                -0.164
REMARK SMILES CCCCCCCO
REMARK SMILES IDX 5 1 4 2 3 3 2 4 1 5 6 6 7 7 8 8
REMARK H PARENT 8 9
REMARK Flexibility Score: inf
ROOT
ATOM      1  C   UNL     1     109.284 112.222 109.624  1.00  0.00     0.002 C 
ENDROOT
BRANCH   1   2
ATOM      2  C   UNL     1     108.020 112.362 108.764  1.00  0.00     0.000 C 
BRANCH   2   3
ATOM      3  C   UNL     1     108.361 112.934 107.379  1.00  0.00    -0.000 C 
BRANCH   3   4
ATOM      4  C   UNL     1     108.904 111.866 106.416  1.00  0.00    -0.003 C 
ATOM      5  C   UNL     1     107.913 110.729 106.174  1.00  0.00     0.004 C 
ENDBRANCH   3   4
ENDBRANCH   2   3
ENDBRANCH   1   2
BRANCH   1   6
ATOM      6  C   UNL     1     110.194 113.458 109.546  1.00  0.00     0.028 C 
BRANCH   6   7
ATOM      7  C   UNL     1     111.685 113.101 109.581  1.00  0.00     0.156 C 
BRANCH   7   8
ATOM      8  O   UNL     1     112.306 113.728 110.669  1.00  0.00    -0.396 OA
ATOM      9  H   UNL     1     112.032 113.227 111.481  1.00  0.00     0.210 HD
ENDBRANCH   7   8
ENDBRANCH   6   7
ENDBRANCH   1   6
TORSDOF 6
ENDMDL
