MODEL 1
REMARK VINA RESULT:    77.283      0.000      0.000
REMARK INTER + INTRA:          90.447
REMARK INTER:                  90.837
REMARK INTRA:                  -0.389
REMARK UNBOUND:                -0.389
REMARK SMILES C=C(C)[C@@H]1CC[C@]2(CO)CC[C@@]3(C)[C@H](CC[C@H]4[C@]5(C)CC[C@@H](O)C(C)(C)[C@@H]5CC[C@]43C)[C@@H]12
REMARK SMILES IDX 4 1 5 2 6 3 7 4 32 5 14 6 15 7 16 8 17 9 18 10 20 11 21 12
REMARK SMILES IDX 22 13 24 14 27 15 28 16 29 17 30 18 12 19 11 20 10 21 13 22
REMARK SMILES IDX 31 23 25 24 26 25 19 26 2 27 3 28 1 29 8 30 9 31 23 33
REMARK H PARENT 9 32 23 34
REMARK Flexibility Score: inf
ROOT
ATOM      1  C   UNL     1       2.460   3.728  12.630  1.00  0.00     0.018 C 
ATOM      2  C   UNL     1       3.905   3.718  13.198  1.00  0.00     0.009 C 
ATOM      3  C   UNL     1       4.843   4.118  12.038  1.00  0.00     0.010 C 
ATOM      4  C   UNL     1       4.040   3.802  10.766  1.00  0.00    -0.003 C 
ATOM      5  C   UNL     1       2.645   4.300  11.216  1.00  0.00     0.008 C 
ATOM      6  C   UNL     1       1.633   4.105  10.064  1.00  0.00    -0.000 C 
ATOM      7  C   UNL     1       0.165   3.943  10.432  1.00  0.00     0.005 C 
ATOM      8  C   UNL     1      -0.546   5.254  10.596  1.00  0.00     0.005 C 
ATOM      9  C   UNL     1      -0.564   6.086   9.265  1.00  0.00     0.002 C 
ATOM     10  C   UNL     1      -1.638   7.283   9.393  1.00  0.00    -0.026 C 
ATOM     11  C   UNL     1      -1.986   7.946   8.017  1.00  0.00     0.010 C 
ATOM     12  C   UNL     1      -2.905   9.177   8.116  1.00  0.00     0.033 C 
ATOM     13  C   UNL     1      -2.341  10.240   9.079  1.00  0.00     0.120 C 
ATOM     14  C   UNL     1      -2.014   9.687  10.506  1.00  0.00    -0.006 C 
ATOM     15  C   UNL     1      -1.102   8.378  10.401  1.00  0.00     0.003 C 
ATOM     16  C   UNL     1       0.380   8.745  10.085  1.00  0.00     0.005 C 
ATOM     17  C   UNL     1       1.365   7.570   9.928  1.00  0.00     0.008 C 
ATOM     18  C   UNL     1       0.940   6.471   8.898  1.00  0.00    -0.024 C 
ATOM     19  C   UNL     1       1.922   5.145   8.893  1.00  0.00    -0.024 C 
ATOM     20  C   UNL     1       3.462   5.583   8.924  1.00  0.00     0.008 C 
ATOM     21  C   UNL     1       4.484   4.548   9.464  1.00  0.00     0.010 C 
ATOM     22  C   UNL     1       1.721   4.324   7.573  1.00  0.00     0.012 C 
ATOM     23  C   UNL     1       1.061   7.122   7.479  1.00  0.00     0.012 C 
ATOM     24  C   UNL     1      -1.282  10.812  11.295  1.00  0.00     0.014 C 
ATOM     25  C   UNL     1      -3.314   9.404  11.314  1.00  0.00     0.014 C 
ATOM     26  C   UNL     1      -2.982   6.642   9.893  1.00  0.00     0.012 C 
ENDROOT
BRANCH   1  27
ATOM     27  C   UNL     1       1.510   4.544  13.506  1.00  0.00    -0.077 C 
ATOM     28  C   UNL     1       0.523   3.882  14.440  1.00  0.00     0.039 C 
ATOM     29  C   UNL     1       1.508   5.884  13.426  1.00  0.00     0.008 C 
ENDBRANCH   1  27
BRANCH   4  30
ATOM     30  C   UNL     1       4.139   2.253  10.502  1.00  0.00     0.163 C 
BRANCH  30  31
ATOM     31  O   UNL     1       4.895   1.637  11.512  1.00  0.00    -0.396 OA
ATOM     32  H   UNL     1       4.323   1.625  12.323  1.00  0.00     0.210 HD
ENDBRANCH  30  31
ENDBRANCH   4  30
BRANCH  13  33
ATOM     33  O   UNL     1      -3.192  11.362   9.137  1.00  0.00    -0.393 OA
ATOM     34  H   UNL     1      -2.642  12.158   9.360  1.00  0.00     0.210 HD
ENDBRANCH  13  33
TORSDOF 4
ENDMDL
