MODEL 1
REMARK VINA RESULT:    -4.300      0.000      0.000
REMARK INTER + INTRA:         -14.029
REMARK INTER:                  -9.830
REMARK INTRA:                  -4.199
REMARK UNBOUND:                -4.199
REMARK SMILES CCCCCCCCCCCCCCCCCCCCCCCC(=O)[O-]
REMARK SMILES IDX 13 1 14 2 15 3 16 4 17 5 18 6 19 7 20 8 21 9 22 10 23 11
REMARK SMILES IDX 24 12 25 13 26 14 12 15 11 16 10 17 9 18 8 19 7 20 6 21 5 22
REMARK SMILES IDX 4 23 3 24 2 25 1 26
REMARK H PARENT
REMARK Flexibility Score: inf
ROOT
ATOM      1  C   UNL     1     -51.861  15.052 -30.687  1.00  0.00     0.000 C 
ENDROOT
BRANCH   1   2
ATOM      2  C   UNL     1     -53.163  15.035 -31.514  1.00  0.00     0.000 C 
BRANCH   2   3
ATOM      3  C   UNL     1     -53.600  13.645 -32.016  1.00  0.00     0.000 C 
BRANCH   3   4
ATOM      4  C   UNL     1     -54.862  13.081 -31.340  1.00  0.00     0.000 C 
BRANCH   4   5
ATOM      5  C   UNL     1     -54.544  12.005 -30.288  1.00  0.00     0.000 C 
BRANCH   5   6
ATOM      6  C   UNL     1     -55.114  12.351 -28.902  1.00  0.00     0.000 C 
BRANCH   6   7
ATOM      7  C   UNL     1     -54.386  13.534 -28.244  1.00  0.00     0.000 C 
BRANCH   7   8
ATOM      8  C   UNL     1     -55.281  14.791 -28.154  1.00  0.00     0.000 C 
BRANCH   8   9
ATOM      9  C   UNL     1     -54.490  16.111 -28.211  1.00  0.00     0.000 C 
BRANCH   9  10
ATOM     10  C   UNL     1     -55.363  17.379 -28.082  1.00  0.00     0.006 C 
BRANCH  10  11
ATOM     11  C   UNL     1     -54.625  18.678 -28.446  1.00  0.00     0.053 C 
BRANCH  11  12
ATOM     12  C   UNL     1     -54.215  18.720 -29.884  1.00  0.00     0.041 C 
ATOM     13  O   UNL     1     -53.093  19.192 -30.210  1.00  0.00    -0.550 OA
ATOM     14  O   UNL     1     -55.073  18.246 -30.868  1.00  0.00    -0.550 OA
ENDBRANCH  11  12
ENDBRANCH  10  11
ENDBRANCH   9  10
ENDBRANCH   8   9
ENDBRANCH   7   8
ENDBRANCH   6   7
ENDBRANCH   5   6
ENDBRANCH   4   5
ENDBRANCH   3   4
ENDBRANCH   2   3
ENDBRANCH   1   2
BRANCH   1  15
ATOM     15  C   UNL     1     -51.338  13.666 -30.255  1.00  0.00     0.000 C 
BRANCH  15  16
ATOM     16  C   UNL     1     -50.660  13.624 -28.873  1.00  0.00     0.000 C 
BRANCH  16  17
ATOM     17  C   UNL     1     -50.582  12.205 -28.285  1.00  0.00     0.000 C 
BRANCH  17  18
ATOM     18  C   UNL     1     -51.032  11.125 -29.283  1.00  0.00    -0.000 C 
BRANCH  18  19
ATOM     19  C   UNL     1     -50.137   9.873 -29.255  1.00  0.00    -0.000 C 
BRANCH  19  20
ATOM     20  C   UNL     1     -50.856   8.625 -29.792  1.00  0.00    -0.000 C 
BRANCH  20  21
ATOM     21  C   UNL     1     -52.340   8.576 -29.386  1.00  0.00    -0.000 C 
BRANCH  21  22
ATOM     22  C   UNL     1     -53.276   8.372 -30.597  1.00  0.00    -0.000 C 
BRANCH  22  23
ATOM     23  C   UNL     1     -52.570   8.500 -31.962  1.00  0.00    -0.000 C 
BRANCH  23  24
ATOM     24  C   UNL     1     -52.781   9.843 -32.686  1.00  0.00    -0.000 C 
BRANCH  24  25
ATOM     25  C   UNL     1     -51.514  10.707 -32.832  1.00  0.00    -0.003 C 
ATOM     26  C   UNL     1     -50.245   9.877 -33.026  1.00  0.00     0.004 C 
ENDBRANCH  24  25
ENDBRANCH  23  24
ENDBRANCH  22  23
ENDBRANCH  21  22
ENDBRANCH  20  21
ENDBRANCH  19  20
ENDBRANCH  18  19
ENDBRANCH  17  18
ENDBRANCH  16  17
ENDBRANCH  15  16
ENDBRANCH   1  15
TORSDOF 22
ENDMDL
MODEL 2
REMARK VINA RESULT:    -4.256      1.173      2.509
REMARK INTER + INTRA:         -13.930
REMARK INTER:                  -9.920
REMARK INTRA:                  -4.009
REMARK UNBOUND:                -4.199
REMARK SMILES CCCCCCCCCCCCCCCCCCCCCCCC(=O)[O-]
REMARK SMILES IDX 13 1 14 2 15 3 16 4 17 5 18 6 19 7 20 8 21 9 22 10 23 11
REMARK SMILES IDX 24 12 25 13 26 14 12 15 11 16 10 17 9 18 8 19 7 20 6 21 5 22
REMARK SMILES IDX 4 23 3 24 2 25 1 26
REMARK H PARENT
REMARK Flexibility Score: inf
ROOT
ATOM      1  C   UNL     1     -51.610  12.074 -29.380  1.00  0.00     0.000 C 
ENDROOT
BRANCH   1   2
ATOM      2  C   UNL     1     -51.836  12.385 -30.874  1.00  0.00     0.000 C 
BRANCH   2   3
ATOM      3  C   UNL     1     -52.333  13.812 -31.177  1.00  0.00     0.000 C 
BRANCH   3   4
ATOM      4  C   UNL     1     -53.679  13.883 -31.918  1.00  0.00     0.000 C 
BRANCH   4   5
ATOM      5  C   UNL     1     -54.557  12.643 -31.680  1.00  0.00     0.000 C 
BRANCH   5   6
ATOM      6  C   UNL     1     -55.729  12.927 -30.726  1.00  0.00     0.000 C 
BRANCH   6   7
ATOM      7  C   UNL     1     -55.440  12.474 -29.286  1.00  0.00     0.000 C 
BRANCH   7   8
ATOM      8  C   UNL     1     -54.875  13.621 -28.417  1.00  0.00     0.000 C 
BRANCH   8   9
ATOM      9  C   UNL     1     -55.326  15.019 -28.881  1.00  0.00     0.000 C 
BRANCH   9  10
ATOM     10  C   UNL     1     -54.322  16.147 -28.559  1.00  0.00     0.006 C 
BRANCH  10  11
ATOM     11  C   UNL     1     -54.791  17.540 -29.011  1.00  0.00     0.053 C 
BRANCH  11  12
ATOM     12  C   UNL     1     -53.955  18.094 -30.122  1.00  0.00     0.041 C 
ATOM     13  O   UNL     1     -53.801  19.339 -30.239  1.00  0.00    -0.550 OA
ATOM     14  O   UNL     1     -53.351  17.237 -31.033  1.00  0.00    -0.550 OA
ENDBRANCH  11  12
ENDBRANCH  10  11
ENDBRANCH   9  10
ENDBRANCH   8   9
ENDBRANCH   7   8
ENDBRANCH   6   7
ENDBRANCH   5   6
ENDBRANCH   4   5
ENDBRANCH   3   4
ENDBRANCH   2   3
ENDBRANCH   1   2
BRANCH   1  15
ATOM     15  C   UNL     1     -50.158  12.240 -28.886  1.00  0.00     0.000 C 
BRANCH  15  16
ATOM     16  C   UNL     1     -49.282  10.978 -28.994  1.00  0.00     0.000 C 
BRANCH  16  17
ATOM     17  C   UNL     1     -50.089   9.713 -29.332  1.00  0.00     0.000 C 
BRANCH  17  18
ATOM     18  C   UNL     1     -49.436   8.872 -30.441  1.00  0.00    -0.000 C 
BRANCH  18  19
ATOM     19  C   UNL     1     -48.985   9.717 -31.646  1.00  0.00    -0.000 C 
BRANCH  19  20
ATOM     20  C   UNL     1     -49.905   9.538 -32.865  1.00  0.00    -0.000 C 
BRANCH  20  21
ATOM     21  C   UNL     1     -50.397   8.089 -33.027  1.00  0.00    -0.000 C 
BRANCH  21  22
ATOM     22  C   UNL     1     -51.929   8.003 -33.199  1.00  0.00    -0.000 C 
BRANCH  22  23
ATOM     23  C   UNL     1     -52.683   9.262 -32.726  1.00  0.00    -0.000 C 
BRANCH  23  24
ATOM     24  C   UNL     1     -54.213   9.111 -32.625  1.00  0.00    -0.000 C 
BRANCH  24  25
ATOM     25  C   UNL     1     -54.755   8.935 -31.194  1.00  0.00    -0.003 C 
ATOM     26  C   UNL     1     -53.704   9.214 -30.120  1.00  0.00     0.004 C 
ENDBRANCH  24  25
ENDBRANCH  23  24
ENDBRANCH  22  23
ENDBRANCH  21  22
ENDBRANCH  20  21
ENDBRANCH  19  20
ENDBRANCH  18  19
ENDBRANCH  17  18
ENDBRANCH  16  17
ENDBRANCH  15  16
ENDBRANCH   1  15
TORSDOF 22
ENDMDL
MODEL 3
REMARK VINA RESULT:    -4.131      1.202      3.653
REMARK INTER + INTRA:         -13.643
REMARK INTER:                 -10.015
REMARK INTRA:                  -3.628
REMARK UNBOUND:                -4.199
REMARK SMILES CCCCCCCCCCCCCCCCCCCCCCCC(=O)[O-]
REMARK SMILES IDX 13 1 14 2 15 3 16 4 17 5 18 6 19 7 20 8 21 9 22 10 23 11
REMARK SMILES IDX 24 12 25 13 26 14 12 15 11 16 10 17 9 18 8 19 7 20 6 21 5 22
REMARK SMILES IDX 4 23 3 24 2 25 1 26
REMARK H PARENT
REMARK Flexibility Score: inf
ROOT
ATOM      1  C   UNL     1     -52.203  10.598 -32.575  1.00  0.00     0.000 C 
ENDROOT
BRANCH   1   2
ATOM      2  C   UNL     1     -52.982   9.527 -31.785  1.00  0.00     0.000 C 
BRANCH   2   3
ATOM      3  C   UNL     1     -54.391   9.950 -31.325  1.00  0.00     0.000 C 
BRANCH   3   4
ATOM      4  C   UNL     1     -54.438  10.674 -29.968  1.00  0.00     0.000 C 
BRANCH   4   5
ATOM      5  C   UNL     1     -55.841  11.201 -29.623  1.00  0.00     0.000 C 
BRANCH   5   6
ATOM      6  C   UNL     1     -55.898  12.737 -29.584  1.00  0.00     0.000 C 
BRANCH   6   7
ATOM      7  C   UNL     1     -55.102  13.328 -28.409  1.00  0.00     0.000 C 
BRANCH   7   8
ATOM      8  C   UNL     1     -55.780  14.586 -27.821  1.00  0.00     0.000 C 
BRANCH   8   9
ATOM      9  C   UNL     1     -54.947  15.870 -27.998  1.00  0.00     0.000 C 
BRANCH   9  10
ATOM     10  C   UNL     1     -55.519  16.857 -29.040  1.00  0.00     0.006 C 
BRANCH  10  11
ATOM     11  C   UNL     1     -54.468  17.391 -30.027  1.00  0.00     0.053 C 
BRANCH  11  12
ATOM     12  C   UNL     1     -54.186  18.848 -29.832  1.00  0.00     0.041 C 
ATOM     13  O   UNL     1     -55.031  19.586 -29.258  1.00  0.00    -0.550 OA
ATOM     14  O   UNL     1     -52.994  19.394 -30.291  1.00  0.00    -0.550 OA
ENDBRANCH  11  12
ENDBRANCH  10  11
ENDBRANCH   9  10
ENDBRANCH   8   9
ENDBRANCH   7   8
ENDBRANCH   6   7
ENDBRANCH   5   6
ENDBRANCH   4   5
ENDBRANCH   3   4
ENDBRANCH   2   3
ENDBRANCH   1   2
BRANCH   1  15
ATOM     15  C   UNL     1     -50.789  10.180 -33.030  1.00  0.00     0.000 C 
BRANCH  15  16
ATOM     16  C   UNL     1     -50.441   8.697 -32.809  1.00  0.00     0.000 C 
BRANCH  16  17
ATOM     17  C   UNL     1     -49.302   8.492 -31.796  1.00  0.00     0.000 C 
BRANCH  17  18
ATOM     18  C   UNL     1     -48.723   9.819 -31.279  1.00  0.00    -0.000 C 
BRANCH  18  19
ATOM     19  C   UNL     1     -48.896   9.997 -29.760  1.00  0.00    -0.000 C 
BRANCH  19  20
ATOM     20  C   UNL     1     -50.326   9.683 -29.292  1.00  0.00    -0.000 C 
BRANCH  20  21
ATOM     21  C   UNL     1     -51.114  10.948 -28.907  1.00  0.00    -0.000 C 
BRANCH  21  22
ATOM     22  C   UNL     1     -50.307  12.242 -29.149  1.00  0.00    -0.000 C 
BRANCH  22  23
ATOM     23  C   UNL     1     -50.937  13.499 -28.518  1.00  0.00    -0.000 C 
BRANCH  23  24
ATOM     24  C   UNL     1     -51.977  14.223 -29.394  1.00  0.00    -0.000 C 
BRANCH  24  25
ATOM     25  C   UNL     1     -51.985  13.798 -30.875  1.00  0.00    -0.003 C 
ATOM     26  C   UNL     1     -53.284  14.164 -31.594  1.00  0.00     0.004 C 
ENDBRANCH  24  25
ENDBRANCH  23  24
ENDBRANCH  22  23
ENDBRANCH  21  22
ENDBRANCH  20  21
ENDBRANCH  19  20
ENDBRANCH  18  19
ENDBRANCH  17  18
ENDBRANCH  16  17
ENDBRANCH  15  16
ENDBRANCH   1  15
TORSDOF 22
ENDMDL
MODEL 4
REMARK VINA RESULT:    -4.062      3.276      7.980
REMARK INTER + INTRA:         -13.485
REMARK INTER:                 -10.656
REMARK INTRA:                  -2.830
REMARK UNBOUND:                -4.199
REMARK SMILES CCCCCCCCCCCCCCCCCCCCCCCC(=O)[O-]
REMARK SMILES IDX 13 1 14 2 15 3 16 4 17 5 18 6 19 7 20 8 21 9 22 10 23 11
REMARK SMILES IDX 24 12 25 13 26 14 12 15 11 16 10 17 9 18 8 19 7 20 6 21 5 22
REMARK SMILES IDX 4 23 3 24 2 25 1 26
REMARK H PARENT
REMARK Flexibility Score: inf
ROOT
ATOM      1  C   UNL     1     -51.548  13.270 -30.060  1.00  0.00     0.000 C 
ENDROOT
BRANCH   1   2
ATOM      2  C   UNL     1     -51.782  12.169 -31.116  1.00  0.00     0.000 C 
BRANCH   2   3
ATOM      3  C   UNL     1     -53.122  12.262 -31.871  1.00  0.00     0.000 C 
BRANCH   3   4
ATOM      4  C   UNL     1     -53.774  10.907 -32.198  1.00  0.00     0.000 C 
BRANCH   4   5
ATOM      5  C   UNL     1     -53.737   9.927 -31.014  1.00  0.00     0.000 C 
BRANCH   5   6
ATOM      6  C   UNL     1     -53.245   8.529 -31.424  1.00  0.00     0.000 C 
BRANCH   6   7
ATOM      7  C   UNL     1     -52.973   8.418 -32.933  1.00  0.00     0.000 C 
BRANCH   7   8
ATOM      8  C   UNL     1     -51.515   8.004 -33.233  1.00  0.00     0.000 C 
BRANCH   8   9
ATOM      9  C   UNL     1     -50.473   9.011 -32.710  1.00  0.00     0.000 C 
BRANCH   9  10
ATOM     10  C   UNL     1     -49.543   8.448 -31.613  1.00  0.00     0.006 C 
BRANCH  10  11
ATOM     11  C   UNL     1     -49.850   8.989 -30.206  1.00  0.00     0.053 C 
BRANCH  11  12
ATOM     12  C   UNL     1     -48.629   9.505 -29.512  1.00  0.00     0.041 C 
ATOM     13  O   UNL     1     -48.211  10.670 -29.746  1.00  0.00    -0.550 OA
ATOM     14  O   UNL     1     -47.947   8.697 -28.610  1.00  0.00    -0.550 OA
ENDBRANCH  11  12
ENDBRANCH  10  11
ENDBRANCH   9  10
ENDBRANCH   8   9
ENDBRANCH   7   8
ENDBRANCH   6   7
ENDBRANCH   5   6
ENDBRANCH   4   5
ENDBRANCH   3   4
ENDBRANCH   2   3
ENDBRANCH   1   2
BRANCH   1  15
ATOM     15  C   UNL     1     -52.517  13.244 -28.859  1.00  0.00     0.000 C 
BRANCH  15  16
ATOM     16  C   UNL     1     -53.824  14.034 -29.055  1.00  0.00     0.000 C 
BRANCH  16  17
ATOM     17  C   UNL     1     -54.994  13.472 -28.229  1.00  0.00     0.000 C 
BRANCH  17  18
ATOM     18  C   UNL     1     -55.987  14.561 -27.791  1.00  0.00    -0.000 C 
BRANCH  18  19
ATOM     19  C   UNL     1     -55.686  15.934 -28.419  1.00  0.00    -0.000 C 
BRANCH  19  20
ATOM     20  C   UNL     1     -55.239  16.971 -27.376  1.00  0.00    -0.000 C 
BRANCH  20  21
ATOM     21  C   UNL     1     -55.542  18.416 -27.811  1.00  0.00    -0.000 C 
BRANCH  21  22
ATOM     22  C   UNL     1     -54.317  19.107 -28.449  1.00  0.00    -0.000 C 
BRANCH  22  23
ATOM     23  C   UNL     1     -54.462  19.362 -29.963  1.00  0.00    -0.000 C 
BRANCH  23  24
ATOM     24  C   UNL     1     -53.387  18.699 -30.846  1.00  0.00    -0.000 C 
BRANCH  24  25
ATOM     25  C   UNL     1     -53.619  17.205 -31.139  1.00  0.00    -0.003 C 
ATOM     26  C   UNL     1     -52.346  16.475 -31.564  1.00  0.00     0.004 C 
ENDBRANCH  24  25
ENDBRANCH  23  24
ENDBRANCH  22  23
ENDBRANCH  21  22
ENDBRANCH  20  21
ENDBRANCH  19  20
ENDBRANCH  18  19
ENDBRANCH  17  18
ENDBRANCH  16  17
ENDBRANCH  15  16
ENDBRANCH   1  15
TORSDOF 22
ENDMDL
MODEL 5
REMARK VINA RESULT:    -4.042      1.457      3.910
REMARK INTER + INTRA:         -13.440
REMARK INTER:                  -9.601
REMARK INTRA:                  -3.839
REMARK UNBOUND:                -4.199
REMARK SMILES CCCCCCCCCCCCCCCCCCCCCCCC(=O)[O-]
REMARK SMILES IDX 13 1 14 2 15 3 16 4 17 5 18 6 19 7 20 8 21 9 22 10 23 11
REMARK SMILES IDX 24 12 25 13 26 14 12 15 11 16 10 17 9 18 8 19 7 20 6 21 5 22
REMARK SMILES IDX 4 23 3 24 2 25 1 26
REMARK H PARENT
REMARK Flexibility Score: inf
ROOT
ATOM      1  C   UNL     1     -54.893  10.895 -29.292  1.00  0.00     0.000 C 
ENDROOT
BRANCH   1   2
ATOM      2  C   UNL     1     -55.696  12.157 -29.666  1.00  0.00     0.000 C 
BRANCH   2   3
ATOM      3  C   UNL     1     -55.514  12.641 -31.118  1.00  0.00     0.000 C 
BRANCH   3   4
ATOM      4  C   UNL     1     -54.255  12.107 -31.824  1.00  0.00     0.000 C 
BRANCH   4   5
ATOM      5  C   UNL     1     -53.114  13.137 -31.865  1.00  0.00     0.000 C 
BRANCH   5   6
ATOM      6  C   UNL     1     -52.064  12.893 -30.768  1.00  0.00     0.000 C 
BRANCH   6   7
ATOM      7  C   UNL     1     -52.316  13.743 -29.511  1.00  0.00     0.000 C 
BRANCH   7   8
ATOM      8  C   UNL     1     -52.966  15.103 -29.850  1.00  0.00     0.000 C 
BRANCH   8   9
ATOM      9  C   UNL     1     -54.158  15.455 -28.939  1.00  0.00     0.000 C 
BRANCH   9  10
ATOM     10  C   UNL     1     -55.049  16.597 -29.475  1.00  0.00     0.006 C 
BRANCH  10  11
ATOM     11  C   UNL     1     -54.330  17.527 -30.467  1.00  0.00     0.053 C 
BRANCH  11  12
ATOM     12  C   UNL     1     -53.928  18.827 -29.846  1.00  0.00     0.041 C 
ATOM     13  O   UNL     1     -53.359  19.713 -30.540  1.00  0.00    -0.550 OA
ATOM     14  O   UNL     1     -54.173  19.061 -28.499  1.00  0.00    -0.550 OA
ENDBRANCH  11  12
ENDBRANCH  10  11
ENDBRANCH   9  10
ENDBRANCH   8   9
ENDBRANCH   7   8
ENDBRANCH   6   7
ENDBRANCH   5   6
ENDBRANCH   4   5
ENDBRANCH   3   4
ENDBRANCH   2   3
ENDBRANCH   1   2
BRANCH   1  15
ATOM     15  C   UNL     1     -55.640   9.559 -29.486  1.00  0.00     0.000 C 
BRANCH  15  16
ATOM     16  C   UNL     1     -54.969   8.569 -30.456  1.00  0.00     0.000 C 
BRANCH  16  17
ATOM     17  C   UNL     1     -55.584   8.601 -31.866  1.00  0.00     0.000 C 
BRANCH  17  18
ATOM     18  C   UNL     1     -54.548   8.331 -32.970  1.00  0.00    -0.000 C 
BRANCH  18  19
ATOM     19  C   UNL     1     -53.167   7.940 -32.414  1.00  0.00    -0.000 C 
BRANCH  19  20
ATOM     20  C   UNL     1     -52.018   8.370 -33.338  1.00  0.00    -0.000 C 
BRANCH  20  21
ATOM     21  C   UNL     1     -51.457   9.758 -32.979  1.00  0.00    -0.000 C 
BRANCH  21  22
ATOM     22  C   UNL     1     -49.929   9.737 -32.761  1.00  0.00    -0.000 C 
BRANCH  22  23
ATOM     23  C   UNL     1     -49.449   8.636 -31.794  1.00  0.00    -0.000 C 
BRANCH  23  24
ATOM     24  C   UNL     1     -49.040   9.126 -30.392  1.00  0.00    -0.000 C 
BRANCH  24  25
ATOM     25  C   UNL     1     -50.088  10.001 -29.679  1.00  0.00    -0.003 C 
ATOM     26  C   UNL     1     -51.392   9.257 -29.392  1.00  0.00     0.004 C 
ENDBRANCH  24  25
ENDBRANCH  23  24
ENDBRANCH  22  23
ENDBRANCH  21  22
ENDBRANCH  20  21
ENDBRANCH  19  20
ENDBRANCH  18  19
ENDBRANCH  17  18
ENDBRANCH  16  17
ENDBRANCH  15  16
ENDBRANCH   1  15
TORSDOF 22
ENDMDL
MODEL 6
REMARK VINA RESULT:    -4.010      1.411      4.734
REMARK INTER + INTRA:         -13.367
REMARK INTER:                 -10.549
REMARK INTRA:                  -2.818
REMARK UNBOUND:                -4.199
REMARK SMILES CCCCCCCCCCCCCCCCCCCCCCCC(=O)[O-]
REMARK SMILES IDX 13 1 14 2 15 3 16 4 17 5 18 6 19 7 20 8 21 9 22 10 23 11
REMARK SMILES IDX 24 12 25 13 26 14 12 15 11 16 10 17 9 18 8 19 7 20 6 21 5 22
REMARK SMILES IDX 4 23 3 24 2 25 1 26
REMARK H PARENT
REMARK Flexibility Score: inf
ROOT
ATOM      1  C   UNL     1     -48.752   9.962 -31.028  1.00  0.00     0.000 C 
ENDROOT
BRANCH   1   2
ATOM      2  C   UNL     1     -49.114  10.516 -29.635  1.00  0.00     0.000 C 
BRANCH   2   3
ATOM      3  C   UNL     1     -50.477  11.231 -29.551  1.00  0.00     0.000 C 
BRANCH   3   4
ATOM      4  C   UNL     1     -50.548  12.369 -28.517  1.00  0.00     0.000 C 
BRANCH   4   5
ATOM      5  C   UNL     1     -51.559  13.462 -28.903  1.00  0.00     0.000 C 
BRANCH   5   6
ATOM      6  C   UNL     1     -50.951  14.521 -29.837  1.00  0.00     0.000 C 
BRANCH   6   7
ATOM      7  C   UNL     1     -51.796  14.747 -31.101  1.00  0.00     0.000 C 
BRANCH   7   8
ATOM      8  C   UNL     1     -51.929  16.247 -31.452  1.00  0.00     0.000 C 
BRANCH   8   9
ATOM      9  C   UNL     1     -53.388  16.740 -31.488  1.00  0.00     0.000 C 
BRANCH   9  10
ATOM     10  C   UNL     1     -54.083  16.763 -30.109  1.00  0.00     0.006 C 
BRANCH  10  11
ATOM     11  C   UNL     1     -55.303  17.697 -30.047  1.00  0.00     0.053 C 
BRANCH  11  12
ATOM     12  C   UNL     1     -54.954  19.065 -29.554  1.00  0.00     0.041 C 
ATOM     13  O   UNL     1     -54.264  19.207 -28.510  1.00  0.00    -0.550 OA
ATOM     14  O   UNL     1     -55.395  20.188 -30.244  1.00  0.00    -0.550 OA
ENDBRANCH  11  12
ENDBRANCH  10  11
ENDBRANCH   9  10
ENDBRANCH   8   9
ENDBRANCH   7   8
ENDBRANCH   6   7
ENDBRANCH   5   6
ENDBRANCH   4   5
ENDBRANCH   3   4
ENDBRANCH   2   3
ENDBRANCH   1   2
BRANCH   1  15
ATOM     15  C   UNL     1     -49.336   8.571 -31.354  1.00  0.00     0.000 C 
BRANCH  15  16
ATOM     16  C   UNL     1     -49.750   8.363 -32.822  1.00  0.00     0.000 C 
BRANCH  16  17
ATOM     17  C   UNL     1     -51.201   7.875 -32.973  1.00  0.00     0.000 C 
BRANCH  17  18
ATOM     18  C   UNL     1     -52.088   8.278 -31.783  1.00  0.00    -0.000 C 
BRANCH  18  19
ATOM     19  C   UNL     1     -53.592   8.183 -32.097  1.00  0.00    -0.000 C 
BRANCH  19  20
ATOM     20  C   UNL     1     -54.246   9.564 -32.262  1.00  0.00    -0.000 C 
BRANCH  20  21
ATOM     21  C   UNL     1     -53.219  10.675 -32.543  1.00  0.00    -0.000 C 
BRANCH  21  22
ATOM     22  C   UNL     1     -53.542  11.981 -31.785  1.00  0.00    -0.000 C 
BRANCH  22  23
ATOM     23  C   UNL     1     -54.936  11.994 -31.128  1.00  0.00    -0.000 C 
BRANCH  23  24
ATOM     24  C   UNL     1     -55.230  13.215 -30.235  1.00  0.00    -0.000 C 
BRANCH  24  25
ATOM     25  C   UNL     1     -54.897  13.023 -28.743  1.00  0.00    -0.003 C 
ATOM     26  C   UNL     1     -55.361  14.190 -27.873  1.00  0.00     0.004 C 
ENDBRANCH  24  25
ENDBRANCH  23  24
ENDBRANCH  22  23
ENDBRANCH  21  22
ENDBRANCH  20  21
ENDBRANCH  19  20
ENDBRANCH  18  19
ENDBRANCH  17  18
ENDBRANCH  16  17
ENDBRANCH  15  16
ENDBRANCH   1  15
TORSDOF 22
ENDMDL
MODEL 7
REMARK VINA RESULT:    -3.999      3.152      7.520
REMARK INTER + INTRA:         -13.341
REMARK INTER:                 -10.568
REMARK INTRA:                  -2.773
REMARK UNBOUND:                -4.199
REMARK SMILES CCCCCCCCCCCCCCCCCCCCCCCC(=O)[O-]
REMARK SMILES IDX 13 1 14 2 15 3 16 4 17 5 18 6 19 7 20 8 21 9 22 10 23 11
REMARK SMILES IDX 24 12 25 13 26 14 12 15 11 16 10 17 9 18 8 19 7 20 6 21 5 22
REMARK SMILES IDX 4 23 3 24 2 25 1 26
REMARK H PARENT
REMARK Flexibility Score: inf
ROOT
ATOM      1  C   UNL     1     -54.650  14.401 -28.471  1.00  0.00     0.000 C 
ENDROOT
BRANCH   1   2
ATOM      2  C   UNL     1     -54.597  12.880 -28.216  1.00  0.00     0.000 C 
BRANCH   2   3
ATOM      3  C   UNL     1     -54.212  12.025 -29.439  1.00  0.00     0.000 C 
BRANCH   3   4
ATOM      4  C   UNL     1     -54.758  10.586 -29.419  1.00  0.00     0.000 C 
BRANCH   4   5
ATOM      5  C   UNL     1     -55.341  10.152 -30.774  1.00  0.00     0.000 C 
BRANCH   5   6
ATOM      6  C   UNL     1     -54.357   9.298 -31.591  1.00  0.00     0.000 C 
BRANCH   6   7
ATOM      7  C   UNL     1     -53.433  10.149 -32.478  1.00  0.00     0.000 C 
BRANCH   7   8
ATOM      8  C   UNL     1     -52.044   9.499 -32.661  1.00  0.00     0.000 C 
BRANCH   8   9
ATOM      9  C   UNL     1     -50.875  10.471 -32.408  1.00  0.00     0.000 C 
BRANCH   9  10
ATOM     10  C   UNL     1     -49.512   9.778 -32.188  1.00  0.00     0.006 C 
BRANCH  10  11
ATOM     11  C   UNL     1     -49.581   8.566 -31.243  1.00  0.00     0.053 C 
BRANCH  11  12
ATOM     12  C   UNL     1     -49.717   8.965 -29.807  1.00  0.00     0.041 C 
ATOM     13  O   UNL     1     -50.837   8.902 -29.235  1.00  0.00    -0.550 OA
ATOM     14  O   UNL     1     -48.608   9.415 -29.101  1.00  0.00    -0.550 OA
ENDBRANCH  11  12
ENDBRANCH  10  11
ENDBRANCH   9  10
ENDBRANCH   8   9
ENDBRANCH   7   8
ENDBRANCH   6   7
ENDBRANCH   5   6
ENDBRANCH   4   5
ENDBRANCH   3   4
ENDBRANCH   2   3
ENDBRANCH   1   2
BRANCH   1  15
ATOM     15  C   UNL     1     -56.049  15.040 -28.348  1.00  0.00     0.000 C 
BRANCH  15  16
ATOM     16  C   UNL     1     -56.079  16.426 -27.679  1.00  0.00     0.000 C 
BRANCH  16  17
ATOM     17  C   UNL     1     -54.731  17.163 -27.764  1.00  0.00     0.000 C 
BRANCH  17  18
ATOM     18  C   UNL     1     -54.895  18.665 -28.049  1.00  0.00    -0.000 C 
BRANCH  18  19
ATOM     19  C   UNL     1     -54.253  19.096 -29.380  1.00  0.00    -0.000 C 
BRANCH  19  20
ATOM     20  C   UNL     1     -54.450  18.053 -30.492  1.00  0.00    -0.000 C 
BRANCH  20  21
ATOM     21  C   UNL     1     -53.120  17.597 -31.118  1.00  0.00    -0.000 C 
BRANCH  21  22
ATOM     22  C   UNL     1     -53.058  16.067 -31.321  1.00  0.00    -0.000 C 
BRANCH  22  23
ATOM     23  C   UNL     1     -51.656  15.464 -31.105  1.00  0.00    -0.000 C 
BRANCH  23  24
ATOM     24  C   UNL     1     -51.638  14.027 -30.548  1.00  0.00    -0.000 C 
BRANCH  24  25
ATOM     25  C   UNL     1     -51.002  13.881 -29.153  1.00  0.00    -0.003 C 
ATOM     26  C   UNL     1     -50.567  12.449 -28.843  1.00  0.00     0.004 C 
ENDBRANCH  24  25
ENDBRANCH  23  24
ENDBRANCH  22  23
ENDBRANCH  21  22
ENDBRANCH  20  21
ENDBRANCH  19  20
ENDBRANCH  18  19
ENDBRANCH  17  18
ENDBRANCH  16  17
ENDBRANCH  15  16
ENDBRANCH   1  15
TORSDOF 22
ENDMDL
MODEL 8
REMARK VINA RESULT:    -3.980      2.597      7.675
REMARK INTER + INTRA:         -13.298
REMARK INTER:                 -10.177
REMARK INTRA:                  -3.121
REMARK UNBOUND:                -4.199
REMARK SMILES CCCCCCCCCCCCCCCCCCCCCCCC(=O)[O-]
REMARK SMILES IDX 13 1 14 2 15 3 16 4 17 5 18 6 19 7 20 8 21 9 22 10 23 11
REMARK SMILES IDX 24 12 25 13 26 14 12 15 11 16 10 17 9 18 8 19 7 20 6 21 5 22
REMARK SMILES IDX 4 23 3 24 2 25 1 26
REMARK H PARENT
REMARK Flexibility Score: inf
ROOT
ATOM      1  C   UNL     1     -51.673  15.076 -30.496  1.00  0.00     0.000 C 
ENDROOT
BRANCH   1   2
ATOM      2  C   UNL     1     -51.520  13.559 -30.258  1.00  0.00     0.000 C 
BRANCH   2   3
ATOM      3  C   UNL     1     -51.518  13.126 -28.779  1.00  0.00     0.000 C 
BRANCH   3   4
ATOM      4  C   UNL     1     -50.891  11.747 -28.510  1.00  0.00     0.000 C 
BRANCH   4   5
ATOM      5  C   UNL     1     -49.565  11.539 -29.260  1.00  0.00     0.000 C 
BRANCH   5   6
ATOM      6  C   UNL     1     -49.307  10.061 -29.599  1.00  0.00     0.000 C 
BRANCH   6   7
ATOM      7  C   UNL     1     -48.890   9.856 -31.064  1.00  0.00     0.000 C 
BRANCH   7   8
ATOM      8  C   UNL     1     -50.066   9.373 -31.941  1.00  0.00     0.000 C 
BRANCH   8   9
ATOM      9  C   UNL     1     -50.910  10.524 -32.523  1.00  0.00     0.000 C 
BRANCH   9  10
ATOM     10  C   UNL     1     -52.400  10.174 -32.729  1.00  0.00     0.006 C 
BRANCH  10  11
ATOM     11  C   UNL     1     -53.365  11.133 -32.011  1.00  0.00     0.053 C 
BRANCH  11  12
ATOM     12  C   UNL     1     -54.200  10.441 -30.981  1.00  0.00     0.041 C 
ATOM     13  O   UNL     1     -54.102  10.760 -29.766  1.00  0.00    -0.550 OA
ATOM     14  O   UNL     1     -55.084   9.438 -31.359  1.00  0.00    -0.550 OA
ENDBRANCH  11  12
ENDBRANCH  10  11
ENDBRANCH   9  10
ENDBRANCH   8   9
ENDBRANCH   7   8
ENDBRANCH   6   7
ENDBRANCH   5   6
ENDBRANCH   4   5
ENDBRANCH   3   4
ENDBRANCH   2   3
ENDBRANCH   1   2
BRANCH   1  15
ATOM     15  C   UNL     1     -52.825  15.480 -31.438  1.00  0.00     0.000 C 
BRANCH  15  16
ATOM     16  C   UNL     1     -54.213  15.570 -30.776  1.00  0.00     0.000 C 
BRANCH  16  17
ATOM     17  C   UNL     1     -54.992  14.245 -30.833  1.00  0.00     0.000 C 
BRANCH  17  18
ATOM     18  C   UNL     1     -55.670  13.899 -29.497  1.00  0.00    -0.000 C 
BRANCH  18  19
ATOM     19  C   UNL     1     -54.975  14.548 -28.286  1.00  0.00    -0.000 C 
BRANCH  19  20
ATOM     20  C   UNL     1     -55.834  15.643 -27.634  1.00  0.00    -0.000 C 
BRANCH  20  21
ATOM     21  C   UNL     1     -55.104  16.995 -27.549  1.00  0.00    -0.000 C 
BRANCH  21  22
ATOM     22  C   UNL     1     -56.034  18.187 -27.864  1.00  0.00    -0.000 C 
BRANCH  22  23
ATOM     23  C   UNL     1     -55.320  19.376 -28.538  1.00  0.00    -0.000 C 
BRANCH  23  24
ATOM     24  C   UNL     1     -53.962  19.045 -29.184  1.00  0.00    -0.000 C 
BRANCH  24  25
ATOM     25  C   UNL     1     -53.891  19.286 -30.704  1.00  0.00    -0.003 C 
ATOM     26  C   UNL     1     -54.737  20.475 -31.160  1.00  0.00     0.004 C 
ENDBRANCH  24  25
ENDBRANCH  23  24
ENDBRANCH  22  23
ENDBRANCH  21  22
ENDBRANCH  20  21
ENDBRANCH  19  20
ENDBRANCH  18  19
ENDBRANCH  17  18
ENDBRANCH  16  17
ENDBRANCH  15  16
ENDBRANCH   1  15
TORSDOF 22
ENDMDL
MODEL 9
REMARK VINA RESULT:    -3.968      2.398      5.091
REMARK INTER + INTRA:         -13.270
REMARK INTER:                 -10.195
REMARK INTRA:                  -3.075
REMARK UNBOUND:                -4.199
REMARK SMILES CCCCCCCCCCCCCCCCCCCCCCCC(=O)[O-]
REMARK SMILES IDX 13 1 14 2 15 3 16 4 17 5 18 6 19 7 20 8 21 9 22 10 23 11
REMARK SMILES IDX 24 12 25 13 26 14 12 15 11 16 10 17 9 18 8 19 7 20 6 21 5 22
REMARK SMILES IDX 4 23 3 24 2 25 1 26
REMARK H PARENT
REMARK Flexibility Score: inf
ROOT
ATOM      1  C   UNL     1     -54.959  15.346 -28.312  1.00  0.00     0.000 C 
ENDROOT
BRANCH   1   2
ATOM      2  C   UNL     1     -56.020  16.131 -27.514  1.00  0.00     0.000 C 
BRANCH   2   3
ATOM      3  C   UNL     1     -55.758  17.645 -27.392  1.00  0.00     0.000 C 
BRANCH   3   4
ATOM      4  C   UNL     1     -55.595  18.382 -28.733  1.00  0.00     0.000 C 
BRANCH   4   5
ATOM      5  C   UNL     1     -54.238  19.094 -28.860  1.00  0.00     0.000 C 
BRANCH   5   6
ATOM      6  C   UNL     1     -53.639  18.969 -30.271  1.00  0.00     0.000 C 
BRANCH   6   7
ATOM      7  C   UNL     1     -53.985  17.630 -30.942  1.00  0.00     0.000 C 
BRANCH   7   8
ATOM      8  C   UNL     1     -52.726  16.887 -31.442  1.00  0.00     0.000 C 
BRANCH   8   9
ATOM      9  C   UNL     1     -52.892  15.356 -31.477  1.00  0.00     0.000 C 
BRANCH   9  10
ATOM     10  C   UNL     1     -51.678  14.575 -30.928  1.00  0.00     0.006 C 
BRANCH  10  11
ATOM     11  C   UNL     1     -51.926  13.063 -30.791  1.00  0.00     0.053 C 
BRANCH  11  12
ATOM     12  C   UNL     1     -51.647  12.559 -29.411  1.00  0.00     0.041 C 
ATOM     13  O   UNL     1     -51.743  13.332 -28.421  1.00  0.00    -0.550 OA
ATOM     14  O   UNL     1     -51.273  11.235 -29.215  1.00  0.00    -0.550 OA
ENDBRANCH  11  12
ENDBRANCH  10  11
ENDBRANCH   9  10
ENDBRANCH   8   9
ENDBRANCH   7   8
ENDBRANCH   6   7
ENDBRANCH   5   6
ENDBRANCH   4   5
ENDBRANCH   3   4
ENDBRANCH   2   3
ENDBRANCH   1   2
BRANCH   1  15
ATOM     15  C   UNL     1     -55.318  13.876 -28.614  1.00  0.00     0.000 C 
BRANCH  15  16
ATOM     16  C   UNL     1     -55.826  13.606 -30.043  1.00  0.00     0.000 C 
BRANCH  16  17
ATOM     17  C   UNL     1     -55.522  12.178 -30.528  1.00  0.00     0.000 C 
BRANCH  17  18
ATOM     18  C   UNL     1     -54.925  11.291 -29.423  1.00  0.00    -0.000 C 
BRANCH  18  19
ATOM     19  C   UNL     1     -54.574   9.876 -29.914  1.00  0.00    -0.000 C 
BRANCH  19  20
ATOM     20  C   UNL     1     -55.014   9.633 -31.367  1.00  0.00    -0.000 C 
BRANCH  20  21
ATOM     21  C   UNL     1     -53.937   8.912 -32.198  1.00  0.00    -0.000 C 
BRANCH  21  22
ATOM     22  C   UNL     1     -52.576   9.640 -32.157  1.00  0.00    -0.000 C 
BRANCH  22  23
ATOM     23  C   UNL     1     -51.444   8.890 -32.888  1.00  0.00    -0.000 C 
BRANCH  23  24
ATOM     24  C   UNL     1     -50.108   9.650 -32.982  1.00  0.00    -0.000 C 
BRANCH  24  25
ATOM     25  C   UNL     1     -49.360   9.815 -31.646  1.00  0.00    -0.003 C 
ATOM     26  C   UNL     1     -48.938   8.482 -31.029  1.00  0.00     0.004 C 
ENDBRANCH  24  25
ENDBRANCH  23  24
ENDBRANCH  22  23
ENDBRANCH  21  22
ENDBRANCH  20  21
ENDBRANCH  19  20
ENDBRANCH  18  19
ENDBRANCH  17  18
ENDBRANCH  16  17
ENDBRANCH  15  16
ENDBRANCH   1  15
TORSDOF 22
ENDMDL
