MODEL 1
REMARK VINA RESULT:    -7.160      0.000      0.000
REMARK INTER + INTRA:          -8.666
REMARK INTER:                  -8.416
REMARK INTRA:                  -0.250
REMARK UNBOUND:                -0.250
REMARK SMILES O=c1c(O)c(-c2ccc(O)cc2)oc2cc(O)cc(O)c12
REMARK SMILES IDX 5 1 3 2 2 3 1 4 21 5 19 6 18 7 16 8 15 9 14 10 13 11 6 12
REMARK SMILES IDX 7 13 8 14 9 15 12 16 11 17 10 18 4 20 20 22 17 24
REMARK H PARENT 10 19 4 21 20 23 17 25
REMARK Flexibility Score: inf
ROOT
ATOM      1  C   UNL     1      15.059 -32.521 -19.864  1.00  0.00     0.180 A 
ATOM      2  C   UNL     1      15.277 -31.129 -19.861  1.00  0.00     0.208 A 
ATOM      3  C   UNL     1      16.461 -30.627 -20.422  1.00  0.00     0.238 A 
ATOM      4  O   UNL     1      16.663 -29.383 -20.435  1.00  0.00    -0.285 OA
ATOM      5  C   UNL     1      17.413 -31.521 -20.955  1.00  0.00     0.111 A 
ATOM      6  C   UNL     1      18.634 -31.097 -21.533  1.00  0.00     0.134 A 
ATOM      7  C   UNL     1      19.534 -32.049 -22.034  1.00  0.00     0.093 A 
ATOM      8  C   UNL     1      19.238 -33.415 -21.966  1.00  0.00     0.123 A 
ATOM      9  C   UNL     1      18.036 -33.837 -21.396  1.00  0.00     0.094 A 
ATOM     10  C   UNL     1      17.124 -32.904 -20.893  1.00  0.00     0.146 A 
ATOM     11  O   UNL     1      15.986 -33.334 -20.361  1.00  0.00    -0.452 OA
ENDROOT
BRANCH   1  12
ATOM     12  C   UNL     1      13.826 -33.126 -19.309  1.00  0.00     0.021 A 
ATOM     13  C   UNL     1      12.605 -33.072 -20.007  1.00  0.00     0.016 A 
ATOM     14  C   UNL     1      11.460 -33.673 -19.474  1.00  0.00     0.047 A 
ATOM     15  C   UNL     1      11.523 -34.342 -18.245  1.00  0.00     0.115 A 
ATOM     16  C   UNL     1      13.884 -33.817 -18.088  1.00  0.00     0.016 A 
ATOM     17  C   UNL     1      12.737 -34.415 -17.556  1.00  0.00     0.047 A 
BRANCH  15  18
ATOM     18  O   UNL     1      10.387 -34.942 -17.704  1.00  0.00    -0.508 OA
ATOM     19  H   UNL     1      10.097 -34.761 -16.749  1.00  0.00     0.293 HD
ENDBRANCH  15  18
ENDBRANCH   1  12
BRANCH   2  20
ATOM     20  O   UNL     1      14.340 -30.269 -19.282  1.00  0.00    -0.502 OA
ATOM     21  H   UNL     1      13.500 -30.608 -18.829  1.00  0.00     0.293 HD
ENDBRANCH   2  20
BRANCH   6  22
ATOM     22  O   UNL     1      18.958 -29.742 -21.614  1.00  0.00    -0.507 OA
ATOM     23  H   UNL     1      19.406 -29.254 -20.847  1.00  0.00     0.293 HD
ENDBRANCH   6  22
BRANCH   8  24
ATOM     24  O   UNL     1      20.132 -34.361 -22.462  1.00  0.00    -0.508 OA
ATOM     25  H   UNL     1      21.120 -34.323 -22.240  1.00  0.00     0.293 HD
ENDBRANCH   8  24
TORSDOF 5
ENDMDL
MODEL 2
REMARK VINA RESULT:    -7.155     11.962     14.058
REMARK INTER + INTRA:          -8.660
REMARK INTER:                  -8.375
REMARK INTRA:                  -0.285
REMARK UNBOUND:                -0.250
REMARK SMILES O=c1c(O)c(-c2ccc(O)cc2)oc2cc(O)cc(O)c12
REMARK SMILES IDX 5 1 3 2 2 3 1 4 21 5 19 6 18 7 16 8 15 9 14 10 13 11 6 12
REMARK SMILES IDX 7 13 8 14 9 15 12 16 11 17 10 18 4 20 20 22 17 24
REMARK H PARENT 10 19 4 21 20 23 17 25
REMARK Flexibility Score: inf
ROOT
ATOM      1  C   UNL     1       8.051 -24.051 -13.448  1.00  0.00     0.180 A 
ATOM      2  C   UNL     1       7.963 -25.383 -13.896  1.00  0.00     0.208 A 
ATOM      3  C   UNL     1       8.671 -26.379 -13.207  1.00  0.00     0.238 A 
ATOM      4  O   UNL     1       8.591 -27.577 -13.593  1.00  0.00    -0.285 OA
ATOM      5  C   UNL     1       9.469 -26.027 -12.099  1.00  0.00     0.111 A 
ATOM      6  C   UNL     1      10.218 -26.969 -11.354  1.00  0.00     0.134 A 
ATOM      7  C   UNL     1      10.996 -26.538 -10.269  1.00  0.00     0.093 A 
ATOM      8  C   UNL     1      11.040 -25.184  -9.916  1.00  0.00     0.123 A 
ATOM      9  C   UNL     1      10.304 -24.252 -10.649  1.00  0.00     0.094 A 
ATOM     10  C   UNL     1       9.520 -24.662 -11.732  1.00  0.00     0.146 A 
ATOM     11  O   UNL     1       8.826 -23.753 -12.409  1.00  0.00    -0.452 OA
ENDROOT
BRANCH   1  12
ATOM     12  C   UNL     1       7.318 -22.947 -14.109  1.00  0.00     0.021 A 
ATOM     13  C   UNL     1       7.846 -22.287 -15.234  1.00  0.00     0.016 A 
ATOM     14  C   UNL     1       7.124 -21.264 -15.856  1.00  0.00     0.047 A 
ATOM     15  C   UNL     1       5.862 -20.895 -15.369  1.00  0.00     0.115 A 
ATOM     16  C   UNL     1       6.044 -22.585 -13.641  1.00  0.00     0.016 A 
ATOM     17  C   UNL     1       5.325 -21.560 -14.263  1.00  0.00     0.047 A 
BRANCH  15  18
ATOM     18  O   UNL     1       5.135 -19.875 -15.979  1.00  0.00    -0.508 OA
ATOM     19  H   UNL     1       4.834 -19.945 -16.945  1.00  0.00     0.293 HD
ENDBRANCH  15  18
ENDBRANCH   1  12
BRANCH   2  20
ATOM     20  O   UNL     1       7.204 -25.698 -15.027  1.00  0.00    -0.502 OA
ATOM     21  H   UNL     1       6.492 -26.418 -15.019  1.00  0.00     0.293 HD
ENDBRANCH   2  20
BRANCH   6  22
ATOM     22  O   UNL     1      10.196 -28.326 -11.681  1.00  0.00    -0.507 OA
ATOM     23  H   UNL     1       9.417 -28.741 -12.179  1.00  0.00     0.293 HD
ENDBRANCH   6  22
BRANCH   8  24
ATOM     24  O   UNL     1      11.813 -24.755  -8.841  1.00  0.00    -0.508 OA
ATOM     25  H   UNL     1      12.718 -24.321  -8.979  1.00  0.00     0.293 HD
ENDBRANCH   8  24
TORSDOF 5
ENDMDL
MODEL 3
REMARK VINA RESULT:    -6.871      1.661      6.766
REMARK INTER + INTRA:          -8.326
REMARK INTER:                  -8.461
REMARK INTRA:                   0.136
REMARK UNBOUND:                -0.250
REMARK SMILES O=c1c(O)c(-c2ccc(O)cc2)oc2cc(O)cc(O)c12
REMARK SMILES IDX 5 1 3 2 2 3 1 4 21 5 19 6 18 7 16 8 15 9 14 10 13 11 6 12
REMARK SMILES IDX 7 13 8 14 9 15 12 16 11 17 10 18 4 20 20 22 17 24
REMARK H PARENT 10 19 4 21 20 23 17 25
REMARK Flexibility Score: inf
ROOT
ATOM      1  C   UNL     1      14.269 -32.032 -20.148  1.00  0.00     0.180 A 
ATOM      2  C   UNL     1      13.350 -30.965 -20.139  1.00  0.00     0.208 A 
ATOM      3  C   UNL     1      12.028 -31.211 -19.739  1.00  0.00     0.238 A 
ATOM      4  O   UNL     1      11.199 -30.261 -19.717  1.00  0.00    -0.285 OA
ATOM      5  C   UNL     1      11.642 -32.518 -19.374  1.00  0.00     0.111 A 
ATOM      6  C   UNL     1      10.329 -32.850 -18.963  1.00  0.00     0.134 A 
ATOM      7  C   UNL     1      10.021 -34.176 -18.624  1.00  0.00     0.093 A 
ATOM      8  C   UNL     1      11.000 -35.175 -18.690  1.00  0.00     0.123 A 
ATOM      9  C   UNL     1      12.295 -34.850 -19.096  1.00  0.00     0.094 A 
ATOM     10  C   UNL     1      12.623 -33.534 -19.435  1.00  0.00     0.146 A 
ATOM     11  O   UNL     1      13.866 -33.254 -19.812  1.00  0.00    -0.452 OA
ENDROOT
BRANCH   1  12
ATOM     12  C   UNL     1      15.685 -31.849 -20.539  1.00  0.00     0.021 A 
ATOM     13  C   UNL     1      16.417 -30.717 -20.135  1.00  0.00     0.016 A 
ATOM     14  C   UNL     1      17.760 -30.578 -20.496  1.00  0.00     0.047 A 
ATOM     15  C   UNL     1      18.392 -31.572 -21.255  1.00  0.00     0.115 A 
ATOM     16  C   UNL     1      16.333 -32.850 -21.281  1.00  0.00     0.016 A 
ATOM     17  C   UNL     1      17.676 -32.708 -21.643  1.00  0.00     0.047 A 
BRANCH  15  18
ATOM     18  O   UNL     1      19.730 -31.443 -21.623  1.00  0.00    -0.508 OA
ATOM     19  H   UNL     1      19.998 -31.201 -22.570  1.00  0.00     0.293 HD
ENDBRANCH  15  18
ENDBRANCH   1  12
BRANCH   2  20
ATOM     20  O   UNL     1      13.745 -29.689 -20.553  1.00  0.00    -0.502 OA
ATOM     21  H   UNL     1      13.420 -29.274 -21.417  1.00  0.00     0.293 HD
ENDBRANCH   2  20
BRANCH   6  22
ATOM     22  O   UNL     1       9.331 -31.878 -18.888  1.00  0.00    -0.507 OA
ATOM     23  H   UNL     1       9.075 -31.442 -18.009  1.00  0.00     0.293 HD
ENDBRANCH   6  22
BRANCH   8  24
ATOM     24  O   UNL     1      10.695 -36.491 -18.356  1.00  0.00    -0.508 OA
ATOM     25  H   UNL     1      10.300 -36.731 -17.454  1.00  0.00     0.293 HD
ENDBRANCH   8  24
TORSDOF 5
ENDMDL
MODEL 4
REMARK VINA RESULT:    -6.858      2.894      7.201
REMARK INTER + INTRA:          -8.311
REMARK INTER:                  -8.019
REMARK INTRA:                  -0.292
REMARK UNBOUND:                -0.250
REMARK SMILES O=c1c(O)c(-c2ccc(O)cc2)oc2cc(O)cc(O)c12
REMARK SMILES IDX 5 1 3 2 2 3 1 4 21 5 19 6 18 7 16 8 15 9 14 10 13 11 6 12
REMARK SMILES IDX 7 13 8 14 9 15 12 16 11 17 10 18 4 20 20 22 17 24
REMARK H PARENT 10 19 4 21 20 23 17 25
REMARK Flexibility Score: inf
ROOT
ATOM      1  C   UNL     1      17.730 -29.504 -21.455  1.00  0.00     0.180 A 
ATOM      2  C   UNL     1      17.860 -29.380 -20.058  1.00  0.00     0.208 A 
ATOM      3  C   UNL     1      17.153 -30.265 -19.230  1.00  0.00     0.238 A 
ATOM      4  O   UNL     1      17.269 -30.170 -17.978  1.00  0.00    -0.285 OA
ATOM      5  C   UNL     1      16.315 -31.241 -19.808  1.00  0.00     0.111 A 
ATOM      6  C   UNL     1      15.565 -32.167 -19.044  1.00  0.00     0.134 A 
ATOM      7  C   UNL     1      14.747 -33.104 -19.693  1.00  0.00     0.093 A 
ATOM      8  C   UNL     1      14.664 -33.131 -21.090  1.00  0.00     0.123 A 
ATOM      9  C   UNL     1      15.402 -32.219 -21.847  1.00  0.00     0.094 A 
ATOM     10  C   UNL     1      16.225 -31.279 -21.219  1.00  0.00     0.146 A 
ATOM     11  O   UNL     1      16.919 -30.427 -21.965  1.00  0.00    -0.452 OA
ENDROOT
BRANCH   1  12
ATOM     12  C   UNL     1      18.458 -28.622 -22.395  1.00  0.00     0.021 A 
ATOM     13  C   UNL     1      19.702 -28.995 -22.938  1.00  0.00     0.016 A 
ATOM     14  C   UNL     1      20.358 -28.156 -23.843  1.00  0.00     0.047 A 
ATOM     15  C   UNL     1      19.777 -26.940 -24.226  1.00  0.00     0.115 A 
ATOM     16  C   UNL     1      17.874 -27.410 -22.801  1.00  0.00     0.016 A 
ATOM     17  C   UNL     1      18.534 -26.572 -23.705  1.00  0.00     0.047 A 
BRANCH  15  18
ATOM     18  O   UNL     1      20.425 -26.095 -25.125  1.00  0.00    -0.508 OA
ATOM     19  H   UNL     1      20.104 -25.146 -25.285  1.00  0.00     0.293 HD
ENDBRANCH  15  18
ENDBRANCH   1  12
BRANCH   2  20
ATOM     20  O   UNL     1      18.658 -28.371 -19.511  1.00  0.00    -0.502 OA
ATOM     21  H   UNL     1      18.353 -27.803 -18.730  1.00  0.00     0.293 HD
ENDBRANCH   2  20
BRANCH   6  22
ATOM     22  O   UNL     1      15.626 -32.165 -17.650  1.00  0.00    -0.507 OA
ATOM     23  H   UNL     1      14.843 -32.466 -17.081  1.00  0.00     0.293 HD
ENDBRANCH   6  22
BRANCH   8  24
ATOM     24  O   UNL     1      13.852 -34.059 -21.736  1.00  0.00    -0.508 OA
ATOM     25  H   UNL     1      13.282 -34.716 -21.216  1.00  0.00     0.293 HD
ENDBRANCH   8  24
TORSDOF 5
ENDMDL
MODEL 5
REMARK VINA RESULT:    -6.757      1.738      7.185
REMARK INTER + INTRA:          -8.192
REMARK INTER:                  -7.921
REMARK INTRA:                  -0.271
REMARK UNBOUND:                -0.250
REMARK SMILES O=c1c(O)c(-c2ccc(O)cc2)oc2cc(O)cc(O)c12
REMARK SMILES IDX 5 1 3 2 2 3 1 4 21 5 19 6 18 7 16 8 15 9 14 10 13 11 6 12
REMARK SMILES IDX 7 13 8 14 9 15 12 16 11 17 10 18 4 20 20 22 17 24
REMARK H PARENT 10 19 4 21 20 23 17 25
REMARK Flexibility Score: inf
ROOT
ATOM      1  C   UNL     1      14.374 -32.927 -19.623  1.00  0.00     0.180 A 
ATOM      2  C   UNL     1      14.296 -33.665 -18.426  1.00  0.00     0.208 A 
ATOM      3  C   UNL     1      13.038 -34.086 -17.970  1.00  0.00     0.238 A 
ATOM      4  O   UNL     1      12.956 -34.757 -16.905  1.00  0.00    -0.285 OA
ATOM      5  C   UNL     1      11.881 -33.747 -18.703  1.00  0.00     0.111 A 
ATOM      6  C   UNL     1      10.576 -34.128 -18.308  1.00  0.00     0.134 A 
ATOM      7  C   UNL     1       9.474 -33.743 -19.087  1.00  0.00     0.093 A 
ATOM      8  C   UNL     1       9.653 -32.985 -20.250  1.00  0.00     0.123 A 
ATOM      9  C   UNL     1      10.938 -32.606 -20.641  1.00  0.00     0.094 A 
ATOM     10  C   UNL     1      12.049 -32.982 -19.880  1.00  0.00     0.146 A 
ATOM     11  O   UNL     1      13.261 -32.612 -20.279  1.00  0.00    -0.452 OA
ENDROOT
BRANCH   1  12
ATOM     12  C   UNL     1      15.666 -32.464 -20.180  1.00  0.00     0.021 A 
ATOM     13  C   UNL     1      16.144 -31.162 -19.940  1.00  0.00     0.016 A 
ATOM     14  C   UNL     1      17.378 -30.756 -20.456  1.00  0.00     0.047 A 
ATOM     15  C   UNL     1      18.155 -31.648 -21.208  1.00  0.00     0.115 A 
ATOM     16  C   UNL     1      16.461 -33.357 -20.916  1.00  0.00     0.016 A 
ATOM     17  C   UNL     1      17.694 -32.948 -21.434  1.00  0.00     0.047 A 
BRANCH  15  18
ATOM     18  O   UNL     1      19.385 -31.253 -21.730  1.00  0.00    -0.508 OA
ATOM     19  H   UNL     1      19.617 -31.398 -22.706  1.00  0.00     0.293 HD
ENDBRANCH  15  18
ENDBRANCH   1  12
BRANCH   2  20
ATOM     20  O   UNL     1      15.453 -33.946 -17.693  1.00  0.00    -0.502 OA
ATOM     21  H   UNL     1      15.915 -33.250 -17.122  1.00  0.00     0.293 HD
ENDBRANCH   2  20
BRANCH   6  22
ATOM     22  O   UNL     1      10.365 -34.884 -17.154  1.00  0.00    -0.507 OA
ATOM     23  H   UNL     1       9.451 -35.251 -16.917  1.00  0.00     0.293 HD
ENDBRANCH   6  22
BRANCH   8  24
ATOM     24  O   UNL     1       8.560 -32.601 -21.022  1.00  0.00    -0.508 OA
ATOM     25  H   UNL     1       8.332 -33.074 -21.889  1.00  0.00     0.293 HD
ENDBRANCH   8  24
TORSDOF 5
ENDMDL
MODEL 6
REMARK VINA RESULT:    -6.689      1.694      3.354
REMARK INTER + INTRA:          -8.113
REMARK INTER:                  -7.822
REMARK INTRA:                  -0.291
REMARK UNBOUND:                -0.250
REMARK SMILES O=c1c(O)c(-c2ccc(O)cc2)oc2cc(O)cc(O)c12
REMARK SMILES IDX 5 1 3 2 2 3 1 4 21 5 19 6 18 7 16 8 15 9 14 10 13 11 6 12
REMARK SMILES IDX 7 13 8 14 9 15 12 16 11 17 10 18 4 20 20 22 17 24
REMARK H PARENT 10 19 4 21 20 23 17 25
REMARK Flexibility Score: inf
ROOT
ATOM      1  C   UNL     1      14.629 -32.325 -19.586  1.00  0.00     0.180 A 
ATOM      2  C   UNL     1      15.516 -32.670 -20.624  1.00  0.00     0.208 A 
ATOM      3  C   UNL     1      16.672 -31.897 -20.813  1.00  0.00     0.238 A 
ATOM      4  O   UNL     1      17.479 -32.201 -21.733  1.00  0.00    -0.285 OA
ATOM      5  C   UNL     1      16.911 -30.785 -19.979  1.00  0.00     0.111 A 
ATOM      6  C   UNL     1      18.049 -29.953 -20.107  1.00  0.00     0.134 A 
ATOM      7  C   UNL     1      18.211 -28.859 -19.242  1.00  0.00     0.093 A 
ATOM      8  C   UNL     1      17.258 -28.583 -18.255  1.00  0.00     0.123 A 
ATOM      9  C   UNL     1      16.135 -29.401 -18.127  1.00  0.00     0.094 A 
ATOM     10  C   UNL     1      15.956 -30.497 -18.977  1.00  0.00     0.146 A 
ATOM     11  O   UNL     1      14.880 -31.262 -18.828  1.00  0.00    -0.452 OA
ENDROOT
BRANCH   1  12
ATOM     12  C   UNL     1      13.400 -33.103 -19.310  1.00  0.00     0.021 A 
ATOM     13  C   UNL     1      12.185 -32.810 -19.958  1.00  0.00     0.016 A 
ATOM     14  C   UNL     1      11.044 -33.574 -19.699  1.00  0.00     0.047 A 
ATOM     15  C   UNL     1      11.103 -34.647 -18.799  1.00  0.00     0.115 A 
ATOM     16  C   UNL     1      13.454 -34.193 -18.426  1.00  0.00     0.016 A 
ATOM     17  C   UNL     1      12.311 -34.955 -18.167  1.00  0.00     0.047 A 
BRANCH  15  18
ATOM     18  O   UNL     1       9.971 -35.413 -18.532  1.00  0.00    -0.508 OA
ATOM     19  H   UNL     1       9.313 -35.151 -17.806  1.00  0.00     0.293 HD
ENDBRANCH  15  18
ENDBRANCH   1  12
BRANCH   2  20
ATOM     20  O   UNL     1      15.231 -33.746 -21.469  1.00  0.00    -0.502 OA
ATOM     21  H   UNL     1      15.073 -34.683 -21.118  1.00  0.00     0.293 HD
ENDBRANCH   2  20
BRANCH   6  22
ATOM     22  O   UNL     1      19.016 -30.201 -21.081  1.00  0.00    -0.507 OA
ATOM     23  H   UNL     1      19.767 -29.546 -21.267  1.00  0.00     0.293 HD
ENDBRANCH   6  22
BRANCH   8  24
ATOM     24  O   UNL     1      17.418 -27.497 -17.398  1.00  0.00    -0.508 OA
ATOM     25  H   UNL     1      17.603 -26.566 -17.752  1.00  0.00     0.293 HD
ENDBRANCH   8  24
TORSDOF 5
ENDMDL
MODEL 7
REMARK VINA RESULT:    -6.615      4.245      6.837
REMARK INTER + INTRA:          -8.025
REMARK INTER:                  -7.740
REMARK INTRA:                  -0.285
REMARK UNBOUND:                -0.250
REMARK SMILES O=c1c(O)c(-c2ccc(O)cc2)oc2cc(O)cc(O)c12
REMARK SMILES IDX 5 1 3 2 2 3 1 4 21 5 19 6 18 7 16 8 15 9 14 10 13 11 6 12
REMARK SMILES IDX 7 13 8 14 9 15 12 16 11 17 10 18 4 20 20 22 17 24
REMARK H PARENT 10 19 4 21 20 23 17 25
REMARK Flexibility Score: inf
ROOT
ATOM      1  C   UNL     1      17.711 -29.417 -20.479  1.00  0.00     0.180 A 
ATOM      2  C   UNL     1      16.714 -28.589 -21.029  1.00  0.00     0.208 A 
ATOM      3  C   UNL     1      16.271 -27.479 -20.292  1.00  0.00     0.238 A 
ATOM      4  O   UNL     1      15.386 -26.725 -20.778  1.00  0.00    -0.285 OA
ATOM      5  C   UNL     1      16.816 -27.228 -19.015  1.00  0.00     0.111 A 
ATOM      6  C   UNL     1      16.421 -26.135 -18.208  1.00  0.00     0.134 A 
ATOM      7  C   UNL     1      17.005 -25.958 -16.944  1.00  0.00     0.093 A 
ATOM      8  C   UNL     1      17.972 -26.853 -16.473  1.00  0.00     0.123 A 
ATOM      9  C   UNL     1      18.363 -27.932 -17.267  1.00  0.00     0.094 A 
ATOM     10  C   UNL     1      17.796 -28.125 -18.530  1.00  0.00     0.146 A 
ATOM     11  O   UNL     1      18.191 -29.158 -19.266  1.00  0.00    -0.452 OA
ENDROOT
BRANCH   1  12
ATOM     12  C   UNL     1      18.245 -30.594 -21.202  1.00  0.00     0.021 A 
ATOM     13  C   UNL     1      17.701 -31.878 -21.015  1.00  0.00     0.016 A 
ATOM     14  C   UNL     1      18.205 -32.970 -21.727  1.00  0.00     0.047 A 
ATOM     15  C   UNL     1      19.251 -32.791 -22.644  1.00  0.00     0.115 A 
ATOM     16  C   UNL     1      19.278 -30.421 -22.138  1.00  0.00     0.016 A 
ATOM     17  C   UNL     1      19.782 -31.515 -22.848  1.00  0.00     0.047 A 
BRANCH  15  18
ATOM     18  O   UNL     1      19.762 -33.873 -23.357  1.00  0.00    -0.508 OA
ATOM     19  H   UNL     1      20.759 -34.053 -23.403  1.00  0.00     0.293 HD
ENDBRANCH  15  18
ENDBRANCH   1  12
BRANCH   2  20
ATOM     20  O   UNL     1      16.155 -28.888 -22.275  1.00  0.00    -0.502 OA
ATOM     21  H   UNL     1      16.710 -29.231 -23.049  1.00  0.00     0.293 HD
ENDBRANCH   2  20
BRANCH   6  22
ATOM     22  O   UNL     1      15.459 -25.226 -18.648  1.00  0.00    -0.507 OA
ATOM     23  H   UNL     1      15.269 -24.365 -18.147  1.00  0.00     0.293 HD
ENDBRANCH   6  22
BRANCH   8  24
ATOM     24  O   UNL     1      18.550 -26.679 -15.219  1.00  0.00    -0.508 OA
ATOM     25  H   UNL     1      18.513 -25.788 -14.738  1.00  0.00     0.293 HD
ENDBRANCH   8  24
TORSDOF 5
ENDMDL
MODEL 8
REMARK VINA RESULT:    -6.508      6.423      8.055
REMARK INTER + INTRA:          -7.899
REMARK INTER:                  -7.620
REMARK INTRA:                  -0.279
REMARK UNBOUND:                -0.250
REMARK SMILES O=c1c(O)c(-c2ccc(O)cc2)oc2cc(O)cc(O)c12
REMARK SMILES IDX 5 1 3 2 2 3 1 4 21 5 19 6 18 7 16 8 15 9 14 10 13 11 6 12
REMARK SMILES IDX 7 13 8 14 9 15 12 16 11 17 10 18 4 20 20 22 17 24
REMARK H PARENT 10 19 4 21 20 23 17 25
REMARK Flexibility Score: inf
ROOT
ATOM      1  C   UNL     1      11.087 -33.729 -15.332  1.00  0.00     0.180 A 
ATOM      2  C   UNL     1      10.585 -34.459 -14.237  1.00  0.00     0.208 A 
ATOM      3  C   UNL     1      11.442 -34.744 -13.163  1.00  0.00     0.238 A 
ATOM      4  O   UNL     1      11.002 -35.388 -12.172  1.00  0.00    -0.285 OA
ATOM      5  C   UNL     1      12.785 -34.316 -13.210  1.00  0.00     0.111 A 
ATOM      6  C   UNL     1      13.714 -34.567 -12.172  1.00  0.00     0.134 A 
ATOM      7  C   UNL     1      15.036 -34.115 -12.297  1.00  0.00     0.093 A 
ATOM      8  C   UNL     1      15.447 -33.420 -13.440  1.00  0.00     0.123 A 
ATOM      9  C   UNL     1      14.534 -33.171 -14.466  1.00  0.00     0.094 A 
ATOM     10  C   UNL     1      13.211 -33.610 -14.359  1.00  0.00     0.146 A 
ATOM     11  O   UNL     1      12.362 -33.354 -15.349  1.00  0.00    -0.452 OA
ENDROOT
BRANCH   1  12
ATOM     12  C   UNL     1      10.241 -33.371 -16.494  1.00  0.00     0.021 A 
ATOM     13  C   UNL     1       9.360 -32.274 -16.450  1.00  0.00     0.016 A 
ATOM     14  C   UNL     1       8.590 -31.941 -17.568  1.00  0.00     0.047 A 
ATOM     15  C   UNL     1       8.697 -32.691 -18.746  1.00  0.00     0.115 A 
ATOM     16  C   UNL     1      10.356 -34.104 -17.686  1.00  0.00     0.016 A 
ATOM     17  C   UNL     1       9.583 -33.770 -18.802  1.00  0.00     0.047 A 
BRANCH  15  18
ATOM     18  O   UNL     1       7.931 -32.370 -19.865  1.00  0.00    -0.508 OA
ATOM     19  H   UNL     1       8.352 -32.265 -20.782  1.00  0.00     0.293 HD
ENDBRANCH  15  18
ENDBRANCH   1  12
BRANCH   2  20
ATOM     20  O   UNL     1       9.264 -34.914 -14.238  1.00  0.00    -0.502 OA
ATOM     21  H   UNL     1       8.972 -35.731 -14.760  1.00  0.00     0.293 HD
ENDBRANCH   2  20
BRANCH   6  22
ATOM     22  O   UNL     1      13.336 -35.259 -11.020  1.00  0.00    -0.507 OA
ATOM     23  H   UNL     1      12.885 -34.793 -10.242  1.00  0.00     0.293 HD
ENDBRANCH   6  22
BRANCH   8  24
ATOM     24  O   UNL     1      16.759 -32.972 -13.566  1.00  0.00    -0.508 OA
ATOM     25  H   UNL     1      17.307 -32.704 -12.757  1.00  0.00     0.293 HD
ENDBRANCH   8  24
TORSDOF 5
ENDMDL
MODEL 9
REMARK VINA RESULT:    -6.499      1.834      3.712
REMARK INTER + INTRA:          -7.889
REMARK INTER:                  -7.594
REMARK INTRA:                  -0.294
REMARK UNBOUND:                -0.250
REMARK SMILES O=c1c(O)c(-c2ccc(O)cc2)oc2cc(O)cc(O)c12
REMARK SMILES IDX 5 1 3 2 2 3 1 4 21 5 19 6 18 7 16 8 15 9 14 10 13 11 6 12
REMARK SMILES IDX 7 13 8 14 9 15 12 16 11 17 10 18 4 20 20 22 17 24
REMARK H PARENT 10 19 4 21 20 23 17 25
REMARK Flexibility Score: inf
ROOT
ATOM      1  C   UNL     1      16.264 -31.943 -20.371  1.00  0.00     0.180 A 
ATOM      2  C   UNL     1      17.350 -32.548 -21.032  1.00  0.00     0.208 A 
ATOM      3  C   UNL     1      18.283 -31.733 -21.691  1.00  0.00     0.238 A 
ATOM      4  O   UNL     1      19.265 -32.262 -22.278  1.00  0.00    -0.285 OA
ATOM      5  C   UNL     1      18.105 -30.333 -21.696  1.00  0.00     0.111 A 
ATOM      6  C   UNL     1      18.996 -29.443 -22.340  1.00  0.00     0.134 A 
ATOM      7  C   UNL     1      18.745 -28.063 -22.307  1.00  0.00     0.093 A 
ATOM      8  C   UNL     1      17.620 -27.558 -21.643  1.00  0.00     0.123 A 
ATOM      9  C   UNL     1      16.739 -28.434 -21.007  1.00  0.00     0.094 A 
ATOM     10  C   UNL     1      16.973 -29.812 -21.027  1.00  0.00     0.146 A 
ATOM     11  O   UNL     1      16.120 -30.622 -20.408  1.00  0.00    -0.452 OA
ENDROOT
BRANCH   1  12
ATOM     12  C   UNL     1      15.250 -32.733 -19.637  1.00  0.00     0.021 A 
ATOM     13  C   UNL     1      15.457 -33.138 -18.305  1.00  0.00     0.016 A 
ATOM     14  C   UNL     1      14.474 -33.862 -17.625  1.00  0.00     0.047 A 
ATOM     15  C   UNL     1      13.267 -34.183 -18.262  1.00  0.00     0.115 A 
ATOM     16  C   UNL     1      14.029 -33.041 -20.259  1.00  0.00     0.016 A 
ATOM     17  C   UNL     1      13.047 -33.767 -19.578  1.00  0.00     0.047 A 
BRANCH  15  18
ATOM     18  O   UNL     1      12.282 -34.906 -17.594  1.00  0.00    -0.508 OA
ATOM     19  H   UNL     1      11.404 -35.144 -18.043  1.00  0.00     0.293 HD
ENDBRANCH  15  18
ENDBRANCH   1  12
BRANCH   2  20
ATOM     20  O   UNL     1      17.476 -33.940 -21.055  1.00  0.00    -0.502 OA
ATOM     21  H   UNL     1      17.267 -34.517 -20.249  1.00  0.00     0.293 HD
ENDBRANCH   2  20
BRANCH   6  22
ATOM     22  O   UNL     1      20.125 -29.914 -23.011  1.00  0.00    -0.507 OA
ATOM     23  H   UNL     1      20.684 -29.311 -23.603  1.00  0.00     0.293 HD
ENDBRANCH   6  22
BRANCH   8  24
ATOM     24  O   UNL     1      17.369 -26.189 -21.611  1.00  0.00    -0.508 OA
ATOM     25  H   UNL     1      16.496 -25.803 -21.950  1.00  0.00     0.293 HD
ENDBRANCH   8  24
TORSDOF 5
ENDMDL
