MODEL 1
REMARK VINA RESULT:    -3.190      0.000      0.000
REMARK INTER + INTRA:          -3.469
REMARK INTER:                  -3.469
REMARK INTRA:                   0.000
REMARK UNBOUND:                 0.000
REMARK SMILES C=CC(C)(C)O
REMARK SMILES IDX 4 1 3 2 5 3 2 4 1 5 6 6
REMARK H PARENT 6 7
REMARK Flexibility Score: inf
ROOT
ATOM      1  C   UNL     1       1.777 -16.289  11.396  1.00  0.00     0.046 C 
ATOM      2  C   UNL     1       1.817 -16.147   9.862  1.00  0.00     0.077 C 
ATOM      3  C   UNL     1       3.111 -15.425   9.441  1.00  0.00     0.046 C 
ENDROOT
BRANCH   2   4
ATOM      4  C   UNL     1       0.621 -15.342   9.393  1.00  0.00    -0.001 C 
ATOM      5  C   UNL     1      -0.279 -15.837   8.534  1.00  0.00     0.007 C 
ENDBRANCH   2   4
BRANCH   2   6
ATOM      6  O   UNL     1       1.769 -17.416   9.254  1.00  0.00    -0.386 OA
ATOM      7  H   UNL     1       1.950 -17.298   8.284  1.00  0.00     0.211 HD
ENDBRANCH   2   6
TORSDOF 2
ENDMDL
MODEL 2
REMARK VINA RESULT:    -3.049      6.543      7.521
REMARK INTER + INTRA:          -3.317
REMARK INTER:                  -3.317
REMARK INTRA:                   0.000
REMARK UNBOUND:                 0.000
REMARK SMILES C=CC(C)(C)O
REMARK SMILES IDX 4 1 3 2 5 3 2 4 1 5 6 6
REMARK H PARENT 6 7
REMARK Flexibility Score: inf
ROOT
ATOM      1  C   UNL     1       7.752 -20.711   6.110  1.00  0.00     0.046 C 
ATOM      2  C   UNL     1       6.411 -20.079   5.689  1.00  0.00     0.077 C 
ATOM      3  C   UNL     1       6.573 -19.377   4.327  1.00  0.00     0.046 C 
ENDROOT
BRANCH   2   4
ATOM      4  C   UNL     1       5.979 -19.061   6.726  1.00  0.00    -0.001 C 
ATOM      5  C   UNL     1       6.805 -18.629   7.687  1.00  0.00     0.007 C 
ENDBRANCH   2   4
BRANCH   2   6
ATOM      6  O   UNL     1       5.415 -21.070   5.591  1.00  0.00    -0.386 OA
ATOM      7  H   UNL     1       5.866 -21.955   5.563  1.00  0.00     0.211 HD
ENDBRANCH   2   6
TORSDOF 2
ENDMDL
MODEL 3
REMARK VINA RESULT:    -3.009      7.135      8.037
REMARK INTER + INTRA:          -3.273
REMARK INTER:                  -3.273
REMARK INTRA:                   0.000
REMARK UNBOUND:                 0.000
REMARK SMILES C=CC(C)(C)O
REMARK SMILES IDX 4 1 3 2 5 3 2 4 1 5 6 6
REMARK H PARENT 6 7
REMARK Flexibility Score: inf
ROOT
ATOM      1  C   UNL     1       6.227 -18.991   6.735  1.00  0.00     0.046 C 
ATOM      2  C   UNL     1       6.396 -19.957   5.546  1.00  0.00     0.077 C 
ATOM      3  C   UNL     1       7.462 -21.016   5.886  1.00  0.00     0.046 C 
ENDROOT
BRANCH   2   4
ATOM      4  C   UNL     1       6.836 -19.183   4.319  1.00  0.00    -0.001 C 
ATOM      5  C   UNL     1       7.859 -19.581   3.554  1.00  0.00     0.007 C 
ENDBRANCH   2   4
BRANCH   2   6
ATOM      6  O   UNL     1       5.174 -20.596   5.260  1.00  0.00    -0.386 OA
ATOM      7  H   UNL     1       4.654 -20.004   4.654  1.00  0.00     0.211 HD
ENDBRANCH   2   6
TORSDOF 2
ENDMDL
MODEL 4
REMARK VINA RESULT:    -2.792      1.585      1.867
REMARK INTER + INTRA:          -3.037
REMARK INTER:                  -3.037
REMARK INTRA:                   0.000
REMARK UNBOUND:                 0.000
REMARK SMILES C=CC(C)(C)O
REMARK SMILES IDX 4 1 3 2 5 3 2 4 1 5 6 6
REMARK H PARENT 6 7
REMARK Flexibility Score: inf
ROOT
ATOM      1  C   UNL     1       2.007 -16.714   9.613  1.00  0.00     0.046 C 
ATOM      2  C   UNL     1       1.601 -15.236   9.776  1.00  0.00     0.077 C 
ATOM      3  C   UNL     1       1.428 -14.907  11.271  1.00  0.00     0.046 C 
ENDROOT
BRANCH   2   4
ATOM      4  C   UNL     1       0.291 -14.986   9.055  1.00  0.00    -0.001 C 
ATOM      5  C   UNL     1      -0.383 -15.966   8.441  1.00  0.00     0.007 C 
ENDBRANCH   2   4
BRANCH   2   6
ATOM      6  O   UNL     1       2.586 -14.397   9.221  1.00  0.00    -0.386 OA
ATOM      7  H   UNL     1       3.057 -13.942   9.969  1.00  0.00     0.211 HD
ENDBRANCH   2   6
TORSDOF 2
ENDMDL
MODEL 5
REMARK VINA RESULT:    -2.788      2.442      3.132
REMARK INTER + INTRA:          -3.033
REMARK INTER:                  -3.033
REMARK INTRA:                   0.000
REMARK UNBOUND:                 0.000
REMARK SMILES C=CC(C)(C)O
REMARK SMILES IDX 4 1 3 2 5 3 2 4 1 5 6 6
REMARK H PARENT 6 7
REMARK Flexibility Score: inf
ROOT
ATOM      1  C   UNL     1       2.349 -13.502   8.829  1.00  0.00     0.046 C 
ATOM      2  C   UNL     1       0.825 -13.723   8.884  1.00  0.00     0.077 C 
ATOM      3  C   UNL     1       0.203 -12.794   9.944  1.00  0.00     0.046 C 
ENDROOT
BRANCH   2   4
ATOM      4  C   UNL     1       0.533 -15.165   9.250  1.00  0.00    -0.001 C 
ATOM      5  C   UNL     1      -0.262 -15.942   8.504  1.00  0.00     0.007 C 
ENDBRANCH   2   4
BRANCH   2   6
ATOM      6  O   UNL     1       0.249 -13.454   7.627  1.00  0.00    -0.386 OA
ATOM      7  H   UNL     1       0.486 -12.522   7.376  1.00  0.00     0.211 HD
ENDBRANCH   2   6
TORSDOF 2
ENDMDL
MODEL 6
REMARK VINA RESULT:    -2.737      0.619      2.458
REMARK INTER + INTRA:          -2.977
REMARK INTER:                  -2.977
REMARK INTRA:                   0.000
REMARK UNBOUND:                 0.000
REMARK SMILES C=CC(C)(C)O
REMARK SMILES IDX 4 1 3 2 5 3 2 4 1 5 6 6
REMARK H PARENT 6 7
REMARK Flexibility Score: inf
ROOT
ATOM      1  C   UNL     1       3.165 -15.572   9.461  1.00  0.00     0.046 C 
ATOM      2  C   UNL     1       1.807 -16.154   9.899  1.00  0.00     0.077 C 
ATOM      3  C   UNL     1       0.674 -15.199   9.479  1.00  0.00     0.046 C 
ENDROOT
BRANCH   2   4
ATOM      4  C   UNL     1       1.787 -16.320  11.406  1.00  0.00    -0.001 C 
ATOM      5  C   UNL     1       1.639 -15.280  12.236  1.00  0.00     0.007 C 
ENDBRANCH   2   4
BRANCH   2   6
ATOM      6  O   UNL     1       1.603 -17.414   9.306  1.00  0.00    -0.386 OA
ATOM      7  H   UNL     1       2.185 -17.472   8.502  1.00  0.00     0.211 HD
ENDBRANCH   2   6
TORSDOF 2
ENDMDL
MODEL 7
REMARK VINA RESULT:    -2.697      0.603      2.417
REMARK INTER + INTRA:          -2.933
REMARK INTER:                  -2.933
REMARK INTRA:                   0.000
REMARK UNBOUND:                 0.000
REMARK SMILES C=CC(C)(C)O
REMARK SMILES IDX 4 1 3 2 5 3 2 4 1 5 6 6
REMARK H PARENT 6 7
REMARK Flexibility Score: inf
ROOT
ATOM      1  C   UNL     1       0.664 -15.205   9.439  1.00  0.00     0.046 C 
ATOM      2  C   UNL     1       1.799 -16.135   9.909  1.00  0.00     0.077 C 
ATOM      3  C   UNL     1       1.768 -16.256  11.445  1.00  0.00     0.046 C 
ENDROOT
BRANCH   2   4
ATOM      4  C   UNL     1       3.137 -15.565   9.480  1.00  0.00    -0.001 C 
ATOM      5  C   UNL     1       3.311 -14.259   9.244  1.00  0.00     0.007 C 
ENDBRANCH   2   4
BRANCH   2   6
ATOM      6  O   UNL     1       1.651 -17.413   9.335  1.00  0.00    -0.386 OA
ATOM      7  H   UNL     1       2.547 -17.841   9.306  1.00  0.00     0.211 HD
ENDBRANCH   2   6
TORSDOF 2
ENDMDL
MODEL 8
REMARK VINA RESULT:    -2.620      5.455      6.535
REMARK INTER + INTRA:          -2.850
REMARK INTER:                  -2.850
REMARK INTRA:                   0.000
REMARK UNBOUND:                 0.000
REMARK SMILES C=CC(C)(C)O
REMARK SMILES IDX 4 1 3 2 5 3 2 4 1 5 6 6
REMARK H PARENT 6 7
REMARK Flexibility Score: inf
ROOT
ATOM      1  C   UNL     1      -0.024 -17.189  16.703  1.00  0.00     0.046 C 
ATOM      2  C   UNL     1       0.236 -18.257  15.624  1.00  0.00     0.077 C 
ATOM      3  C   UNL     1       0.898 -19.492  16.265  1.00  0.00     0.046 C 
ENDROOT
BRANCH   2   4
ATOM      4  C   UNL     1       1.157 -17.693  14.560  1.00  0.00    -0.001 C 
ATOM      5  C   UNL     1       2.044 -18.454  13.909  1.00  0.00     0.007 C 
ENDBRANCH   2   4
BRANCH   2   6
ATOM      6  O   UNL     1      -0.975 -18.638  15.013  1.00  0.00    -0.386 OA
ATOM      7  H   UNL     1      -1.651 -18.769  15.730  1.00  0.00     0.211 HD
ENDBRANCH   2   6
TORSDOF 2
ENDMDL
MODEL 9
REMARK VINA RESULT:    -2.471      5.723      6.794
REMARK INTER + INTRA:          -2.688
REMARK INTER:                  -2.688
REMARK INTRA:                   0.000
REMARK UNBOUND:                 0.000
REMARK SMILES C=CC(C)(C)O
REMARK SMILES IDX 4 1 3 2 5 3 2 4 1 5 6 6
REMARK H PARENT 6 7
REMARK Flexibility Score: inf
ROOT
ATOM      1  C   UNL     1       0.919 -19.810  16.382  1.00  0.00     0.046 C 
ATOM      2  C   UNL     1       0.511 -18.544  15.605  1.00  0.00     0.077 C 
ATOM      3  C   UNL     1       1.478 -18.325  14.426  1.00  0.00     0.046 C 
ENDROOT
BRANCH   2   4
ATOM      4  C   UNL     1       0.565 -17.341  16.526  1.00  0.00    -0.001 C 
ATOM      5  C   UNL     1      -0.424 -16.440  16.580  1.00  0.00     0.007 C 
ENDBRANCH   2   4
BRANCH   2   6
ATOM      6  O   UNL     1      -0.803 -18.676  15.116  1.00  0.00    -0.386 OA
ATOM      7  H   UNL     1      -1.390 -18.076  15.649  1.00  0.00     0.211 HD
ENDBRANCH   2   6
TORSDOF 2
ENDMDL
