MODEL 1
REMARK VINA RESULT:    16.760      0.000      0.000
REMARK INTER + INTRA:          20.173
REMARK INTER:                  19.699
REMARK INTRA:                   0.474
REMARK UNBOUND:                 0.474
REMARK SMILES O=c1c(O)c(-c2ccc(O)c(O)c2)oc2cc(O)ccc12
REMARK SMILES IDX 5 1 3 2 2 3 1 4 21 5 15 6 14 7 16 8 17 9 19 10 20 11 6 12
REMARK SMILES IDX 7 13 8 14 9 15 13 16 11 17 10 18 12 20 4 22 18 24
REMARK H PARENT 10 19 12 21 4 23 18 25
REMARK Flexibility Score: inf
ROOT
ATOM      1  C   UNL     1      -5.915   4.919   4.408  1.00  0.00     0.180 A 
ATOM      2  C   UNL     1      -5.977   4.690   3.017  1.00  0.00     0.208 A 
ATOM      3  C   UNL     1      -6.020   3.367   2.552  1.00  0.00     0.235 A 
ATOM      4  O   UNL     1      -6.065   3.136   1.312  1.00  0.00    -0.285 OA
ATOM      5  C   UNL     1      -6.021   2.310   3.475  1.00  0.00     0.069 A 
ATOM      6  C   UNL     1      -5.981   2.623   4.850  1.00  0.00     0.142 A 
ATOM      7  O   UNL     1      -5.932   3.889   5.250  1.00  0.00    -0.452 OA
ATOM      8  C   UNL     1      -5.989   1.598   5.802  1.00  0.00     0.094 A 
ATOM      9  C   UNL     1      -6.036   0.259   5.398  1.00  0.00     0.119 A 
ATOM     10  C   UNL     1      -6.074  -0.056   4.032  1.00  0.00     0.047 A 
ATOM     11  C   UNL     1      -6.067   0.962   3.074  1.00  0.00     0.020 A 
ENDROOT
BRANCH   1  12
ATOM     12  C   UNL     1      -5.849   6.285   4.976  1.00  0.00     0.025 A 
ATOM     13  C   UNL     1      -5.672   6.449   6.359  1.00  0.00     0.016 A 
ATOM     14  C   UNL     1      -5.586   7.728   6.915  1.00  0.00     0.051 A 
ATOM     15  C   UNL     1      -5.659   8.860   6.098  1.00  0.00     0.157 A 
ATOM     16  C   UNL     1      -5.901   7.424   4.154  1.00  0.00     0.062 A 
ATOM     17  C   UNL     1      -5.813   8.710   4.709  1.00  0.00     0.158 A 
BRANCH  15  18
ATOM     18  O   UNL     1      -5.573  10.124   6.681  1.00  0.00    -0.504 OA
ATOM     19  H   UNL     1      -5.691  10.974   6.144  1.00  0.00     0.293 HD
ENDBRANCH  15  18
BRANCH  17  20
ATOM     20  O   UNL     1      -5.871   9.834   3.888  1.00  0.00    -0.504 OA
ATOM     21  H   UNL     1      -5.159  10.019   3.190  1.00  0.00     0.293 HD
ENDBRANCH  17  20
ENDBRANCH   1  12
BRANCH   2  22
ATOM     22  O   UNL     1      -6.026   5.763   2.125  1.00  0.00    -0.502 OA
ATOM     23  H   UNL     1      -5.839   5.654   1.135  1.00  0.00     0.293 HD
ENDBRANCH   2  22
BRANCH   9  24
ATOM     24  O   UNL     1      -6.044  -0.749   6.358  1.00  0.00    -0.508 OA
ATOM     25  H   UNL     1      -5.490  -1.590   6.248  1.00  0.00     0.293 HD
ENDBRANCH   9  24
TORSDOF 5
ENDMDL
