MODEL 1
REMARK VINA RESULT:    -4.390      0.000      0.000
REMARK INTER + INTRA:          -4.186
REMARK INTER:                  -6.186
REMARK INTRA:                   2.000
REMARK UNBOUND:                 2.000
REMARK SMILES CC1=CCC(=C(C)C)C(=O)CC(C)=CCC1
REMARK SMILES IDX 12 1 14 2 13 3 15 4 16 5 2 6 1 7 3 8 11 10 9 11 10 12 5 13
REMARK SMILES IDX 6 14 7 15 8 16 4 17
REMARK H PARENT
REMARK Flexibility Score: 60.00
ROOT
ATOM      1  C   UNL     1      85.206   3.402  27.964  1.00  0.00    -0.070 C 
ATOM      2  C   UNL     1      84.856   4.395  27.112  1.00  0.00    -0.027 C 
ATOM      3  C   UNL     1      86.634   3.374  28.451  1.00  0.00     0.039 C 
ENDROOT
BRANCH   2   4
ATOM      4  C   UNL     1      83.522   4.553  26.424  1.00  0.00     0.032 C 
BRANCH   4   5
ATOM      5  C   UNL     1      82.963   5.984  26.537  1.00  0.00     0.034 C 
BRANCH   5   6
ATOM      6  C   UNL     1      81.595   6.015  27.189  1.00  0.00    -0.077 C 
ATOM      7  C   UNL     1      80.422   6.494  26.371  1.00  0.00     0.039 C 
ATOM      8  C   UNL     1      81.359   5.611  28.459  1.00  0.00    -0.023 CG0
ATOM      9  G   UNL     1      82.391   5.069  29.418  1.00  0.00     0.000 G0
ENDBRANCH   5   6
ENDBRANCH   4   5
ENDBRANCH   2   4
BRANCH   1  10
ATOM     10  C   UNL     1      84.265   2.290  28.398  1.00  0.00     0.111 C 
BRANCH  10  11
ATOM     11  C   UNL     1      82.827   2.747  28.397  1.00  0.00     0.163 C 
ATOM     12  O   UNL     1      82.093   2.394  27.434  1.00  0.00    -0.294 OA
BRANCH  11  13
ATOM     13  C   UNL     1      82.250   3.551  29.520  1.00  0.00    -0.002 C 
ATOM     14  C   UNL     1      81.569   2.962  30.550  1.00  0.00    -0.069 C 
ATOM     15  C   UNL     1      81.298   1.474  30.573  1.00  0.00     0.039 C 
ATOM     16  C   UNL     1      81.022   3.777  31.701  1.00  0.00     0.039 C 
BRANCH  13  17
ATOM     17  C   UNL     1      82.387   5.059  29.430  1.00  0.00     0.066 CG0
ATOM     18  G   UNL     1      81.369   5.609  28.461  1.00  0.00     0.000 G0
ENDBRANCH  13  17
ENDBRANCH  11  13
ENDBRANCH  10  11
ENDBRANCH   1  10
TORSDOF 0
ENDMDL
MODEL 2
REMARK VINA RESULT:    -4.160      1.525      3.703
REMARK INTER + INTRA:          -3.862
REMARK INTER:                  -7.451
REMARK INTRA:                   3.589
REMARK UNBOUND:                 2.000
REMARK SMILES CC1=CCC(=C(C)C)C(=O)CC(C)=CCC1
REMARK SMILES IDX 12 1 14 2 13 3 15 4 16 5 2 6 1 7 3 8 11 10 9 11 10 12 5 13
REMARK SMILES IDX 6 14 7 15 8 16 4 17
REMARK H PARENT
REMARK Flexibility Score: 60.00
ROOT
ATOM      1  C   UNL     1      82.037   5.677  27.086  1.00  0.00    -0.070 C 
ATOM      2  C   UNL     1      82.506   4.962  26.037  1.00  0.00    -0.027 C 
ATOM      3  C   UNL     1      80.662   6.286  26.955  1.00  0.00     0.039 C 
ENDROOT
BRANCH   2   4
ATOM      4  C   UNL     1      83.884   4.359  25.911  1.00  0.00     0.032 C 
BRANCH   4   5
ATOM      5  C   UNL     1      84.823   4.782  27.057  1.00  0.00     0.034 C 
BRANCH   5   6
ATOM      6  C   UNL     1      85.150   3.628  27.985  1.00  0.00    -0.077 C 
ATOM      7  C   UNL     1      86.598   3.357  28.306  1.00  0.00     0.039 C 
ATOM      8  C   UNL     1      84.214   2.842  28.565  1.00  0.00    -0.023 CG0
ATOM      9  G   UNL     1      82.720   2.979  28.395  1.00  0.00     0.000 G0
ENDBRANCH   5   6
ENDBRANCH   4   5
ENDBRANCH   2   4
BRANCH   1  10
ATOM     10  C   UNL     1      82.838   5.951  28.348  1.00  0.00     0.111 C 
BRANCH  10  11
ATOM     11  C   UNL     1      82.266   5.222  29.539  1.00  0.00     0.163 C 
ATOM     12  O   UNL     1      81.876   5.908  30.523  1.00  0.00    -0.294 OA
BRANCH  11  13
ATOM     13  C   UNL     1      82.105   3.734  29.555  1.00  0.00    -0.002 C 
ATOM     14  C   UNL     1      81.500   3.087  30.598  1.00  0.00    -0.069 C 
ATOM     15  C   UNL     1      81.028   3.833  31.826  1.00  0.00     0.039 C 
ATOM     16  C   UNL     1      81.308   1.587  30.589  1.00  0.00     0.039 C 
BRANCH  13  17
ATOM     17  C   UNL     1      82.710   2.963  28.396  1.00  0.00     0.066 CG0
ATOM     18  G   UNL     1      84.204   2.856  28.577  1.00  0.00     0.000 G0
ENDBRANCH  13  17
ENDBRANCH  11  13
ENDBRANCH  10  11
ENDBRANCH   1  10
TORSDOF 0
ENDMDL
MODEL 3
REMARK VINA RESULT:    -3.891     11.736     12.914
REMARK INTER + INTRA:          -3.483
REMARK INTER:                  -3.917
REMARK INTRA:                   0.433
REMARK UNBOUND:                 2.000
REMARK SMILES CC1=CCC(=C(C)C)C(=O)CC(C)=CCC1
REMARK SMILES IDX 12 1 14 2 13 3 15 4 16 5 2 6 1 7 3 8 11 10 9 11 10 12 5 13
REMARK SMILES IDX 6 14 7 15 8 16 4 17
REMARK H PARENT
REMARK Flexibility Score: 60.00
ROOT
ATOM      1  C   UNL     1      85.184  -7.152  30.557  1.00  0.00    -0.070 C 
ATOM      2  C   UNL     1      85.697  -6.814  29.350  1.00  0.00    -0.027 C 
ATOM      3  C   UNL     1      86.159  -7.432  31.674  1.00  0.00     0.039 C 
ENDROOT
BRANCH   2   4
ATOM      4  C   UNL     1      84.917  -6.596  28.077  1.00  0.00     0.032 C 
BRANCH   4   5
ATOM      5  C   UNL     1      84.872  -7.851  27.186  1.00  0.00     0.034 C 
BRANCH   5   6
ATOM      6  C   UNL     1      83.476  -8.136  26.667  1.00  0.00    -0.077 C 
ATOM      7  C   UNL     1      83.008  -7.405  25.434  1.00  0.00     0.039 C 
ATOM      8  C   UNL     1      82.633  -9.031  27.231  1.00  0.00    -0.023 CG0
ATOM      9  G   UNL     1      82.931  -9.882  28.442  1.00  0.00     0.000 G0
ENDBRANCH   5   6
ENDBRANCH   4   5
ENDBRANCH   2   4
BRANCH   1  10
ATOM     10  C   UNL     1      83.698  -7.326  30.824  1.00  0.00     0.111 C 
BRANCH  10  11
ATOM     11  C   UNL     1      83.286  -8.775  30.748  1.00  0.00     0.163 C 
ATOM     12  O   UNL     1      83.736  -9.566  31.621  1.00  0.00    -0.294 OA
BRANCH  11  13
ATOM     13  C   UNL     1      82.329  -9.273  29.710  1.00  0.00    -0.002 C 
ATOM     14  C   UNL     1      80.975  -9.234  29.902  1.00  0.00    -0.069 C 
ATOM     15  C   UNL     1      80.373  -8.754  31.204  1.00  0.00     0.039 C 
ATOM     16  C   UNL     1      80.015  -9.705  28.834  1.00  0.00     0.039 C 
BRANCH  13  17
ATOM     17  C   UNL     1      82.929  -9.895  28.463  1.00  0.00     0.066 CG0
ATOM     18  G   UNL     1      82.629  -9.028  27.264  1.00  0.00     0.000 G0
ENDBRANCH  13  17
ENDBRANCH  11  13
ENDBRANCH  10  11
ENDBRANCH   1  10
TORSDOF 0
ENDMDL
MODEL 4
REMARK VINA RESULT:    -3.561      1.469      3.604
REMARK INTER + INTRA:          -3.018
REMARK INTER:                  -5.281
REMARK INTRA:                   2.263
REMARK UNBOUND:                 2.000
REMARK SMILES CC1=CCC(=C(C)C)C(=O)CC(C)=CCC1
REMARK SMILES IDX 12 1 14 2 13 3 15 4 16 5 2 6 1 7 3 8 11 10 9 11 10 12 5 13
REMARK SMILES IDX 6 14 7 15 8 16 4 17
REMARK H PARENT
REMARK Flexibility Score: 60.00
ROOT
ATOM      1  C   UNL     1      84.746   3.116  27.844  1.00  0.00    -0.070 C 
ATOM      2  C   UNL     1      83.837   2.214  28.284  1.00  0.00    -0.027 C 
ATOM      3  C   UNL     1      86.128   3.062  28.448  1.00  0.00     0.039 C 
ENDROOT
BRANCH   2   4
ATOM      4  C   UNL     1      82.379   2.154  27.898  1.00  0.00     0.032 C 
BRANCH   4   5
ATOM      5  C   UNL     1      81.628   3.462  28.212  1.00  0.00     0.034 C 
BRANCH   5   6
ATOM      6  C   UNL     1      81.810   3.895  29.653  1.00  0.00    -0.077 C 
ATOM      7  C   UNL     1      81.705   2.849  30.734  1.00  0.00     0.039 C 
ATOM      8  C   UNL     1      82.088   5.166  30.026  1.00  0.00    -0.023 CG0
ATOM      9  G   UNL     1      82.266   6.339  29.094  1.00  0.00     0.000 G0
ENDBRANCH   5   6
ENDBRANCH   4   5
ENDBRANCH   2   4
BRANCH   1  10
ATOM     10  C   UNL     1      84.433   4.208  26.835  1.00  0.00     0.111 C 
BRANCH  10  11
ATOM     11  C   UNL     1      84.081   5.508  27.514  1.00  0.00     0.163 C 
ATOM     12  O   UNL     1      85.025   6.260  27.883  1.00  0.00    -0.294 OA
BRANCH  11  13
ATOM     13  C   UNL     1      82.662   5.943  27.708  1.00  0.00    -0.002 C 
ATOM     14  C   UNL     1      81.781   6.007  26.664  1.00  0.00    -0.069 C 
ATOM     15  C   UNL     1      82.212   5.716  25.244  1.00  0.00     0.039 C 
ATOM     16  C   UNL     1      80.339   6.411  26.875  1.00  0.00     0.039 C 
BRANCH  13  17
ATOM     17  C   UNL     1      82.260   6.381  29.104  1.00  0.00     0.066 CG0
ATOM     18  G   UNL     1      82.077   5.171  29.988  1.00  0.00     0.000 G0
ENDBRANCH  13  17
ENDBRANCH  11  13
ENDBRANCH  10  11
ENDBRANCH   1  10
TORSDOF 0
ENDMDL
MODEL 5
REMARK VINA RESULT:    -3.391     12.001     13.250
REMARK INTER + INTRA:          -2.779
REMARK INTER:                  -3.805
REMARK INTRA:                   1.026
REMARK UNBOUND:                 2.000
REMARK SMILES CC1=CCC(=C(C)C)C(=O)CC(C)=CCC1
REMARK SMILES IDX 12 1 14 2 13 3 15 4 16 5 2 6 1 7 3 8 11 10 9 11 10 12 5 13
REMARK SMILES IDX 6 14 7 15 8 16 4 17
REMARK H PARENT
REMARK Flexibility Score: 60.00
ROOT
ATOM      1  C   UNL     1      84.498  -8.818  27.831  1.00  0.00    -0.070 C 
ATOM      2  C   UNL     1      85.206  -9.001  28.970  1.00  0.00    -0.027 C 
ATOM      3  C   UNL     1      84.543  -9.919  26.799  1.00  0.00     0.039 C 
ENDROOT
BRANCH   2   4
ATOM      4  C   UNL     1      85.386  -7.996  30.081  1.00  0.00     0.032 C 
BRANCH   4   5
ATOM      5  C   UNL     1      84.046  -7.499  30.654  1.00  0.00     0.034 C 
BRANCH   5   6
ATOM      6  C   UNL     1      83.102  -8.641  30.978  1.00  0.00    -0.077 C 
ATOM      7  C   UNL     1      83.551  -9.679  31.976  1.00  0.00     0.039 C 
ATOM      8  C   UNL     1      81.867  -8.770  30.442  1.00  0.00    -0.023 CG0
ATOM      9  G   UNL     1      81.230  -7.819  29.457  1.00  0.00     0.000 G0
ENDBRANCH   5   6
ENDBRANCH   4   5
ENDBRANCH   2   4
BRANCH   1  10
ATOM     10  C   UNL     1      83.722  -7.551  27.512  1.00  0.00     0.111 C 
BRANCH  10  11
ATOM     11  C   UNL     1      82.306  -7.858  27.091  1.00  0.00     0.163 C 
ATOM     12  O   UNL     1      81.987  -7.653  25.888  1.00  0.00    -0.294 OA
BRANCH  11  13
ATOM     13  C   UNL     1      81.305  -8.439  28.040  1.00  0.00    -0.002 C 
ATOM     14  C   UNL     1      80.444  -9.431  27.658  1.00  0.00    -0.069 C 
ATOM     15  C   UNL     1      80.405  -9.943  26.235  1.00  0.00     0.039 C 
ATOM     16  C   UNL     1      79.461 -10.039  28.633  1.00  0.00     0.039 C 
BRANCH  13  17
ATOM     17  C   UNL     1      81.235  -7.828  29.427  1.00  0.00     0.066 CG0
ATOM     18  G   UNL     1      81.864  -8.763  30.431  1.00  0.00     0.000 G0
ENDBRANCH  13  17
ENDBRANCH  11  13
ENDBRANCH  10  11
ENDBRANCH   1  10
TORSDOF 0
ENDMDL
MODEL 6
REMARK VINA RESULT:    -3.262      1.635      4.684
REMARK INTER + INTRA:          -2.597
REMARK INTER:                  -4.204
REMARK INTRA:                   1.607
REMARK UNBOUND:                 2.000
REMARK SMILES CC1=CCC(=C(C)C)C(=O)CC(C)=CCC1
REMARK SMILES IDX 12 1 14 2 13 3 15 4 16 5 2 6 1 7 3 8 11 10 9 11 10 12 5 13
REMARK SMILES IDX 6 14 7 15 8 16 4 17
REMARK H PARENT
REMARK Flexibility Score: 60.00
ROOT
ATOM      1  C   UNL     1      81.500   3.166  30.218  1.00  0.00    -0.070 C 
ATOM      2  C   UNL     1      82.540   2.359  29.899  1.00  0.00    -0.027 C 
ATOM      3  C   UNL     1      80.896   3.010  31.592  1.00  0.00     0.039 C 
ENDROOT
BRANCH   2   4
ATOM      4  C   UNL     1      83.223   2.271  28.555  1.00  0.00     0.032 C 
BRANCH   4   5
ATOM      5  C   UNL     1      84.756   2.371  28.662  1.00  0.00     0.034 C 
BRANCH   5   6
ATOM      6  C   UNL     1      85.293   3.642  28.035  1.00  0.00    -0.077 C 
ATOM      7  C   UNL     1      86.706   4.058  28.356  1.00  0.00     0.039 C 
ATOM      8  C   UNL     1      84.584   4.414  27.179  1.00  0.00    -0.023 CG0
ATOM      9  G   UNL     1      83.175   4.146  26.710  1.00  0.00     0.000 G0
ENDBRANCH   5   6
ENDBRANCH   4   5
ENDBRANCH   2   4
BRANCH   1  10
ATOM     10  C   UNL     1      80.876   4.161  29.254  1.00  0.00     0.111 C 
BRANCH  10  11
ATOM     11  C   UNL     1      81.899   5.130  28.716  1.00  0.00     0.163 C 
ATOM     12  O   UNL     1      82.518   5.858  29.538  1.00  0.00    -0.294 OA
BRANCH  11  13
ATOM     13  C   UNL     1      82.227   5.206  27.257  1.00  0.00    -0.002 C 
ATOM     14  C   UNL     1      81.656   6.142  26.439  1.00  0.00    -0.069 C 
ATOM     15  C   UNL     1      80.605   7.103  26.948  1.00  0.00     0.039 C 
ATOM     16  C   UNL     1      82.021   6.236  24.975  1.00  0.00     0.039 C 
BRANCH  13  17
ATOM     17  C   UNL     1      83.167   4.150  26.706  1.00  0.00     0.066 CG0
ATOM     18  G   UNL     1      84.577   4.427  27.170  1.00  0.00     0.000 G0
ENDBRANCH  13  17
ENDBRANCH  11  13
ENDBRANCH  10  11
ENDBRANCH   1  10
TORSDOF 0
ENDMDL
MODEL 7
REMARK VINA RESULT:    -3.262     11.865     13.134
REMARK INTER + INTRA:          -2.596
REMARK INTER:                  -3.228
REMARK INTRA:                   0.632
REMARK UNBOUND:                 2.000
REMARK SMILES CC1=CCC(=C(C)C)C(=O)CC(C)=CCC1
REMARK SMILES IDX 12 1 14 2 13 3 15 4 16 5 2 6 1 7 3 8 11 10 9 11 10 12 5 13
REMARK SMILES IDX 6 14 7 15 8 16 4 17
REMARK H PARENT
REMARK Flexibility Score: 60.00
ROOT
ATOM      1  C   UNL     1      84.789  -7.988  27.940  1.00  0.00    -0.070 C 
ATOM      2  C   UNL     1      83.977  -7.899  26.861  1.00  0.00    -0.027 C 
ATOM      3  C   UNL     1      85.282  -6.697  28.548  1.00  0.00     0.039 C 
ENDROOT
BRANCH   2   4
ATOM      4  C   UNL     1      83.456  -9.053  26.038  1.00  0.00     0.032 C 
BRANCH   4   5
ATOM      5  C   UNL     1      82.378  -9.868  26.775  1.00  0.00     0.034 C 
BRANCH   5   6
ATOM      6  C   UNL     1      81.453  -8.987  27.593  1.00  0.00    -0.077 C 
ATOM      7  C   UNL     1      80.479  -8.099  26.862  1.00  0.00     0.039 C 
ATOM      8  C   UNL     1      81.432  -8.973  28.946  1.00  0.00    -0.023 CG0
ATOM      9  G   UNL     1      82.301  -9.813  29.850  1.00  0.00     0.000 G0
ENDBRANCH   5   6
ENDBRANCH   4   5
ENDBRANCH   2   4
BRANCH   1  10
ATOM     10  C   UNL     1      85.278  -9.302  28.525  1.00  0.00     0.111 C 
BRANCH  10  11
ATOM     11  C   UNL     1      84.823  -9.479  29.952  1.00  0.00     0.163 C 
ATOM     12  O   UNL     1      85.644  -9.955  30.783  1.00  0.00    -0.294 OA
BRANCH  11  13
ATOM     13  C   UNL     1      83.459  -9.060  30.406  1.00  0.00    -0.002 C 
ATOM     14  C   UNL     1      83.283  -8.063  31.326  1.00  0.00    -0.069 C 
ATOM     15  C   UNL     1      84.458  -7.380  31.990  1.00  0.00     0.039 C 
ATOM     16  C   UNL     1      81.901  -7.620  31.752  1.00  0.00     0.039 C 
BRANCH  13  17
ATOM     17  C   UNL     1      82.279  -9.841  29.858  1.00  0.00     0.066 CG0
ATOM     18  G   UNL     1      81.468  -8.962  28.937  1.00  0.00     0.000 G0
ENDBRANCH  13  17
ENDBRANCH  11  13
ENDBRANCH  10  11
ENDBRANCH   1  10
TORSDOF 0
ENDMDL
MODEL 8
REMARK VINA RESULT:    -3.099     12.044     13.592
REMARK INTER + INTRA:          -2.366
REMARK INTER:                  -4.268
REMARK INTRA:                   1.901
REMARK UNBOUND:                 2.000
REMARK SMILES CC1=CCC(=C(C)C)C(=O)CC(C)=CCC1
REMARK SMILES IDX 12 1 14 2 13 3 15 4 16 5 2 6 1 7 3 8 11 10 9 11 10 12 5 13
REMARK SMILES IDX 6 14 7 15 8 16 4 17
REMARK H PARENT
REMARK Flexibility Score: 60.00
ROOT
ATOM      1  C   UNL     1      81.861  -8.824  25.016  1.00  0.00    -0.070 C 
ATOM      2  C   UNL     1      83.167  -9.085  24.769  1.00  0.00    -0.027 C 
ATOM      3  C   UNL     1      80.879  -9.067  23.896  1.00  0.00     0.039 C 
ENDROOT
BRANCH   2   4
ATOM      4  C   UNL     1      84.323  -8.818  25.702  1.00  0.00     0.032 C 
BRANCH   4   5
ATOM      5  C   UNL     1      84.070  -7.616  26.631  1.00  0.00     0.034 C 
BRANCH   5   6
ATOM      6  C   UNL     1      84.495  -7.897  28.060  1.00  0.00    -0.077 C 
ATOM      7  C   UNL     1      85.385  -6.896  28.752  1.00  0.00     0.039 C 
ATOM      8  C   UNL     1      84.097  -8.984  28.761  1.00  0.00    -0.023 CG0
ATOM      9  G   UNL     1      83.183 -10.073  28.257  1.00  0.00     0.000 G0
ENDBRANCH   5   6
ENDBRANCH   4   5
ENDBRANCH   2   4
BRANCH   1  10
ATOM     10  C   UNL     1      81.347  -8.246  26.324  1.00  0.00     0.111 C 
BRANCH  10  11
ATOM     11  C   UNL     1      80.918  -9.331  27.280  1.00  0.00     0.163 C 
ATOM     12  O   UNL     1      79.863  -9.971  27.017  1.00  0.00    -0.294 OA
BRANCH  11  13
ATOM     13  C   UNL     1      81.730  -9.694  28.484  1.00  0.00    -0.002 C 
ATOM     14  C   UNL     1      81.214  -9.620  29.749  1.00  0.00    -0.069 C 
ATOM     15  C   UNL     1      79.818  -9.096  30.006  1.00  0.00     0.039 C 
ATOM     16  C   UNL     1      82.029 -10.024  30.957  1.00  0.00     0.039 C 
BRANCH  13  17
ATOM     17  C   UNL     1      83.179 -10.077  28.248  1.00  0.00     0.066 CG0
ATOM     18  G   UNL     1      84.088  -9.003  28.794  1.00  0.00     0.000 G0
ENDBRANCH  13  17
ENDBRANCH  11  13
ENDBRANCH  10  11
ENDBRANCH   1  10
TORSDOF 0
ENDMDL
MODEL 9
REMARK VINA RESULT:    -2.871      1.665      4.548
REMARK INTER + INTRA:          -2.046
REMARK INTER:                  -4.723
REMARK INTRA:                   2.677
REMARK UNBOUND:                 2.000
REMARK SMILES CC1=CCC(=C(C)C)C(=O)CC(C)=CCC1
REMARK SMILES IDX 12 1 14 2 13 3 15 4 16 5 2 6 1 7 3 8 11 10 9 11 10 12 5 13
REMARK SMILES IDX 6 14 7 15 8 16 4 17
REMARK H PARENT
REMARK Flexibility Score: 60.00
ROOT
ATOM      1  C   UNL     1      81.228   6.318  27.681  1.00  0.00    -0.070 C 
ATOM      2  C   UNL     1      81.610   6.555  28.958  1.00  0.00    -0.027 C 
ATOM      3  C   UNL     1      80.893   7.513  26.821  1.00  0.00     0.039 C 
ENDROOT
BRANCH   2   4
ATOM      4  C   UNL     1      81.887   5.515  30.016  1.00  0.00     0.032 C 
BRANCH   4   5
ATOM      5  C   UNL     1      82.838   4.408  29.524  1.00  0.00     0.034 C 
BRANCH   5   6
ATOM      6  C   UNL     1      82.182   3.041  29.536  1.00  0.00    -0.077 C 
ATOM      7  C   UNL     1      81.267   2.696  30.684  1.00  0.00     0.039 C 
ATOM      8  C   UNL     1      82.349   2.120  28.560  1.00  0.00    -0.023 CG0
ATOM      9  G   UNL     1      83.192   2.292  27.319  1.00  0.00     0.000 G0
ENDBRANCH   5   6
ENDBRANCH   4   5
ENDBRANCH   2   4
BRANCH   1  10
ATOM     10  C   UNL     1      81.056   4.926  27.095  1.00  0.00     0.111 C 
BRANCH  10  11
ATOM     11  C   UNL     1      82.285   4.487  26.339  1.00  0.00     0.163 C 
ATOM     12  O   UNL     1      82.374   4.794  25.119  1.00  0.00    -0.294 OA
BRANCH  11  13
ATOM     13  C   UNL     1      83.406   3.753  27.007  1.00  0.00    -0.002 C 
ATOM     14  C   UNL     1      84.601   4.362  27.281  1.00  0.00    -0.069 C 
ATOM     15  C   UNL     1      84.880   5.787  26.858  1.00  0.00     0.039 C 
ATOM     16  C   UNL     1      85.715   3.625  27.990  1.00  0.00     0.039 C 
BRANCH  13  17
ATOM     17  C   UNL     1      83.189   2.281  27.301  1.00  0.00     0.066 CG0
ATOM     18  G   UNL     1      82.351   2.126  28.547  1.00  0.00     0.000 G0
ENDBRANCH  13  17
ENDBRANCH  11  13
ENDBRANCH  10  11
ENDBRANCH   1  10
TORSDOF 0
ENDMDL
