MODEL 1
REMARK VINA RESULT:    -2.924      0.000      0.000
REMARK INTER + INTRA:          -3.735
REMARK INTER:                  -3.523
REMARK INTRA:                  -0.213
REMARK UNBOUND:                -0.213
REMARK SMILES OCC(O)CO
REMARK SMILES IDX 3 1 5 2 6 3 2 5 1 6 4 8
REMARK H PARENT 6 4 1 7 4 9
REMARK Flexibility Score: inf
ROOT
ATOM      1  C   UNL     1      15.984  61.675  31.572  1.00  0.00     0.165 C 
ENDROOT
BRANCH   1   2
ATOM      2  C   UNL     1      14.986  60.704  30.915  1.00  0.00     0.190 C 
BRANCH   2   3
ATOM      3  O   UNL     1      13.966  61.402  30.253  1.00  0.00    -0.394 OA
ATOM      4  H   UNL     1      14.150  62.369  30.388  1.00  0.00     0.210 HD
ENDBRANCH   2   3
ENDBRANCH   1   2
BRANCH   1   5
ATOM      5  C   UNL     1      15.579  63.142  31.363  1.00  0.00     0.190 C 
BRANCH   5   6
ATOM      6  O   UNL     1      14.436  63.465  32.113  1.00  0.00    -0.394 OA
ATOM      7  H   UNL     1      13.665  63.419  31.490  1.00  0.00     0.210 HD
ENDBRANCH   5   6
ENDBRANCH   1   5
BRANCH   1   8
ATOM      8  O   UNL     1      16.072  61.409  32.948  1.00  0.00    -0.388 OA
ATOM      9  H   UNL     1      16.016  62.283  33.414  1.00  0.00     0.211 HD
ENDBRANCH   1   8
TORSDOF 5
ENDMDL
MODEL 2
REMARK VINA RESULT:    -2.908      0.630      2.633
REMARK INTER + INTRA:          -3.716
REMARK INTER:                  -3.493
REMARK INTRA:                  -0.223
REMARK UNBOUND:                -0.213
REMARK SMILES OCC(O)CO
REMARK SMILES IDX 3 1 5 2 6 3 2 5 1 6 4 8
REMARK H PARENT 6 4 1 7 4 9
REMARK Flexibility Score: inf
ROOT
ATOM      1  C   UNL     1      15.291  61.865  30.643  1.00  0.00     0.165 C 
ENDROOT
BRANCH   1   2
ATOM      2  C   UNL     1      15.462  63.296  31.183  1.00  0.00     0.190 C 
BRANCH   2   3
ATOM      3  O   UNL     1      14.419  63.632  32.058  1.00  0.00    -0.394 OA
ATOM      4  H   UNL     1      14.843  63.917  32.910  1.00  0.00     0.210 HD
ENDBRANCH   2   3
ENDBRANCH   1   2
BRANCH   1   5
ATOM      5  C   UNL     1      15.713  60.807  31.674  1.00  0.00     0.190 C 
BRANCH   5   6
ATOM      6  O   UNL     1      16.068  61.402  32.895  1.00  0.00    -0.394 OA
ATOM      7  H   UNL     1      17.038  61.605  32.842  1.00  0.00     0.210 HD
ENDBRANCH   5   6
ENDBRANCH   1   5
BRANCH   1   8
ATOM      8  O   UNL     1      13.951  61.650  30.281  1.00  0.00    -0.388 OA
ATOM      9  H   UNL     1      13.509  61.217  31.057  1.00  0.00     0.211 HD
ENDBRANCH   1   8
TORSDOF 5
ENDMDL
MODEL 3
REMARK VINA RESULT:    -2.768      1.475      2.378
REMARK INTER + INTRA:          -3.547
REMARK INTER:                  -3.544
REMARK INTRA:                  -0.003
REMARK UNBOUND:                -0.213
REMARK SMILES OCC(O)CO
REMARK SMILES IDX 3 1 5 2 6 3 2 5 1 6 4 8
REMARK H PARENT 6 4 1 7 4 9
REMARK Flexibility Score: inf
ROOT
ATOM      1  C   UNL     1      15.651  63.076  31.259  1.00  0.00     0.165 C 
ENDROOT
BRANCH   1   2
ATOM      2  C   UNL     1      15.459  61.558  31.426  1.00  0.00     0.190 C 
BRANCH   2   3
ATOM      3  O   UNL     1      15.855  61.137  32.704  1.00  0.00    -0.394 OA
ATOM      4  H   UNL     1      16.812  60.880  32.634  1.00  0.00     0.210 HD
ENDBRANCH   2   3
ENDBRANCH   1   2
BRANCH   1   5
ATOM      5  C   UNL     1      15.609  63.501  29.783  1.00  0.00     0.190 C 
BRANCH   5   6
ATOM      6  O   UNL     1      15.728  64.894  29.653  1.00  0.00    -0.394 OA
ATOM      7  H   UNL     1      15.233  65.146  28.830  1.00  0.00     0.210 HD
ENDBRANCH   5   6
ENDBRANCH   1   5
BRANCH   1   8
ATOM      8  O   UNL     1      14.652  63.763  31.967  1.00  0.00    -0.388 OA
ATOM      9  H   UNL     1      13.936  63.105  32.168  1.00  0.00     0.211 HD
ENDBRANCH   1   8
TORSDOF 5
ENDMDL
MODEL 4
REMARK VINA RESULT:    -2.766      1.701      2.563
REMARK INTER + INTRA:          -3.544
REMARK INTER:                  -3.326
REMARK INTRA:                  -0.218
REMARK UNBOUND:                -0.213
REMARK SMILES OCC(O)CO
REMARK SMILES IDX 3 1 5 2 6 3 2 5 1 6 4 8
REMARK H PARENT 6 4 1 7 4 9
REMARK Flexibility Score: inf
ROOT
ATOM      1  C   UNL     1      15.480  62.450  30.260  1.00  0.00     0.165 C 
ENDROOT
BRANCH   1   2
ATOM      2  C   UNL     1      15.554  63.437  29.081  1.00  0.00     0.190 C 
BRANCH   2   3
ATOM      3  O   UNL     1      15.722  64.753  29.536  1.00  0.00    -0.394 OA
ATOM      4  H   UNL     1      16.394  64.717  30.266  1.00  0.00     0.210 HD
ENDBRANCH   2   3
ENDBRANCH   1   2
BRANCH   1   5
ATOM      5  C   UNL     1      15.732  63.145  31.607  1.00  0.00     0.190 C 
BRANCH   5   6
ATOM      6  O   UNL     1      14.553  63.713  32.114  1.00  0.00    -0.394 OA
ATOM      7  H   UNL     1      14.435  64.584  31.652  1.00  0.00     0.210 HD
ENDBRANCH   5   6
ENDBRANCH   1   5
BRANCH   1   8
ATOM      8  O   UNL     1      14.219  61.833  30.286  1.00  0.00    -0.388 OA
ATOM      9  H   UNL     1      13.673  62.263  29.577  1.00  0.00     0.211 HD
ENDBRANCH   1   8
TORSDOF 5
ENDMDL
MODEL 5
REMARK VINA RESULT:    -2.662      1.611      2.944
REMARK INTER + INTRA:          -3.419
REMARK INTER:                  -3.197
REMARK INTRA:                  -0.222
REMARK UNBOUND:                -0.213
REMARK SMILES OCC(O)CO
REMARK SMILES IDX 3 1 5 2 6 3 2 5 1 6 4 8
REMARK H PARENT 6 4 1 7 4 9
REMARK Flexibility Score: inf
ROOT
ATOM      1  C   UNL     1      15.764  63.136  30.115  1.00  0.00     0.165 C 
ENDROOT
BRANCH   1   2
ATOM      2  C   UNL     1      15.541  62.940  31.625  1.00  0.00     0.190 C 
BRANCH   2   3
ATOM      3  O   UNL     1      14.400  63.630  32.059  1.00  0.00    -0.394 OA
ATOM      4  H   UNL     1      14.630  64.597  32.044  1.00  0.00     0.210 HD
ENDBRANCH   2   3
ENDBRANCH   1   2
BRANCH   1   5
ATOM      5  C   UNL     1      14.845  62.234  29.277  1.00  0.00     0.190 C 
BRANCH   5   6
ATOM      6  O   UNL     1      13.897  61.585  30.084  1.00  0.00    -0.394 OA
ATOM      7  H   UNL     1      14.092  60.613  30.029  1.00  0.00     0.210 HD
ENDBRANCH   5   6
ENDBRANCH   1   5
BRANCH   1   8
ATOM      8  O   UNL     1      15.536  64.478  29.770  1.00  0.00    -0.388 OA
ATOM      9  H   UNL     1      16.346  64.794  29.292  1.00  0.00     0.211 HD
ENDBRANCH   1   8
TORSDOF 5
ENDMDL
MODEL 6
REMARK VINA RESULT:    -2.629      0.942      2.118
REMARK INTER + INTRA:          -3.379
REMARK INTER:                  -3.162
REMARK INTRA:                  -0.217
REMARK UNBOUND:                -0.213
REMARK SMILES OCC(O)CO
REMARK SMILES IDX 3 1 5 2 6 3 2 5 1 6 4 8
REMARK H PARENT 6 4 1 7 4 9
REMARK Flexibility Score: inf
ROOT
ATOM      1  C   UNL     1      15.004  61.641  30.731  1.00  0.00     0.165 C 
ENDROOT
BRANCH   1   2
ATOM      2  C   UNL     1      15.611  60.726  31.808  1.00  0.00     0.190 C 
BRANCH   2   3
ATOM      3  O   UNL     1      16.055  61.471  32.910  1.00  0.00    -0.394 OA
ATOM      4  H   UNL     1      16.070  60.850  33.685  1.00  0.00     0.210 HD
ENDBRANCH   2   3
ENDBRANCH   1   2
BRANCH   1   5
ATOM      5  C   UNL     1      15.272  63.126  31.021  1.00  0.00     0.190 C 
BRANCH   5   6
ATOM      6  O   UNL     1      14.415  63.612  32.021  1.00  0.00    -0.394 OA
ATOM      7  H   UNL     1      13.863  64.323  31.602  1.00  0.00     0.210 HD
ENDBRANCH   5   6
ENDBRANCH   1   5
BRANCH   1   8
ATOM      8  O   UNL     1      15.532  61.312  29.473  1.00  0.00    -0.388 OA
ATOM      9  H   UNL     1      16.495  61.554  29.492  1.00  0.00     0.211 HD
ENDBRANCH   1   8
TORSDOF 5
ENDMDL
MODEL 7
REMARK VINA RESULT:    -2.617      1.954      2.731
REMARK INTER + INTRA:          -3.365
REMARK INTER:                  -3.160
REMARK INTRA:                  -0.205
REMARK UNBOUND:                -0.213
REMARK SMILES OCC(O)CO
REMARK SMILES IDX 3 1 5 2 6 3 2 5 1 6 4 8
REMARK H PARENT 6 4 1 7 4 9
REMARK Flexibility Score: inf
ROOT
ATOM      1  C   UNL     1      15.373  62.659  30.031  1.00  0.00     0.165 C 
ENDROOT
BRANCH   1   2
ATOM      2  C   UNL     1      15.593  63.082  31.495  1.00  0.00     0.190 C 
BRANCH   2   3
ATOM      3  O   UNL     1      14.427  63.642  32.037  1.00  0.00    -0.394 OA
ATOM      4  H   UNL     1      13.686  63.413  31.416  1.00  0.00     0.210 HD
ENDBRANCH   2   3
ENDBRANCH   1   2
BRANCH   1   5
ATOM      5  C   UNL     1      15.841  63.740  29.044  1.00  0.00     0.190 C 
BRANCH   5   6
ATOM      6  O   UNL     1      15.705  65.024  29.595  1.00  0.00    -0.394 OA
ATOM      7  H   UNL     1      14.992  65.482  29.079  1.00  0.00     0.210 HD
ENDBRANCH   5   6
ENDBRANCH   1   5
BRANCH   1   8
ATOM      8  O   UNL     1      16.063  61.465  29.772  1.00  0.00    -0.388 OA
ATOM      9  H   UNL     1      16.063  61.339  28.788  1.00  0.00     0.211 HD
ENDBRANCH   1   8
TORSDOF 5
ENDMDL
MODEL 8
REMARK VINA RESULT:    -2.488     14.343     15.441
REMARK INTER + INTRA:          -3.210
REMARK INTER:                  -2.995
REMARK INTRA:                  -0.215
REMARK UNBOUND:                -0.213
REMARK SMILES OCC(O)CO
REMARK SMILES IDX 3 1 5 2 6 3 2 5 1 6 4 8
REMARK H PARENT 6 4 1 7 4 9
REMARK Flexibility Score: inf
ROOT
ATOM      1  C   UNL     1      14.167  46.821  28.142  1.00  0.00     0.165 C 
ENDROOT
BRANCH   1   2
ATOM      2  C   UNL     1      13.556  46.130  26.911  1.00  0.00     0.190 C 
BRANCH   2   3
ATOM      3  O   UNL     1      12.172  46.344  26.848  1.00  0.00    -0.394 OA
ATOM      4  H   UNL     1      11.941  46.933  27.613  1.00  0.00     0.210 HD
ENDBRANCH   2   3
ENDBRANCH   1   2
BRANCH   1   5
ATOM      5  C   UNL     1      13.933  48.340  28.123  1.00  0.00     0.190 C 
BRANCH   5   6
ATOM      6  O   UNL     1      13.915  48.834  26.809  1.00  0.00    -0.394 OA
ATOM      7  H   UNL     1      12.964  48.854  26.525  1.00  0.00     0.210 HD
ENDBRANCH   5   6
ENDBRANCH   1   5
BRANCH   1   8
ATOM      8  O   UNL     1      13.614  46.282  29.315  1.00  0.00    -0.388 OA
ATOM      9  H   UNL     1      13.738  45.298  29.266  1.00  0.00     0.211 HD
ENDBRANCH   1   8
TORSDOF 5
ENDMDL
MODEL 9
REMARK VINA RESULT:    -2.430     16.997     17.730
REMARK INTER + INTRA:          -3.140
REMARK INTER:                  -2.951
REMARK INTRA:                  -0.189
REMARK UNBOUND:                -0.213
REMARK SMILES OCC(O)CO
REMARK SMILES IDX 3 1 5 2 6 3 2 5 1 6 4 8
REMARK H PARENT 6 4 1 7 4 9
REMARK Flexibility Score: inf
ROOT
ATOM      1  C   UNL     1      12.441  46.873  22.882  1.00  0.00     0.165 C 
ENDROOT
BRANCH   1   2
ATOM      2  C   UNL     1      12.623  45.885  24.048  1.00  0.00     0.190 C 
BRANCH   2   3
ATOM      3  O   UNL     1      13.932  45.930  24.547  1.00  0.00    -0.394 OA
ATOM      4  H   UNL     1      14.007  46.770  25.072  1.00  0.00     0.210 HD
ENDBRANCH   2   3
ENDBRANCH   1   2
BRANCH   1   5
ATOM      5  C   UNL     1      13.559  47.926  22.842  1.00  0.00     0.190 C 
BRANCH   5   6
ATOM      6  O   UNL     1      14.766  47.368  22.391  1.00  0.00    -0.394 OA
ATOM      7  H   UNL     1      15.448  48.088  22.438  1.00  0.00     0.210 HD
ENDBRANCH   5   6
ENDBRANCH   1   5
BRANCH   1   8
ATOM      8  O   UNL     1      12.419  46.174  21.665  1.00  0.00    -0.388 OA
ATOM      9  H   UNL     1      11.553  45.690  21.625  1.00  0.00     0.211 HD
ENDBRANCH   1   8
TORSDOF 5
ENDMDL
