MODEL 1
REMARK VINA RESULT:    -4.811      0.000      0.000
REMARK INTER + INTRA:          -5.330
REMARK INTER:                  -5.233
REMARK INTRA:                  -0.097
REMARK UNBOUND:                -0.097
REMARK SMILES C=C(C)[C@@H]1CC=C(C)[C@H](O)C1
REMARK SMILES IDX 8 1 7 2 6 3 5 4 4 5 11 6 9 7 10 8 2 10 1 11 3 12
REMARK H PARENT 10 9
REMARK Flexibility Score: inf
ROOT
ATOM      1  C   UNL     1     123.000 118.223 120.190  1.00  0.00     0.042 C 
ATOM      2  C   UNL     1     124.273 119.014 120.030  1.00  0.00    -0.049 C 
ATOM      3  C   UNL     1     124.509 119.624 118.848  1.00  0.00    -0.025 C 
ATOM      4  C   UNL     1     125.748 120.443 118.578  1.00  0.00     0.035 C 
ATOM      5  C   UNL     1     126.916 120.033 119.490  1.00  0.00     0.021 C 
ATOM      6  C   UNL     1     126.445 120.012 120.952  1.00  0.00     0.044 C 
ATOM      7  C   UNL     1     125.321 118.973 121.138  1.00  0.00     0.140 C 
ENDROOT
BRANCH   7   8
ATOM      8  O   UNL     1     124.726 119.135 122.401  1.00  0.00    -0.389 OA
ATOM      9  H   UNL     1     125.374 118.810 123.080  1.00  0.00     0.211 HD
ENDBRANCH   7   8
BRANCH   5  10
ATOM     10  C   UNL     1     128.115 120.953 119.301  1.00  0.00    -0.077 C 
ATOM     11  C   UNL     1     127.933 122.276 119.158  1.00  0.00     0.008 C 
ATOM     12  C   UNL     1     129.525 120.415 119.279  1.00  0.00     0.039 C 
ENDBRANCH   5  10
TORSDOF 2
ENDMDL
MODEL 2
REMARK VINA RESULT:    -4.712      1.434      4.396
REMARK INTER + INTRA:          -5.222
REMARK INTER:                  -5.125
REMARK INTRA:                  -0.097
REMARK UNBOUND:                -0.097
REMARK SMILES C=C(C)[C@@H]1CC=C(C)[C@H](O)C1
REMARK SMILES IDX 8 1 7 2 6 3 5 4 4 5 11 6 9 7 10 8 2 10 1 11 3 12
REMARK H PARENT 10 9
REMARK Flexibility Score: inf
ROOT
ATOM      1  C   UNL     1     128.201 121.849 119.008  1.00  0.00     0.042 C 
ATOM      2  C   UNL     1     127.058 120.938 119.373  1.00  0.00    -0.049 C 
ATOM      3  C   UNL     1     126.063 120.761 118.476  1.00  0.00    -0.025 C 
ATOM      4  C   UNL     1     124.872 119.871 118.732  1.00  0.00     0.035 C 
ATOM      5  C   UNL     1     124.606 119.687 120.235  1.00  0.00     0.021 C 
ATOM      6  C   UNL     1     125.906 119.271 120.940  1.00  0.00     0.044 C 
ATOM      7  C   UNL     1     126.975 120.370 120.786  1.00  0.00     0.140 C 
ENDROOT
BRANCH   7   8
ATOM      8  O   UNL     1     128.225 119.883 121.207  1.00  0.00    -0.389 OA
ATOM      9  H   UNL     1     128.577 120.514 121.888  1.00  0.00     0.211 HD
ENDBRANCH   7   8
BRANCH   5  10
ATOM     10  C   UNL     1     123.489 118.683 120.482  1.00  0.00    -0.077 C 
ATOM     11  C   UNL     1     123.388 117.586 119.714  1.00  0.00     0.008 C 
ATOM     12  C   UNL     1     122.480 118.882 121.587  1.00  0.00     0.039 C 
ENDBRANCH   5  10
TORSDOF 2
ENDMDL
MODEL 3
REMARK VINA RESULT:    -4.679     16.390     17.251
REMARK INTER + INTRA:          -5.186
REMARK INTER:                  -5.098
REMARK INTRA:                  -0.088
REMARK UNBOUND:                -0.097
REMARK SMILES C=C(C)[C@@H]1CC=C(C)[C@H](O)C1
REMARK SMILES IDX 8 1 7 2 6 3 5 4 4 5 11 6 9 7 10 8 2 10 1 11 3 12
REMARK H PARENT 10 9
REMARK Flexibility Score: inf
ROOT
ATOM      1  C   UNL     1     123.151 131.772 128.504  1.00  0.00     0.042 C 
ATOM      2  C   UNL     1     121.744 132.305 128.414  1.00  0.00    -0.049 C 
ATOM      3  C   UNL     1     120.717 131.430 128.488  1.00  0.00    -0.025 C 
ATOM      4  C   UNL     1     119.270 131.851 128.412  1.00  0.00     0.035 C 
ATOM      5  C   UNL     1     119.100 133.189 127.675  1.00  0.00     0.021 C 
ATOM      6  C   UNL     1     120.060 134.230 128.270  1.00  0.00     0.044 C 
ATOM      7  C   UNL     1     121.522 133.779 128.087  1.00  0.00     0.140 C 
ENDROOT
BRANCH   7   8
ATOM      8  O   UNL     1     122.375 134.597 128.848  1.00  0.00    -0.389 OA
ATOM      9  H   UNL     1     122.729 135.301 128.244  1.00  0.00     0.211 HD
ENDBRANCH   7   8
BRANCH   5  10
ATOM     10  C   UNL     1     117.656 133.668 127.722  1.00  0.00    -0.077 C 
ATOM     11  C   UNL     1     117.035 134.045 126.592  1.00  0.00     0.008 C 
ATOM     12  C   UNL     1     116.886 133.725 129.019  1.00  0.00     0.039 C 
ENDBRANCH   5  10
TORSDOF 2
ENDMDL
MODEL 4
REMARK VINA RESULT:    -4.663     15.156     16.139
REMARK INTER + INTRA:          -5.168
REMARK INTER:                  -5.072
REMARK INTRA:                  -0.096
REMARK UNBOUND:                -0.097
REMARK SMILES C=C(C)[C@@H]1CC=C(C)[C@H](O)C1
REMARK SMILES IDX 8 1 7 2 6 3 5 4 4 5 11 6 9 7 10 8 2 10 1 11 3 12
REMARK H PARENT 10 9
REMARK Flexibility Score: inf
ROOT
ATOM      1  C   UNL     1     121.511 134.247 128.582  1.00  0.00     0.042 C 
ATOM      2  C   UNL     1     120.873 132.891 128.740  1.00  0.00    -0.049 C 
ATOM      3  C   UNL     1     119.551 132.829 129.014  1.00  0.00    -0.025 C 
ATOM      4  C   UNL     1     118.808 131.528 129.190  1.00  0.00     0.035 C 
ATOM      5  C   UNL     1     119.745 130.385 129.613  1.00  0.00     0.021 C 
ATOM      6  C   UNL     1     120.953 130.332 128.665  1.00  0.00     0.044 C 
ATOM      7  C   UNL     1     121.754 131.646 128.744  1.00  0.00     0.140 C 
ENDROOT
BRANCH   7   8
ATOM      8  O   UNL     1     122.697 131.694 127.703  1.00  0.00    -0.389 OA
ATOM      9  H   UNL     1     123.537 132.071 128.079  1.00  0.00     0.211 HD
ENDBRANCH   7   8
BRANCH   5  10
ATOM     10  C   UNL     1     119.009 129.052 129.658  1.00  0.00    -0.077 C 
ATOM     11  C   UNL     1     119.464 128.009 128.945  1.00  0.00     0.008 C 
ATOM     12  C   UNL     1     117.771 128.863 130.500  1.00  0.00     0.039 C 
ENDBRANCH   5  10
TORSDOF 2
ENDMDL
MODEL 5
REMARK VINA RESULT:    -4.636     14.042     15.489
REMARK INTER + INTRA:          -5.139
REMARK INTER:                  -5.043
REMARK INTRA:                  -0.096
REMARK UNBOUND:                -0.097
REMARK SMILES C=C(C)[C@@H]1CC=C(C)[C@H](O)C1
REMARK SMILES IDX 8 1 7 2 6 3 5 4 4 5 11 6 9 7 10 8 2 10 1 11 3 12
REMARK H PARENT 10 9
REMARK Flexibility Score: inf
ROOT
ATOM      1  C   UNL     1     114.291 120.913 127.051  1.00  0.00     0.042 C 
ATOM      2  C   UNL     1     114.772 120.873 128.478  1.00  0.00    -0.049 C 
ATOM      3  C   UNL     1     115.230 119.702 128.971  1.00  0.00    -0.025 C 
ATOM      4  C   UNL     1     115.739 119.546 130.383  1.00  0.00     0.035 C 
ATOM      5  C   UNL     1     115.153 120.610 131.325  1.00  0.00     0.021 C 
ATOM      6  C   UNL     1     115.340 122.004 130.706  1.00  0.00     0.044 C 
ATOM      7  C   UNL     1     114.586 122.101 129.365  1.00  0.00     0.140 C 
ENDROOT
BRANCH   7   8
ATOM      8  O   UNL     1     114.964 123.273 128.688  1.00  0.00    -0.389 OA
ATOM      9  H   UNL     1     115.686 123.703 129.217  1.00  0.00     0.211 HD
ENDBRANCH   7   8
BRANCH   5  10
ATOM     10  C   UNL     1     115.775 120.526 132.712  1.00  0.00    -0.077 C 
ATOM     11  C   UNL     1     117.110 120.490 132.850  1.00  0.00     0.008 C 
ATOM     12  C   UNL     1     114.922 120.491 133.957  1.00  0.00     0.039 C 
ENDBRANCH   5  10
TORSDOF 2
ENDMDL
MODEL 6
REMARK VINA RESULT:    -4.564     16.684     17.540
REMARK INTER + INTRA:          -5.062
REMARK INTER:                  -4.975
REMARK INTRA:                  -0.087
REMARK UNBOUND:                -0.097
REMARK SMILES C=C(C)[C@@H]1CC=C(C)[C@H](O)C1
REMARK SMILES IDX 8 1 7 2 6 3 5 4 4 5 11 6 9 7 10 8 2 10 1 11 3 12
REMARK H PARENT 10 9
REMARK Flexibility Score: inf
ROOT
ATOM      1  C   UNL     1     123.131 132.091 128.673  1.00  0.00     0.042 C 
ATOM      2  C   UNL     1     121.732 132.648 128.618  1.00  0.00    -0.049 C 
ATOM      3  C   UNL     1     121.560 133.977 128.797  1.00  0.00    -0.025 C 
ATOM      4  C   UNL     1     120.207 134.643 128.760  1.00  0.00     0.035 C 
ATOM      5  C   UNL     1     119.073 133.660 129.093  1.00  0.00     0.021 C 
ATOM      6  C   UNL     1     119.213 132.401 128.224  1.00  0.00     0.044 C 
ATOM      7  C   UNL     1     120.549 131.691 128.519  1.00  0.00     0.140 C 
ENDROOT
BRANCH   7   8
ATOM      8  O   UNL     1     120.785 130.696 127.554  1.00  0.00    -0.389 OA
ATOM      9  H   UNL     1     120.314 129.874 127.853  1.00  0.00     0.211 HD
ENDBRANCH   7   8
BRANCH   5  10
ATOM     10  C   UNL     1     117.707 134.310 128.921  1.00  0.00    -0.077 C 
ATOM     11  C   UNL     1     117.224 135.124 129.874  1.00  0.00     0.008 C 
ATOM     12  C   UNL     1     116.869 134.070 127.688  1.00  0.00     0.039 C 
ENDBRANCH   5  10
TORSDOF 2
ENDMDL
MODEL 7
REMARK VINA RESULT:    -4.521     14.942     15.939
REMARK INTER + INTRA:          -5.015
REMARK INTER:                  -4.919
REMARK INTRA:                  -0.095
REMARK UNBOUND:                -0.097
REMARK SMILES C=C(C)[C@@H]1CC=C(C)[C@H](O)C1
REMARK SMILES IDX 8 1 7 2 6 3 5 4 4 5 11 6 9 7 10 8 2 10 1 11 3 12
REMARK H PARENT 10 9
REMARK Flexibility Score: inf
ROOT
ATOM      1  C   UNL     1     122.251 133.631 127.992  1.00  0.00     0.042 C 
ATOM      2  C   UNL     1     121.465 132.432 128.454  1.00  0.00    -0.049 C 
ATOM      3  C   UNL     1     122.122 131.267 128.651  1.00  0.00    -0.025 C 
ATOM      4  C   UNL     1     121.438 130.005 129.114  1.00  0.00     0.035 C 
ATOM      5  C   UNL     1     119.940 130.004 128.769  1.00  0.00     0.021 C 
ATOM      6  C   UNL     1     119.301 131.316 129.250  1.00  0.00     0.044 C 
ATOM      7  C   UNL     1     119.944 132.520 128.534  1.00  0.00     0.140 C 
ENDROOT
BRANCH   7   8
ATOM      8  O   UNL     1     119.541 133.716 129.154  1.00  0.00    -0.389 OA
ATOM      9  H   UNL     1     119.991 133.759 130.039  1.00  0.00     0.211 HD
ENDBRANCH   7   8
BRANCH   5  10
ATOM     10  C   UNL     1     119.235 128.790 129.358  1.00  0.00    -0.077 C 
ATOM     11  C   UNL     1     118.497 128.915 130.473  1.00  0.00     0.008 C 
ATOM     12  C   UNL     1     119.337 127.429 128.712  1.00  0.00     0.039 C 
ENDBRANCH   5  10
TORSDOF 2
ENDMDL
MODEL 8
REMARK VINA RESULT:    -4.493     14.553     15.993
REMARK INTER + INTRA:          -4.984
REMARK INTER:                  -4.896
REMARK INTRA:                  -0.087
REMARK UNBOUND:                -0.097
REMARK SMILES C=C(C)[C@@H]1CC=C(C)[C@H](O)C1
REMARK SMILES IDX 8 1 7 2 6 3 5 4 4 5 11 6 9 7 10 8 2 10 1 11 3 12
REMARK H PARENT 10 9
REMARK Flexibility Score: inf
ROOT
ATOM      1  C   UNL     1     116.660 119.734 135.125  1.00  0.00     0.042 C 
ATOM      2  C   UNL     1     116.588 120.529 133.846  1.00  0.00    -0.049 C 
ATOM      3  C   UNL     1     117.732 121.037 133.338  1.00  0.00    -0.025 C 
ATOM      4  C   UNL     1     117.780 121.844 132.065  1.00  0.00     0.035 C 
ATOM      5  C   UNL     1     116.429 122.511 131.757  1.00  0.00     0.021 C 
ATOM      6  C   UNL     1     115.309 121.462 131.832  1.00  0.00     0.044 C 
ATOM      7  C   UNL     1     115.225 120.868 133.252  1.00  0.00     0.140 C 
ENDROOT
BRANCH   7   8
ATOM      8  O   UNL     1     114.382 119.743 133.251  1.00  0.00    -0.389 OA
ATOM      9  H   UNL     1     114.933 118.958 133.510  1.00  0.00     0.211 HD
ENDBRANCH   7   8
BRANCH   5  10
ATOM     10  C   UNL     1     116.451 123.211 130.405  1.00  0.00    -0.077 C 
ATOM     11  C   UNL     1     117.093 124.381 130.263  1.00  0.00     0.008 C 
ATOM     12  C   UNL     1     115.768 122.614 129.198  1.00  0.00     0.039 C 
ENDBRANCH   5  10
TORSDOF 2
ENDMDL
MODEL 9
REMARK VINA RESULT:    -4.401     14.104     15.788
REMARK INTER + INTRA:          -4.884
REMARK INTER:                  -4.788
REMARK INTRA:                  -0.096
REMARK UNBOUND:                -0.097
REMARK SMILES C=C(C)[C@@H]1CC=C(C)[C@H](O)C1
REMARK SMILES IDX 8 1 7 2 6 3 5 4 4 5 11 6 9 7 10 8 2 10 1 11 3 12
REMARK H PARENT 10 9
REMARK Flexibility Score: inf
ROOT
ATOM      1  C   UNL     1     116.705 120.841 134.749  1.00  0.00     0.042 C 
ATOM      2  C   UNL     1     116.394 121.115 133.301  1.00  0.00    -0.049 C 
ATOM      3  C   UNL     1     117.363 121.647 132.523  1.00  0.00    -0.025 C 
ATOM      4  C   UNL     1     117.165 121.960 131.061  1.00  0.00     0.035 C 
ATOM      5  C   UNL     1     115.682 122.180 130.717  1.00  0.00     0.021 C 
ATOM      6  C   UNL     1     114.849 121.010 131.260  1.00  0.00     0.044 C 
ATOM      7  C   UNL     1     114.966 120.935 132.795  1.00  0.00     0.140 C 
ENDROOT
BRANCH   7   8
ATOM      8  O   UNL     1     114.417 119.727 133.258  1.00  0.00    -0.389 OA
ATOM      9  H   UNL     1     114.667 119.018 132.609  1.00  0.00     0.211 HD
ENDBRANCH   7   8
BRANCH   5  10
ATOM     10  C   UNL     1     115.482 122.362 129.218  1.00  0.00    -0.077 C 
ATOM     11  C   UNL     1     114.730 121.489 128.529  1.00  0.00     0.008 C 
ATOM     12  C   UNL     1     116.106 123.518 128.474  1.00  0.00     0.039 C 
ENDBRANCH   5  10
TORSDOF 2
ENDMDL
