MODEL 1
REMARK VINA RESULT:    -2.262      0.000      0.000
REMARK INTER + INTRA:          -3.061
REMARK INTER:                  -2.725
REMARK INTRA:                  -0.336
REMARK UNBOUND:                -0.336
REMARK SMILES Oc1cc(O)c2c(c1)O[C@H](c1ccc(O)c(O)c1)[C@@H](O)C2
REMARK SMILES IDX 21 1 19 2 10 3 9 4 7 5 8 6 2 7 3 8 4 9 6 10 20 11 11 13
REMARK SMILES IDX 18 14 12 15 16 16 13 17 14 18 17 19 15 21 5 23 1 25
REMARK H PARENT 20 12 17 20 15 22 5 24 1 26
REMARK Flexibility Score: inf
ROOT
ATOM      1  C   UNL     1      12.796 -10.476  30.499  1.00  0.00     0.079 C 
ATOM      2  C   UNL     1      13.395 -11.812  30.019  1.00  0.00     0.164 C 
ATOM      3  C   UNL     1      12.995 -12.081  28.555  1.00  0.00     0.232 C 
ATOM      4  O   UNL     1      11.573 -12.063  28.436  1.00  0.00    -0.482 OA
ATOM      5  C   UNL     1      10.774 -11.157  29.141  1.00  0.00     0.131 A 
ATOM      6  C   UNL     1       9.413 -11.070  28.832  1.00  0.00     0.093 A 
ATOM      7  C   UNL     1       8.592 -10.164  29.509  1.00  0.00     0.122 A 
ATOM      8  C   UNL     1       9.137  -9.333  30.491  1.00  0.00     0.092 A 
ATOM      9  C   UNL     1      10.497  -9.404  30.814  1.00  0.00     0.126 A 
ATOM     10  C   UNL     1      11.324 -10.350  30.163  1.00  0.00     0.039 A 
ENDROOT
BRANCH   2  11
ATOM     11  O   UNL     1      14.793 -11.812  30.178  1.00  0.00    -0.389 OA
ATOM     12  H   UNL     1      15.084 -12.755  30.288  1.00  0.00     0.211 HD
ENDBRANCH   2  11
BRANCH   3  13
ATOM     13  C   UNL     1      13.528 -13.412  28.079  1.00  0.00    -0.001 A 
ATOM     14  C   UNL     1      13.293 -14.577  28.828  1.00  0.00     0.057 A 
ATOM     15  C   UNL     1      14.222 -13.510  26.861  1.00  0.00     0.012 A 
ATOM     16  C   UNL     1      13.760 -15.820  28.377  1.00  0.00     0.157 A 
ATOM     17  C   UNL     1      14.689 -14.747  26.412  1.00  0.00     0.050 A 
ATOM     18  C   UNL     1      14.464 -15.904  27.164  1.00  0.00     0.157 A 
BRANCH  16  19
ATOM     19  O   UNL     1      13.527 -16.971  29.130  1.00  0.00    -0.504 OA
ATOM     20  H   UNL     1      12.606 -17.389  29.188  1.00  0.00     0.293 HD
ENDBRANCH  16  19
BRANCH  18  21
ATOM     21  O   UNL     1      14.943 -17.125  26.690  1.00  0.00    -0.504 OA
ATOM     22  H   UNL     1      15.530 -17.190  25.867  1.00  0.00     0.293 HD
ENDBRANCH  18  21
ENDBRANCH   3  13
BRANCH   9  23
ATOM     23  O   UNL     1      10.992  -8.517  31.772  1.00  0.00    -0.507 OA
ATOM     24  H   UNL     1      11.979  -8.351  31.920  1.00  0.00     0.293 HD
ENDBRANCH   9  23
BRANCH   7  25
ATOM     25  O   UNL     1       7.235 -10.073  29.209  1.00  0.00    -0.508 OA
ATOM     26  H   UNL     1       6.524 -10.230  29.915  1.00  0.00     0.293 HD
ENDBRANCH   7  25
TORSDOF 6
ENDMDL
MODEL 2
REMARK VINA RESULT:    -1.509      1.592      7.153
REMARK INTER + INTRA:          -2.154
REMARK INTER:                  -2.230
REMARK INTRA:                   0.076
REMARK UNBOUND:                -0.336
REMARK SMILES Oc1cc(O)c2c(c1)O[C@H](c1ccc(O)c(O)c1)[C@@H](O)C2
REMARK SMILES IDX 21 1 19 2 10 3 9 4 7 5 8 6 2 7 3 8 4 9 6 10 20 11 11 13
REMARK SMILES IDX 18 14 12 15 16 16 13 17 14 18 17 19 15 21 5 23 1 25
REMARK H PARENT 20 12 17 20 15 22 5 24 1 26
REMARK Flexibility Score: inf
ROOT
ATOM      1  C   UNL     1      12.978 -14.702  27.250  1.00  0.00     0.079 C 
ATOM      2  C   UNL     1      11.831 -13.733  27.596  1.00  0.00     0.164 C 
ATOM      3  C   UNL     1      12.256 -12.788  28.738  1.00  0.00     0.232 C 
ATOM      4  O   UNL     1      12.662 -13.557  29.869  1.00  0.00    -0.482 OA
ATOM      5  C   UNL     1      13.388 -14.746  29.746  1.00  0.00     0.131 A 
ATOM      6  C   UNL     1      13.913 -15.342  30.896  1.00  0.00     0.093 A 
ATOM      7  C   UNL     1      14.655 -16.523  30.802  1.00  0.00     0.122 A 
ATOM      8  C   UNL     1      14.882 -17.104  29.553  1.00  0.00     0.092 A 
ATOM      9  C   UNL     1      14.365 -16.522  28.389  1.00  0.00     0.126 A 
ATOM     10  C   UNL     1      13.576 -15.351  28.482  1.00  0.00     0.039 A 
ENDROOT
BRANCH   2  11
ATOM     11  O   UNL     1      11.431 -13.013  26.456  1.00  0.00    -0.389 OA
ATOM     12  H   UNL     1      10.889 -12.240  26.761  1.00  0.00     0.211 HD
ENDBRANCH   2  11
BRANCH   3  13
ATOM     13  C   UNL     1      11.128 -11.863  29.129  1.00  0.00    -0.001 A 
ATOM     14  C   UNL     1      11.389 -10.710  29.888  1.00  0.00     0.057 A 
ATOM     15  C   UNL     1       9.815 -12.115  28.696  1.00  0.00     0.012 A 
ATOM     16  C   UNL     1      10.351  -9.832  30.230  1.00  0.00     0.157 A 
ATOM     17  C   UNL     1       8.780 -11.241  29.036  1.00  0.00     0.050 A 
ATOM     18  C   UNL     1       9.039 -10.101  29.803  1.00  0.00     0.157 A 
BRANCH  16  19
ATOM     19  O   UNL     1      10.618  -8.694  30.990  1.00  0.00    -0.504 OA
ATOM     20  H   UNL     1      10.855  -7.809  30.555  1.00  0.00     0.293 HD
ENDBRANCH  16  19
BRANCH  18  21
ATOM     21  O   UNL     1       7.985  -9.248  30.128  1.00  0.00    -0.504 OA
ATOM     22  H   UNL     1       7.869  -8.867  31.059  1.00  0.00     0.293 HD
ENDBRANCH  18  21
ENDBRANCH   3  13
BRANCH   9  23
ATOM     23  O   UNL     1      14.662 -17.125  27.165  1.00  0.00    -0.507 OA
ATOM     24  H   UNL     1      14.214 -16.869  26.296  1.00  0.00     0.293 HD
ENDBRANCH   9  23
BRANCH   7  25
ATOM     25  O   UNL     1      15.181 -17.124  31.945  1.00  0.00    -0.508 OA
ATOM     26  H   UNL     1      16.123 -16.927  32.261  1.00  0.00     0.293 HD
ENDBRANCH   7  25
TORSDOF 6
ENDMDL
MODEL 3
REMARK VINA RESULT:    -1.039     17.317     18.852
REMARK INTER + INTRA:          -1.587
REMARK INTER:                  -1.611
REMARK INTRA:                   0.024
REMARK UNBOUND:                -0.336
REMARK SMILES Oc1cc(O)c2c(c1)O[C@H](c1ccc(O)c(O)c1)[C@@H](O)C2
REMARK SMILES IDX 21 1 19 2 10 3 9 4 7 5 8 6 2 7 3 8 4 9 6 10 20 11 11 13
REMARK SMILES IDX 18 14 12 15 16 16 13 17 14 18 17 19 15 21 5 23 1 25
REMARK H PARENT 20 12 17 20 15 22 5 24 1 26
REMARK Flexibility Score: inf
ROOT
ATOM      1  C   UNL     1      23.626  -9.168  16.629  1.00  0.00     0.079 C 
ATOM      2  C   UNL     1      23.274 -10.490  15.919  1.00  0.00     0.164 C 
ATOM      3  C   UNL     1      24.125 -10.655  14.644  1.00  0.00     0.232 C 
ATOM      4  O   UNL     1      23.934  -9.526  13.792  1.00  0.00    -0.482 OA
ATOM      5  C   UNL     1      23.807  -8.225  14.290  1.00  0.00     0.131 A 
ATOM      6  C   UNL     1      23.815  -7.152  13.392  1.00  0.00     0.093 A 
ATOM      7  C   UNL     1      23.705  -5.840  13.861  1.00  0.00     0.122 A 
ATOM      8  C   UNL     1      23.598  -5.599  15.232  1.00  0.00     0.092 A 
ATOM      9  C   UNL     1      23.589  -6.659  16.146  1.00  0.00     0.126 A 
ATOM     10  C   UNL     1      23.656  -7.992  15.675  1.00  0.00     0.039 A 
ENDROOT
BRANCH   2  11
ATOM     11  O   UNL     1      23.440 -11.580  16.792  1.00  0.00    -0.389 OA
ATOM     12  H   UNL     1      22.635 -12.154  16.716  1.00  0.00     0.211 HD
ENDBRANCH   2  11
BRANCH   3  13
ATOM     13  C   UNL     1      23.759 -11.919  13.904  1.00  0.00    -0.001 A 
ATOM     14  C   UNL     1      24.119 -13.173  14.425  1.00  0.00     0.057 A 
ATOM     15  C   UNL     1      23.012 -11.861  12.715  1.00  0.00     0.012 A 
ATOM     16  C   UNL     1      23.757 -14.353  13.758  1.00  0.00     0.157 A 
ATOM     17  C   UNL     1      22.652 -13.034  12.049  1.00  0.00     0.050 A 
ATOM     18  C   UNL     1      23.021 -14.281  12.562  1.00  0.00     0.157 A 
BRANCH  16  19
ATOM     19  O   UNL     1      24.124 -15.593  14.278  1.00  0.00    -0.504 OA
ATOM     20  H   UNL     1      23.856 -15.876  15.214  1.00  0.00     0.293 HD
ENDBRANCH  16  19
BRANCH  18  21
ATOM     21  O   UNL     1      22.649 -15.436  11.875  1.00  0.00    -0.504 OA
ATOM     22  H   UNL     1      22.281 -16.251  12.352  1.00  0.00     0.293 HD
ENDBRANCH  18  21
ENDBRANCH   3  13
BRANCH   9  23
ATOM     23  O   UNL     1      23.524  -6.352  17.507  1.00  0.00    -0.507 OA
ATOM     24  H   UNL     1      23.582  -7.049  18.238  1.00  0.00     0.293 HD
ENDBRANCH   9  23
BRANCH   7  25
ATOM     25  O   UNL     1      23.709  -4.767  12.972  1.00  0.00    -0.508 OA
ATOM     26  H   UNL     1      24.380  -4.709  12.215  1.00  0.00     0.293 HD
ENDBRANCH   7  25
TORSDOF 6
ENDMDL
MODEL 4
REMARK VINA RESULT:     0.675      9.326     12.193
REMARK INTER + INTRA:           0.477
REMARK INTER:                   0.843
REMARK INTRA:                  -0.366
REMARK UNBOUND:                -0.336
REMARK SMILES Oc1cc(O)c2c(c1)O[C@H](c1ccc(O)c(O)c1)[C@@H](O)C2
REMARK SMILES IDX 21 1 19 2 10 3 9 4 7 5 8 6 2 7 3 8 4 9 6 10 20 11 11 13
REMARK SMILES IDX 18 14 12 15 16 16 13 17 14 18 17 19 15 21 5 23 1 25
REMARK H PARENT 20 12 17 20 15 22 5 24 1 26
REMARK Flexibility Score: inf
ROOT
ATOM      1  C   UNL     1      16.888  -4.138  26.730  1.00  0.00     0.079 C 
ATOM      2  C   UNL     1      16.513  -2.649  26.607  1.00  0.00     0.164 C 
ATOM      3  C   UNL     1      15.204  -2.364  27.370  1.00  0.00     0.232 C 
ATOM      4  O   UNL     1      14.169  -3.216  26.882  1.00  0.00    -0.482 OA
ATOM      5  C   UNL     1      14.401  -4.548  26.525  1.00  0.00     0.131 A 
ATOM      6  C   UNL     1      13.310  -5.373  26.238  1.00  0.00     0.093 A 
ATOM      7  C   UNL     1      13.510  -6.713  25.893  1.00  0.00     0.122 A 
ATOM      8  C   UNL     1      14.806  -7.232  25.847  1.00  0.00     0.092 A 
ATOM      9  C   UNL     1      15.911  -6.422  26.132  1.00  0.00     0.126 A 
ATOM     10  C   UNL     1      15.718  -5.054  26.438  1.00  0.00     0.039 A 
ENDROOT
BRANCH   2  11
ATOM     11  O   UNL     1      17.563  -1.834  27.066  1.00  0.00    -0.389 OA
ATOM     12  H   UNL     1      17.728  -1.138  26.378  1.00  0.00     0.211 HD
ENDBRANCH   2  11
BRANCH   3  13
ATOM     13  C   UNL     1      14.788  -0.919  27.220  1.00  0.00    -0.001 A 
ATOM     14  C   UNL     1      14.806  -0.058  28.330  1.00  0.00     0.057 A 
ATOM     15  C   UNL     1      14.429  -0.407  25.962  1.00  0.00     0.012 A 
ATOM     16  C   UNL     1      14.449   1.291  28.192  1.00  0.00     0.157 A 
ATOM     17  C   UNL     1      14.073   0.937  25.822  1.00  0.00     0.050 A 
ATOM     18  C   UNL     1      14.078   1.789  26.931  1.00  0.00     0.157 A 
BRANCH  16  19
ATOM     19  O   UNL     1      14.463   2.136  29.300  1.00  0.00    -0.504 OA
ATOM     20  H   UNL     1      14.657   3.127  29.209  1.00  0.00     0.293 HD
ENDBRANCH  16  19
BRANCH  18  21
ATOM     21  O   UNL     1      13.717   3.125  26.761  1.00  0.00    -0.504 OA
ATOM     22  H   UNL     1      13.158   3.622  27.444  1.00  0.00     0.293 HD
ENDBRANCH  18  21
ENDBRANCH   3  13
BRANCH   9  23
ATOM     23  O   UNL     1      17.178  -7.010  26.111  1.00  0.00    -0.507 OA
ATOM     24  H   UNL     1      17.553  -7.495  25.307  1.00  0.00     0.293 HD
ENDBRANCH   9  23
BRANCH   7  25
ATOM     25  O   UNL     1      12.427  -7.541  25.604  1.00  0.00    -0.508 OA
ATOM     26  H   UNL     1      11.631  -7.610  26.227  1.00  0.00     0.293 HD
ENDBRANCH   7  25
TORSDOF 6
ENDMDL
