MODEL 1
REMARK VINA RESULT:    -4.136      0.000      0.000
REMARK INTER + INTRA:          -6.565
REMARK INTER:                  -6.313
REMARK INTRA:                  -0.252
REMARK UNBOUND:                -0.252
REMARK SMILES CC1=CCC[C@@H](C)C(=O)C[C@@H](C(C)C)C(=O)C1
REMARK SMILES IDX 8 1 9 2 6 3 7 4 5 5 4 6 3 7 2 8 1 9 10 11 11 12 15 13 16 14
REMARK SMILES IDX 17 15 12 17 13 18 14 19
REMARK H PARENT
REMARK Flexibility Score: 70.00
ROOT
ATOM      1  C   UNL     1     -13.032  11.156 -30.392  1.00  0.00     0.136 C 
ATOM      2  O   UNL     1     -12.014  10.629 -30.818  1.00  0.00    -0.299 OA
ENDROOT
BRANCH   1   3
ATOM      3  C   UNL     1     -13.278  11.163 -28.897  1.00  0.00     0.053 C 
ATOM      4  C   UNL     1     -12.119  10.484 -28.157  1.00  0.00     0.016 C 
BRANCH   3   5
ATOM      5  C   UNL     1     -14.630  10.471 -28.584  1.00  0.00     0.015 C 
BRANCH   5   6
ATOM      6  C   UNL     1     -15.635  11.394 -27.860  1.00  0.00     0.028 C 
BRANCH   6   7
ATOM      7  C   UNL     1     -17.006  11.322 -28.490  1.00  0.00    -0.028 C 
ATOM      8  C   UNL     1     -17.504  12.216 -29.377  1.00  0.00    -0.070 CG0
ATOM      9  C   UNL     1     -18.870  11.957 -29.958  1.00  0.00     0.039 C 
ATOM     10  G   UNL     1     -16.759  13.468 -29.803  1.00  0.00     0.000 G0
ENDBRANCH   6   7
ENDBRANCH   5   6
ENDBRANCH   3   5
ENDBRANCH   1   3
BRANCH   1  11
ATOM     11  C   UNL     1     -13.971  11.807 -31.388  1.00  0.00     0.087 C 
BRANCH  11  12
ATOM     12  C   UNL     1     -14.461  13.247 -31.056  1.00  0.00     0.066 C 
BRANCH  12  13
ATOM     13  C   UNL     1     -15.980  13.342 -31.097  1.00  0.00     0.140 C 
ATOM     14  O   UNL     1     -16.554  13.399 -32.176  1.00  0.00    -0.299 OA
BRANCH  13  15
ATOM     15  C   UNL     1     -16.769  13.490 -29.811  1.00  0.00     0.106 CG0
ATOM     16  G   UNL     1     -17.481  12.215 -29.398  1.00  0.00     0.000 G0
ENDBRANCH  13  15
ENDBRANCH  12  13
BRANCH  12  17
ATOM     17  C   UNL     1     -13.823  14.298 -32.022  1.00  0.00    -0.006 C 
ATOM     18  C   UNL     1     -13.670  15.674 -31.346  1.00  0.00     0.008 C 
ATOM     19  C   UNL     1     -12.447  13.843 -32.541  1.00  0.00     0.008 C 
ENDBRANCH  12  17
ENDBRANCH  11  12
ENDBRANCH   1  11
TORSDOF 1
ENDMDL
MODEL 2
REMARK VINA RESULT:    -3.989      1.882      4.126
REMARK INTER + INTRA:          -6.340
REMARK INTER:                  -5.911
REMARK INTRA:                  -0.429
REMARK UNBOUND:                -0.252
REMARK SMILES CC1=CCC[C@@H](C)C(=O)C[C@@H](C(C)C)C(=O)C1
REMARK SMILES IDX 8 1 9 2 6 3 7 4 5 5 4 6 3 7 2 8 1 9 10 11 11 12 15 13 16 14
REMARK SMILES IDX 17 15 12 17 13 18 14 19
REMARK H PARENT
REMARK Flexibility Score: 70.00
ROOT
ATOM      1  C   UNL     1     -16.396  13.165 -29.707  1.00  0.00     0.136 C 
ATOM      2  O   UNL     1     -16.869  14.111 -29.093  1.00  0.00    -0.299 OA
ENDROOT
BRANCH   1   3
ATOM      3  C   UNL     1     -17.251  11.932 -29.919  1.00  0.00     0.053 C 
ATOM      4  C   UNL     1     -18.655  12.325 -30.394  1.00  0.00     0.016 C 
BRANCH   3   5
ATOM      5  C   UNL     1     -17.309  11.102 -28.611  1.00  0.00     0.015 C 
BRANCH   5   6
ATOM      6  C   UNL     1     -16.369   9.877 -28.623  1.00  0.00     0.028 C 
BRANCH   6   7
ATOM      7  C   UNL     1     -15.051  10.184 -27.951  1.00  0.00    -0.028 C 
ATOM      8  C   UNL     1     -13.866  10.328 -28.589  1.00  0.00    -0.070 CG0
ATOM      9  C   UNL     1     -12.656  10.699 -27.770  1.00  0.00     0.039 C 
ATOM     10  G   UNL     1     -13.696  10.124 -30.083  1.00  0.00     0.000 G0
ENDBRANCH   6   7
ENDBRANCH   5   6
ENDBRANCH   3   5
ENDBRANCH   1   3
BRANCH   1  11
ATOM     11  C   UNL     1     -14.989  13.301 -30.256  1.00  0.00     0.087 C 
BRANCH  11  12
ATOM     12  C   UNL     1     -14.553  12.269 -31.337  1.00  0.00     0.066 C 
BRANCH  12  13
ATOM     13  C   UNL     1     -13.401  11.401 -30.849  1.00  0.00     0.140 C 
ATOM     14  O   UNL     1     -12.253  11.696 -31.151  1.00  0.00    -0.299 OA
BRANCH  13  15
ATOM     15  C   UNL     1     -13.682  10.115 -30.099  1.00  0.00     0.106 CG0
ATOM     16  G   UNL     1     -13.876  10.323 -28.609  1.00  0.00     0.000 G0
ENDBRANCH  13  15
ENDBRANCH  12  13
BRANCH  12  17
ATOM     17  C   UNL     1     -14.170  12.981 -32.676  1.00  0.00    -0.006 C 
ATOM     18  C   UNL     1     -15.055  12.512 -33.845  1.00  0.00     0.008 C 
ATOM     19  C   UNL     1     -14.268  14.514 -32.561  1.00  0.00     0.008 C 
ENDBRANCH  12  17
ENDBRANCH  11  12
ENDBRANCH   1  11
TORSDOF 1
ENDMDL
MODEL 3
REMARK VINA RESULT:    -3.777      9.083     11.609
REMARK INTER + INTRA:          -6.016
REMARK INTER:                  -6.255
REMARK INTRA:                   0.238
REMARK UNBOUND:                -0.252
REMARK SMILES CC1=CCC[C@@H](C)C(=O)C[C@@H](C(C)C)C(=O)C1
REMARK SMILES IDX 8 1 9 2 6 3 7 4 5 5 4 6 3 7 2 8 1 9 10 11 11 12 15 13 16 14
REMARK SMILES IDX 17 15 12 17 13 18 14 19
REMARK H PARENT
REMARK Flexibility Score: 70.00
ROOT
ATOM      1  C   UNL     1     -27.760  13.104 -30.407  1.00  0.00     0.136 C 
ATOM      2  O   UNL     1     -28.165  13.811 -31.319  1.00  0.00    -0.299 OA
ENDROOT
BRANCH   1   3
ATOM      3  C   UNL     1     -28.569  11.885 -30.016  1.00  0.00     0.053 C 
ATOM      4  C   UNL     1     -30.070  12.165 -30.160  1.00  0.00     0.016 C 
BRANCH   3   5
ATOM      5  C   UNL     1     -28.212  11.459 -28.568  1.00  0.00     0.015 C 
BRANCH   5   6
ATOM      6  C   UNL     1     -27.641  10.027 -28.477  1.00  0.00     0.028 C 
BRANCH   6   7
ATOM      7  C   UNL     1     -26.291  10.011 -27.797  1.00  0.00    -0.028 C 
ATOM      8  C   UNL     1     -25.119  10.346 -28.386  1.00  0.00    -0.070 CG0
ATOM      9  C   UNL     1     -23.870  10.337 -27.541  1.00  0.00     0.039 C 
ATOM     10  G   UNL     1     -25.001  10.716 -29.853  1.00  0.00     0.000 G0
ENDBRANCH   6   7
ENDBRANCH   5   6
ENDBRANCH   3   5
ENDBRANCH   1   3
BRANCH   1  11
ATOM     11  C   UNL     1     -26.445  13.472 -29.746  1.00  0.00     0.087 C 
BRANCH  11  12
ATOM     12  C   UNL     1     -25.153  13.266 -30.589  1.00  0.00     0.066 C 
BRANCH  12  13
ATOM     13  C   UNL     1     -24.331  12.092 -30.073  1.00  0.00     0.140 C 
ATOM     14  O   UNL     1     -23.124  12.218 -29.927  1.00  0.00    -0.299 OA
BRANCH  13  15
ATOM     15  C   UNL     1     -24.984  10.742 -29.860  1.00  0.00     0.106 CG0
ATOM     16  G   UNL     1     -25.100  10.359 -28.396  1.00  0.00     0.000 G0
ENDBRANCH  13  15
ENDBRANCH  12  13
BRANCH  12  17
ATOM     17  C   UNL     1     -24.285  14.566 -30.620  1.00  0.00    -0.006 C 
ATOM     18  C   UNL     1     -23.428  14.651 -31.896  1.00  0.00     0.008 C 
ATOM     19  C   UNL     1     -25.148  15.838 -30.515  1.00  0.00     0.008 C 
ENDBRANCH  12  17
ENDBRANCH  11  12
ENDBRANCH   1  11
TORSDOF 1
ENDMDL
MODEL 4
REMARK VINA RESULT:    -3.709      2.120      5.314
REMARK INTER + INTRA:          -5.912
REMARK INTER:                  -5.777
REMARK INTRA:                  -0.135
REMARK UNBOUND:                -0.252
REMARK SMILES CC1=CCC[C@@H](C)C(=O)C[C@@H](C(C)C)C(=O)C1
REMARK SMILES IDX 8 1 9 2 6 3 7 4 5 5 4 6 3 7 2 8 1 9 10 11 11 12 15 13 16 14
REMARK SMILES IDX 17 15 12 17 13 18 14 19
REMARK H PARENT
REMARK Flexibility Score: 70.00
ROOT
ATOM      1  C   UNL     1     -16.210  13.002 -29.608  1.00  0.00     0.136 C 
ATOM      2  O   UNL     1     -16.646  13.337 -28.515  1.00  0.00    -0.299 OA
ENDROOT
BRANCH   1   3
ATOM      3  C   UNL     1     -16.395  13.940 -30.783  1.00  0.00     0.053 C 
ATOM      4  C   UNL     1     -16.724  13.151 -32.056  1.00  0.00     0.016 C 
BRANCH   3   5
ATOM      5  C   UNL     1     -15.121  14.806 -30.970  1.00  0.00     0.015 C 
BRANCH   5   6
ATOM      6  C   UNL     1     -14.567  14.772 -32.411  1.00  0.00     0.028 C 
BRANCH   6   7
ATOM      7  C   UNL     1     -13.097  14.425 -32.432  1.00  0.00    -0.028 C 
ATOM      8  C   UNL     1     -12.590  13.174 -32.325  1.00  0.00    -0.070 CG0
ATOM      9  C   UNL     1     -11.096  13.001 -32.431  1.00  0.00     0.039 C 
ATOM     10  G   UNL     1     -13.449  11.946 -32.093  1.00  0.00     0.000 G0
ENDBRANCH   6   7
ENDBRANCH   5   6
ENDBRANCH   3   5
ENDBRANCH   1   3
BRANCH   1  11
ATOM     11  C   UNL     1     -15.475  11.680 -29.711  1.00  0.00     0.087 C 
BRANCH  11  12
ATOM     12  C   UNL     1     -13.931  11.717 -29.520  1.00  0.00     0.066 C 
BRANCH  12  13
ATOM     13  C   UNL     1     -13.202  11.249 -30.772  1.00  0.00     0.140 C 
ATOM     14  O   UNL     1     -12.342  10.384 -30.682  1.00  0.00    -0.299 OA
BRANCH  13  15
ATOM     15  C   UNL     1     -13.451  11.936 -32.099  1.00  0.00     0.106 CG0
ATOM     16  G   UNL     1     -12.590  13.169 -32.305  1.00  0.00     0.000 G0
ENDBRANCH  13  15
ENDBRANCH  12  13
BRANCH  12  17
ATOM     17  C   UNL     1     -13.494  10.864 -28.284  1.00  0.00    -0.006 C 
ATOM     18  C   UNL     1     -12.743  11.713 -27.242  1.00  0.00     0.008 C 
ATOM     19  C   UNL     1     -14.695  10.184 -27.600  1.00  0.00     0.008 C 
ENDBRANCH  12  17
ENDBRANCH  11  12
ENDBRANCH   1  11
TORSDOF 1
ENDMDL
MODEL 5
REMARK VINA RESULT:    -3.593      1.567      3.834
REMARK INTER + INTRA:          -5.736
REMARK INTER:                  -6.049
REMARK INTRA:                   0.313
REMARK UNBOUND:                -0.252
REMARK SMILES CC1=CCC[C@@H](C)C(=O)C[C@@H](C(C)C)C(=O)C1
REMARK SMILES IDX 8 1 9 2 6 3 7 4 5 5 4 6 3 7 2 8 1 9 10 11 11 12 15 13 16 14
REMARK SMILES IDX 17 15 12 17 13 18 14 19
REMARK H PARENT
REMARK Flexibility Score: 70.00
ROOT
ATOM      1  C   UNL     1     -13.604  12.764 -30.997  1.00  0.00     0.136 C 
ATOM      2  O   UNL     1     -12.906  11.951 -31.586  1.00  0.00    -0.299 OA
ENDROOT
BRANCH   1   3
ATOM      3  C   UNL     1     -14.049  14.011 -31.734  1.00  0.00     0.053 C 
ATOM      4  C   UNL     1     -13.614  15.271 -30.975  1.00  0.00     0.016 C 
BRANCH   3   5
ATOM      5  C   UNL     1     -15.586  13.979 -31.940  1.00  0.00     0.015 C 
BRANCH   5   6
ATOM      6  C   UNL     1     -16.120  12.584 -32.330  1.00  0.00     0.028 C 
BRANCH   6   7
ATOM      7  C   UNL     1     -17.525  12.365 -31.818  1.00  0.00    -0.028 C 
ATOM      8  C   UNL     1     -17.880  12.321 -30.512  1.00  0.00    -0.070 CG0
ATOM      9  C   UNL     1     -19.340  12.159 -30.177  1.00  0.00     0.039 C 
ATOM     10  G   UNL     1     -16.879  12.415 -29.375  1.00  0.00     0.000 G0
ENDBRANCH   6   7
ENDBRANCH   5   6
ENDBRANCH   3   5
ENDBRANCH   1   3
BRANCH   1  11
ATOM     11  C   UNL     1     -14.014  12.455 -29.571  1.00  0.00     0.087 C 
BRANCH  11  12
ATOM     12  C   UNL     1     -14.631  11.051 -29.306  1.00  0.00     0.066 C 
BRANCH  12  13
ATOM     13  C   UNL     1     -16.134  11.135 -29.078  1.00  0.00     0.140 C 
ATOM     14  O   UNL     1     -16.756  10.128 -28.770  1.00  0.00    -0.299 OA
BRANCH  13  15
ATOM     15  C   UNL     1     -16.874  12.429 -29.350  1.00  0.00     0.106 CG0
ATOM     16  G   UNL     1     -17.865  12.321 -30.494  1.00  0.00     0.000 G0
ENDBRANCH  13  15
ENDBRANCH  12  13
BRANCH  12  17
ATOM     17  C   UNL     1     -13.935  10.347 -28.094  1.00  0.00    -0.006 C 
ATOM     18  C   UNL     1     -12.401  10.424 -28.194  1.00  0.00     0.008 C 
ATOM     19  C   UNL     1     -14.376  10.950 -26.747  1.00  0.00     0.008 C 
ENDBRANCH  12  17
ENDBRANCH  11  12
ENDBRANCH   1  11
TORSDOF 1
ENDMDL
MODEL 6
REMARK VINA RESULT:    -3.514      2.135      5.269
REMARK INTER + INTRA:          -5.615
REMARK INTER:                  -5.748
REMARK INTRA:                   0.133
REMARK UNBOUND:                -0.252
REMARK SMILES CC1=CCC[C@@H](C)C(=O)C[C@@H](C(C)C)C(=O)C1
REMARK SMILES IDX 8 1 9 2 6 3 7 4 5 5 4 6 3 7 2 8 1 9 10 11 11 12 15 13 16 14
REMARK SMILES IDX 17 15 12 17 13 18 14 19
REMARK H PARENT
REMARK Flexibility Score: 70.00
ROOT
ATOM      1  C   UNL     1     -15.654  13.861 -31.355  1.00  0.00     0.136 C 
ATOM      2  O   UNL     1     -15.634  14.659 -30.429  1.00  0.00    -0.299 OA
ENDROOT
BRANCH   1   3
ATOM      3  C   UNL     1     -14.793  14.135 -32.571  1.00  0.00     0.053 C 
ATOM      4  C   UNL     1     -15.259  13.290 -33.763  1.00  0.00     0.016 C 
BRANCH   3   5
ATOM      5  C   UNL     1     -13.304  13.861 -32.234  1.00  0.00     0.015 C 
BRANCH   5   6
ATOM      6  C   UNL     1     -12.820  12.470 -32.697  1.00  0.00     0.028 C 
BRANCH   6   7
ATOM      7  C   UNL     1     -12.074  11.748 -31.599  1.00  0.00    -0.028 C 
ATOM      8  C   UNL     1     -12.630  10.885 -30.717  1.00  0.00    -0.070 CG0
ATOM      9  C   UNL     1     -11.726  10.201 -29.724  1.00  0.00     0.039 C 
ATOM     10  G   UNL     1     -14.117  10.584 -30.672  1.00  0.00     0.000 G0
ENDBRANCH   6   7
ENDBRANCH   5   6
ENDBRANCH   3   5
ENDBRANCH   1   3
BRANCH   1  11
ATOM     11  C   UNL     1     -16.513  12.620 -31.212  1.00  0.00     0.087 C 
BRANCH  11  12
ATOM     12  C   UNL     1     -16.346  11.796 -29.903  1.00  0.00     0.066 C 
BRANCH  12  13
ATOM     13  C   UNL     1     -14.888  11.434 -29.653  1.00  0.00     0.140 C 
ATOM     14  O   UNL     1     -14.305  11.909 -28.688  1.00  0.00    -0.299 OA
BRANCH  13  15
ATOM     15  C   UNL     1     -14.130  10.591 -30.658  1.00  0.00     0.106 CG0
ATOM     16  G   UNL     1     -12.644  10.896 -30.693  1.00  0.00     0.000 G0
ENDBRANCH  13  15
ENDBRANCH  12  13
BRANCH  12  17
ATOM     17  C   UNL     1     -17.230  10.506 -29.929  1.00  0.00    -0.006 C 
ATOM     18  C   UNL     1     -17.690  10.100 -28.517  1.00  0.00     0.008 C 
ATOM     19  C   UNL     1     -18.471  10.677 -30.826  1.00  0.00     0.008 C 
ENDBRANCH  12  17
ENDBRANCH  11  12
ENDBRANCH   1  11
TORSDOF 1
ENDMDL
MODEL 7
REMARK VINA RESULT:    -3.428      1.925      4.644
REMARK INTER + INTRA:          -5.483
REMARK INTER:                  -5.741
REMARK INTRA:                   0.258
REMARK UNBOUND:                -0.252
REMARK SMILES CC1=CCC[C@@H](C)C(=O)C[C@@H](C(C)C)C(=O)C1
REMARK SMILES IDX 8 1 9 2 6 3 7 4 5 5 4 6 3 7 2 8 1 9 10 11 11 12 15 13 16 14
REMARK SMILES IDX 17 15 12 17 13 18 14 19
REMARK H PARENT
REMARK Flexibility Score: 70.00
ROOT
ATOM      1  C   UNL     1     -15.543  14.042 -30.822  1.00  0.00     0.136 C 
ATOM      2  O   UNL     1     -15.841  15.117 -30.320  1.00  0.00    -0.299 OA
ENDROOT
BRANCH   1   3
ATOM      3  C   UNL     1     -14.109  13.812 -31.254  1.00  0.00     0.053 C 
ATOM      4  C   UNL     1     -13.559  15.047 -31.978  1.00  0.00     0.016 C 
BRANCH   3   5
ATOM      5  C   UNL     1     -14.027  12.549 -32.151  1.00  0.00     0.015 C 
BRANCH   5   6
ATOM      6  C   UNL     1     -13.962  11.233 -31.346  1.00  0.00     0.028 C 
BRANCH   6   7
ATOM      7  C   UNL     1     -13.378  11.452 -29.970  1.00  0.00    -0.028 C 
ATOM      8  C   UNL     1     -14.056  11.318 -28.806  1.00  0.00    -0.070 CG0
ATOM      9  C   UNL     1     -13.300  11.511 -27.516  1.00  0.00     0.039 C 
ATOM     10  G   UNL     1     -15.538  10.995 -28.739  1.00  0.00     0.000 G0
ENDBRANCH   6   7
ENDBRANCH   5   6
ENDBRANCH   3   5
ENDBRANCH   1   3
BRANCH   1  11
ATOM     11  C   UNL     1     -16.624  12.987 -30.946  1.00  0.00     0.087 C 
BRANCH  11  12
ATOM     12  C   UNL     1     -17.393  12.610 -29.646  1.00  0.00     0.066 C 
BRANCH  12  13
ATOM     13  C   UNL     1     -16.440  12.180 -28.539  1.00  0.00     0.140 C 
ATOM     14  O   UNL     1     -16.333  12.867 -27.533  1.00  0.00    -0.299 OA
BRANCH  13  15
ATOM     15  C   UNL     1     -15.540  10.977 -28.734  1.00  0.00     0.106 CG0
ATOM     16  G   UNL     1     -14.067  11.337 -28.797  1.00  0.00     0.000 G0
ENDBRANCH  13  15
ENDBRANCH  12  13
BRANCH  12  17
ATOM     17  C   UNL     1     -18.452  11.492 -29.918  1.00  0.00    -0.006 C 
ATOM     18  C   UNL     1     -19.877  12.066 -30.009  1.00  0.00     0.008 C 
ATOM     19  C   UNL     1     -18.146  10.712 -31.211  1.00  0.00     0.008 C 
ENDBRANCH  12  17
ENDBRANCH  11  12
ENDBRANCH   1  11
TORSDOF 1
ENDMDL
MODEL 8
REMARK VINA RESULT:    -3.385      9.879     12.405
REMARK INTER + INTRA:          -5.418
REMARK INTER:                  -6.246
REMARK INTRA:                   0.828
REMARK UNBOUND:                -0.252
REMARK SMILES CC1=CCC[C@@H](C)C(=O)C[C@@H](C(C)C)C(=O)C1
REMARK SMILES IDX 8 1 9 2 6 3 7 4 5 5 4 6 3 7 2 8 1 9 10 11 11 12 15 13 16 14
REMARK SMILES IDX 17 15 12 17 13 18 14 19
REMARK H PARENT
REMARK Flexibility Score: 70.00
ROOT
ATOM      1  C   UNL     1     -26.805  14.365 -30.916  1.00  0.00     0.136 C 
ATOM      2  O   UNL     1     -27.427  15.093 -31.677  1.00  0.00    -0.299 OA
ENDROOT
BRANCH   1   3
ATOM      3  C   UNL     1     -25.654  14.952 -30.125  1.00  0.00     0.053 C 
ATOM      4  C   UNL     1     -25.634  16.480 -30.255  1.00  0.00     0.016 C 
BRANCH   3   5
ATOM      5  C   UNL     1     -24.316  14.328 -30.601  1.00  0.00     0.015 C 
BRANCH   5   6
ATOM      6  C   UNL     1     -24.411  12.809 -30.862  1.00  0.00     0.028 C 
BRANCH   6   7
ATOM      7  C   UNL     1     -23.995  12.011 -29.649  1.00  0.00    -0.028 C 
ATOM      8  C   UNL     1     -24.718  11.014 -29.087  1.00  0.00    -0.070 CG0
ATOM      9  C   UNL     1     -24.122  10.275 -27.916  1.00  0.00     0.039 C 
ATOM     10  G   UNL     1     -26.100  10.614 -29.571  1.00  0.00     0.000 G0
ENDBRANCH   6   7
ENDBRANCH   5   6
ENDBRANCH   3   5
ENDBRANCH   1   3
BRANCH   1  11
ATOM     11  C   UNL     1     -27.250  12.922 -30.782  1.00  0.00     0.087 C 
BRANCH  11  12
ATOM     12  C   UNL     1     -27.914  12.514 -29.434  1.00  0.00     0.066 C 
BRANCH  12  13
ATOM     13  C   UNL     1     -27.234  11.295 -28.824  1.00  0.00     0.140 C 
ATOM     14  O   UNL     1     -27.529  10.943 -27.691  1.00  0.00    -0.299 OA
BRANCH  13  15
ATOM     15  C   UNL     1     -26.114  10.597 -29.568  1.00  0.00     0.106 CG0
ATOM     16  G   UNL     1     -24.733  11.005 -29.088  1.00  0.00     0.000 G0
ENDBRANCH  13  15
ENDBRANCH  12  13
BRANCH  12  17
ATOM     17  C   UNL     1     -29.445  12.251 -29.614  1.00  0.00    -0.006 C 
ATOM     18  C   UNL     1     -30.087  13.260 -30.583  1.00  0.00     0.008 C 
ATOM     19  C   UNL     1     -29.728  10.824 -30.122  1.00  0.00     0.008 C 
ENDBRANCH  12  17
ENDBRANCH  11  12
ENDBRANCH   1  11
TORSDOF 1
ENDMDL
MODEL 9
REMARK VINA RESULT:    -3.259      9.587     11.410
REMARK INTER + INTRA:          -5.226
REMARK INTER:                  -5.128
REMARK INTRA:                  -0.098
REMARK UNBOUND:                -0.252
REMARK SMILES CC1=CCC[C@@H](C)C(=O)C[C@@H](C(C)C)C(=O)C1
REMARK SMILES IDX 8 1 9 2 6 3 7 4 5 5 4 6 3 7 2 8 1 9 10 11 11 12 15 13 16 14
REMARK SMILES IDX 17 15 12 17 13 18 14 19
REMARK H PARENT
REMARK Flexibility Score: 70.00
ROOT
ATOM      1  C   UNL     1     -24.912  11.060 -29.606  1.00  0.00     0.136 C 
ATOM      2  O   UNL     1     -25.337  10.196 -30.359  1.00  0.00    -0.299 OA
ENDROOT
BRANCH   1   3
ATOM      3  C   UNL     1     -24.729  10.723 -28.140  1.00  0.00     0.053 C 
ATOM      4  C   UNL     1     -23.410   9.972 -27.921  1.00  0.00     0.016 C 
BRANCH   3   5
ATOM      5  C   UNL     1     -25.940   9.897 -27.635  1.00  0.00     0.015 C 
BRANCH   5   6
ATOM      6  C   UNL     1     -27.188  10.759 -27.347  1.00  0.00     0.028 C 
BRANCH   6   7
ATOM      7  C   UNL     1     -28.255  10.558 -28.398  1.00  0.00    -0.028 C 
ATOM      8  C   UNL     1     -28.631  11.483 -29.312  1.00  0.00    -0.070 CG0
ATOM      9  C   UNL     1     -29.669  11.093 -30.333  1.00  0.00     0.039 C 
ATOM     10  G   UNL     1     -28.069  12.892 -29.350  1.00  0.00     0.000 G0
ENDBRANCH   6   7
ENDBRANCH   5   6
ENDBRANCH   3   5
ENDBRANCH   1   3
BRANCH   1  11
ATOM     11  C   UNL     1     -24.556  12.411 -30.195  1.00  0.00     0.087 C 
BRANCH  11  12
ATOM     12  C   UNL     1     -25.607  13.548 -30.034  1.00  0.00     0.066 C 
BRANCH  12  13
ATOM     13  C   UNL     1     -27.001  13.079 -30.428  1.00  0.00     0.140 C 
ATOM     14  O   UNL     1     -27.283  12.948 -31.611  1.00  0.00    -0.299 OA
BRANCH  13  15
ATOM     15  C   UNL     1     -28.069  12.894 -29.369  1.00  0.00     0.106 CG0
ATOM     16  G   UNL     1     -28.624  11.482 -29.320  1.00  0.00     0.000 G0
ENDBRANCH  13  15
ENDBRANCH  12  13
BRANCH  12  17
ATOM     17  C   UNL     1     -25.204  14.812 -30.861  1.00  0.00    -0.006 C 
ATOM     18  C   UNL     1     -25.567  16.115 -30.126  1.00  0.00     0.008 C 
ATOM     19  C   UNL     1     -23.699  14.830 -31.190  1.00  0.00     0.008 C 
ENDBRANCH  12  17
ENDBRANCH  11  12
ENDBRANCH   1  11
TORSDOF 1
ENDMDL
