MODEL 1
REMARK VINA RESULT:    -4.921      0.000      0.000
REMARK INTER + INTRA:          -5.342
REMARK INTER:                  -5.209
REMARK INTRA:                  -0.133
REMARK UNBOUND:                -0.133
REMARK SMILES C=C(C)[C@@H]1CC=C(C)C(=O)C1
REMARK SMILES IDX 8 1 7 2 6 3 5 4 4 5 11 6 9 7 10 8 2 9 1 10 3 11
REMARK H PARENT
REMARK Flexibility Score: inf
ROOT
ATOM      1  C   UNL     1      52.029  19.583  -6.072  1.00  0.00     0.048 C 
ATOM      2  C   UNL     1      53.236  18.869  -5.529  1.00  0.00    -0.012 C 
ATOM      3  C   UNL     1      54.355  19.561  -5.263  1.00  0.00    -0.019 C 
ATOM      4  C   UNL     1      55.609  18.907  -4.749  1.00  0.00     0.036 C 
ATOM      5  C   UNL     1      55.343  17.639  -3.909  1.00  0.00     0.025 C 
ATOM      6  C   UNL     1      54.323  16.703  -4.591  1.00  0.00     0.089 C 
ATOM      7  C   UNL     1      53.138  17.441  -5.148  1.00  0.00     0.158 C 
ATOM      8  O   UNL     1      52.059  16.814  -5.326  1.00  0.00    -0.295 OA
ENDROOT
BRANCH   5   9
ATOM      9  C   UNL     1      54.990  17.953  -2.455  1.00  0.00    -0.077 C 
ATOM     10  C   UNL     1      55.101  19.191  -1.940  1.00  0.00     0.008 C 
ATOM     11  C   UNL     1      54.495  16.854  -1.548  1.00  0.00     0.039 C 
ENDBRANCH   5   9
TORSDOF 1
ENDMDL
MODEL 2
REMARK VINA RESULT:    -4.889      0.137      1.052
REMARK INTER + INTRA:          -5.307
REMARK INTER:                  -5.169
REMARK INTRA:                  -0.138
REMARK UNBOUND:                -0.133
REMARK SMILES C=C(C)[C@@H]1CC=C(C)C(=O)C1
REMARK SMILES IDX 8 1 7 2 6 3 5 4 4 5 11 6 9 7 10 8 2 9 1 10 3 11
REMARK H PARENT
REMARK Flexibility Score: inf
ROOT
ATOM      1  C   UNL     1      52.021  19.429  -6.072  1.00  0.00     0.048 C 
ATOM      2  C   UNL     1      53.225  18.721  -5.514  1.00  0.00    -0.012 C 
ATOM      3  C   UNL     1      54.335  19.419  -5.232  1.00  0.00    -0.019 C 
ATOM      4  C   UNL     1      55.586  18.771  -4.703  1.00  0.00     0.036 C 
ATOM      5  C   UNL     1      55.316  17.501  -3.868  1.00  0.00     0.025 C 
ATOM      6  C   UNL     1      54.311  16.560  -4.565  1.00  0.00     0.089 C 
ATOM      7  C   UNL     1      53.129  17.292  -5.137  1.00  0.00     0.158 C 
ATOM      8  O   UNL     1      52.056  16.659  -5.330  1.00  0.00    -0.295 OA
ENDROOT
BRANCH   5   9
ATOM      9  C   UNL     1      54.942  17.811  -2.418  1.00  0.00    -0.077 C 
ATOM     10  C   UNL     1      54.488  16.866  -1.576  1.00  0.00     0.008 C 
ATOM     11  C   UNL     1      55.079  19.218  -1.892  1.00  0.00     0.039 C 
ENDBRANCH   5   9
TORSDOF 1
ENDMDL
MODEL 3
REMARK VINA RESULT:    -4.726      1.724      2.619
REMARK INTER + INTRA:          -5.135
REMARK INTER:                  -5.007
REMARK INTRA:                  -0.128
REMARK UNBOUND:                -0.133
REMARK SMILES C=C(C)[C@@H]1CC=C(C)C(=O)C1
REMARK SMILES IDX 8 1 7 2 6 3 5 4 4 5 11 6 9 7 10 8 2 9 1 10 3 11
REMARK H PARENT
REMARK Flexibility Score: inf
ROOT
ATOM      1  C   UNL     1      51.701  20.145  -3.180  1.00  0.00     0.048 C 
ATOM      2  C   UNL     1      53.044  19.518  -3.436  1.00  0.00    -0.012 C 
ATOM      3  C   UNL     1      53.763  19.043  -2.407  1.00  0.00    -0.019 C 
ATOM      4  C   UNL     1      55.127  18.433  -2.587  1.00  0.00     0.036 C 
ATOM      5  C   UNL     1      55.324  17.758  -3.961  1.00  0.00     0.025 C 
ATOM      6  C   UNL     1      54.827  18.653  -5.116  1.00  0.00     0.089 C 
ATOM      7  C   UNL     1      53.496  19.289  -4.827  1.00  0.00     0.158 C 
ATOM      8  O   UNL     1      52.779  19.666  -5.794  1.00  0.00    -0.295 OA
ENDROOT
BRANCH   5   9
ATOM      9  C   UNL     1      54.755  16.340  -4.014  1.00  0.00    -0.077 C 
ATOM     10  C   UNL     1      53.893  15.948  -4.968  1.00  0.00     0.008 C 
ATOM     11  C   UNL     1      55.161  15.329  -2.970  1.00  0.00     0.039 C 
ENDBRANCH   5   9
TORSDOF 1
ENDMDL
MODEL 4
REMARK VINA RESULT:    -4.661      2.394      3.496
REMARK INTER + INTRA:          -5.066
REMARK INTER:                  -4.912
REMARK INTRA:                  -0.155
REMARK UNBOUND:                -0.133
REMARK SMILES C=C(C)[C@@H]1CC=C(C)C(=O)C1
REMARK SMILES IDX 8 1 7 2 6 3 5 4 4 5 11 6 9 7 10 8 2 9 1 10 3 11
REMARK H PARENT
REMARK Flexibility Score: inf
ROOT
ATOM      1  C   UNL     1      56.269  19.320  -4.604  1.00  0.00     0.048 C 
ATOM      2  C   UNL     1      55.268  18.448  -3.898  1.00  0.00    -0.012 C 
ATOM      3  C   UNL     1      54.745  17.388  -4.532  1.00  0.00    -0.019 C 
ATOM      4  C   UNL     1      53.715  16.492  -3.898  1.00  0.00     0.036 C 
ATOM      5  C   UNL     1      53.830  16.413  -2.361  1.00  0.00     0.025 C 
ATOM      6  C   UNL     1      53.994  17.809  -1.725  1.00  0.00     0.089 C 
ATOM      7  C   UNL     1      54.980  18.672  -2.462  1.00  0.00     0.158 C 
ATOM      8  O   UNL     1      55.535  19.623  -1.848  1.00  0.00    -0.295 OA
ENDROOT
BRANCH   5   9
ATOM      9  C   UNL     1      54.890  15.414  -1.895  1.00  0.00    -0.077 C 
ATOM     10  C   UNL     1      55.311  15.356  -0.619  1.00  0.00     0.008 C 
ATOM     11  C   UNL     1      55.498  14.449  -2.883  1.00  0.00     0.039 C 
ENDBRANCH   5   9
TORSDOF 1
ENDMDL
MODEL 5
REMARK VINA RESULT:    -4.577      1.918      4.000
REMARK INTER + INTRA:          -4.977
REMARK INTER:                  -4.779
REMARK INTRA:                  -0.198
REMARK UNBOUND:                -0.133
REMARK SMILES C=C(C)[C@@H]1CC=C(C)C(=O)C1
REMARK SMILES IDX 8 1 7 2 6 3 5 4 4 5 11 6 9 7 10 8 2 9 1 10 3 11
REMARK H PARENT
REMARK Flexibility Score: inf
ROOT
ATOM      1  C   UNL     1      54.140  17.148  -1.020  1.00  0.00     0.048 C 
ATOM      2  C   UNL     1      54.476  17.428  -2.459  1.00  0.00    -0.012 C 
ATOM      3  C   UNL     1      54.078  16.574  -3.414  1.00  0.00    -0.019 C 
ATOM      4  C   UNL     1      54.407  16.775  -4.868  1.00  0.00     0.036 C 
ATOM      5  C   UNL     1      54.562  18.259  -5.265  1.00  0.00     0.025 C 
ATOM      6  C   UNL     1      55.442  19.032  -4.261  1.00  0.00     0.089 C 
ATOM      7  C   UNL     1      55.107  18.716  -2.830  1.00  0.00     0.158 C 
ATOM      8  O   UNL     1      55.406  19.553  -1.935  1.00  0.00    -0.295 OA
ENDROOT
BRANCH   5   9
ATOM      9  C   UNL     1      53.223  18.944  -5.541  1.00  0.00    -0.077 C 
ATOM     10  C   UNL     1      53.086  20.281  -5.531  1.00  0.00     0.008 C 
ATOM     11  C   UNL     1      52.000  18.111  -5.836  1.00  0.00     0.039 C 
ENDBRANCH   5   9
TORSDOF 1
ENDMDL
MODEL 6
REMARK VINA RESULT:    -4.471      2.147      3.912
REMARK INTER + INTRA:          -4.865
REMARK INTER:                  -4.647
REMARK INTRA:                  -0.219
REMARK UNBOUND:                -0.133
REMARK SMILES C=C(C)[C@@H]1CC=C(C)C(=O)C1
REMARK SMILES IDX 8 1 7 2 6 3 5 4 4 5 11 6 9 7 10 8 2 9 1 10 3 11
REMARK H PARENT
REMARK Flexibility Score: inf
ROOT
ATOM      1  C   UNL     1      54.600  14.696  -2.429  1.00  0.00     0.048 C 
ATOM      2  C   UNL     1      54.871  16.157  -2.663  1.00  0.00    -0.012 C 
ATOM      3  C   UNL     1      55.231  16.580  -3.885  1.00  0.00    -0.019 C 
ATOM      4  C   UNL     1      55.549  18.020  -4.182  1.00  0.00     0.036 C 
ATOM      5  C   UNL     1      54.785  19.017  -3.284  1.00  0.00     0.025 C 
ATOM      6  C   UNL     1      54.838  18.607  -1.797  1.00  0.00     0.089 C 
ATOM      7  C   UNL     1      54.591  17.139  -1.590  1.00  0.00     0.158 C 
ATOM      8  O   UNL     1      54.174  16.744  -0.467  1.00  0.00    -0.295 OA
ENDROOT
BRANCH   5   9
ATOM      9  C   UNL     1      53.365  19.296  -3.779  1.00  0.00    -0.077 C 
ATOM     10  C   UNL     1      52.355  19.579  -2.938  1.00  0.00     0.008 C 
ATOM     11  C   UNL     1      53.064  19.258  -5.257  1.00  0.00     0.039 C 
ENDBRANCH   5   9
TORSDOF 1
ENDMDL
MODEL 7
REMARK VINA RESULT:    -4.459      1.609      3.870
REMARK INTER + INTRA:          -4.852
REMARK INTER:                  -4.639
REMARK INTRA:                  -0.214
REMARK UNBOUND:                -0.133
REMARK SMILES C=C(C)[C@@H]1CC=C(C)C(=O)C1
REMARK SMILES IDX 8 1 7 2 6 3 5 4 4 5 11 6 9 7 10 8 2 9 1 10 3 11
REMARK H PARENT
REMARK Flexibility Score: inf
ROOT
ATOM      1  C   UNL     1      54.954  15.345  -0.799  1.00  0.00     0.048 C 
ATOM      2  C   UNL     1      54.478  16.613  -1.453  1.00  0.00    -0.012 C 
ATOM      3  C   UNL     1      55.202  17.736  -1.333  1.00  0.00    -0.019 C 
ATOM      4  C   UNL     1      54.769  19.046  -1.934  1.00  0.00     0.036 C 
ATOM      5  C   UNL     1      53.915  18.887  -3.209  1.00  0.00     0.025 C 
ATOM      6  C   UNL     1      52.807  17.828  -3.028  1.00  0.00     0.089 C 
ATOM      7  C   UNL     1      53.299  16.581  -2.350  1.00  0.00     0.158 C 
ATOM      8  O   UNL     1      52.667  15.503  -2.523  1.00  0.00    -0.295 OA
ENDROOT
BRANCH   5   9
ATOM      9  C   UNL     1      54.758  18.664  -4.466  1.00  0.00    -0.077 C 
ATOM     10  C   UNL     1      56.027  19.097  -4.565  1.00  0.00     0.008 C 
ATOM     11  C   UNL     1      54.166  17.935  -5.647  1.00  0.00     0.039 C 
ENDBRANCH   5   9
TORSDOF 1
ENDMDL
MODEL 8
REMARK VINA RESULT:    -4.455      2.093      4.238
REMARK INTER + INTRA:          -4.848
REMARK INTER:                  -4.627
REMARK INTRA:                  -0.221
REMARK UNBOUND:                -0.133
REMARK SMILES C=C(C)[C@@H]1CC=C(C)C(=O)C1
REMARK SMILES IDX 8 1 7 2 6 3 5 4 4 5 11 6 9 7 10 8 2 9 1 10 3 11
REMARK H PARENT
REMARK Flexibility Score: inf
ROOT
ATOM      1  C   UNL     1      55.428  19.282  -1.717  1.00  0.00     0.048 C 
ATOM      2  C   UNL     1      54.477  19.032  -2.855  1.00  0.00    -0.012 C 
ATOM      3  C   UNL     1      53.159  18.957  -2.615  1.00  0.00    -0.019 C 
ATOM      4  C   UNL     1      52.153  18.677  -3.699  1.00  0.00     0.036 C 
ATOM      5  C   UNL     1      52.593  19.179  -5.091  1.00  0.00     0.025 C 
ATOM      6  C   UNL     1      54.052  18.788  -5.407  1.00  0.00     0.089 C 
ATOM      7  C   UNL     1      54.980  19.022  -4.248  1.00  0.00     0.158 C 
ATOM      8  O   UNL     1      56.212  19.173  -4.474  1.00  0.00    -0.295 OA
ENDROOT
BRANCH   5   9
ATOM      9  C   UNL     1      52.311  20.667  -5.304  1.00  0.00    -0.077 C 
ATOM     10  C   UNL     1      53.031  21.419  -6.154  1.00  0.00     0.008 C 
ATOM     11  C   UNL     1      51.190  21.334  -4.546  1.00  0.00     0.039 C 
ENDBRANCH   5   9
TORSDOF 1
ENDMDL
MODEL 9
REMARK VINA RESULT:    -4.266      2.375      4.343
REMARK INTER + INTRA:          -4.648
REMARK INTER:                  -4.547
REMARK INTRA:                  -0.101
REMARK UNBOUND:                -0.133
REMARK SMILES C=C(C)[C@@H]1CC=C(C)C(=O)C1
REMARK SMILES IDX 8 1 7 2 6 3 5 4 4 5 11 6 9 7 10 8 2 9 1 10 3 11
REMARK H PARENT
REMARK Flexibility Score: inf
ROOT
ATOM      1  C   UNL     1      55.652  14.582  -0.335  1.00  0.00     0.048 C 
ATOM      2  C   UNL     1      54.885  15.478  -1.268  1.00  0.00    -0.012 C 
ATOM      3  C   UNL     1      54.127  16.466  -0.768  1.00  0.00    -0.019 C 
ATOM      4  C   UNL     1      53.308  17.378  -1.641  1.00  0.00     0.036 C 
ATOM      5  C   UNL     1      53.908  17.587  -3.048  1.00  0.00     0.025 C 
ATOM      6  C   UNL     1      54.345  16.253  -3.688  1.00  0.00     0.089 C 
ATOM      7  C   UNL     1      55.088  15.364  -2.731  1.00  0.00     0.158 C 
ATOM      8  O   UNL     1      55.864  14.484  -3.193  1.00  0.00    -0.295 OA
ENDROOT
BRANCH   5   9
ATOM      9  C   UNL     1      55.004  18.653  -3.074  1.00  0.00    -0.077 C 
ATOM     10  C   UNL     1      55.324  19.381  -1.990  1.00  0.00     0.008 C 
ATOM     11  C   UNL     1      55.768  18.914  -4.349  1.00  0.00     0.039 C 
ENDBRANCH   5   9
TORSDOF 1
ENDMDL
