MODEL 1
REMARK VINA RESULT:    -2.193      0.000      0.000
REMARK INTER + INTRA:          -2.385
REMARK INTER:                  -2.385
REMARK INTRA:                   0.000
REMARK UNBOUND:                 0.000
REMARK SMILES [NH3+]CC(=O)[O-]
REMARK SMILES IDX 2 1 1 2 3 6 4 7 5 8
REMARK H PARENT 1 3 1 4 1 5
REMARK Flexibility Score: inf
ROOT
ATOM      1  C   UNL     1      -6.910  -2.697   1.334  1.00  0.00     0.312 C 
ENDROOT
BRANCH   1   2
ATOM      2  N   UNL     1      -5.580  -2.995   1.860  1.00  0.00    -0.353 N 
ATOM      3  H   UNL     1      -5.088  -3.671   1.231  1.00  0.00     0.344 HD
ATOM      4  H   UNL     1      -5.024  -2.110   1.907  1.00  0.00     0.344 HD
ATOM      5  H   UNL     1      -5.656  -3.399   2.822  1.00  0.00     0.344 HD
ENDBRANCH   1   2
BRANCH   1   6
ATOM      6  C   UNL     1      -7.487  -1.491   2.008  1.00  0.00     0.096 C 
ATOM      7  O   UNL     1      -7.054  -1.126   3.132  1.00  0.00    -0.544 OA
ATOM      8  O   UNL     1      -8.467  -0.740   1.371  1.00  0.00    -0.544 OA
ENDBRANCH   1   6
TORSDOF 2
ENDMDL
MODEL 2
REMARK VINA RESULT:    -2.122      3.277      3.627
REMARK INTER + INTRA:          -2.308
REMARK INTER:                  -2.308
REMARK INTRA:                   0.000
REMARK UNBOUND:                 0.000
REMARK SMILES [NH3+]CC(=O)[O-]
REMARK SMILES IDX 2 1 1 2 3 6 4 7 5 8
REMARK H PARENT 1 3 1 4 1 5
REMARK Flexibility Score: inf
ROOT
ATOM      1  C   UNL     1      -6.022  -3.167   1.139  1.00  0.00     0.312 C 
ENDROOT
BRANCH   1   2
ATOM      2  N   UNL     1      -6.407  -2.230   2.192  1.00  0.00    -0.353 N 
ATOM      3  H   UNL     1      -7.448  -2.201   2.285  1.00  0.00     0.344 HD
ATOM      4  H   UNL     1      -5.993  -2.545   3.099  1.00  0.00     0.344 HD
ATOM      5  H   UNL     1      -6.045  -1.273   1.970  1.00  0.00     0.344 HD
ENDBRANCH   1   2
BRANCH   1   6
ATOM      6  C   UNL     1      -4.702  -3.800   1.451  1.00  0.00     0.096 C 
ATOM      7  O   UNL     1      -4.414  -4.114   2.636  1.00  0.00    -0.544 OA
ATOM      8  O   UNL     1      -3.809  -4.090   0.427  1.00  0.00    -0.544 OA
ENDBRANCH   1   6
TORSDOF 2
ENDMDL
MODEL 3
REMARK VINA RESULT:    -2.105      8.774      9.205
REMARK INTER + INTRA:          -2.289
REMARK INTER:                  -2.289
REMARK INTRA:                   0.000
REMARK UNBOUND:                 0.000
REMARK SMILES [NH3+]CC(=O)[O-]
REMARK SMILES IDX 2 1 1 2 3 6 4 7 5 8
REMARK H PARENT 1 3 1 4 1 5
REMARK Flexibility Score: inf
ROOT
ATOM      1  C   UNL     1      -3.900   5.798   5.603  1.00  0.00     0.312 C 
ENDROOT
BRANCH   1   2
ATOM      2  N   UNL     1      -5.178   5.484   4.967  1.00  0.00    -0.353 N 
ATOM      3  H   UNL     1      -5.416   4.477   5.116  1.00  0.00     0.344 HD
ATOM      4  H   UNL     1      -5.927   6.076   5.393  1.00  0.00     0.344 HD
ATOM      5  H   UNL     1      -5.128   5.688   3.942  1.00  0.00     0.344 HD
ENDBRANCH   1   2
BRANCH   1   6
ATOM      6  C   UNL     1      -3.837   5.211   6.979  1.00  0.00     0.096 C 
ATOM      7  O   UNL     1      -3.688   5.958   7.980  1.00  0.00    -0.544 OA
ATOM      8  O   UNL     1      -3.994   3.842   7.159  1.00  0.00    -0.544 OA
ENDBRANCH   1   6
TORSDOF 2
ENDMDL
MODEL 4
REMARK VINA RESULT:    -2.064     10.196     10.566
REMARK INTER + INTRA:          -2.245
REMARK INTER:                  -2.245
REMARK INTRA:                   0.000
REMARK UNBOUND:                 0.000
REMARK SMILES [NH3+]CC(=O)[O-]
REMARK SMILES IDX 2 1 1 2 3 6 4 7 5 8
REMARK H PARENT 1 3 1 4 1 5
REMARK Flexibility Score: inf
ROOT
ATOM      1  C   UNL     1      -8.667   5.373  -6.531  1.00  0.00     0.312 C 
ENDROOT
BRANCH   1   2
ATOM      2  N   UNL     1      -9.767   5.524  -5.581  1.00  0.00    -0.353 N 
ATOM      3  H   UNL     1     -10.165   6.489  -5.642  1.00  0.00     0.344 HD
ATOM      4  H   UNL     1     -10.517   4.833  -5.814  1.00  0.00     0.344 HD
ATOM      5  H   UNL     1      -9.429   5.341  -4.608  1.00  0.00     0.344 HD
ENDBRANCH   1   2
BRANCH   1   6
ATOM      6  C   UNL     1      -7.740   4.279  -6.097  1.00  0.00     0.096 C 
ATOM      7  O   UNL     1      -7.966   3.643  -5.035  1.00  0.00    -0.544 OA
ATOM      8  O   UNL     1      -6.657   3.929  -6.892  1.00  0.00    -0.544 OA
ENDBRANCH   1   6
TORSDOF 2
ENDMDL
MODEL 5
REMARK VINA RESULT:    -2.052      6.720      6.975
REMARK INTER + INTRA:          -2.231
REMARK INTER:                  -2.231
REMARK INTRA:                   0.000
REMARK UNBOUND:                 0.000
REMARK SMILES [NH3+]CC(=O)[O-]
REMARK SMILES IDX 2 1 1 2 3 6 4 7 5 8
REMARK H PARENT 1 3 1 4 1 5
REMARK Flexibility Score: inf
ROOT
ATOM      1  C   UNL     1      -4.072  -4.616   7.269  1.00  0.00     0.312 C 
ENDROOT
BRANCH   1   2
ATOM      2  N   UNL     1      -5.343  -4.371   6.590  1.00  0.00    -0.353 N 
ATOM      3  H   UNL     1      -5.218  -3.651   5.842  1.00  0.00     0.344 HD
ATOM      4  H   UNL     1      -5.673  -5.261   6.151  1.00  0.00     0.344 HD
ATOM      5  H   UNL     1      -6.061  -4.046   7.277  1.00  0.00     0.344 HD
ENDBRANCH   1   2
BRANCH   1   6
ATOM      6  C   UNL     1      -2.995  -4.929   6.278  1.00  0.00     0.096 C 
ATOM      7  O   UNL     1      -2.262  -4.010   5.827  1.00  0.00    -0.544 OA
ATOM      8  O   UNL     1      -2.766  -6.243   5.891  1.00  0.00    -0.544 OA
ENDBRANCH   1   6
TORSDOF 2
ENDMDL
MODEL 6
REMARK VINA RESULT:    -2.010      3.622      4.145
REMARK INTER + INTRA:          -2.186
REMARK INTER:                  -2.186
REMARK INTRA:                   0.000
REMARK UNBOUND:                 0.000
REMARK SMILES [NH3+]CC(=O)[O-]
REMARK SMILES IDX 2 1 1 2 3 6 4 7 5 8
REMARK H PARENT 1 3 1 4 1 5
REMARK Flexibility Score: inf
ROOT
ATOM      1  C   UNL     1      -5.473  -3.270   0.048  1.00  0.00     0.312 C 
ENDROOT
BRANCH   1   2
ATOM      2  N   UNL     1      -4.925  -2.052  -0.546  1.00  0.00    -0.353 N 
ATOM      3  H   UNL     1      -3.945  -2.219  -0.868  1.00  0.00     0.344 HD
ATOM      4  H   UNL     1      -5.511  -1.779  -1.369  1.00  0.00     0.344 HD
ATOM      5  H   UNL     1      -4.940  -1.274   0.153  1.00  0.00     0.344 HD
ENDBRANCH   1   2
BRANCH   1   6
ATOM      6  C   UNL     1      -4.450  -3.945   0.907  1.00  0.00     0.096 C 
ATOM      7  O   UNL     1      -3.574  -4.685   0.386  1.00  0.00    -0.544 OA
ATOM      8  O   UNL     1      -4.431  -3.717   2.277  1.00  0.00    -0.544 OA
ENDBRANCH   1   6
TORSDOF 2
ENDMDL
MODEL 7
REMARK VINA RESULT:    -1.978     11.510     11.747
REMARK INTER + INTRA:          -2.151
REMARK INTER:                  -2.151
REMARK INTRA:                   0.000
REMARK UNBOUND:                 0.000
REMARK SMILES [NH3+]CC(=O)[O-]
REMARK SMILES IDX 2 1 1 2 3 6 4 7 5 8
REMARK H PARENT 1 3 1 4 1 5
REMARK Flexibility Score: inf
ROOT
ATOM      1  C   UNL     1       3.782   3.172   3.346  1.00  0.00     0.312 C 
ENDROOT
BRANCH   1   2
ATOM      2  N   UNL     1       3.184   4.396   3.874  1.00  0.00    -0.353 N 
ATOM      3  H   UNL     1       2.843   4.238   4.850  1.00  0.00     0.344 HD
ATOM      4  H   UNL     1       3.906   5.153   3.885  1.00  0.00     0.344 HD
ATOM      5  H   UNL     1       2.388   4.698   3.266  1.00  0.00     0.344 HD
ENDBRANCH   1   2
BRANCH   1   6
ATOM      6  C   UNL     1       3.233   2.858   1.989  1.00  0.00     0.096 C 
ATOM      7  O   UNL     1       2.048   2.452   1.863  1.00  0.00    -0.544 OA
ATOM      8  O   UNL     1       4.013   3.063   0.858  1.00  0.00    -0.544 OA
ENDBRANCH   1   6
TORSDOF 2
ENDMDL
MODEL 8
REMARK VINA RESULT:    -1.977     10.195     10.433
REMARK INTER + INTRA:          -2.151
REMARK INTER:                  -2.151
REMARK INTRA:                   0.000
REMARK UNBOUND:                 0.000
REMARK SMILES [NH3+]CC(=O)[O-]
REMARK SMILES IDX 2 1 1 2 3 6 4 7 5 8
REMARK H PARENT 1 3 1 4 1 5
REMARK Flexibility Score: inf
ROOT
ATOM      1  C   UNL     1      -7.839   3.413  -6.061  1.00  0.00     0.312 C 
ENDROOT
BRANCH   1   2
ATOM      2  N   UNL     1      -7.437   3.354  -4.658  1.00  0.00    -0.353 N 
ATOM      3  H   UNL     1      -7.918   4.106  -4.114  1.00  0.00     0.344 HD
ATOM      4  H   UNL     1      -7.709   2.424  -4.263  1.00  0.00     0.344 HD
ATOM      5  H   UNL     1      -6.400   3.466  -4.576  1.00  0.00     0.344 HD
ENDBRANCH   1   2
BRANCH   1   6
ATOM      6  C   UNL     1      -7.274   4.633  -6.722  1.00  0.00     0.096 C 
ATOM      7  O   UNL     1      -6.173   4.572  -7.328  1.00  0.00    -0.544 OA
ATOM      8  O   UNL     1      -7.988   5.824  -6.711  1.00  0.00    -0.544 OA
ENDBRANCH   1   6
TORSDOF 2
ENDMDL
MODEL 9
REMARK VINA RESULT:    -1.954     11.846     12.055
REMARK INTER + INTRA:          -2.125
REMARK INTER:                  -2.125
REMARK INTRA:                   0.000
REMARK UNBOUND:                 0.000
REMARK SMILES [NH3+]CC(=O)[O-]
REMARK SMILES IDX 2 1 1 2 3 6 4 7 5 8
REMARK H PARENT 1 3 1 4 1 5
REMARK Flexibility Score: inf
ROOT
ATOM      1  C   UNL     1       4.911   2.947   2.458  1.00  0.00     0.312 C 
ENDROOT
BRANCH   1   2
ATOM      2  N   UNL     1       5.764   2.330   3.472  1.00  0.00    -0.353 N 
ATOM      3  H   UNL     1       5.201   2.098   4.322  1.00  0.00     0.344 HD
ATOM      4  H   UNL     1       6.171   1.447   3.085  1.00  0.00     0.344 HD
ATOM      5  H   UNL     1       6.543   2.978   3.729  1.00  0.00     0.344 HD
ENDBRANCH   1   2
BRANCH   1   6
ATOM      6  C   UNL     1       3.471   2.875   2.863  1.00  0.00     0.096 C 
ATOM      7  O   UNL     1       3.143   3.043   4.067  1.00  0.00    -0.544 OA
ATOM      8  O   UNL     1       2.487   2.674   1.904  1.00  0.00    -0.544 OA
ENDBRANCH   1   6
TORSDOF 2
ENDMDL
