MODEL 1
REMARK VINA RESULT:   102.337      0.000      0.000
REMARK INTER + INTRA:         248.089
REMARK INTER:                 242.929
REMARK INTRA:                   5.161
REMARK UNBOUND:                 5.161
REMARK SMILES O=C(OC[C@H]1O[C@@H](OC(=O)c2cc(O)c(O)c(O)c2)[C@@H](OC(=O)c2cc(O)c(O)c(O)c2)[C@@H](OC(=O)c2cc(O)c(O)c(O)c2)[C@@H]1OC(=O)c1cc(O)c(O)c(O)c1)c1cc(O)c(O)c(O)c1
REMARK SMILES IDX 5 1 46 2 33 3 20 4 7 5 6 6 4 7 3 8 2 9 1 10 59 11 60 12
REMARK SMILES IDX 61 13 67 14 63 15 65 16 62 17 64 19 66 21 47 23 48 24 49 25
REMARK SMILES IDX 50 26 58 27 51 28 56 29 52 30 54 31 57 32 53 34 55 36 34 38
REMARK SMILES IDX 35 39 36 40 37 41 45 42 38 43 43 44 39 45 41 46 44 47 40 49
REMARK SMILES IDX 42 51 8 53 9 54 10 55 11 56 19 57 12 58 17 59 13 60 15 61
REMARK SMILES IDX 18 62 14 64 16 66 21 68 22 69 23 70 24 71 32 72 25 73 30 74
REMARK SMILES IDX 26 75 28 76 31 77 27 79 29 81
REMARK H PARENT 62 18 64 20 66 22 57 33 53 35 55 37 44 48 40 50 42 52 18 63
REMARK H PARENT 14 65 16 67 31 78 27 80 29 82
REMARK Flexibility Score: inf
ROOT
ATOM      1  C   UNL     1      34.989  14.159  -0.152  1.00  0.00     0.205 C 
ATOM      2  C   UNL     1      33.585  14.843  -0.080  1.00  0.00     0.254 C 
ATOM      3  C   UNL     1      33.634  16.225  -0.763  1.00  0.00     0.267 C 
ATOM      4  C   UNL     1      34.797  17.035  -0.163  1.00  0.00     0.290 C 
ATOM      5  C   UNL     1      36.118  16.214  -0.205  1.00  0.00     0.357 C 
ATOM      6  O   UNL     1      35.931  14.961  -0.845  1.00  0.00    -0.329 OA
ENDROOT
BRANCH   1   7
ATOM      7  C   UNL     1      34.923  12.798  -0.869  1.00  0.00     0.269 C 
BRANCH   7   8
ATOM      8  O   UNL     1      33.568  12.467  -1.180  1.00  0.00    -0.459 OA
BRANCH   8   9
ATOM      9  C   UNL     1      33.086  12.282  -2.490  1.00  0.00     0.338 C 
ATOM     10  O   UNL     1      33.843  11.758  -3.352  1.00  0.00    -0.246 OA
BRANCH   9  11
ATOM     11  C   UNL     1      31.719  12.672  -2.880  1.00  0.00     0.067 A 
ATOM     12  C   UNL     1      31.465  13.152  -4.174  1.00  0.00     0.066 A 
ATOM     13  C   UNL     1      30.190  13.606  -4.522  1.00  0.00     0.162 A 
ATOM     14  C   UNL     1      30.684  12.634  -1.939  1.00  0.00     0.066 A 
ATOM     15  C   UNL     1      29.150  13.580  -3.573  1.00  0.00     0.200 A 
ATOM     16  C   UNL     1      29.403  13.099  -2.275  1.00  0.00     0.162 A 
BRANCH  13  17
ATOM     17  O   UNL     1      29.975  14.085  -5.813  1.00  0.00    -0.504 OA
ATOM     18  H   UNL     1      30.741  14.283  -6.450  1.00  0.00     0.293 HD
ENDBRANCH  13  17
BRANCH  15  19
ATOM     19  O   UNL     1      27.879  14.033  -3.930  1.00  0.00    -0.502 OA
ATOM     20  H   UNL     1      27.045  13.484  -3.770  1.00  0.00     0.293 HD
ENDBRANCH  15  19
BRANCH  16  21
ATOM     21  O   UNL     1      28.388  13.089  -1.322  1.00  0.00    -0.504 OA
ATOM     22  H   UNL     1      27.483  13.506  -1.508  1.00  0.00     0.293 HD
ENDBRANCH  16  21
ENDBRANCH   9  11
ENDBRANCH   8   9
ENDBRANCH   7   8
ENDBRANCH   1   7
BRANCH   2  23
ATOM     23  O   UNL     1      33.208  15.015   1.288  1.00  0.00    -0.452 OA
BRANCH  23  24
ATOM     24  C   UNL     1      32.307  14.165   1.939  1.00  0.00     0.338 C 
ATOM     25  O   UNL     1      31.433  14.645   2.713  1.00  0.00    -0.246 OA
BRANCH  24  26
ATOM     26  C   UNL     1      32.406  12.701   1.751  1.00  0.00     0.067 A 
ATOM     27  C   UNL     1      31.804  12.077   0.646  1.00  0.00     0.066 A 
ATOM     28  C   UNL     1      33.063  11.910   2.709  1.00  0.00     0.066 A 
ATOM     29  C   UNL     1      31.853  10.687   0.496  1.00  0.00     0.162 A 
ATOM     30  C   UNL     1      33.108  10.517   2.573  1.00  0.00     0.162 A 
ATOM     31  C   UNL     1      32.506   9.901   1.462  1.00  0.00     0.200 A 
BRANCH  29  32
ATOM     32  O   UNL     1      31.245  10.107  -0.615  1.00  0.00    -0.504 OA
ATOM     33  H   UNL     1      30.370   9.602  -0.549  1.00  0.00     0.293 HD
ENDBRANCH  29  32
BRANCH  30  34
ATOM     34  O   UNL     1      33.744   9.742   3.541  1.00  0.00    -0.504 OA
ATOM     35  H   UNL     1      33.582   8.745   3.614  1.00  0.00     0.293 HD
ENDBRANCH  30  34
BRANCH  31  36
ATOM     36  O   UNL     1      32.539   8.513   1.312  1.00  0.00    -0.502 OA
ATOM     37  H   UNL     1      32.933   7.904   2.019  1.00  0.00     0.293 HD
ENDBRANCH  31  36
ENDBRANCH  24  26
ENDBRANCH  23  24
ENDBRANCH   2  23
BRANCH   3  38
ATOM     38  O   UNL     1      33.867  16.072  -2.162  1.00  0.00    -0.450 OA
BRANCH  38  39
ATOM     39  C   UNL     1      32.867  15.943  -3.128  1.00  0.00     0.338 C 
ATOM     40  O   UNL     1      31.682  15.668  -2.794  1.00  0.00    -0.246 OA
BRANCH  39  41
ATOM     41  C   UNL     1      33.222  16.140  -4.547  1.00  0.00     0.067 A 
ATOM     42  C   UNL     1      34.568  16.343  -4.900  1.00  0.00     0.066 A 
ATOM     43  C   UNL     1      32.242  16.124  -5.555  1.00  0.00     0.066 A 
ATOM     44  C   UNL     1      34.934  16.516  -6.239  1.00  0.00     0.162 A 
ATOM     45  C   UNL     1      32.604  16.313  -6.896  1.00  0.00     0.162 A 
ATOM     46  C   UNL     1      33.957  16.492  -7.239  1.00  0.00     0.200 A 
BRANCH  44  47
ATOM     47  O   UNL     1      36.271  16.707  -6.585  1.00  0.00    -0.504 OA
ATOM     48  H   UNL     1      36.533  17.231  -7.413  1.00  0.00     0.293 HD
ENDBRANCH  44  47
BRANCH  45  49
ATOM     49  O   UNL     1      31.627  16.348  -7.892  1.00  0.00    -0.504 OA
ATOM     50  H   UNL     1      31.781  15.960  -8.815  1.00  0.00     0.293 HD
ENDBRANCH  45  49
BRANCH  46  51
ATOM     51  O   UNL     1      34.343  16.659  -8.571  1.00  0.00    -0.502 OA
ATOM     52  H   UNL     1      34.733  15.898  -9.110  1.00  0.00     0.293 HD
ENDBRANCH  46  51
ENDBRANCH  39  41
ENDBRANCH  38  39
ENDBRANCH   3  38
BRANCH   5  53
ATOM     53  O   UNL     1      37.122  16.927  -0.929  1.00  0.00    -0.428 OA
BRANCH  53  54
ATOM     54  C   UNL     1      37.564  18.192  -0.523  1.00  0.00     0.340 C 
ATOM     55  O   UNL     1      37.415  19.186  -1.287  1.00  0.00    -0.246 OA
BRANCH  54  56
ATOM     56  C   UNL     1      38.138  18.373   0.828  1.00  0.00     0.067 A 
ATOM     57  C   UNL     1      38.861  17.341   1.441  1.00  0.00     0.066 A 
ATOM     58  C   UNL     1      38.025  19.611   1.479  1.00  0.00     0.066 A 
ATOM     59  C   UNL     1      39.480  17.545   2.681  1.00  0.00     0.162 A 
ATOM     60  C   UNL     1      38.632  19.826   2.723  1.00  0.00     0.162 A 
ATOM     61  C   UNL     1      39.366  18.781   3.333  1.00  0.00     0.200 A 
BRANCH  59  62
ATOM     62  O   UNL     1      40.226  16.521   3.265  1.00  0.00    -0.504 OA
ATOM     63  H   UNL     1      40.264  15.596   2.855  1.00  0.00     0.293 HD
ENDBRANCH  59  62
BRANCH  60  64
ATOM     64  O   UNL     1      38.490  21.090   3.302  1.00  0.00    -0.504 OA
ATOM     65  H   UNL     1      37.662  21.660   3.227  1.00  0.00     0.293 HD
ENDBRANCH  60  64
BRANCH  61  66
ATOM     66  O   UNL     1      39.995  18.930   4.571  1.00  0.00    -0.502 OA
ATOM     67  H   UNL     1      40.765  18.353   4.882  1.00  0.00     0.293 HD
ENDBRANCH  61  66
ENDBRANCH  54  56
ENDBRANCH  53  54
ENDBRANCH   5  53
BRANCH   4  68
ATOM     68  O   UNL     1      34.927  18.267  -0.875  1.00  0.00    -0.448 OA
BRANCH  68  69
ATOM     69  C   UNL     1      34.188  18.558  -2.029  1.00  0.00     0.339 C 
ATOM     70  O   UNL     1      32.956  18.288  -2.072  1.00  0.00    -0.246 OA
BRANCH  69  71
ATOM     71  C   UNL     1      34.859  19.155  -3.202  1.00  0.00     0.067 A 
ATOM     72  C   UNL     1      36.147  18.739  -3.569  1.00  0.00     0.066 A 
ATOM     73  C   UNL     1      34.200  20.112  -3.987  1.00  0.00     0.066 A 
ATOM     74  C   UNL     1      36.771  19.256  -4.713  1.00  0.00     0.162 A 
ATOM     75  C   UNL     1      34.814  20.643  -5.127  1.00  0.00     0.162 A 
ATOM     76  C   UNL     1      36.096  20.218  -5.502  1.00  0.00     0.200 A 
BRANCH  74  77
ATOM     77  O   UNL     1      38.047  18.783  -5.027  1.00  0.00    -0.504 OA
ATOM     78  H   UNL     1      38.874  19.364  -5.052  1.00  0.00     0.293 HD
ENDBRANCH  74  77
BRANCH  75  79
ATOM     79  O   UNL     1      34.150  21.596  -5.898  1.00  0.00    -0.504 OA
ATOM     80  H   UNL     1      34.648  22.203  -6.538  1.00  0.00     0.293 HD
ENDBRANCH  75  79
BRANCH  76  81
ATOM     81  O   UNL     1      36.656  20.769  -6.658  1.00  0.00    -0.502 OA
ATOM     82  H   UNL     1      37.649  20.879  -6.809  1.00  0.00     0.293 HD
ENDBRANCH  76  81
ENDBRANCH  69  71
ENDBRANCH  68  69
ENDBRANCH   4  68
TORSDOF 31
ENDMDL
MODEL 2
REMARK VINA RESULT:   103.576      1.340      7.171
REMARK INTER + INTRA:         251.029
REMARK INTER:                 248.822
REMARK INTRA:                   2.207
REMARK UNBOUND:                 5.161
REMARK SMILES O=C(OC[C@H]1O[C@@H](OC(=O)c2cc(O)c(O)c(O)c2)[C@@H](OC(=O)c2cc(O)c(O)c(O)c2)[C@@H](OC(=O)c2cc(O)c(O)c(O)c2)[C@@H]1OC(=O)c1cc(O)c(O)c(O)c1)c1cc(O)c(O)c(O)c1
REMARK SMILES IDX 5 1 46 2 33 3 20 4 7 5 6 6 4 7 3 8 2 9 1 10 59 11 60 12
REMARK SMILES IDX 61 13 67 14 63 15 65 16 62 17 64 19 66 21 47 23 48 24 49 25
REMARK SMILES IDX 50 26 58 27 51 28 56 29 52 30 54 31 57 32 53 34 55 36 34 38
REMARK SMILES IDX 35 39 36 40 37 41 45 42 38 43 43 44 39 45 41 46 44 47 40 49
REMARK SMILES IDX 42 51 8 53 9 54 10 55 11 56 19 57 12 58 17 59 13 60 15 61
REMARK SMILES IDX 18 62 14 64 16 66 21 68 22 69 23 70 24 71 32 72 25 73 30 74
REMARK SMILES IDX 26 75 28 76 31 77 27 79 29 81
REMARK H PARENT 62 18 64 20 66 22 57 33 53 35 55 37 44 48 40 50 42 52 18 63
REMARK H PARENT 14 65 16 67 31 78 27 80 29 82
REMARK Flexibility Score: inf
ROOT
ATOM      1  C   UNL     1      35.034  15.235  -0.294  1.00  0.00     0.205 C 
ATOM      2  C   UNL     1      33.751  14.364  -0.096  1.00  0.00     0.254 C 
ATOM      3  C   UNL     1      32.783  14.571  -1.278  1.00  0.00     0.267 C 
ATOM      4  C   UNL     1      32.538  16.079  -1.462  1.00  0.00     0.290 C 
ATOM      5  C   UNL     1      33.886  16.849  -1.552  1.00  0.00     0.357 C 
ATOM      6  O   UNL     1      34.994  15.962  -1.511  1.00  0.00    -0.329 OA
ENDROOT
BRANCH   1   7
ATOM      7  C   UNL     1      36.310  14.375  -0.311  1.00  0.00     0.269 C 
BRANCH   7   8
ATOM      8  O   UNL     1      37.425  15.131   0.166  1.00  0.00    -0.459 OA
BRANCH   8   9
ATOM      9  C   UNL     1      37.537  16.529   0.039  1.00  0.00     0.338 C 
ATOM     10  O   UNL     1      37.118  17.083  -1.014  1.00  0.00    -0.246 OA
BRANCH   9  11
ATOM     11  C   UNL     1      38.117  17.365   1.106  1.00  0.00     0.067 A 
ATOM     12  C   UNL     1      37.871  18.746   1.131  1.00  0.00     0.066 A 
ATOM     13  C   UNL     1      38.488  19.557   2.087  1.00  0.00     0.162 A 
ATOM     14  C   UNL     1      38.974  16.795   2.054  1.00  0.00     0.066 A 
ATOM     15  C   UNL     1      39.361  18.988   3.035  1.00  0.00     0.200 A 
ATOM     16  C   UNL     1      39.608  17.603   3.011  1.00  0.00     0.162 A 
BRANCH  13  17
ATOM     17  O   UNL     1      38.230  20.926   2.078  1.00  0.00    -0.504 OA
ATOM     18  H   UNL     1      38.955  21.610   1.885  1.00  0.00     0.293 HD
ENDBRANCH  13  17
BRANCH  15  19
ATOM     19  O   UNL     1      39.971  19.804   3.988  1.00  0.00    -0.502 OA
ATOM     20  H   UNL     1      40.838  19.550   4.442  1.00  0.00     0.293 HD
ENDBRANCH  15  19
BRANCH  16  21
ATOM     21  O   UNL     1      40.485  17.032   3.931  1.00  0.00    -0.504 OA
ATOM     22  H   UNL     1      40.168  16.355   4.614  1.00  0.00     0.293 HD
ENDBRANCH  16  21
ENDBRANCH   9  11
ENDBRANCH   8   9
ENDBRANCH   7   8
ENDBRANCH   1   7
BRANCH   2  23
ATOM     23  O   UNL     1      33.095  14.750   1.114  1.00  0.00    -0.452 OA
BRANCH  23  24
ATOM     24  C   UNL     1      32.058  14.005   1.686  1.00  0.00     0.338 C 
ATOM     25  O   UNL     1      30.945  14.550   1.924  1.00  0.00    -0.246 OA
BRANCH  24  26
ATOM     26  C   UNL     1      32.281  12.588   2.049  1.00  0.00     0.067 A 
ATOM     27  C   UNL     1      31.293  11.621   1.804  1.00  0.00     0.066 A 
ATOM     28  C   UNL     1      33.469  12.204   2.694  1.00  0.00     0.066 A 
ATOM     29  C   UNL     1      31.482  10.291   2.195  1.00  0.00     0.162 A 
ATOM     30  C   UNL     1      33.662  10.878   3.099  1.00  0.00     0.162 A 
ATOM     31  C   UNL     1      32.670   9.914   2.846  1.00  0.00     0.200 A 
BRANCH  29  32
ATOM     32  O   UNL     1      30.479   9.361   1.931  1.00  0.00    -0.504 OA
ATOM     33  H   UNL     1      30.051   9.273   1.017  1.00  0.00     0.293 HD
ENDBRANCH  29  32
BRANCH  30  34
ATOM     34  O   UNL     1      34.836  10.514   3.757  1.00  0.00    -0.504 OA
ATOM     35  H   UNL     1      35.658  10.209   3.249  1.00  0.00     0.293 HD
ENDBRANCH  30  34
BRANCH  31  36
ATOM     36  O   UNL     1      32.846   8.588   3.246  1.00  0.00    -0.502 OA
ATOM     37  H   UNL     1      33.764   8.186   3.390  1.00  0.00     0.293 HD
ENDBRANCH  31  36
ENDBRANCH  24  26
ENDBRANCH  23  24
ENDBRANCH   2  23
BRANCH   3  38
ATOM     38  O   UNL     1      33.359  14.060  -2.478  1.00  0.00    -0.450 OA
BRANCH  38  39
ATOM     39  C   UNL     1      33.524  12.703  -2.770  1.00  0.00     0.338 C 
ATOM     40  O   UNL     1      34.447  12.319  -3.540  1.00  0.00    -0.246 OA
BRANCH  39  41
ATOM     41  C   UNL     1      32.601  11.729  -2.157  1.00  0.00     0.067 A 
ATOM     42  C   UNL     1      31.324  12.152  -1.746  1.00  0.00     0.066 A 
ATOM     43  C   UNL     1      32.970  10.384  -1.979  1.00  0.00     0.066 A 
ATOM     44  C   UNL     1      30.424  11.245  -1.176  1.00  0.00     0.162 A 
ATOM     45  C   UNL     1      32.075   9.477  -1.393  1.00  0.00     0.162 A 
ATOM     46  C   UNL     1      30.792   9.907  -1.008  1.00  0.00     0.200 A 
BRANCH  44  47
ATOM     47  O   UNL     1      29.155  11.667  -0.779  1.00  0.00    -0.504 OA
ATOM     48  H   UNL     1      28.650  12.379  -1.295  1.00  0.00     0.293 HD
ENDBRANCH  44  47
BRANCH  45  49
ATOM     49  O   UNL     1      32.459   8.154  -1.170  1.00  0.00    -0.504 OA
ATOM     50  H   UNL     1      31.888   7.369  -1.462  1.00  0.00     0.293 HD
ENDBRANCH  45  49
BRANCH  46  51
ATOM     51  O   UNL     1      29.877   9.015  -0.444  1.00  0.00    -0.502 OA
ATOM     52  H   UNL     1      30.151   8.351   0.266  1.00  0.00     0.293 HD
ENDBRANCH  46  51
ENDBRANCH  39  41
ENDBRANCH  38  39
ENDBRANCH   3  38
BRANCH   5  53
ATOM     53  O   UNL     1      33.959  17.581  -2.776  1.00  0.00    -0.428 OA
BRANCH  53  54
ATOM     54  C   UNL     1      34.449  18.891  -2.822  1.00  0.00     0.340 C 
ATOM     55  O   UNL     1      34.281  19.661  -1.836  1.00  0.00    -0.246 OA
BRANCH  54  56
ATOM     56  C   UNL     1      35.224  19.346  -3.996  1.00  0.00     0.067 A 
ATOM     57  C   UNL     1      34.701  20.311  -4.868  1.00  0.00     0.066 A 
ATOM     58  C   UNL     1      36.526  18.867  -4.207  1.00  0.00     0.066 A 
ATOM     59  C   UNL     1      35.473  20.807  -5.926  1.00  0.00     0.162 A 
ATOM     60  C   UNL     1      37.305  19.347  -5.267  1.00  0.00     0.162 A 
ATOM     61  C   UNL     1      36.773  20.327  -6.139  1.00  0.00     0.200 A 
BRANCH  59  62
ATOM     62  O   UNL     1      34.954  21.792  -6.765  1.00  0.00    -0.504 OA
ATOM     63  H   UNL     1      34.485  21.556  -7.631  1.00  0.00     0.293 HD
ENDBRANCH  59  62
BRANCH  60  64
ATOM     64  O   UNL     1      38.598  18.835  -5.404  1.00  0.00    -0.504 OA
ATOM     65  H   UNL     1      39.405  19.189  -4.913  1.00  0.00     0.293 HD
ENDBRANCH  60  64
BRANCH  61  66
ATOM     66  O   UNL     1      37.497  20.847  -7.214  1.00  0.00    -0.502 OA
ATOM     67  H   UNL     1      37.427  21.807  -7.525  1.00  0.00     0.293 HD
ENDBRANCH  61  66
ENDBRANCH  54  56
ENDBRANCH  53  54
ENDBRANCH   5  53
BRANCH   4  68
ATOM     68  O   UNL     1      31.741  16.285  -2.630  1.00  0.00    -0.448 OA
BRANCH  68  69
ATOM     69  C   UNL     1      31.695  15.369  -3.688  1.00  0.00     0.339 C 
ATOM     70  O   UNL     1      31.153  14.241  -3.522  1.00  0.00    -0.246 OA
BRANCH  69  71
ATOM     71  C   UNL     1      32.303  15.715  -4.989  1.00  0.00     0.067 A 
ATOM     72  C   UNL     1      31.508  15.801  -6.141  1.00  0.00     0.066 A 
ATOM     73  C   UNL     1      33.672  16.004  -5.081  1.00  0.00     0.066 A 
ATOM     74  C   UNL     1      32.062  16.184  -7.371  1.00  0.00     0.162 A 
ATOM     75  C   UNL     1      34.241  16.380  -6.303  1.00  0.00     0.162 A 
ATOM     76  C   UNL     1      33.444  16.478  -7.453  1.00  0.00     0.200 A 
BRANCH  74  77
ATOM     77  O   UNL     1      31.207  16.264  -8.473  1.00  0.00    -0.504 OA
ATOM     78  H   UNL     1      30.364  16.819  -8.494  1.00  0.00     0.293 HD
ENDBRANCH  74  77
BRANCH  75  79
ATOM     79  O   UNL     1      35.604  16.662  -6.381  1.00  0.00    -0.504 OA
ATOM     80  H   UNL     1      35.976  17.296  -7.078  1.00  0.00     0.293 HD
ENDBRANCH  75  79
BRANCH  76  81
ATOM     81  O   UNL     1      34.060  16.873  -8.643  1.00  0.00    -0.502 OA
ATOM     82  H   UNL     1      33.793  16.536  -9.557  1.00  0.00     0.293 HD
ENDBRANCH  76  81
ENDBRANCH  69  71
ENDBRANCH  68  69
ENDBRANCH   4  68
TORSDOF 31
ENDMDL
MODEL 3
REMARK VINA RESULT:   103.783      1.586      8.797
REMARK INTER + INTRA:         251.521
REMARK INTER:                 251.526
REMARK INTRA:                  -0.005
REMARK UNBOUND:                 5.161
REMARK SMILES O=C(OC[C@H]1O[C@@H](OC(=O)c2cc(O)c(O)c(O)c2)[C@@H](OC(=O)c2cc(O)c(O)c(O)c2)[C@@H](OC(=O)c2cc(O)c(O)c(O)c2)[C@@H]1OC(=O)c1cc(O)c(O)c(O)c1)c1cc(O)c(O)c(O)c1
REMARK SMILES IDX 5 1 46 2 33 3 20 4 7 5 6 6 4 7 3 8 2 9 1 10 59 11 60 12
REMARK SMILES IDX 61 13 67 14 63 15 65 16 62 17 64 19 66 21 47 23 48 24 49 25
REMARK SMILES IDX 50 26 58 27 51 28 56 29 52 30 54 31 57 32 53 34 55 36 34 38
REMARK SMILES IDX 35 39 36 40 37 41 45 42 38 43 43 44 39 45 41 46 44 47 40 49
REMARK SMILES IDX 42 51 8 53 9 54 10 55 11 56 19 57 12 58 17 59 13 60 15 61
REMARK SMILES IDX 18 62 14 64 16 66 21 68 22 69 23 70 24 71 32 72 25 73 30 74
REMARK SMILES IDX 26 75 28 76 31 77 27 79 29 81
REMARK H PARENT 62 18 64 20 66 22 57 33 53 35 55 37 44 48 40 50 42 52 18 63
REMARK H PARENT 14 65 16 67 31 78 27 80 29 82
REMARK Flexibility Score: inf
ROOT
ATOM      1  C   UNL     1      34.253  15.664  -0.621  1.00  0.00     0.205 C 
ATOM      2  C   UNL     1      34.845  15.216  -1.997  1.00  0.00     0.254 C 
ATOM      3  C   UNL     1      34.040  14.026  -2.556  1.00  0.00     0.267 C 
ATOM      4  C   UNL     1      33.961  12.928  -1.480  1.00  0.00     0.290 C 
ATOM      5  C   UNL     1      33.450  13.515  -0.133  1.00  0.00     0.357 C 
ATOM      6  O   UNL     1      33.122  14.891  -0.257  1.00  0.00    -0.329 OA
ENDROOT
BRANCH   1   7
ATOM      7  C   UNL     1      33.817  17.140  -0.642  1.00  0.00     0.269 C 
BRANCH   7   8
ATOM      8  O   UNL     1      33.927  17.671  -1.965  1.00  0.00    -0.459 OA
BRANCH   8   9
ATOM      9  C   UNL     1      34.340  18.986  -2.251  1.00  0.00     0.338 C 
ATOM     10  O   UNL     1      34.067  19.904  -1.432  1.00  0.00    -0.246 OA
BRANCH   9  11
ATOM     11  C   UNL     1      35.092  19.318  -3.475  1.00  0.00     0.067 A 
ATOM     12  C   UNL     1      36.362  18.764  -3.693  1.00  0.00     0.066 A 
ATOM     13  C   UNL     1      37.117  19.143  -4.806  1.00  0.00     0.162 A 
ATOM     14  C   UNL     1      34.573  20.244  -4.387  1.00  0.00     0.066 A 
ATOM     15  C   UNL     1      36.602  20.084  -5.719  1.00  0.00     0.200 A 
ATOM     16  C   UNL     1      35.328  20.640  -5.501  1.00  0.00     0.162 A 
BRANCH  13  17
ATOM     17  O   UNL     1      38.379  18.580  -4.988  1.00  0.00    -0.504 OA
ATOM     18  H   UNL     1      38.734  18.337  -5.908  1.00  0.00     0.293 HD
ENDBRANCH  13  17
BRANCH  15  19
ATOM     19  O   UNL     1      37.361  20.454  -6.830  1.00  0.00    -0.502 OA
ATOM     20  H   UNL     1      38.372  20.405  -6.835  1.00  0.00     0.293 HD
ENDBRANCH  15  19
BRANCH  16  21
ATOM     21  O   UNL     1      34.817  21.587  -6.386  1.00  0.00    -0.504 OA
ATOM     22  H   UNL     1      33.832  21.825  -6.396  1.00  0.00     0.293 HD
ENDBRANCH  16  21
ENDBRANCH   9  11
ENDBRANCH   8   9
ENDBRANCH   7   8
ENDBRANCH   1   7
BRANCH   2  23
ATOM     23  O   UNL     1      36.205  14.815  -1.822  1.00  0.00    -0.452 OA
BRANCH  23  24
ATOM     24  C   UNL     1      36.826  14.763  -0.569  1.00  0.00     0.338 C 
ATOM     25  O   UNL     1      36.885  13.671   0.063  1.00  0.00    -0.246 OA
BRANCH  24  26
ATOM     26  C   UNL     1      37.378  15.996   0.033  1.00  0.00     0.067 A 
ATOM     27  C   UNL     1      38.041  15.956   1.271  1.00  0.00     0.066 A 
ATOM     28  C   UNL     1      37.198  17.235  -0.606  1.00  0.00     0.066 A 
ATOM     29  C   UNL     1      38.516  17.129   1.866  1.00  0.00     0.162 A 
ATOM     30  C   UNL     1      37.661  18.415  -0.013  1.00  0.00     0.162 A 
ATOM     31  C   UNL     1      38.326  18.366   1.224  1.00  0.00     0.200 A 
BRANCH  29  32
ATOM     32  O   UNL     1      39.170  17.047   3.093  1.00  0.00    -0.504 OA
ATOM     33  H   UNL     1      40.093  17.438   3.240  1.00  0.00     0.293 HD
ENDBRANCH  29  32
BRANCH  30  34
ATOM     34  O   UNL     1      37.456  19.640  -0.647  1.00  0.00    -0.504 OA
ATOM     35  H   UNL     1      36.531  20.041  -0.742  1.00  0.00     0.293 HD
ENDBRANCH  30  34
BRANCH  31  36
ATOM     36  O   UNL     1      38.792  19.535   1.830  1.00  0.00    -0.502 OA
ATOM     37  H   UNL     1      38.257  20.395   1.824  1.00  0.00     0.293 HD
ENDBRANCH  31  36
ENDBRANCH  24  26
ENDBRANCH  23  24
ENDBRANCH   2  23
BRANCH   3  38
ATOM     38  O   UNL     1      32.713  14.438  -2.875  1.00  0.00    -0.450 OA
BRANCH  38  39
ATOM     39  C   UNL     1      32.374  15.667  -3.448  1.00  0.00     0.338 C 
ATOM     40  O   UNL     1      31.699  16.513  -2.801  1.00  0.00    -0.246 OA
BRANCH  39  41
ATOM     41  C   UNL     1      32.828  15.956  -4.823  1.00  0.00     0.067 A 
ATOM     42  C   UNL     1      31.892  15.956  -5.872  1.00  0.00     0.066 A 
ATOM     43  C   UNL     1      34.176  16.237  -5.104  1.00  0.00     0.066 A 
ATOM     44  C   UNL     1      32.292  16.243  -7.181  1.00  0.00     0.162 A 
ATOM     45  C   UNL     1      34.583  16.509  -6.418  1.00  0.00     0.162 A 
ATOM     46  C   UNL     1      33.633  16.529  -7.456  1.00  0.00     0.200 A 
BRANCH  44  47
ATOM     47  O   UNL     1      31.359  16.252  -8.218  1.00  0.00    -0.504 OA
ATOM     48  H   UNL     1      30.663  16.985  -8.296  1.00  0.00     0.293 HD
ENDBRANCH  44  47
BRANCH  45  49
ATOM     49  O   UNL     1      35.929  16.738  -6.706  1.00  0.00    -0.504 OA
ATOM     50  H   UNL     1      36.227  17.255  -7.525  1.00  0.00     0.293 HD
ENDBRANCH  45  49
BRANCH  46  51
ATOM     51  O   UNL     1      34.012  16.821  -8.768  1.00  0.00    -0.502 OA
ATOM     52  H   UNL     1      33.327  16.965  -9.498  1.00  0.00     0.293 HD
ENDBRANCH  46  51
ENDBRANCH  39  41
ENDBRANCH  38  39
ENDBRANCH   3  38
BRANCH   5  53
ATOM     53  O   UNL     1      32.276  12.824   0.295  1.00  0.00    -0.428 OA
BRANCH  53  54
ATOM     54  C   UNL     1      31.886  12.797   1.639  1.00  0.00     0.340 C 
ATOM     55  O   UNL     1      31.315  13.801   2.149  1.00  0.00    -0.246 OA
BRANCH  54  56
ATOM     56  C   UNL     1      32.080  11.569   2.438  1.00  0.00     0.067 A 
ATOM     57  C   UNL     1      33.367  11.152   2.808  1.00  0.00     0.066 A 
ATOM     58  C   UNL     1      30.969  10.845   2.897  1.00  0.00     0.066 A 
ATOM     59  C   UNL     1      33.543  10.039   3.640  1.00  0.00     0.162 A 
ATOM     60  C   UNL     1      31.131   9.726   3.722  1.00  0.00     0.162 A 
ATOM     61  C   UNL     1      32.433   9.315   4.097  1.00  0.00     0.200 A 
BRANCH  59  62
ATOM     62  O   UNL     1      34.827   9.656   4.029  1.00  0.00    -0.504 OA
ATOM     63  H   UNL     1      35.585   9.594   3.360  1.00  0.00     0.293 HD
ENDBRANCH  59  62
BRANCH  60  64
ATOM     64  O   UNL     1      29.977   9.066   4.153  1.00  0.00    -0.504 OA
ATOM     65  H   UNL     1      29.588   9.148   5.080  1.00  0.00     0.293 HD
ENDBRANCH  60  64
BRANCH  61  66
ATOM     66  O   UNL     1      32.663   8.209   4.916  1.00  0.00    -0.502 OA
ATOM     67  H   UNL     1      32.368   8.154   5.882  1.00  0.00     0.293 HD
ENDBRANCH  61  66
ENDBRANCH  54  56
ENDBRANCH  53  54
ENDBRANCH   5  53
BRANCH   4  68
ATOM     68  O   UNL     1      33.115  11.875  -1.945  1.00  0.00    -0.448 OA
BRANCH  68  69
ATOM     69  C   UNL     1      31.739  11.837  -1.684  1.00  0.00     0.339 C 
ATOM     70  O   UNL     1      31.011  12.820  -1.997  1.00  0.00    -0.246 OA
BRANCH  69  71
ATOM     71  C   UNL     1      31.148  10.657  -1.021  1.00  0.00     0.067 A 
ATOM     72  C   UNL     1      29.816  10.685  -0.582  1.00  0.00     0.066 A 
ATOM     73  C   UNL     1      31.895   9.481  -0.862  1.00  0.00     0.066 A 
ATOM     74  C   UNL     1      29.225   9.553  -0.004  1.00  0.00     0.162 A 
ATOM     75  C   UNL     1      31.320   8.346  -0.279  1.00  0.00     0.162 A 
ATOM     76  C   UNL     1      29.985   8.369   0.149  1.00  0.00     0.200 A 
BRANCH  74  77
ATOM     77  O   UNL     1      27.889   9.649   0.395  1.00  0.00    -0.504 OA
ATOM     78  H   UNL     1      27.406   8.939   0.927  1.00  0.00     0.293 HD
ENDBRANCH  74  77
BRANCH  75  79
ATOM     79  O   UNL     1      32.074   7.183  -0.123  1.00  0.00    -0.504 OA
ATOM     80  H   UNL     1      31.768   6.296  -0.503  1.00  0.00     0.293 HD
ENDBRANCH  75  79
BRANCH  76  81
ATOM     81  O   UNL     1      29.457   7.204   0.710  1.00  0.00    -0.502 OA
ATOM     82  H   UNL     1      28.580   6.788   0.432  1.00  0.00     0.293 HD
ENDBRANCH  76  81
ENDBRANCH  69  71
ENDBRANCH  68  69
ENDBRANCH   4  68
TORSDOF 31
ENDMDL
MODEL 4
REMARK VINA RESULT:   104.430      1.113      2.229
REMARK INTER + INTRA:         253.057
REMARK INTER:                 239.392
REMARK INTRA:                  13.665
REMARK UNBOUND:                 5.161
REMARK SMILES O=C(OC[C@H]1O[C@@H](OC(=O)c2cc(O)c(O)c(O)c2)[C@@H](OC(=O)c2cc(O)c(O)c(O)c2)[C@@H](OC(=O)c2cc(O)c(O)c(O)c2)[C@@H]1OC(=O)c1cc(O)c(O)c(O)c1)c1cc(O)c(O)c(O)c1
REMARK SMILES IDX 5 1 46 2 33 3 20 4 7 5 6 6 4 7 3 8 2 9 1 10 59 11 60 12
REMARK SMILES IDX 61 13 67 14 63 15 65 16 62 17 64 19 66 21 47 23 48 24 49 25
REMARK SMILES IDX 50 26 58 27 51 28 56 29 52 30 54 31 57 32 53 34 55 36 34 38
REMARK SMILES IDX 35 39 36 40 37 41 45 42 38 43 43 44 39 45 41 46 44 47 40 49
REMARK SMILES IDX 42 51 8 53 9 54 10 55 11 56 19 57 12 58 17 59 13 60 15 61
REMARK SMILES IDX 18 62 14 64 16 66 21 68 22 69 23 70 24 71 32 72 25 73 30 74
REMARK SMILES IDX 26 75 28 76 31 77 27 79 29 81
REMARK H PARENT 62 18 64 20 66 22 57 33 53 35 55 37 44 48 40 50 42 52 18 63
REMARK H PARENT 14 65 16 67 31 78 27 80 29 82
REMARK Flexibility Score: inf
ROOT
ATOM      1  C   UNL     1      34.189  13.771   0.073  1.00  0.00     0.205 C 
ATOM      2  C   UNL     1      32.909  14.641  -0.155  1.00  0.00     0.254 C 
ATOM      3  C   UNL     1      33.268  15.913  -0.948  1.00  0.00     0.267 C 
ATOM      4  C   UNL     1      34.436  16.626  -0.244  1.00  0.00     0.290 C 
ATOM      5  C   UNL     1      35.609  15.637   0.012  1.00  0.00     0.357 C 
ATOM      6  O   UNL     1      35.334  14.353  -0.528  1.00  0.00    -0.329 OA
ENDROOT
BRANCH   1   7
ATOM      7  C   UNL     1      34.027  12.357  -0.513  1.00  0.00     0.269 C 
BRANCH   7   8
ATOM      8  O   UNL     1      33.715  12.429  -1.906  1.00  0.00    -0.459 OA
BRANCH   8   9
ATOM      9  C   UNL     1      32.650  11.733  -2.508  1.00  0.00     0.338 C 
ATOM     10  O   UNL     1      32.736  11.418  -3.726  1.00  0.00    -0.246 OA
BRANCH   9  11
ATOM     11  C   UNL     1      31.444  11.350  -1.753  1.00  0.00     0.067 A 
ATOM     12  C   UNL     1      31.163   9.997  -1.512  1.00  0.00     0.066 A 
ATOM     13  C   UNL     1      29.977   9.623  -0.874  1.00  0.00     0.162 A 
ATOM     14  C   UNL     1      30.537  12.331  -1.337  1.00  0.00     0.066 A 
ATOM     15  C   UNL     1      29.057  10.607  -0.466  1.00  0.00     0.200 A 
ATOM     16  C   UNL     1      29.337  11.966  -0.706  1.00  0.00     0.162 A 
BRANCH  13  17
ATOM     17  O   UNL     1      29.725   8.269  -0.659  1.00  0.00    -0.504 OA
ATOM     18  H   UNL     1      30.468   7.609  -0.450  1.00  0.00     0.293 HD
ENDBRANCH  13  17
BRANCH  15  19
ATOM     19  O   UNL     1      27.877  10.226   0.173  1.00  0.00    -0.502 OA
ATOM     20  H   UNL     1      27.790   9.350   0.673  1.00  0.00     0.293 HD
ENDBRANCH  15  19
BRANCH  16  21
ATOM     21  O   UNL     1      28.425  12.947  -0.325  1.00  0.00    -0.504 OA
ATOM     22  H   UNL     1      28.350  13.823  -0.829  1.00  0.00     0.293 HD
ENDBRANCH  16  21
ENDBRANCH   9  11
ENDBRANCH   8   9
ENDBRANCH   7   8
ENDBRANCH   1   7
BRANCH   2  23
ATOM     23  O   UNL     1      32.361  15.021   1.109  1.00  0.00    -0.452 OA
BRANCH  23  24
ATOM     24  C   UNL     1      32.671  14.357   2.302  1.00  0.00     0.338 C 
ATOM     25  O   UNL     1      32.951  15.020   3.340  1.00  0.00    -0.246 OA
BRANCH  24  26
ATOM     26  C   UNL     1      32.709  12.879   2.335  1.00  0.00     0.067 A 
ATOM     27  C   UNL     1      33.459  12.202   3.311  1.00  0.00     0.066 A 
ATOM     28  C   UNL     1      32.034  12.134   1.353  1.00  0.00     0.066 A 
ATOM     29  C   UNL     1      33.537  10.806   3.311  1.00  0.00     0.162 A 
ATOM     30  C   UNL     1      32.116  10.736   1.339  1.00  0.00     0.162 A 
ATOM     31  C   UNL     1      32.865  10.066   2.321  1.00  0.00     0.200 A 
BRANCH  29  32
ATOM     32  O   UNL     1      34.290  10.172   4.298  1.00  0.00    -0.504 OA
ATOM     33  H   UNL     1      33.953  10.064   5.247  1.00  0.00     0.293 HD
ENDBRANCH  29  32
BRANCH  30  34
ATOM     34  O   UNL     1      31.459  10.010   0.346  1.00  0.00    -0.504 OA
ATOM     35  H   UNL     1      31.723  10.083  -0.629  1.00  0.00     0.293 HD
ENDBRANCH  30  34
BRANCH  31  36
ATOM     36  O   UNL     1      32.959   8.673   2.319  1.00  0.00    -0.502 OA
ATOM     37  H   UNL     1      32.885   8.129   1.468  1.00  0.00     0.293 HD
ENDBRANCH  31  36
ENDBRANCH  24  26
ENDBRANCH  23  24
ENDBRANCH   2  23
BRANCH   3  38
ATOM     38  O   UNL     1      33.683  15.567  -2.268  1.00  0.00    -0.450 OA
BRANCH  38  39
ATOM     39  C   UNL     1      32.822  15.191  -3.302  1.00  0.00     0.338 C 
ATOM     40  O   UNL     1      31.828  14.448  -3.073  1.00  0.00    -0.246 OA
BRANCH  39  41
ATOM     41  C   UNL     1      33.096  15.683  -4.667  1.00  0.00     0.067 A 
ATOM     42  C   UNL     1      34.404  16.066  -5.012  1.00  0.00     0.066 A 
ATOM     43  C   UNL     1      32.076  15.773  -5.629  1.00  0.00     0.066 A 
ATOM     44  C   UNL     1      34.693  16.521  -6.303  1.00  0.00     0.162 A 
ATOM     45  C   UNL     1      32.360  16.244  -6.919  1.00  0.00     0.162 A 
ATOM     46  C   UNL     1      33.677  16.602  -7.260  1.00  0.00     0.200 A 
BRANCH  44  47
ATOM     47  O   UNL     1      35.994  16.891  -6.645  1.00  0.00    -0.504 OA
ATOM     48  H   UNL     1      36.779  16.269  -6.487  1.00  0.00     0.293 HD
ENDBRANCH  44  47
BRANCH  45  49
ATOM     49  O   UNL     1      31.339  16.381  -7.860  1.00  0.00    -0.504 OA
ATOM     50  H   UNL     1      30.562  17.019  -7.727  1.00  0.00     0.293 HD
ENDBRANCH  45  49
BRANCH  46  51
ATOM     51  O   UNL     1      33.988  17.052  -8.546  1.00  0.00    -0.502 OA
ATOM     52  H   UNL     1      33.333  17.597  -9.090  1.00  0.00     0.293 HD
ENDBRANCH  46  51
ENDBRANCH  39  41
ENDBRANCH  38  39
ENDBRANCH   3  38
BRANCH   5  53
ATOM     53  O   UNL     1      36.807  16.119  -0.600  1.00  0.00    -0.428 OA
BRANCH  53  54
ATOM     54  C   UNL     1      37.234  17.443  -0.440  1.00  0.00     0.340 C 
ATOM     55  O   UNL     1      36.899  18.319  -1.285  1.00  0.00    -0.246 OA
BRANCH  54  56
ATOM     56  C   UNL     1      38.014  17.825   0.756  1.00  0.00     0.067 A 
ATOM     57  C   UNL     1      38.077  19.162   1.172  1.00  0.00     0.066 A 
ATOM     58  C   UNL     1      38.643  16.838   1.530  1.00  0.00     0.066 A 
ATOM     59  C   UNL     1      38.741  19.510   2.355  1.00  0.00     0.162 A 
ATOM     60  C   UNL     1      39.318  17.172   2.710  1.00  0.00     0.162 A 
ATOM     61  C   UNL     1      39.371  18.523   3.127  1.00  0.00     0.200 A 
BRANCH  59  62
ATOM     62  O   UNL     1      38.766  20.839   2.776  1.00  0.00    -0.504 OA
ATOM     63  H   UNL     1      38.297  21.134   3.623  1.00  0.00     0.293 HD
ENDBRANCH  59  62
BRANCH  60  64
ATOM     64  O   UNL     1      39.905  16.133   3.437  1.00  0.00    -0.504 OA
ATOM     65  H   UNL     1      40.894  15.933   3.446  1.00  0.00     0.293 HD
ENDBRANCH  60  64
BRANCH  61  66
ATOM     66  O   UNL     1      40.028  18.924   4.293  1.00  0.00    -0.502 OA
ATOM     67  H   UNL     1      40.693  18.345   4.789  1.00  0.00     0.293 HD
ENDBRANCH  61  66
ENDBRANCH  54  56
ENDBRANCH  53  54
ENDBRANCH   5  53
BRANCH   4  68
ATOM     68  O   UNL     1      34.855  17.737  -1.038  1.00  0.00    -0.448 OA
BRANCH  68  69
ATOM     69  C   UNL     1      34.065  18.280  -2.059  1.00  0.00     0.339 C 
ATOM     70  O   UNL     1      32.809  18.154  -2.019  1.00  0.00    -0.246 OA
BRANCH  69  71
ATOM     71  C   UNL     1      34.703  18.978  -3.194  1.00  0.00     0.067 A 
ATOM     72  C   UNL     1      35.995  18.621  -3.607  1.00  0.00     0.066 A 
ATOM     73  C   UNL     1      34.011  19.973  -3.898  1.00  0.00     0.066 A 
ATOM     74  C   UNL     1      36.590  19.236  -4.718  1.00  0.00     0.162 A 
ATOM     75  C   UNL     1      34.595  20.600  -5.004  1.00  0.00     0.162 A 
ATOM     76  C   UNL     1      35.882  20.235  -5.426  1.00  0.00     0.200 A 
BRANCH  74  77
ATOM     77  O   UNL     1      37.873  18.818  -5.082  1.00  0.00    -0.504 OA
ATOM     78  H   UNL     1      38.522  18.372  -4.450  1.00  0.00     0.293 HD
ENDBRANCH  74  77
BRANCH  75  79
ATOM     79  O   UNL     1      33.897  21.590  -5.695  1.00  0.00    -0.504 OA
ATOM     80  H   UNL     1      33.036  21.388  -6.188  1.00  0.00     0.293 HD
ENDBRANCH  75  79
BRANCH  76  81
ATOM     81  O   UNL     1      36.411  20.883  -6.545  1.00  0.00    -0.502 OA
ATOM     82  H   UNL     1      37.135  20.495  -7.134  1.00  0.00     0.293 HD
ENDBRANCH  76  81
ENDBRANCH  69  71
ENDBRANCH  68  69
ENDBRANCH   4  68
TORSDOF 31
ENDMDL
MODEL 5
REMARK VINA RESULT:   104.938      2.372      8.766
REMARK INTER + INTRA:         254.263
REMARK INTER:                 251.940
REMARK INTRA:                   2.322
REMARK UNBOUND:                 5.161
REMARK SMILES O=C(OC[C@H]1O[C@@H](OC(=O)c2cc(O)c(O)c(O)c2)[C@@H](OC(=O)c2cc(O)c(O)c(O)c2)[C@@H](OC(=O)c2cc(O)c(O)c(O)c2)[C@@H]1OC(=O)c1cc(O)c(O)c(O)c1)c1cc(O)c(O)c(O)c1
REMARK SMILES IDX 5 1 46 2 33 3 20 4 7 5 6 6 4 7 3 8 2 9 1 10 59 11 60 12
REMARK SMILES IDX 61 13 67 14 63 15 65 16 62 17 64 19 66 21 47 23 48 24 49 25
REMARK SMILES IDX 50 26 58 27 51 28 56 29 52 30 54 31 57 32 53 34 55 36 34 38
REMARK SMILES IDX 35 39 36 40 37 41 45 42 38 43 43 44 39 45 41 46 44 47 40 49
REMARK SMILES IDX 42 51 8 53 9 54 10 55 11 56 19 57 12 58 17 59 13 60 15 61
REMARK SMILES IDX 18 62 14 64 16 66 21 68 22 69 23 70 24 71 32 72 25 73 30 74
REMARK SMILES IDX 26 75 28 76 31 77 27 79 29 81
REMARK H PARENT 62 18 64 20 66 22 57 33 53 35 55 37 44 48 40 50 42 52 18 63
REMARK H PARENT 14 65 16 67 31 78 27 80 29 82
REMARK Flexibility Score: inf
ROOT
ATOM      1  C   UNL     1      34.568  16.561   0.258  1.00  0.00     0.205 C 
ATOM      2  C   UNL     1      35.016  16.797  -1.221  1.00  0.00     0.254 C 
ATOM      3  C   UNL     1      34.219  15.879  -2.168  1.00  0.00     0.267 C 
ATOM      4  C   UNL     1      34.329  14.428  -1.666  1.00  0.00     0.290 C 
ATOM      5  C   UNL     1      33.950  14.337  -0.161  1.00  0.00     0.357 C 
ATOM      6  O   UNL     1      33.533  15.596   0.347  1.00  0.00    -0.329 OA
ENDROOT
BRANCH   1   7
ATOM      7  C   UNL     1      34.050  17.856   0.910  1.00  0.00     0.269 C 
BRANCH   7   8
ATOM      8  O   UNL     1      34.912  18.252   1.980  1.00  0.00    -0.459 OA
BRANCH   8   9
ATOM      9  C   UNL     1      35.483  17.352   2.900  1.00  0.00     0.338 C 
ATOM     10  O   UNL     1      36.572  16.789   2.611  1.00  0.00    -0.246 OA
BRANCH   9  11
ATOM     11  C   UNL     1      34.849  17.060   4.199  1.00  0.00     0.067 A 
ATOM     12  C   UNL     1      34.319  18.101   4.975  1.00  0.00     0.066 A 
ATOM     13  C   UNL     1      33.796  17.843   6.245  1.00  0.00     0.162 A 
ATOM     14  C   UNL     1      34.839  15.751   4.695  1.00  0.00     0.066 A 
ATOM     15  C   UNL     1      33.796  16.529   6.751  1.00  0.00     0.200 A 
ATOM     16  C   UNL     1      34.327  15.483   5.974  1.00  0.00     0.162 A 
BRANCH  13  17
ATOM     17  O   UNL     1      33.287  18.903   6.993  1.00  0.00    -0.504 OA
ATOM     18  H   UNL     1      32.366  19.293   6.817  1.00  0.00     0.293 HD
ENDBRANCH  13  17
BRANCH  15  19
ATOM     19  O   UNL     1      33.270  16.278   8.019  1.00  0.00    -0.502 OA
ATOM     20  H   UNL     1      33.677  16.666   8.860  1.00  0.00     0.293 HD
ENDBRANCH  15  19
BRANCH  16  21
ATOM     21  O   UNL     1      34.352  14.182   6.474  1.00  0.00    -0.504 OA
ATOM     22  H   UNL     1      35.050  13.887   7.146  1.00  0.00     0.293 HD
ENDBRANCH  16  21
ENDBRANCH   9  11
ENDBRANCH   8   9
ENDBRANCH   7   8
ENDBRANCH   1   7
BRANCH   2  23
ATOM     23  O   UNL     1      36.408  16.500  -1.350  1.00  0.00    -0.452 OA
BRANCH  23  24
ATOM     24  C   UNL     1      37.194  16.063  -0.277  1.00  0.00     0.338 C 
ATOM     25  O   UNL     1      37.273  14.831  -0.012  1.00  0.00    -0.246 OA
BRANCH  24  26
ATOM     26  C   UNL     1      37.898  17.049   0.571  1.00  0.00     0.067 A 
ATOM     27  C   UNL     1      38.743  16.627   1.612  1.00  0.00     0.066 A 
ATOM     28  C   UNL     1      37.687  18.425   0.377  1.00  0.00     0.066 A 
ATOM     29  C   UNL     1      39.367  17.559   2.447  1.00  0.00     0.162 A 
ATOM     30  C   UNL     1      38.300  19.364   1.215  1.00  0.00     0.162 A 
ATOM     31  C   UNL     1      39.147  18.934   2.252  1.00  0.00     0.200 A 
BRANCH  29  32
ATOM     32  O   UNL     1      40.200  17.100   3.466  1.00  0.00    -0.504 OA
ATOM     33  H   UNL     1      40.600  17.723   4.157  1.00  0.00     0.293 HD
ENDBRANCH  29  32
BRANCH  30  34
ATOM     34  O   UNL     1      38.065  20.725   1.026  1.00  0.00    -0.504 OA
ATOM     35  H   UNL     1      37.477  21.064   0.275  1.00  0.00     0.293 HD
ENDBRANCH  30  34
BRANCH  31  36
ATOM     36  O   UNL     1      39.763  19.858   3.098  1.00  0.00    -0.502 OA
ATOM     37  H   UNL     1      40.768  19.887   3.224  1.00  0.00     0.293 HD
ENDBRANCH  31  36
ENDBRANCH  24  26
ENDBRANCH  23  24
ENDBRANCH   2  23
BRANCH   3  38
ATOM     38  O   UNL     1      32.842  16.250  -2.167  1.00  0.00    -0.450 OA
BRANCH  38  39
ATOM     39  C   UNL     1      31.972  16.095  -3.249  1.00  0.00     0.338 C 
ATOM     40  O   UNL     1      30.747  15.861  -3.060  1.00  0.00    -0.246 OA
BRANCH  39  41
ATOM     41  C   UNL     1      32.514  16.215  -4.617  1.00  0.00     0.067 A 
ATOM     42  C   UNL     1      31.644  16.097  -5.716  1.00  0.00     0.066 A 
ATOM     43  C   UNL     1      33.881  16.447  -4.844  1.00  0.00     0.066 A 
ATOM     44  C   UNL     1      32.129  16.223  -7.022  1.00  0.00     0.162 A 
ATOM     45  C   UNL     1      34.372  16.557  -6.153  1.00  0.00     0.162 A 
ATOM     46  C   UNL     1      33.489  16.462  -7.243  1.00  0.00     0.200 A 
BRANCH  44  47
ATOM     47  O   UNL     1      31.261  16.116  -8.109  1.00  0.00    -0.504 OA
ATOM     48  H   UNL     1      31.276  15.307  -8.719  1.00  0.00     0.293 HD
ENDBRANCH  44  47
BRANCH  45  49
ATOM     49  O   UNL     1      35.737  16.738  -6.380  1.00  0.00    -0.504 OA
ATOM     50  H   UNL     1      36.260  17.498  -5.958  1.00  0.00     0.293 HD
ENDBRANCH  45  49
BRANCH  46  51
ATOM     51  O   UNL     1      33.952  16.592  -8.555  1.00  0.00    -0.502 OA
ATOM     52  H   UNL     1      33.590  17.300  -9.178  1.00  0.00     0.293 HD
ENDBRANCH  46  51
ENDBRANCH  39  41
ENDBRANCH  38  39
ENDBRANCH   3  38
BRANCH   5  53
ATOM     53  O   UNL     1      32.875  13.415   0.025  1.00  0.00    -0.428 OA
BRANCH  53  54
ATOM     54  C   UNL     1      32.232  13.273   1.260  1.00  0.00     0.340 C 
ATOM     55  O   UNL     1      31.490  14.198   1.694  1.00  0.00    -0.246 OA
BRANCH  54  56
ATOM     56  C   UNL     1      32.367  12.012   2.020  1.00  0.00     0.067 A 
ATOM     57  C   UNL     1      33.608  11.620   2.541  1.00  0.00     0.066 A 
ATOM     58  C   UNL     1      31.234  11.229   2.290  1.00  0.00     0.066 A 
ATOM     59  C   UNL     1      33.716  10.473   3.336  1.00  0.00     0.162 A 
ATOM     60  C   UNL     1      31.329  10.074   3.076  1.00  0.00     0.162 A 
ATOM     61  C   UNL     1      32.584   9.689   3.604  1.00  0.00     0.200 A 
BRANCH  59  62
ATOM     62  O   UNL     1      34.950  10.113   3.877  1.00  0.00    -0.504 OA
ATOM     63  H   UNL     1      35.270   9.153   3.870  1.00  0.00     0.293 HD
ENDBRANCH  59  62
BRANCH  60  64
ATOM     64  O   UNL     1      30.155   9.356   3.315  1.00  0.00    -0.504 OA
ATOM     65  H   UNL     1      29.955   8.861   4.171  1.00  0.00     0.293 HD
ENDBRANCH  60  64
BRANCH  61  66
ATOM     66  O   UNL     1      32.748   8.550   4.395  1.00  0.00    -0.502 OA
ATOM     67  H   UNL     1      32.750   8.565   5.406  1.00  0.00     0.293 HD
ENDBRANCH  61  66
ENDBRANCH  54  56
ENDBRANCH  53  54
ENDBRANCH   5  53
BRANCH   4  68
ATOM     68  O   UNL     1      33.494  13.590  -2.466  1.00  0.00    -0.448 OA
BRANCH  68  69
ATOM     69  C   UNL     1      33.550  12.192  -2.413  1.00  0.00     0.339 C 
ATOM     70  O   UNL     1      34.526  11.580  -2.928  1.00  0.00    -0.246 OA
BRANCH  69  71
ATOM     71  C   UNL     1      32.454  11.434  -1.775  1.00  0.00     0.067 A 
ATOM     72  C   UNL     1      31.232  12.061  -1.491  1.00  0.00     0.066 A 
ATOM     73  C   UNL     1      32.605  10.070  -1.487  1.00  0.00     0.066 A 
ATOM     74  C   UNL     1      30.164  11.339  -0.939  1.00  0.00     0.162 A 
ATOM     75  C   UNL     1      31.550   9.338  -0.929  1.00  0.00     0.162 A 
ATOM     76  C   UNL     1      30.324   9.962  -0.656  1.00  0.00     0.200 A 
BRANCH  74  77
ATOM     77  O   UNL     1      28.972  12.026  -0.697  1.00  0.00    -0.504 OA
ATOM     78  H   UNL     1      28.920  12.922  -0.235  1.00  0.00     0.293 HD
ENDBRANCH  74  77
BRANCH  75  79
ATOM     79  O   UNL     1      31.714   7.984  -0.644  1.00  0.00    -0.504 OA
ATOM     80  H   UNL     1      32.211   7.670   0.181  1.00  0.00     0.293 HD
ENDBRANCH  75  79
BRANCH  76  81
ATOM     81  O   UNL     1      29.301   9.182  -0.113  1.00  0.00    -0.502 OA
ATOM     82  H   UNL     1      28.380   9.091  -0.520  1.00  0.00     0.293 HD
ENDBRANCH  76  81
ENDBRANCH  69  71
ENDBRANCH  68  69
ENDBRANCH   4  68
TORSDOF 31
ENDMDL
MODEL 6
REMARK VINA RESULT:   104.947      1.756      9.571
REMARK INTER + INTRA:         254.286
REMARK INTER:                 248.217
REMARK INTRA:                   6.069
REMARK UNBOUND:                 5.161
REMARK SMILES O=C(OC[C@H]1O[C@@H](OC(=O)c2cc(O)c(O)c(O)c2)[C@@H](OC(=O)c2cc(O)c(O)c(O)c2)[C@@H](OC(=O)c2cc(O)c(O)c(O)c2)[C@@H]1OC(=O)c1cc(O)c(O)c(O)c1)c1cc(O)c(O)c(O)c1
REMARK SMILES IDX 5 1 46 2 33 3 20 4 7 5 6 6 4 7 3 8 2 9 1 10 59 11 60 12
REMARK SMILES IDX 61 13 67 14 63 15 65 16 62 17 64 19 66 21 47 23 48 24 49 25
REMARK SMILES IDX 50 26 58 27 51 28 56 29 52 30 54 31 57 32 53 34 55 36 34 38
REMARK SMILES IDX 35 39 36 40 37 41 45 42 38 43 43 44 39 45 41 46 44 47 40 49
REMARK SMILES IDX 42 51 8 53 9 54 10 55 11 56 19 57 12 58 17 59 13 60 15 61
REMARK SMILES IDX 18 62 14 64 16 66 21 68 22 69 23 70 24 71 32 72 25 73 30 74
REMARK SMILES IDX 26 75 28 76 31 77 27 79 29 81
REMARK H PARENT 62 18 64 20 66 22 57 33 53 35 55 37 44 48 40 50 42 52 18 63
REMARK H PARENT 14 65 16 67 31 78 27 80 29 82
REMARK Flexibility Score: inf
ROOT
ATOM      1  C   UNL     1      33.459  15.189  -3.148  1.00  0.00     0.205 C 
ATOM      2  C   UNL     1      33.980  16.048  -1.950  1.00  0.00     0.254 C 
ATOM      3  C   UNL     1      34.205  15.153  -0.716  1.00  0.00     0.267 C 
ATOM      4  C   UNL     1      32.922  14.347  -0.444  1.00  0.00     0.290 C 
ATOM      5  C   UNL     1      32.451  13.614  -1.732  1.00  0.00     0.357 C 
ATOM      6  O   UNL     1      33.357  13.817  -2.807  1.00  0.00    -0.329 OA
ENDROOT
BRANCH   1   7
ATOM      7  C   UNL     1      34.389  15.293  -4.371  1.00  0.00     0.269 C 
BRANCH   7   8
ATOM      8  O   UNL     1      33.749  16.024  -5.420  1.00  0.00    -0.459 OA
BRANCH   8   9
ATOM      9  C   UNL     1      34.439  16.631  -6.487  1.00  0.00     0.338 C 
ATOM     10  O   UNL     1      34.221  16.231  -7.662  1.00  0.00    -0.246 OA
BRANCH   9  11
ATOM     11  C   UNL     1      35.400  17.727  -6.270  1.00  0.00     0.067 A 
ATOM     12  C   UNL     1      36.724  17.442  -5.903  1.00  0.00     0.066 A 
ATOM     13  C   UNL     1      37.616  18.477  -5.610  1.00  0.00     0.162 A 
ATOM     14  C   UNL     1      34.976  19.058  -6.357  1.00  0.00     0.066 A 
ATOM     15  C   UNL     1      37.188  19.817  -5.685  1.00  0.00     0.200 A 
ATOM     16  C   UNL     1      35.861  20.105  -6.053  1.00  0.00     0.162 A 
BRANCH  13  17
ATOM     17  O   UNL     1      38.921  18.158  -5.239  1.00  0.00    -0.504 OA
ATOM     18  H   UNL     1      39.583  17.751  -5.892  1.00  0.00     0.293 HD
ENDBRANCH  13  17
BRANCH  15  19
ATOM     19  O   UNL     1      38.086  20.845  -5.394  1.00  0.00    -0.502 OA
ATOM     20  H   UNL     1      38.358  21.073  -4.447  1.00  0.00     0.293 HD
ENDBRANCH  15  19
BRANCH  16  21
ATOM     21  O   UNL     1      35.421  21.425  -6.111  1.00  0.00    -0.504 OA
ATOM     22  H   UNL     1      34.500  21.661  -6.463  1.00  0.00     0.293 HD
ENDBRANCH  16  21
ENDBRANCH   9  11
ENDBRANCH   8   9
ENDBRANCH   7   8
ENDBRANCH   1   7
BRANCH   2  23
ATOM     23  O   UNL     1      33.013  17.050  -1.627  1.00  0.00    -0.452 OA
BRANCH  23  24
ATOM     24  C   UNL     1      31.943  17.372  -2.470  1.00  0.00     0.338 C 
ATOM     25  O   UNL     1      31.354  18.482  -2.347  1.00  0.00    -0.246 OA
BRANCH  24  26
ATOM     26  C   UNL     1      31.477  16.394  -3.476  1.00  0.00     0.067 A 
ATOM     27  C   UNL     1      30.874  15.189  -3.080  1.00  0.00     0.066 A 
ATOM     28  C   UNL     1      31.680  16.640  -4.845  1.00  0.00     0.066 A 
ATOM     29  C   UNL     1      30.480  14.241  -4.030  1.00  0.00     0.162 A 
ATOM     30  C   UNL     1      31.299  15.692  -5.803  1.00  0.00     0.162 A 
ATOM     31  C   UNL     1      30.693  14.490  -5.398  1.00  0.00     0.200 A 
BRANCH  29  32
ATOM     32  O   UNL     1      29.883  13.059  -3.597  1.00  0.00    -0.504 OA
ATOM     33  H   UNL     1      28.997  13.050  -3.108  1.00  0.00     0.293 HD
ENDBRANCH  29  32
BRANCH  30  34
ATOM     34  O   UNL     1      31.526  15.938  -7.156  1.00  0.00    -0.504 OA
ATOM     35  H   UNL     1      31.243  15.278  -7.870  1.00  0.00     0.293 HD
ENDBRANCH  30  34
BRANCH  31  36
ATOM     36  O   UNL     1      30.309  13.533  -6.340  1.00  0.00    -0.502 OA
ATOM     37  H   UNL     1      29.917  12.638  -6.071  1.00  0.00     0.293 HD
ENDBRANCH  31  36
ENDBRANCH  24  26
ENDBRANCH  23  24
ENDBRANCH   2  23
BRANCH   3  38
ATOM     38  O   UNL     1      35.268  14.235  -0.963  1.00  0.00    -0.450 OA
BRANCH  38  39
ATOM     39  C   UNL     1      36.551  14.334  -0.419  1.00  0.00     0.338 C 
ATOM     40  O   UNL     1      37.276  13.309  -0.293  1.00  0.00    -0.246 OA
BRANCH  39  41
ATOM     41  C   UNL     1      37.043  15.661   0.000  1.00  0.00     0.067 A 
ATOM     42  C   UNL     1      37.724  15.789   1.224  1.00  0.00     0.066 A 
ATOM     43  C   UNL     1      36.848  16.799  -0.801  1.00  0.00     0.066 A 
ATOM     44  C   UNL     1      38.215  17.032   1.636  1.00  0.00     0.162 A 
ATOM     45  C   UNL     1      37.325  18.049  -0.381  1.00  0.00     0.162 A 
ATOM     46  C   UNL     1      38.026  18.161   0.833  1.00  0.00     0.200 A 
BRANCH  44  47
ATOM     47  O   UNL     1      38.899  17.153   2.846  1.00  0.00    -0.504 OA
ATOM     48  H   UNL     1      38.406  17.169   3.732  1.00  0.00     0.293 HD
ENDBRANCH  44  47
BRANCH  45  49
ATOM     49  O   UNL     1      37.088  19.188  -1.152  1.00  0.00    -0.504 OA
ATOM     50  H   UNL     1      36.839  19.135  -2.134  1.00  0.00     0.293 HD
ENDBRANCH  45  49
BRANCH  46  51
ATOM     51  O   UNL     1      38.530  19.392   1.260  1.00  0.00    -0.502 OA
ATOM     52  H   UNL     1      39.486  19.495   1.570  1.00  0.00     0.293 HD
ENDBRANCH  46  51
ENDBRANCH  39  41
ENDBRANCH  38  39
ENDBRANCH   3  38
BRANCH   5  53
ATOM     53  O   UNL     1      32.361  12.208  -1.498  1.00  0.00    -0.428 OA
BRANCH  53  54
ATOM     54  C   UNL     1      31.158  11.601  -1.116  1.00  0.00     0.340 C 
ATOM     55  O   UNL     1      30.093  12.278  -1.085  1.00  0.00    -0.246 OA
BRANCH  54  56
ATOM     56  C   UNL     1      31.126  10.153  -0.819  1.00  0.00     0.067 A 
ATOM     57  C   UNL     1      32.302   9.390  -0.855  1.00  0.00     0.066 A 
ATOM     58  C   UNL     1      29.926   9.542  -0.426  1.00  0.00     0.066 A 
ATOM     59  C   UNL     1      32.285   8.039  -0.485  1.00  0.00     0.162 A 
ATOM     60  C   UNL     1      29.893   8.190  -0.063  1.00  0.00     0.162 A 
ATOM     61  C   UNL     1      31.084   7.428  -0.095  1.00  0.00     0.200 A 
BRANCH  59  62
ATOM     62  O   UNL     1      33.467   7.300  -0.491  1.00  0.00    -0.504 OA
ATOM     63  H   UNL     1      33.464   6.296  -0.354  1.00  0.00     0.293 HD
ENDBRANCH  59  62
BRANCH  60  64
ATOM     64  O   UNL     1      28.664   7.657   0.333  1.00  0.00    -0.504 OA
ATOM     65  H   UNL     1      28.552   6.768   0.797  1.00  0.00     0.293 HD
ENDBRANCH  60  64
BRANCH  61  66
ATOM     66  O   UNL     1      31.120   6.077   0.255  1.00  0.00    -0.502 OA
ATOM     67  H   UNL     1      31.805   5.423  -0.100  1.00  0.00     0.293 HD
ENDBRANCH  61  66
ENDBRANCH  54  56
ENDBRANCH  53  54
ENDBRANCH   5  53
BRANCH   4  68
ATOM     68  O   UNL     1      33.163  13.426   0.622  1.00  0.00    -0.448 OA
BRANCH  68  69
ATOM     69  C   UNL     1      32.185  13.085   1.563  1.00  0.00     0.339 C 
ATOM     70  O   UNL     1      31.200  13.851   1.756  1.00  0.00    -0.246 OA
BRANCH  69  71
ATOM     71  C   UNL     1      32.320  11.840   2.348  1.00  0.00     0.067 A 
ATOM     72  C   UNL     1      33.587  11.388   2.746  1.00  0.00     0.066 A 
ATOM     73  C   UNL     1      31.183  11.120   2.742  1.00  0.00     0.066 A 
ATOM     74  C   UNL     1      33.724  10.240   3.539  1.00  0.00     0.162 A 
ATOM     75  C   UNL     1      31.306   9.968   3.527  1.00  0.00     0.162 A 
ATOM     76  C   UNL     1      32.571   9.523   3.936  1.00  0.00     0.200 A 
BRANCH  74  77
ATOM     77  O   UNL     1      35.016   9.859   3.910  1.00  0.00    -0.504 OA
ATOM     78  H   UNL     1      35.534  10.281   4.668  1.00  0.00     0.293 HD
ENDBRANCH  74  77
BRANCH  75  79
ATOM     79  O   UNL     1      30.168   9.260   3.910  1.00  0.00    -0.504 OA
ATOM     80  H   UNL     1      29.784   9.335   4.844  1.00  0.00     0.293 HD
ENDBRANCH  75  79
BRANCH  76  81
ATOM     81  O   UNL     1      32.635   8.376   4.731  1.00  0.00    -0.502 OA
ATOM     82  H   UNL     1      32.961   8.368   5.687  1.00  0.00     0.293 HD
ENDBRANCH  76  81
ENDBRANCH  69  71
ENDBRANCH  68  69
ENDBRANCH   4  68
TORSDOF 31
ENDMDL
MODEL 7
REMARK VINA RESULT:   104.999      1.540      3.089
REMARK INTER + INTRA:         254.409
REMARK INTER:                 256.678
REMARK INTRA:                  -2.269
REMARK UNBOUND:                 5.161
REMARK SMILES O=C(OC[C@H]1O[C@@H](OC(=O)c2cc(O)c(O)c(O)c2)[C@@H](OC(=O)c2cc(O)c(O)c(O)c2)[C@@H](OC(=O)c2cc(O)c(O)c(O)c2)[C@@H]1OC(=O)c1cc(O)c(O)c(O)c1)c1cc(O)c(O)c(O)c1
REMARK SMILES IDX 5 1 46 2 33 3 20 4 7 5 6 6 4 7 3 8 2 9 1 10 59 11 60 12
REMARK SMILES IDX 61 13 67 14 63 15 65 16 62 17 64 19 66 21 47 23 48 24 49 25
REMARK SMILES IDX 50 26 58 27 51 28 56 29 52 30 54 31 57 32 53 34 55 36 34 38
REMARK SMILES IDX 35 39 36 40 37 41 45 42 38 43 43 44 39 45 41 46 44 47 40 49
REMARK SMILES IDX 42 51 8 53 9 54 10 55 11 56 19 57 12 58 17 59 13 60 15 61
REMARK SMILES IDX 18 62 14 64 16 66 21 68 22 69 23 70 24 71 32 72 25 73 30 74
REMARK SMILES IDX 26 75 28 76 31 77 27 79 29 81
REMARK H PARENT 62 18 64 20 66 22 57 33 53 35 55 37 44 48 40 50 42 52 18 63
REMARK H PARENT 14 65 16 67 31 78 27 80 29 82
REMARK Flexibility Score: inf
ROOT
ATOM      1  C   UNL     1      33.888  13.545  -0.900  1.00  0.00     0.205 C 
ATOM      2  C   UNL     1      32.563  14.373  -0.852  1.00  0.00     0.254 C 
ATOM      3  C   UNL     1      32.853  15.854  -1.167  1.00  0.00     0.267 C 
ATOM      4  C   UNL     1      33.977  16.349  -0.240  1.00  0.00     0.290 C 
ATOM      5  C   UNL     1      35.203  15.394  -0.303  1.00  0.00     0.357 C 
ATOM      6  O   UNL     1      35.001  14.352  -1.246  1.00  0.00    -0.329 OA
ENDROOT
BRANCH   1   7
ATOM      7  C   UNL     1      33.809  12.401  -1.927  1.00  0.00     0.269 C 
BRANCH   7   8
ATOM      8  O   UNL     1      32.458  11.955  -2.068  1.00  0.00    -0.459 OA
BRANCH   8   9
ATOM      9  C   UNL     1      32.100  10.660  -2.490  1.00  0.00     0.338 C 
ATOM     10  O   UNL     1      32.234  10.354  -3.705  1.00  0.00    -0.246 OA
BRANCH   9  11
ATOM     11  C   UNL     1      31.585   9.649  -1.549  1.00  0.00     0.067 A 
ATOM     12  C   UNL     1      32.377   8.547  -1.196  1.00  0.00     0.066 A 
ATOM     13  C   UNL     1      31.864   7.540  -0.375  1.00  0.00     0.162 A 
ATOM     14  C   UNL     1      30.277   9.748  -1.061  1.00  0.00     0.066 A 
ATOM     15  C   UNL     1      30.544   7.630   0.107  1.00  0.00     0.200 A 
ATOM     16  C   UNL     1      29.747   8.736  -0.245  1.00  0.00     0.162 A 
BRANCH  13  17
ATOM     17  O   UNL     1      32.675   6.453  -0.052  1.00  0.00    -0.504 OA
ATOM     18  H   UNL     1      32.947   5.760  -0.743  1.00  0.00     0.293 HD
ENDBRANCH  13  17
BRANCH  15  19
ATOM     19  O   UNL     1      30.039   6.622   0.930  1.00  0.00    -0.502 OA
ATOM     20  H   UNL     1      29.228   6.074   0.677  1.00  0.00     0.293 HD
ENDBRANCH  15  19
BRANCH  16  21
ATOM     21  O   UNL     1      28.433   8.826   0.209  1.00  0.00    -0.504 OA
ATOM     22  H   UNL     1      27.740   9.377  -0.284  1.00  0.00     0.293 HD
ENDBRANCH  16  21
ENDBRANCH   9  11
ENDBRANCH   8   9
ENDBRANCH   7   8
ENDBRANCH   1   7
BRANCH   2  23
ATOM     23  O   UNL     1      31.990  14.280   0.454  1.00  0.00    -0.452 OA
BRANCH  23  24
ATOM     24  C   UNL     1      31.344  13.129   0.919  1.00  0.00     0.338 C 
ATOM     25  O   UNL     1      30.144  12.904   0.598  1.00  0.00    -0.246 OA
BRANCH  24  26
ATOM     26  C   UNL     1      32.057  12.197   1.821  1.00  0.00     0.067 A 
ATOM     27  C   UNL     1      32.690  12.667   2.983  1.00  0.00     0.066 A 
ATOM     28  C   UNL     1      32.151  10.833   1.494  1.00  0.00     0.066 A 
ATOM     29  C   UNL     1      33.408  11.795   3.808  1.00  0.00     0.162 A 
ATOM     30  C   UNL     1      32.877   9.955   2.308  1.00  0.00     0.162 A 
ATOM     31  C   UNL     1      33.505  10.432   3.472  1.00  0.00     0.200 A 
BRANCH  29  32
ATOM     32  O   UNL     1      34.020  12.299   4.954  1.00  0.00    -0.504 OA
ATOM     33  H   UNL     1      34.531  11.708   5.597  1.00  0.00     0.293 HD
ENDBRANCH  29  32
BRANCH  30  34
ATOM     34  O   UNL     1      32.982   8.609   1.961  1.00  0.00    -0.504 OA
ATOM     35  H   UNL     1      32.398   7.902   2.393  1.00  0.00     0.293 HD
ENDBRANCH  30  34
BRANCH  31  36
ATOM     36  O   UNL     1      34.234   9.570   4.293  1.00  0.00    -0.502 OA
ATOM     37  H   UNL     1      35.204   9.344   4.109  1.00  0.00     0.293 HD
ENDBRANCH  31  36
ENDBRANCH  24  26
ENDBRANCH  23  24
ENDBRANCH   2  23
BRANCH   3  38
ATOM     38  O   UNL     1      33.292  15.991  -2.518  1.00  0.00    -0.450 OA
BRANCH  38  39
ATOM     39  C   UNL     1      32.597  15.519  -3.634  1.00  0.00     0.338 C 
ATOM     40  O   UNL     1      31.606  14.751  -3.497  1.00  0.00    -0.246 OA
BRANCH  39  41
ATOM     41  C   UNL     1      33.043  15.940  -4.977  1.00  0.00     0.067 A 
ATOM     42  C   UNL     1      32.120  15.953  -6.038  1.00  0.00     0.066 A 
ATOM     43  C   UNL     1      34.371  16.334  -5.216  1.00  0.00     0.066 A 
ATOM     44  C   UNL     1      32.513  16.363  -7.316  1.00  0.00     0.162 A 
ATOM     45  C   UNL     1      34.771  16.729  -6.500  1.00  0.00     0.162 A 
ATOM     46  C   UNL     1      33.833  16.761  -7.548  1.00  0.00     0.200 A 
BRANCH  44  47
ATOM     47  O   UNL     1      31.592  16.384  -8.363  1.00  0.00    -0.504 OA
ATOM     48  H   UNL     1      31.627  15.700  -9.111  1.00  0.00     0.293 HD
ENDBRANCH  44  47
BRANCH  45  49
ATOM     49  O   UNL     1      36.101  17.072  -6.749  1.00  0.00    -0.504 OA
ATOM     50  H   UNL     1      36.460  18.005  -6.582  1.00  0.00     0.293 HD
ENDBRANCH  45  49
BRANCH  46  51
ATOM     51  O   UNL     1      34.204  17.174  -8.830  1.00  0.00    -0.502 OA
ATOM     52  H   UNL     1      33.585  17.067  -9.622  1.00  0.00     0.293 HD
ENDBRANCH  46  51
ENDBRANCH  39  41
ENDBRANCH  38  39
ENDBRANCH   3  38
BRANCH   5  53
ATOM     53  O   UNL     1      36.373  16.114  -0.692  1.00  0.00    -0.428 OA
BRANCH  53  54
ATOM     54  C   UNL     1      37.591  15.956  -0.021  1.00  0.00     0.340 C 
ATOM     55  O   UNL     1      38.301  14.934  -0.236  1.00  0.00    -0.246 OA
BRANCH  54  56
ATOM     56  C   UNL     1      38.076  17.020   0.885  1.00  0.00     0.067 A 
ATOM     57  C   UNL     1      38.893  16.708   1.981  1.00  0.00     0.066 A 
ATOM     58  C   UNL     1      37.782  18.364   0.611  1.00  0.00     0.066 A 
ATOM     59  C   UNL     1      39.425  17.725   2.784  1.00  0.00     0.162 A 
ATOM     60  C   UNL     1      38.300  19.390   1.411  1.00  0.00     0.162 A 
ATOM     61  C   UNL     1      39.129  19.068   2.512  1.00  0.00     0.200 A 
BRANCH  59  62
ATOM     62  O   UNL     1      40.265  17.403   3.850  1.00  0.00    -0.504 OA
ATOM     63  H   UNL     1      41.235  17.154   3.702  1.00  0.00     0.293 HD
ENDBRANCH  59  62
BRANCH  60  64
ATOM     64  O   UNL     1      37.977  20.705   1.067  1.00  0.00    -0.504 OA
ATOM     65  H   UNL     1      38.414  21.221   0.318  1.00  0.00     0.293 HD
ENDBRANCH  60  64
BRANCH  61  66
ATOM     66  O   UNL     1      39.678  20.042   3.348  1.00  0.00    -0.502 OA
ATOM     67  H   UNL     1      39.153  20.825   3.717  1.00  0.00     0.293 HD
ENDBRANCH  61  66
ENDBRANCH  54  56
ENDBRANCH  53  54
ENDBRANCH   5  53
BRANCH   4  68
ATOM     68  O   UNL     1      34.335  17.683  -0.609  1.00  0.00    -0.448 OA
BRANCH  68  69
ATOM     69  C   UNL     1      33.816  18.322  -1.741  1.00  0.00     0.339 C 
ATOM     70  O   UNL     1      32.566  18.427  -1.888  1.00  0.00    -0.246 OA
BRANCH  69  71
ATOM     71  C   UNL     1      34.730  18.850  -2.774  1.00  0.00     0.067 A 
ATOM     72  C   UNL     1      36.083  18.481  -2.777  1.00  0.00     0.066 A 
ATOM     73  C   UNL     1      34.249  19.692  -3.788  1.00  0.00     0.066 A 
ATOM     74  C   UNL     1      36.949  18.930  -3.785  1.00  0.00     0.162 A 
ATOM     75  C   UNL     1      35.103  20.154  -4.795  1.00  0.00     0.162 A 
ATOM     76  C   UNL     1      36.453  19.775  -4.807  1.00  0.00     0.200 A 
BRANCH  74  77
ATOM     77  O   UNL     1      38.280  18.509  -3.733  1.00  0.00    -0.504 OA
ATOM     78  H   UNL     1      38.928  18.589  -4.503  1.00  0.00     0.293 HD
ENDBRANCH  74  77
BRANCH  75  79
ATOM     79  O   UNL     1      34.614  20.992  -5.796  1.00  0.00    -0.504 OA
ATOM     80  H   UNL     1      35.131  21.804  -6.109  1.00  0.00     0.293 HD
ENDBRANCH  75  79
BRANCH  76  81
ATOM     81  O   UNL     1      37.258  20.252  -5.844  1.00  0.00    -0.502 OA
ATOM     82  H   UNL     1      36.902  20.598  -6.724  1.00  0.00     0.293 HD
ENDBRANCH  76  81
ENDBRANCH  69  71
ENDBRANCH  68  69
ENDBRANCH   4  68
TORSDOF 31
ENDMDL
MODEL 8
REMARK VINA RESULT:   105.209      1.972      9.173
REMARK INTER + INTRA:         254.906
REMARK INTER:                 253.680
REMARK INTRA:                   1.226
REMARK UNBOUND:                 5.161
REMARK SMILES O=C(OC[C@H]1O[C@@H](OC(=O)c2cc(O)c(O)c(O)c2)[C@@H](OC(=O)c2cc(O)c(O)c(O)c2)[C@@H](OC(=O)c2cc(O)c(O)c(O)c2)[C@@H]1OC(=O)c1cc(O)c(O)c(O)c1)c1cc(O)c(O)c(O)c1
REMARK SMILES IDX 5 1 46 2 33 3 20 4 7 5 6 6 4 7 3 8 2 9 1 10 59 11 60 12
REMARK SMILES IDX 61 13 67 14 63 15 65 16 62 17 64 19 66 21 47 23 48 24 49 25
REMARK SMILES IDX 50 26 58 27 51 28 56 29 52 30 54 31 57 32 53 34 55 36 34 38
REMARK SMILES IDX 35 39 36 40 37 41 45 42 38 43 43 44 39 45 41 46 44 47 40 49
REMARK SMILES IDX 42 51 8 53 9 54 10 55 11 56 19 57 12 58 17 59 13 60 15 61
REMARK SMILES IDX 18 62 14 64 16 66 21 68 22 69 23 70 24 71 32 72 25 73 30 74
REMARK SMILES IDX 26 75 28 76 31 77 27 79 29 81
REMARK H PARENT 62 18 64 20 66 22 57 33 53 35 55 37 44 48 40 50 42 52 18 63
REMARK H PARENT 14 65 16 67 31 78 27 80 29 82
REMARK Flexibility Score: inf
ROOT
ATOM      1  C   UNL     1      32.278  15.526  -3.620  1.00  0.00     0.205 C 
ATOM      2  C   UNL     1      30.876  14.982  -4.050  1.00  0.00     0.254 C 
ATOM      3  C   UNL     1      30.508  13.743  -3.210  1.00  0.00     0.267 C 
ATOM      4  C   UNL     1      31.663  12.729  -3.287  1.00  0.00     0.290 C 
ATOM      5  C   UNL     1      33.016  13.408  -2.930  1.00  0.00     0.357 C 
ATOM      6  O   UNL     1      32.833  14.767  -2.559  1.00  0.00    -0.329 OA
ENDROOT
BRANCH   1   7
ATOM      7  C   UNL     1      32.202  16.990  -3.151  1.00  0.00     0.269 C 
BRANCH   7   8
ATOM      8  O   UNL     1      33.486  17.436  -2.709  1.00  0.00    -0.459 OA
BRANCH   8   9
ATOM      9  C   UNL     1      33.878  18.788  -2.678  1.00  0.00     0.338 C 
ATOM     10  O   UNL     1      33.466  19.523  -1.741  1.00  0.00    -0.246 OA
BRANCH   9  11
ATOM     11  C   UNL     1      34.768  19.364  -3.703  1.00  0.00     0.067 A 
ATOM     12  C   UNL     1      34.285  20.341  -4.586  1.00  0.00     0.066 A 
ATOM     13  C   UNL     1      35.095  20.828  -5.615  1.00  0.00     0.162 A 
ATOM     14  C   UNL     1      36.075  18.886  -3.845  1.00  0.00     0.066 A 
ATOM     15  C   UNL     1      36.407  20.340  -5.768  1.00  0.00     0.200 A 
ATOM     16  C   UNL     1      36.893  19.359  -4.883  1.00  0.00     0.162 A 
BRANCH  13  17
ATOM     17  O   UNL     1      34.580  21.791  -6.480  1.00  0.00    -0.504 OA
ATOM     18  H   UNL     1      34.080  21.542  -7.328  1.00  0.00     0.293 HD
ENDBRANCH  13  17
BRANCH  15  19
ATOM     19  O   UNL     1      37.211  20.833  -6.796  1.00  0.00    -0.502 OA
ATOM     20  H   UNL     1      36.916  21.591  -7.397  1.00  0.00     0.293 HD
ENDBRANCH  15  19
BRANCH  16  21
ATOM     21  O   UNL     1      38.182  18.854  -5.038  1.00  0.00    -0.504 OA
ATOM     22  H   UNL     1      38.669  18.404  -4.271  1.00  0.00     0.293 HD
ENDBRANCH  16  21
ENDBRANCH   9  11
ENDBRANCH   8   9
ENDBRANCH   7   8
ENDBRANCH   1   7
BRANCH   2  23
ATOM     23  O   UNL     1      30.911  14.613  -5.430  1.00  0.00    -0.452 OA
BRANCH  23  24
ATOM     24  C   UNL     1      31.339  15.484  -6.438  1.00  0.00     0.338 C 
ATOM     25  O   UNL     1      30.521  15.897  -7.307  1.00  0.00    -0.246 OA
BRANCH  24  26
ATOM     26  C   UNL     1      32.760  15.889  -6.509  1.00  0.00     0.067 A 
ATOM     27  C   UNL     1      33.738  15.207  -5.766  1.00  0.00     0.066 A 
ATOM     28  C   UNL     1      33.140  16.999  -7.283  1.00  0.00     0.066 A 
ATOM     29  C   UNL     1      35.073  15.623  -5.791  1.00  0.00     0.162 A 
ATOM     30  C   UNL     1      34.472  17.428  -7.306  1.00  0.00     0.162 A 
ATOM     31  C   UNL     1      35.446  16.738  -6.563  1.00  0.00     0.200 A 
BRANCH  29  32
ATOM     32  O   UNL     1      36.014  14.918  -5.042  1.00  0.00    -0.504 OA
ATOM     33  H   UNL     1      36.749  15.384  -4.524  1.00  0.00     0.293 HD
ENDBRANCH  29  32
BRANCH  30  34
ATOM     34  O   UNL     1      34.832  18.543  -8.061  1.00  0.00    -0.504 OA
ATOM     35  H   UNL     1      35.762  18.643  -8.451  1.00  0.00     0.293 HD
ENDBRANCH  30  34
BRANCH  31  36
ATOM     36  O   UNL     1      36.778  17.155  -6.573  1.00  0.00    -0.502 OA
ATOM     37  H   UNL     1      37.042  18.119  -6.407  1.00  0.00     0.293 HD
ENDBRANCH  31  36
ENDBRANCH  24  26
ENDBRANCH  23  24
ENDBRANCH   2  23
BRANCH   3  38
ATOM     38  O   UNL     1      30.326  14.113  -1.844  1.00  0.00    -0.450 OA
BRANCH  38  39
ATOM     39  C   UNL     1      29.858  13.259  -0.842  1.00  0.00     0.338 C 
ATOM     40  O   UNL     1      28.677  12.815  -0.876  1.00  0.00    -0.246 OA
BRANCH  39  41
ATOM     41  C   UNL     1      30.773  12.883   0.253  1.00  0.00     0.067 A 
ATOM     42  C   UNL     1      31.056  13.815   1.267  1.00  0.00     0.066 A 
ATOM     43  C   UNL     1      31.364  11.609   0.307  1.00  0.00     0.066 A 
ATOM     44  C   UNL     1      31.907  13.479   2.325  1.00  0.00     0.162 A 
ATOM     45  C   UNL     1      32.231  11.275   1.357  1.00  0.00     0.162 A 
ATOM     46  C   UNL     1      32.487  12.208   2.378  1.00  0.00     0.200 A 
BRANCH  44  47
ATOM     47  O   UNL     1      32.177  14.403   3.334  1.00  0.00    -0.504 OA
ATOM     48  H   UNL     1      33.044  14.929   3.350  1.00  0.00     0.293 HD
ENDBRANCH  44  47
BRANCH  45  49
ATOM     49  O   UNL     1      32.858  10.028   1.384  1.00  0.00    -0.504 OA
ATOM     50  H   UNL     1      33.537   9.779   2.094  1.00  0.00     0.293 HD
ENDBRANCH  45  49
BRANCH  46  51
ATOM     51  O   UNL     1      33.329  11.888   3.447  1.00  0.00    -0.502 OA
ATOM     52  H   UNL     1      33.971  11.110   3.402  1.00  0.00     0.293 HD
ENDBRANCH  46  51
ENDBRANCH  39  41
ENDBRANCH  38  39
ENDBRANCH   3  38
BRANCH   5  53
ATOM     53  O   UNL     1      33.635  12.736  -1.832  1.00  0.00    -0.428 OA
BRANCH  53  54
ATOM     54  C   UNL     1      34.952  13.013  -1.448  1.00  0.00     0.340 C 
ATOM     55  O   UNL     1      35.882  12.221  -1.768  1.00  0.00    -0.246 OA
BRANCH  54  56
ATOM     56  C   UNL     1      35.261  14.268  -0.729  1.00  0.00     0.067 A 
ATOM     57  C   UNL     1      36.542  14.497  -0.209  1.00  0.00     0.066 A 
ATOM     58  C   UNL     1      34.289  15.275  -0.624  1.00  0.00     0.066 A 
ATOM     59  C   UNL     1      36.858  15.723   0.391  1.00  0.00     0.162 A 
ATOM     60  C   UNL     1      34.589  16.501  -0.018  1.00  0.00     0.162 A 
ATOM     61  C   UNL     1      35.886  16.728   0.498  1.00  0.00     0.200 A 
BRANCH  59  62
ATOM     62  O   UNL     1      38.146  15.951   0.873  1.00  0.00    -0.504 OA
ATOM     63  H   UNL     1      38.337  16.688   1.541  1.00  0.00     0.293 HD
ENDBRANCH  59  62
BRANCH  60  64
ATOM     64  O   UNL     1      33.575  17.462   0.034  1.00  0.00    -0.504 OA
ATOM     65  H   UNL     1      33.209  17.948  -0.771  1.00  0.00     0.293 HD
ENDBRANCH  60  64
BRANCH  61  66
ATOM     66  O   UNL     1      36.250  17.928   1.113  1.00  0.00    -0.502 OA
ATOM     67  H   UNL     1      36.531  17.999   2.082  1.00  0.00     0.293 HD
ENDBRANCH  61  66
ENDBRANCH  54  56
ENDBRANCH  53  54
ENDBRANCH   5  53
BRANCH   4  68
ATOM     68  O   UNL     1      31.385  11.633  -2.413  1.00  0.00    -0.448 OA
BRANCH  68  69
ATOM     69  C   UNL     1      32.007  10.385  -2.541  1.00  0.00     0.339 C 
ATOM     70  O   UNL     1      32.894  10.210  -3.422  1.00  0.00    -0.246 OA
BRANCH  69  71
ATOM     71  C   UNL     1      31.607   9.269  -1.660  1.00  0.00     0.067 A 
ATOM     72  C   UNL     1      32.544   8.297  -1.279  1.00  0.00     0.066 A 
ATOM     73  C   UNL     1      30.300   9.191  -1.158  1.00  0.00     0.066 A 
ATOM     74  C   UNL     1      32.192   7.265  -0.397  1.00  0.00     0.162 A 
ATOM     75  C   UNL     1      29.932   8.162  -0.284  1.00  0.00     0.162 A 
ATOM     76  C   UNL     1      30.871   7.197   0.107  1.00  0.00     0.200 A 
BRANCH  74  77
ATOM     77  O   UNL     1      33.181   6.341  -0.050  1.00  0.00    -0.504 OA
ATOM     78  H   UNL     1      33.255   5.909   0.860  1.00  0.00     0.293 HD
ENDBRANCH  74  77
BRANCH  75  79
ATOM     79  O   UNL     1      28.628   8.094   0.205  1.00  0.00    -0.504 OA
ATOM     80  H   UNL     1      27.830   8.321  -0.376  1.00  0.00     0.293 HD
ENDBRANCH  75  79
BRANCH  76  81
ATOM     81  O   UNL     1      30.455   6.201   0.994  1.00  0.00    -0.502 OA
ATOM     82  H   UNL     1      30.485   5.212   0.789  1.00  0.00     0.293 HD
ENDBRANCH  76  81
ENDBRANCH  69  71
ENDBRANCH  68  69
ENDBRANCH   4  68
TORSDOF 31
ENDMDL
