MODEL 1
REMARK VINA RESULT:    -4.909      0.000      0.000
REMARK INTER + INTRA:          -7.550
REMARK INTER:                  -7.492
REMARK INTRA:                  -0.058
REMARK UNBOUND:                -0.058
REMARK SMILES CC1=CCC[C@@H](C)C(=O)C[C@@H](C(C)C)C(=O)C1
REMARK SMILES IDX 8 1 9 2 6 3 7 4 5 5 4 6 3 7 2 8 1 9 10 11 11 12 15 13 16 14
REMARK SMILES IDX 17 15 12 17 13 18 14 19
REMARK H PARENT
REMARK Flexibility Score: 70.00
ROOT
ATOM      1  C   UNL     1      29.341 -11.635  30.836  1.00  0.00     0.136 C 
ATOM      2  O   UNL     1      29.793 -10.511  31.000  1.00  0.00    -0.299 OA
ENDROOT
BRANCH   1   3
ATOM      3  C   UNL     1      30.281 -12.744  30.403  1.00  0.00     0.053 C 
ATOM      4  C   UNL     1      31.459 -12.869  31.376  1.00  0.00     0.016 C 
BRANCH   3   5
ATOM      5  C   UNL     1      30.775 -12.540  28.959  1.00  0.00     0.015 C 
BRANCH   5   6
ATOM      6  C   UNL     1      29.735 -11.813  28.089  1.00  0.00     0.028 C 
BRANCH   6   7
ATOM      7  C   UNL     1      29.018 -12.786  27.190  1.00  0.00    -0.028 C 
ATOM      8  C   UNL     1      27.710 -13.114  27.302  1.00  0.00    -0.070 CG0
ATOM      9  C   UNL     1      27.125 -14.054  26.278  1.00  0.00     0.039 C 
ATOM     10  G   UNL     1      26.818 -12.590  28.417  1.00  0.00     0.000 G0
ENDBRANCH   6   7
ENDBRANCH   5   6
ENDBRANCH   3   5
ENDBRANCH   1   3
BRANCH   1  11
ATOM     11  C   UNL     1      27.859 -11.858  31.044  1.00  0.00     0.087 C 
BRANCH  11  12
ATOM     12  C   UNL     1      27.454 -13.345  30.850  1.00  0.00     0.066 C 
BRANCH  12  13
ATOM     13  C   UNL     1      26.670 -13.546  29.560  1.00  0.00     0.140 C 
ATOM     14  O   UNL     1      25.954 -14.529  29.430  1.00  0.00    -0.299 OA
BRANCH  13  15
ATOM     15  C   UNL     1      26.810 -12.583  28.406  1.00  0.00     0.106 CG0
ATOM     16  G   UNL     1      27.707 -13.129  27.306  1.00  0.00     0.000 G0
ENDBRANCH  13  15
ENDBRANCH  12  13
BRANCH  12  17
ATOM     17  C   UNL     1      26.703 -13.909  32.095  1.00  0.00    -0.006 C 
ATOM     18  C   UNL     1      27.156 -15.318  32.517  1.00  0.00     0.008 C 
ATOM     19  C   UNL     1      26.790 -12.946  33.289  1.00  0.00     0.008 C 
ENDBRANCH  12  17
ENDBRANCH  11  12
ENDBRANCH   1  11
TORSDOF 1
ENDMDL
MODEL 2
REMARK VINA RESULT:    -4.738      1.927      4.117
REMARK INTER + INTRA:          -7.289
REMARK INTER:                  -7.753
REMARK INTRA:                   0.464
REMARK UNBOUND:                -0.058
REMARK SMILES CC1=CCC[C@@H](C)C(=O)C[C@@H](C(C)C)C(=O)C1
REMARK SMILES IDX 8 1 9 2 6 3 7 4 5 5 4 6 3 7 2 8 1 9 10 11 11 12 15 13 16 14
REMARK SMILES IDX 17 15 12 17 13 18 14 19
REMARK H PARENT
REMARK Flexibility Score: 70.00
ROOT
ATOM      1  C   UNL     1      28.851 -11.172  28.170  1.00  0.00     0.136 C 
ATOM      2  O   UNL     1      28.150 -10.172  28.129  1.00  0.00    -0.299 OA
ENDROOT
BRANCH   1   3
ATOM      3  C   UNL     1      28.798 -12.149  27.010  1.00  0.00     0.053 C 
ATOM      4  C   UNL     1      28.565 -11.411  25.687  1.00  0.00     0.016 C 
BRANCH   3   5
ATOM      5  C   UNL     1      27.731 -13.238  27.233  1.00  0.00     0.015 C 
BRANCH   5   6
ATOM      6  C   UNL     1      26.644 -12.788  28.225  1.00  0.00     0.028 C 
BRANCH   6   7
ATOM      7  C   UNL     1      26.296 -13.903  29.175  1.00  0.00    -0.028 C 
ATOM      8  C   UNL     1      26.651 -13.937  30.481  1.00  0.00    -0.070 CG0
ATOM      9  C   UNL     1      26.164 -15.093  31.317  1.00  0.00     0.039 C 
ATOM     10  G   UNL     1      27.525 -12.874  31.129  1.00  0.00     0.000 G0
ENDBRANCH   6   7
ENDBRANCH   5   6
ENDBRANCH   3   5
ENDBRANCH   1   3
BRANCH   1  11
ATOM     11  C   UNL     1      29.718 -11.401  29.389  1.00  0.00     0.087 C 
BRANCH  11  12
ATOM     12  C   UNL     1      29.781 -12.900  29.793  1.00  0.00     0.066 C 
BRANCH  12  13
ATOM     13  C   UNL     1      28.991 -13.167  31.067  1.00  0.00     0.140 C 
ATOM     14  O   UNL     1      29.541 -13.690  32.026  1.00  0.00    -0.299 OA
BRANCH  13  15
ATOM     15  C   UNL     1      27.515 -12.859  31.147  1.00  0.00     0.106 CG0
ATOM     16  G   UNL     1      26.665 -13.933  30.486  1.00  0.00     0.000 G0
ENDBRANCH  13  15
ENDBRANCH  12  13
BRANCH  12  17
ATOM     17  C   UNL     1      31.251 -13.413  29.888  1.00  0.00    -0.006 C 
ATOM     18  C   UNL     1      31.924 -13.647  28.524  1.00  0.00     0.008 C 
ATOM     19  C   UNL     1      32.117 -12.485  30.752  1.00  0.00     0.008 C 
ENDBRANCH  12  17
ENDBRANCH  11  12
ENDBRANCH   1  11
TORSDOF 1
ENDMDL
MODEL 3
REMARK VINA RESULT:    -4.738      1.841      4.775
REMARK INTER + INTRA:          -7.288
REMARK INTER:                  -7.546
REMARK INTRA:                   0.258
REMARK UNBOUND:                -0.058
REMARK SMILES CC1=CCC[C@@H](C)C(=O)C[C@@H](C(C)C)C(=O)C1
REMARK SMILES IDX 8 1 9 2 6 3 7 4 5 5 4 6 3 7 2 8 1 9 10 11 11 12 15 13 16 14
REMARK SMILES IDX 17 15 12 17 13 18 14 19
REMARK H PARENT
REMARK Flexibility Score: 70.00
ROOT
ATOM      1  C   UNL     1      26.848 -13.600  29.918  1.00  0.00     0.136 C 
ATOM      2  O   UNL     1      25.823 -14.231  29.706  1.00  0.00    -0.299 OA
ENDROOT
BRANCH   1   3
ATOM      3  C   UNL     1      27.446 -13.625  31.312  1.00  0.00     0.053 C 
ATOM      4  C   UNL     1      26.806 -14.732  32.158  1.00  0.00     0.016 C 
BRANCH   3   5
ATOM      5  C   UNL     1      27.326 -12.256  32.008  1.00  0.00     0.015 C 
BRANCH   5   6
ATOM      6  C   UNL     1      28.363 -11.248  31.483  1.00  0.00     0.028 C 
BRANCH   6   7
ATOM      7  C   UNL     1      29.757 -11.807  31.601  1.00  0.00    -0.028 C 
ATOM      8  C   UNL     1      30.584 -12.033  30.554  1.00  0.00    -0.070 CG0
ATOM      9  C   UNL     1      31.976 -12.532  30.848  1.00  0.00     0.039 C 
ATOM     10  G   UNL     1      30.165 -11.822  29.108  1.00  0.00     0.000 G0
ENDBRANCH   6   7
ENDBRANCH   5   6
ENDBRANCH   3   5
ENDBRANCH   1   3
BRANCH   1  11
ATOM     11  C   UNL     1      27.455 -12.800  28.786  1.00  0.00     0.087 C 
BRANCH  11  12
ATOM     12  C   UNL     1      28.538 -13.601  28.013  1.00  0.00     0.066 C 
BRANCH  12  13
ATOM     13  C   UNL     1      29.941 -13.128  28.369  1.00  0.00     0.140 C 
ATOM     14  O   UNL     1      30.905 -13.834  28.111  1.00  0.00    -0.299 OA
BRANCH  13  15
ATOM     15  C   UNL     1      30.161 -11.825  29.101  1.00  0.00     0.106 CG0
ATOM     16  G   UNL     1      30.569 -12.040  30.550  1.00  0.00     0.000 G0
ENDBRANCH  13  15
ENDBRANCH  12  13
BRANCH  12  17
ATOM     17  C   UNL     1      28.281 -13.588  26.475  1.00  0.00    -0.006 C 
ATOM     18  C   UNL     1      27.024 -14.366  26.043  1.00  0.00     0.008 C 
ATOM     19  C   UNL     1      28.232 -12.156  25.923  1.00  0.00     0.008 C 
ENDBRANCH  12  17
ENDBRANCH  11  12
ENDBRANCH   1  11
TORSDOF 1
ENDMDL
MODEL 4
REMARK VINA RESULT:    -4.614      1.815      3.755
REMARK INTER + INTRA:          -7.100
REMARK INTER:                  -7.281
REMARK INTRA:                   0.181
REMARK UNBOUND:                -0.058
REMARK SMILES CC1=CCC[C@@H](C)C(=O)C[C@@H](C(C)C)C(=O)C1
REMARK SMILES IDX 8 1 9 2 6 3 7 4 5 5 4 6 3 7 2 8 1 9 10 11 11 12 15 13 16 14
REMARK SMILES IDX 17 15 12 17 13 18 14 19
REMARK H PARENT
REMARK Flexibility Score: 70.00
ROOT
ATOM      1  C   UNL     1      27.087 -12.170  28.519  1.00  0.00     0.136 C 
ATOM      2  O   UNL     1      26.573 -11.111  28.845  1.00  0.00    -0.299 OA
ENDROOT
BRANCH   1   3
ATOM      3  C   UNL     1      27.885 -12.229  27.230  1.00  0.00     0.053 C 
ATOM      4  C   UNL     1      27.725 -13.595  26.552  1.00  0.00     0.016 C 
BRANCH   3   5
ATOM      5  C   UNL     1      29.371 -11.898  27.465  1.00  0.00     0.015 C 
BRANCH   5   6
ATOM      6  C   UNL     1      30.153 -13.106  28.011  1.00  0.00     0.028 C 
BRANCH   6   7
ATOM      7  C   UNL     1      31.130 -12.672  29.072  1.00  0.00    -0.028 C 
ATOM      8  C   UNL     1      30.962 -12.876  30.399  1.00  0.00    -0.070 CG0
ATOM      9  C   UNL     1      32.068 -12.442  31.328  1.00  0.00     0.039 C 
ATOM     10  G   UNL     1      29.709 -13.505  30.988  1.00  0.00     0.000 G0
ENDBRANCH   6   7
ENDBRANCH   5   6
ENDBRANCH   3   5
ENDBRANCH   1   3
BRANCH   1  11
ATOM     11  C   UNL     1      26.877 -13.381  29.403  1.00  0.00     0.087 C 
BRANCH  11  12
ATOM     12  C   UNL     1      27.132 -13.067  30.902  1.00  0.00     0.066 C 
BRANCH  12  13
ATOM     13  C   UNL     1      28.556 -12.580  31.135  1.00  0.00     0.140 C 
ATOM     14  O   UNL     1      28.765 -11.397  31.365  1.00  0.00    -0.299 OA
BRANCH  13  15
ATOM     15  C   UNL     1      29.730 -13.522  31.022  1.00  0.00     0.106 CG0
ATOM     16  G   UNL     1      30.944 -12.858  30.390  1.00  0.00     0.000 G0
ENDBRANCH  13  15
ENDBRANCH  12  13
BRANCH  12  17
ATOM     17  C   UNL     1      26.761 -14.273  31.819  1.00  0.00    -0.006 C 
ATOM     18  C   UNL     1      26.362 -13.873  33.251  1.00  0.00     0.008 C 
ATOM     19  C   UNL     1      25.663 -15.143  31.188  1.00  0.00     0.008 C 
ENDBRANCH  12  17
ENDBRANCH  11  12
ENDBRANCH   1  11
TORSDOF 1
ENDMDL
MODEL 5
REMARK VINA RESULT:    -4.503      1.819      2.373
REMARK INTER + INTRA:          -6.929
REMARK INTER:                  -7.178
REMARK INTRA:                   0.249
REMARK UNBOUND:                -0.058
REMARK SMILES CC1=CCC[C@@H](C)C(=O)C[C@@H](C(C)C)C(=O)C1
REMARK SMILES IDX 8 1 9 2 6 3 7 4 5 5 4 6 3 7 2 8 1 9 10 11 11 12 15 13 16 14
REMARK SMILES IDX 17 15 12 17 13 18 14 19
REMARK H PARENT
REMARK Flexibility Score: 70.00
ROOT
ATOM      1  C   UNL     1      29.024 -13.247  31.570  1.00  0.00     0.136 C 
ATOM      2  O   UNL     1      28.879 -14.266  32.229  1.00  0.00    -0.299 OA
ENDROOT
BRANCH   1   3
ATOM      3  C   UNL     1      30.431 -12.757  31.284  1.00  0.00     0.053 C 
ATOM      4  C   UNL     1      30.433 -11.253  30.989  1.00  0.00     0.016 C 
BRANCH   3   5
ATOM      5  C   UNL     1      31.087 -13.548  30.137  1.00  0.00     0.015 C 
BRANCH   5   6
ATOM      6  C   UNL     1      31.084 -12.760  28.815  1.00  0.00     0.028 C 
BRANCH   6   7
ATOM      7  C   UNL     1      30.213 -13.440  27.792  1.00  0.00    -0.028 C 
ATOM      8  C   UNL     1      29.097 -12.897  27.251  1.00  0.00    -0.070 CG0
ATOM      9  C   UNL     1      28.374 -13.681  26.186  1.00  0.00     0.039 C 
ATOM     10  G   UNL     1      28.540 -11.550  27.683  1.00  0.00     0.000 G0
ENDBRANCH   6   7
ENDBRANCH   5   6
ENDBRANCH   3   5
ENDBRANCH   1   3
BRANCH   1  11
ATOM     11  C   UNL     1      27.791 -12.508  31.095  1.00  0.00     0.087 C 
BRANCH  11  12
ATOM     12  C   UNL     1      27.383 -12.911  29.651  1.00  0.00     0.066 C 
BRANCH  12  13
ATOM     13  C   UNL     1      27.415 -11.715  28.709  1.00  0.00     0.140 C 
ATOM     14  O   UNL     1      26.507 -10.896  28.733  1.00  0.00    -0.299 OA
BRANCH  13  15
ATOM     15  C   UNL     1      28.520 -11.553  27.693  1.00  0.00     0.106 CG0
ATOM     16  G   UNL     1      29.103 -12.889  27.258  1.00  0.00     0.000 G0
ENDBRANCH  13  15
ENDBRANCH  12  13
BRANCH  12  17
ATOM     17  C   UNL     1      26.011 -13.651  29.622  1.00  0.00    -0.006 C 
ATOM     18  C   UNL     1      25.633 -14.218  28.242  1.00  0.00     0.008 C 
ATOM     19  C   UNL     1      25.945 -14.759  30.684  1.00  0.00     0.008 C 
ENDBRANCH  12  17
ENDBRANCH  11  12
ENDBRANCH   1  11
TORSDOF 1
ENDMDL
MODEL 6
REMARK VINA RESULT:    -4.061      1.829      3.574
REMARK INTER + INTRA:          -6.256
REMARK INTER:                  -6.681
REMARK INTRA:                   0.425
REMARK UNBOUND:                -0.058
REMARK SMILES CC1=CCC[C@@H](C)C(=O)C[C@@H](C(C)C)C(=O)C1
REMARK SMILES IDX 8 1 9 2 6 3 7 4 5 5 4 6 3 7 2 8 1 9 10 11 11 12 15 13 16 14
REMARK SMILES IDX 17 15 12 17 13 18 14 19
REMARK H PARENT
REMARK Flexibility Score: 70.00
ROOT
ATOM      1  C   UNL     1      27.506 -11.592  30.548  1.00  0.00     0.136 C 
ATOM      2  O   UNL     1      27.163 -10.661  31.262  1.00  0.00    -0.299 OA
ENDROOT
BRANCH   1   3
ATOM      3  C   UNL     1      28.338 -12.707  31.152  1.00  0.00     0.053 C 
ATOM      4  C   UNL     1      27.527 -13.491  32.190  1.00  0.00     0.016 C 
BRANCH   3   5
ATOM      5  C   UNL     1      29.649 -12.173  31.760  1.00  0.00     0.015 C 
BRANCH   5   6
ATOM      6  C   UNL     1      30.679 -11.800  30.679  1.00  0.00     0.028 C 
BRANCH   6   7
ATOM      7  C   UNL     1      31.038 -13.003  29.848  1.00  0.00    -0.028 C 
ATOM      8  C   UNL     1      30.785 -13.126  28.525  1.00  0.00    -0.070 CG0
ATOM      9  C   UNL     1      31.272 -14.367  27.822  1.00  0.00     0.039 C 
ATOM     10  G   UNL     1      30.021 -12.079  27.728  1.00  0.00     0.000 G0
ENDBRANCH   6   7
ENDBRANCH   5   6
ENDBRANCH   3   5
ENDBRANCH   1   3
BRANCH   1  11
ATOM     11  C   UNL     1      27.107 -11.572  29.088  1.00  0.00     0.087 C 
BRANCH  11  12
ATOM     12  C   UNL     1      27.579 -12.844  28.331  1.00  0.00     0.066 C 
BRANCH  12  13
ATOM     13  C   UNL     1      28.648 -12.514  27.299  1.00  0.00     0.140 C 
ATOM     14  O   UNL     1      28.410 -12.660  26.108  1.00  0.00    -0.299 OA
BRANCH  13  15
ATOM     15  C   UNL     1      30.028 -12.070  27.721  1.00  0.00     0.106 CG0
ATOM     16  G   UNL     1      30.757 -13.139  28.522  1.00  0.00     0.000 G0
ENDBRANCH  13  15
ENDBRANCH  12  13
BRANCH  12  17
ATOM     17  C   UNL     1      26.380 -13.628  27.714  1.00  0.00    -0.006 C 
ATOM     18  C   UNL     1      26.788 -14.653  26.640  1.00  0.00     0.008 C 
ATOM     19  C   UNL     1      25.533 -14.309  28.799  1.00  0.00     0.008 C 
ENDBRANCH  12  17
ENDBRANCH  11  12
ENDBRANCH   1  11
TORSDOF 1
ENDMDL
MODEL 7
REMARK VINA RESULT:    -3.730      1.476      3.708
REMARK INTER + INTRA:          -5.751
REMARK INTER:                  -6.927
REMARK INTRA:                   1.177
REMARK UNBOUND:                -0.058
REMARK SMILES CC1=CCC[C@@H](C)C(=O)C[C@@H](C(C)C)C(=O)C1
REMARK SMILES IDX 8 1 9 2 6 3 7 4 5 5 4 6 3 7 2 8 1 9 10 11 11 12 15 13 16 14
REMARK SMILES IDX 17 15 12 17 13 18 14 19
REMARK H PARENT
REMARK Flexibility Score: 70.00
ROOT
ATOM      1  C   UNL     1      27.754 -13.298  31.635  1.00  0.00     0.136 C 
ATOM      2  O   UNL     1      28.675 -13.956  32.095  1.00  0.00    -0.299 OA
ENDROOT
BRANCH   1   3
ATOM      3  C   UNL     1      26.494 -14.017  31.190  1.00  0.00     0.053 C 
ATOM      4  C   UNL     1      26.248 -15.264  32.046  1.00  0.00     0.016 C 
BRANCH   3   5
ATOM      5  C   UNL     1      26.542 -14.373  29.692  1.00  0.00     0.015 C 
BRANCH   5   6
ATOM      6  C   UNL     1      26.016 -13.229  28.808  1.00  0.00     0.028 C 
BRANCH   6   7
ATOM      7  C   UNL     1      26.995 -12.910  27.710  1.00  0.00    -0.028 C 
ATOM      8  C   UNL     1      27.819 -11.837  27.704  1.00  0.00    -0.070 CG0
ATOM      9  C   UNL     1      28.793 -11.698  26.561  1.00  0.00     0.039 C 
ATOM     10  G   UNL     1      27.793 -10.767  28.785  1.00  0.00     0.000 G0
ENDBRANCH   6   7
ENDBRANCH   5   6
ENDBRANCH   3   5
ENDBRANCH   1   3
BRANCH   1  11
ATOM     11  C   UNL     1      27.925 -11.800  31.505  1.00  0.00     0.087 C 
BRANCH  11  12
ATOM     12  C   UNL     1      29.291 -11.416  30.873  1.00  0.00     0.066 C 
BRANCH  12  13
ATOM     13  C   UNL     1      29.107 -10.678  29.554  1.00  0.00     0.140 C 
ATOM     14  O   UNL     1      30.005  -9.969  29.122  1.00  0.00    -0.299 OA
BRANCH  13  15
ATOM     15  C   UNL     1      27.804 -10.753  28.795  1.00  0.00     0.106 CG0
ATOM     16  G   UNL     1      27.829 -11.819  27.710  1.00  0.00     0.000 G0
ENDBRANCH  13  15
ENDBRANCH  12  13
BRANCH  12  17
ATOM     17  C   UNL     1      30.234 -12.651  30.736  1.00  0.00    -0.006 C 
ATOM     18  C   UNL     1      30.382 -13.169  29.294  1.00  0.00     0.008 C 
ATOM     19  C   UNL     1      31.617 -12.375  31.343  1.00  0.00     0.008 C 
ENDBRANCH  12  17
ENDBRANCH  11  12
ENDBRANCH   1  11
TORSDOF 1
ENDMDL
MODEL 8
REMARK VINA RESULT:    -3.692      1.967      5.235
REMARK INTER + INTRA:          -5.692
REMARK INTER:                  -6.069
REMARK INTRA:                   0.378
REMARK UNBOUND:                -0.058
REMARK SMILES CC1=CCC[C@@H](C)C(=O)C[C@@H](C(C)C)C(=O)C1
REMARK SMILES IDX 8 1 9 2 6 3 7 4 5 5 4 6 3 7 2 8 1 9 10 11 11 12 15 13 16 14
REMARK SMILES IDX 17 15 12 17 13 18 14 19
REMARK H PARENT
REMARK Flexibility Score: 70.00
ROOT
ATOM      1  C   UNL     1      26.594 -13.875  28.208  1.00  0.00     0.136 C 
ATOM      2  O   UNL     1      26.311 -14.187  27.061  1.00  0.00    -0.299 OA
ENDROOT
BRANCH   1   3
ATOM      3  C   UNL     1      26.094 -14.745  29.346  1.00  0.00     0.053 C 
ATOM      4  C   UNL     1      24.775 -15.429  28.969  1.00  0.00     0.016 C 
BRANCH   3   5
ATOM      5  C   UNL     1      25.948 -13.944  30.654  1.00  0.00     0.015 C 
BRANCH   5   6
ATOM      6  C   UNL     1      27.114 -14.203  31.624  1.00  0.00     0.028 C 
BRANCH   6   7
ATOM      7  C   UNL     1      27.952 -12.963  31.792  1.00  0.00    -0.028 C 
ATOM      8  C   UNL     1      29.053 -12.676  31.059  1.00  0.00    -0.070 CG0
ATOM      9  C   UNL     1      29.743 -11.358  31.304  1.00  0.00     0.039 C 
ATOM     10  G   UNL     1      29.627 -13.627  30.020  1.00  0.00     0.000 G0
ENDBRANCH   6   7
ENDBRANCH   5   6
ENDBRANCH   3   5
ENDBRANCH   1   3
BRANCH   1  11
ATOM     11  C   UNL     1      27.404 -12.618  28.440  1.00  0.00     0.087 C 
BRANCH  11  12
ATOM     12  C   UNL     1      28.778 -12.661  27.717  1.00  0.00     0.066 C 
BRANCH  12  13
ATOM     13  C   UNL     1      29.911 -12.962  28.690  1.00  0.00     0.140 C 
ATOM     14  O   UNL     1      31.066 -12.710  28.376  1.00  0.00    -0.299 OA
BRANCH  13  15
ATOM     15  C   UNL     1      29.641 -13.631  30.016  1.00  0.00     0.106 CG0
ATOM     16  G   UNL     1      29.061 -12.667  31.040  1.00  0.00     0.000 G0
ENDBRANCH  13  15
ENDBRANCH  12  13
BRANCH  12  17
ATOM     17  C   UNL     1      29.038 -11.367  26.887  1.00  0.00    -0.006 C 
ATOM     18  C   UNL     1      28.375 -11.369  25.498  1.00  0.00     0.008 C 
ATOM     19  C   UNL     1      28.630 -10.107  27.665  1.00  0.00     0.008 C 
ENDBRANCH  12  17
ENDBRANCH  11  12
ENDBRANCH   1  11
TORSDOF 1
ENDMDL
MODEL 9
REMARK VINA RESULT:    -3.606      1.603      3.884
REMARK INTER + INTRA:          -5.561
REMARK INTER:                  -7.423
REMARK INTRA:                   1.862
REMARK UNBOUND:                -0.058
REMARK SMILES CC1=CCC[C@@H](C)C(=O)C[C@@H](C(C)C)C(=O)C1
REMARK SMILES IDX 8 1 9 2 6 3 7 4 5 5 4 6 3 7 2 8 1 9 10 11 11 12 15 13 16 14
REMARK SMILES IDX 17 15 12 17 13 18 14 19
REMARK H PARENT
REMARK Flexibility Score: 70.00
ROOT
ATOM      1  C   UNL     1      26.584 -13.732  29.741  1.00  0.00     0.136 C 
ATOM      2  O   UNL     1      25.817 -14.439  30.377  1.00  0.00    -0.299 OA
ENDROOT
BRANCH   1   3
ATOM      3  C   UNL     1      26.191 -13.304  28.340  1.00  0.00     0.053 C 
ATOM      4  C   UNL     1      25.702 -14.505  27.521  1.00  0.00     0.016 C 
BRANCH   3   5
ATOM      5  C   UNL     1      27.343 -12.576  27.623  1.00  0.00     0.015 C 
BRANCH   5   6
ATOM      6  C   UNL     1      28.147 -13.521  26.712  1.00  0.00     0.028 C 
BRANCH   6   7
ATOM      7  C   UNL     1      29.513 -13.781  27.289  1.00  0.00    -0.028 C 
ATOM      8  C   UNL     1      30.195 -12.912  28.070  1.00  0.00    -0.070 CG0
ATOM      9  C   UNL     1      31.525 -13.352  28.626  1.00  0.00     0.039 C 
ATOM     10  G   UNL     1      29.685 -11.516  28.395  1.00  0.00     0.000 G0
ENDBRANCH   6   7
ENDBRANCH   5   6
ENDBRANCH   3   5
ENDBRANCH   1   3
BRANCH   1  11
ATOM     11  C   UNL     1      27.903 -13.341  30.371  1.00  0.00     0.087 C 
BRANCH  11  12
ATOM     12  C   UNL     1      28.072 -11.801  30.479  1.00  0.00     0.066 C 
BRANCH  12  13
ATOM     13  C   UNL     1      29.396 -11.342  29.882  1.00  0.00     0.140 C 
ATOM     14  O   UNL     1      30.222 -10.784  30.591  1.00  0.00    -0.299 OA
BRANCH  13  15
ATOM     15  C   UNL     1      29.684 -11.504  28.409  1.00  0.00     0.106 CG0
ATOM     16  G   UNL     1      30.192 -12.898  28.071  1.00  0.00     0.000 G0
ENDBRANCH  13  15
ENDBRANCH  12  13
BRANCH  12  17
ATOM     17  C   UNL     1      27.874 -11.296  31.941  1.00  0.00    -0.006 C 
ATOM     18  C   UNL     1      27.193  -9.920  32.043  1.00  0.00     0.008 C 
ATOM     19  C   UNL     1      27.117 -12.325  32.795  1.00  0.00     0.008 C 
ENDBRANCH  12  17
ENDBRANCH  11  12
ENDBRANCH   1  11
TORSDOF 1
ENDMDL
