MODEL 1
REMARK VINA RESULT:    -5.741      0.000      0.000
REMARK INTER + INTRA:          -8.686
REMARK INTER:                  -8.426
REMARK INTRA:                  -0.260
REMARK UNBOUND:                -0.260
REMARK SMILES CC(C)COC(=O)c1ccccc1C(=O)OCC(C)C
REMARK SMILES IDX 8 1 9 2 10 3 11 4 12 5 13 6 6 7 7 8 5 9 4 10 2 11 1 12 3 13
REMARK SMILES IDX 14 14 15 15 16 16 17 17 18 18 19 19 20 20
REMARK H PARENT
REMARK Flexibility Score: inf
ROOT
ATOM      1  C   UNL     1     135.909 122.916 141.478  1.00  0.00     0.074 A 
ATOM      2  C   UNL     1     134.983 122.104 140.798  1.00  0.00     0.016 A 
ATOM      3  C   UNL     1     133.637 122.095 141.169  1.00  0.00     0.001 A 
ATOM      4  C   UNL     1     133.197 122.897 142.219  1.00  0.00     0.001 A 
ATOM      5  C   UNL     1     134.104 123.692 142.921  1.00  0.00     0.016 A 
ATOM      6  C   UNL     1     135.468 123.697 142.580  1.00  0.00     0.074 A 
ENDROOT
BRANCH   1   7
ATOM      7  C   UNL     1     137.293 122.985 140.965  1.00  0.00     0.339 C 
ATOM      8  O   UNL     1     138.185 122.242 141.457  1.00  0.00    -0.246 OA
BRANCH   7   9
ATOM      9  O   UNL     1     137.593 123.836 139.896  1.00  0.00    -0.462 OA
BRANCH   9  10
ATOM     10  C   UNL     1     137.710 123.377 138.551  1.00  0.00     0.236 C 
BRANCH  10  11
ATOM     11  C   UNL     1     136.468 123.771 137.737  1.00  0.00     0.021 C 
ATOM     12  C   UNL     1     135.548 122.564 137.516  1.00  0.00     0.011 C 
ATOM     13  C   UNL     1     135.701 124.917 138.409  1.00  0.00     0.011 C 
ENDBRANCH  10  11
ENDBRANCH   9  10
ENDBRANCH   7   9
ENDBRANCH   1   7
BRANCH   6  14
ATOM     14  C   UNL     1     136.397 124.464 143.441  1.00  0.00     0.339 C 
ATOM     15  O   UNL     1     137.615 124.145 143.509  1.00  0.00    -0.246 OA
BRANCH  14  16
ATOM     16  O   UNL     1     135.902 125.515 144.222  1.00  0.00    -0.462 OA
BRANCH  16  17
ATOM     17  C   UNL     1     135.735 125.415 145.633  1.00  0.00     0.236 C 
BRANCH  17  18
ATOM     18  C   UNL     1     136.407 126.603 146.340  1.00  0.00     0.021 C 
ATOM     19  C   UNL     1     136.194 127.905 145.559  1.00  0.00     0.011 C 
ATOM     20  C   UNL     1     137.902 126.340 146.560  1.00  0.00     0.011 C 
ENDBRANCH  17  18
ENDBRANCH  16  17
ENDBRANCH  14  16
ENDBRANCH   6  14
TORSDOF 8
ENDMDL
MODEL 2
REMARK VINA RESULT:    -5.595      0.080      5.954
REMARK INTER + INTRA:          -8.471
REMARK INTER:                  -8.340
REMARK INTRA:                  -0.130
REMARK UNBOUND:                -0.260
REMARK SMILES CC(C)COC(=O)c1ccccc1C(=O)OCC(C)C
REMARK SMILES IDX 8 1 9 2 10 3 11 4 12 5 13 6 6 7 7 8 5 9 4 10 2 11 1 12 3 13
REMARK SMILES IDX 14 14 15 15 16 16 17 17 18 18 19 19 20 20
REMARK H PARENT
REMARK Flexibility Score: inf
ROOT
ATOM      1  C   UNL     1     135.453 123.713 142.587  1.00  0.00     0.074 A 
ATOM      2  C   UNL     1     134.084 123.758 142.908  1.00  0.00     0.016 A 
ATOM      3  C   UNL     1     133.161 122.988 142.198  1.00  0.00     0.001 A 
ATOM      4  C   UNL     1     133.591 122.163 141.161  1.00  0.00     0.001 A 
ATOM      5  C   UNL     1     134.942 122.122 140.812  1.00  0.00     0.016 A 
ATOM      6  C   UNL     1     135.885 122.908 141.499  1.00  0.00     0.074 A 
ENDROOT
BRANCH   1   7
ATOM      7  C   UNL     1     136.401 124.447 143.452  1.00  0.00     0.339 C 
ATOM      8  O   UNL     1     137.626 124.144 143.442  1.00  0.00    -0.246 OA
BRANCH   7   9
ATOM      9  O   UNL     1     135.943 125.511 144.235  1.00  0.00    -0.462 OA
BRANCH   9  10
ATOM     10  C   UNL     1     135.739 125.406 145.641  1.00  0.00     0.236 C 
BRANCH  10  11
ATOM     11  C   UNL     1     136.390 126.592 146.370  1.00  0.00     0.021 C 
ATOM     12  C   UNL     1     137.880 126.333 146.624  1.00  0.00     0.011 C 
ATOM     13  C   UNL     1     136.195 127.899 145.592  1.00  0.00     0.011 C 
ENDBRANCH  10  11
ENDBRANCH   9  10
ENDBRANCH   7   9
ENDBRANCH   1   7
BRANCH   6  14
ATOM     14  C   UNL     1     137.279 122.914 141.001  1.00  0.00     0.339 C 
ATOM     15  O   UNL     1     138.147 122.164 141.526  1.00  0.00    -0.246 OA
BRANCH  14  16
ATOM     16  O   UNL     1     137.641 123.800 139.980  1.00  0.00    -0.462 OA
BRANCH  16  17
ATOM     17  C   UNL     1     137.808 123.390 138.626  1.00  0.00     0.236 C 
BRANCH  17  18
ATOM     18  C   UNL     1     136.584 123.790 137.786  1.00  0.00     0.021 C 
ATOM     19  C   UNL     1     135.805 124.930 138.452  1.00  0.00     0.011 C 
ATOM     20  C   UNL     1     135.672 122.583 137.533  1.00  0.00     0.011 C 
ENDBRANCH  17  18
ENDBRANCH  16  17
ENDBRANCH  14  16
ENDBRANCH   6  14
TORSDOF 8
ENDMDL
MODEL 3
REMARK VINA RESULT:    -5.119      2.532      4.317
REMARK INTER + INTRA:          -7.772
REMARK INTER:                  -7.306
REMARK INTRA:                  -0.466
REMARK UNBOUND:                -0.260
REMARK SMILES CC(C)COC(=O)c1ccccc1C(=O)OCC(C)C
REMARK SMILES IDX 8 1 9 2 10 3 11 4 12 5 13 6 6 7 7 8 5 9 4 10 2 11 1 12 3 13
REMARK SMILES IDX 14 14 15 15 16 16 17 17 18 18 19 19 20 20
REMARK H PARENT
REMARK Flexibility Score: inf
ROOT
ATOM      1  C   UNL     1     137.385 123.165 139.832  1.00  0.00     0.074 A 
ATOM      2  C   UNL     1     137.991 123.027 138.569  1.00  0.00     0.016 A 
ATOM      3  C   UNL     1     137.233 123.139 137.402  1.00  0.00     0.001 A 
ATOM      4  C   UNL     1     135.865 123.391 137.478  1.00  0.00     0.001 A 
ATOM      5  C   UNL     1     135.242 123.507 138.721  1.00  0.00     0.016 A 
ATOM      6  C   UNL     1     135.982 123.374 139.910  1.00  0.00     0.074 A 
ENDROOT
BRANCH   1   7
ATOM      7  C   UNL     1     138.252 123.165 141.030  1.00  0.00     0.339 C 
ATOM      8  O   UNL     1     137.957 122.443 142.020  1.00  0.00    -0.246 OA
BRANCH   7   9
ATOM      9  O   UNL     1     139.425 123.926 141.034  1.00  0.00    -0.462 OA
BRANCH   9  10
ATOM     10  C   UNL     1     139.944 124.541 142.210  1.00  0.00     0.236 C 
BRANCH  10  11
ATOM     11  C   UNL     1     141.219 125.337 141.885  1.00  0.00     0.021 C 
ATOM     12  C   UNL     1     141.541 126.340 142.999  1.00  0.00     0.011 C 
ATOM     13  C   UNL     1     142.410 124.403 141.639  1.00  0.00     0.011 C 
ENDBRANCH  10  11
ENDBRANCH   9  10
ENDBRANCH   7   9
ENDBRANCH   1   7
BRANCH   6  14
ATOM     14  C   UNL     1     135.244 123.383 141.193  1.00  0.00     0.339 C 
ATOM     15  O   UNL     1     134.500 122.415 141.509  1.00  0.00    -0.246 OA
BRANCH  14  16
ATOM     16  O   UNL     1     135.334 124.501 142.030  1.00  0.00    -0.462 OA
BRANCH  16  17
ATOM     17  C   UNL     1     135.175 124.423 143.444  1.00  0.00     0.236 C 
BRANCH  17  18
ATOM     18  C   UNL     1     136.249 125.261 144.155  1.00  0.00     0.021 C 
ATOM     19  C   UNL     1     137.279 124.365 144.852  1.00  0.00     0.011 C 
ATOM     20  C   UNL     1     135.614 126.238 145.152  1.00  0.00     0.011 C 
ENDBRANCH  17  18
ENDBRANCH  16  17
ENDBRANCH  14  16
ENDBRANCH   6  14
TORSDOF 8
ENDMDL
MODEL 4
REMARK VINA RESULT:    -5.002      2.529      5.203
REMARK INTER + INTRA:          -7.601
REMARK INTER:                  -7.112
REMARK INTRA:                  -0.489
REMARK UNBOUND:                -0.260
REMARK SMILES CC(C)COC(=O)c1ccccc1C(=O)OCC(C)C
REMARK SMILES IDX 8 1 9 2 10 3 11 4 12 5 13 6 6 7 7 8 5 9 4 10 2 11 1 12 3 13
REMARK SMILES IDX 14 14 15 15 16 16 17 17 18 18 19 19 20 20
REMARK H PARENT
REMARK Flexibility Score: inf
ROOT
ATOM      1  C   UNL     1     136.112 123.505 140.007  1.00  0.00     0.074 A 
ATOM      2  C   UNL     1     135.261 123.697 138.902  1.00  0.00     0.016 A 
ATOM      3  C   UNL     1     135.741 123.543 137.600  1.00  0.00     0.001 A 
ATOM      4  C   UNL     1     137.072 123.195 137.383  1.00  0.00     0.001 A 
ATOM      5  C   UNL     1     137.937 123.023 138.464  1.00  0.00     0.016 A 
ATOM      6  C   UNL     1     137.481 123.197 139.783  1.00  0.00     0.074 A 
ENDROOT
BRANCH   1   7
ATOM      7  C   UNL     1     135.524 123.554 141.362  1.00  0.00     0.339 C 
ATOM      8  O   UNL     1     134.683 122.683 141.715  1.00  0.00    -0.246 OA
BRANCH   7   9
ATOM      9  O   UNL     1     135.948 124.534 142.266  1.00  0.00    -0.462 OA
BRANCH   9  10
ATOM     10  C   UNL     1     135.101 125.074 143.276  1.00  0.00     0.236 C 
BRANCH  10  11
ATOM     11  C   UNL     1     135.802 125.040 144.643  1.00  0.00     0.021 C 
ATOM     12  C   UNL     1     137.231 124.500 144.517  1.00  0.00     0.011 C 
ATOM     13  C   UNL     1     135.806 126.426 145.300  1.00  0.00     0.011 C 
ENDBRANCH  10  11
ENDBRANCH   9  10
ENDBRANCH   7   9
ENDBRANCH   1   7
BRANCH   6  14
ATOM     14  C   UNL     1     138.474 123.123 140.878  1.00  0.00     0.339 C 
ATOM     15  O   UNL     1     138.354 122.262 141.792  1.00  0.00    -0.246 OA
BRANCH  14  16
ATOM     16  O   UNL     1     139.520 124.051 140.922  1.00  0.00    -0.462 OA
BRANCH  16  17
ATOM     17  C   UNL     1     140.040 124.573 142.142  1.00  0.00     0.236 C 
BRANCH  17  18
ATOM     18  C   UNL     1     141.306 125.403 141.878  1.00  0.00     0.021 C 
ATOM     19  C   UNL     1     142.516 124.499 141.615  1.00  0.00     0.011 C 
ATOM     20  C   UNL     1     141.587 126.364 143.040  1.00  0.00     0.011 C 
ENDBRANCH  17  18
ENDBRANCH  16  17
ENDBRANCH  14  16
ENDBRANCH   6  14
TORSDOF 8
ENDMDL
MODEL 5
REMARK VINA RESULT:    -4.927      1.895      5.482
REMARK INTER + INTRA:          -7.490
REMARK INTER:                  -6.672
REMARK INTRA:                  -0.818
REMARK UNBOUND:                -0.260
REMARK SMILES CC(C)COC(=O)c1ccccc1C(=O)OCC(C)C
REMARK SMILES IDX 8 1 9 2 10 3 11 4 12 5 13 6 6 7 7 8 5 9 4 10 2 11 1 12 3 13
REMARK SMILES IDX 14 14 15 15 16 16 17 17 18 18 19 19 20 20
REMARK H PARENT
REMARK Flexibility Score: inf
ROOT
ATOM      1  C   UNL     1     134.741 123.902 139.988  1.00  0.00     0.074 A 
ATOM      2  C   UNL     1     134.558 124.839 138.954  1.00  0.00     0.016 A 
ATOM      3  C   UNL     1     134.931 124.535 137.644  1.00  0.00     0.001 A 
ATOM      4  C   UNL     1     135.489 123.294 137.347  1.00  0.00     0.001 A 
ATOM      5  C   UNL     1     135.699 122.359 138.361  1.00  0.00     0.016 A 
ATOM      6  C   UNL     1     135.353 122.654 139.692  1.00  0.00     0.074 A 
ENDROOT
BRANCH   1   7
ATOM      7  C   UNL     1     134.212 124.224 141.330  1.00  0.00     0.339 C 
ATOM      8  O   UNL     1     133.076 123.799 141.678  1.00  0.00    -0.246 OA
BRANCH   7   9
ATOM      9  O   UNL     1     134.999 124.952 142.227  1.00  0.00    -0.462 OA
BRANCH   9  10
ATOM     10  C   UNL     1     135.078 124.642 143.616  1.00  0.00     0.236 C 
BRANCH  10  11
ATOM     11  C   UNL     1     136.221 125.427 144.280  1.00  0.00     0.021 C 
ATOM     12  C   UNL     1     135.675 126.475 145.256  1.00  0.00     0.011 C 
ATOM     13  C   UNL     1     137.202 124.487 144.991  1.00  0.00     0.011 C 
ENDBRANCH  10  11
ENDBRANCH   9  10
ENDBRANCH   7   9
ENDBRANCH   1   7
BRANCH   6  14
ATOM     14  C   UNL     1     135.716 121.672 140.739  1.00  0.00     0.339 C 
ATOM     15  O   UNL     1     134.930 120.729 141.029  1.00  0.00    -0.246 OA
BRANCH  14  16
ATOM     16  O   UNL     1     136.914 121.829 141.444  1.00  0.00    -0.462 OA
BRANCH  16  17
ATOM     17  C   UNL     1     137.595 123.077 141.542  1.00  0.00     0.236 C 
BRANCH  17  18
ATOM     18  C   UNL     1     138.950 123.010 140.820  1.00  0.00     0.021 C 
ATOM     19  C   UNL     1     139.943 124.016 141.413  1.00  0.00     0.011 C 
ATOM     20  C   UNL     1     138.783 123.235 139.312  1.00  0.00     0.011 C 
ENDBRANCH  17  18
ENDBRANCH  16  17
ENDBRANCH  14  16
ENDBRANCH   6  14
TORSDOF 8
ENDMDL
MODEL 6
REMARK VINA RESULT:    -4.916      1.898      3.484
REMARK INTER + INTRA:          -7.475
REMARK INTER:                  -6.602
REMARK INTRA:                  -0.873
REMARK UNBOUND:                -0.260
REMARK SMILES CC(C)COC(=O)c1ccccc1C(=O)OCC(C)C
REMARK SMILES IDX 8 1 9 2 10 3 11 4 12 5 13 6 6 7 7 8 5 9 4 10 2 11 1 12 3 13
REMARK SMILES IDX 14 14 15 15 16 16 17 17 18 18 19 19 20 20
REMARK H PARENT
REMARK Flexibility Score: inf
ROOT
ATOM      1  C   UNL     1     135.363 122.673 139.703  1.00  0.00     0.074 A 
ATOM      2  C   UNL     1     135.710 122.339 138.381  1.00  0.00     0.016 A 
ATOM      3  C   UNL     1     135.524 123.255 137.344  1.00  0.00     0.001 A 
ATOM      4  C   UNL     1     134.993 124.514 137.611  1.00  0.00     0.001 A 
ATOM      5  C   UNL     1     134.621 124.857 138.911  1.00  0.00     0.016 A 
ATOM      6  C   UNL     1     134.777 123.940 139.967  1.00  0.00     0.074 A 
ENDROOT
BRANCH   1   7
ATOM      7  C   UNL     1     135.698 121.718 140.780  1.00  0.00     0.339 C 
ATOM      8  O   UNL     1     134.888 120.800 141.082  1.00  0.00    -0.246 OA
BRANCH   7   9
ATOM      9  O   UNL     1     136.938 121.804 141.420  1.00  0.00    -0.462 OA
BRANCH   9  10
ATOM     10  C   UNL     1     137.630 123.036 141.604  1.00  0.00     0.236 C 
BRANCH  10  11
ATOM     11  C   UNL     1     138.972 123.019 140.855  1.00  0.00     0.021 C 
ATOM     12  C   UNL     1     138.769 123.262 139.355  1.00  0.00     0.011 C 
ATOM     13  C   UNL     1     139.950 124.045 141.440  1.00  0.00     0.011 C 
ENDBRANCH  10  11
ENDBRANCH   9  10
ENDBRANCH   7   9
ENDBRANCH   1   7
BRANCH   6  14
ATOM     14  C   UNL     1     134.249 124.317 141.298  1.00  0.00     0.339 C 
ATOM     15  O   UNL     1     133.048 124.078 141.600  1.00  0.00    -0.246 OA
BRANCH  14  16
ATOM     16  O   UNL     1     135.079 124.991 142.201  1.00  0.00    -0.462 OA
BRANCH  16  17
ATOM     17  C   UNL     1     135.047 124.753 143.605  1.00  0.00     0.236 C 
BRANCH  17  18
ATOM     18  C   UNL     1     136.210 125.477 144.302  1.00  0.00     0.021 C 
ATOM     19  C   UNL     1     137.150 124.480 144.990  1.00  0.00     0.011 C 
ATOM     20  C   UNL     1     135.692 126.516 145.303  1.00  0.00     0.011 C 
ENDBRANCH  17  18
ENDBRANCH  16  17
ENDBRANCH  14  16
ENDBRANCH   6  14
TORSDOF 8
ENDMDL
MODEL 7
REMARK VINA RESULT:    -4.434      1.646      2.890
REMARK INTER + INTRA:          -6.768
REMARK INTER:                  -6.659
REMARK INTRA:                  -0.108
REMARK UNBOUND:                -0.260
REMARK SMILES CC(C)COC(=O)c1ccccc1C(=O)OCC(C)C
REMARK SMILES IDX 8 1 9 2 10 3 11 4 12 5 13 6 6 7 7 8 5 9 4 10 2 11 1 12 3 13
REMARK SMILES IDX 14 14 15 15 16 16 17 17 18 18 19 19 20 20
REMARK H PARENT
REMARK Flexibility Score: inf
ROOT
ATOM      1  C   UNL     1     136.654 122.929 140.845  1.00  0.00     0.074 A 
ATOM      2  C   UNL     1     137.735 122.544 140.032  1.00  0.00     0.016 A 
ATOM      3  C   UNL     1     139.041 122.907 140.366  1.00  0.00     0.001 A 
ATOM      4  C   UNL     1     139.286 123.656 141.515  1.00  0.00     0.001 A 
ATOM      5  C   UNL     1     138.224 124.068 142.322  1.00  0.00     0.016 A 
ATOM      6  C   UNL     1     136.899 123.734 141.990  1.00  0.00     0.074 A 
ENDROOT
BRANCH   1   7
ATOM      7  C   UNL     1     135.309 122.411 140.517  1.00  0.00     0.339 C 
ATOM      8  O   UNL     1     134.871 121.382 141.099  1.00  0.00    -0.246 OA
BRANCH   7   9
ATOM      9  O   UNL     1     134.507 123.100 139.601  1.00  0.00    -0.462 OA
BRANCH   9  10
ATOM     10  C   UNL     1     134.466 122.778 138.213  1.00  0.00     0.236 C 
BRANCH  10  11
ATOM     11  C   UNL     1     135.429 123.678 137.422  1.00  0.00     0.021 C 
ATOM     12  C   UNL     1     135.707 124.984 138.175  1.00  0.00     0.011 C 
ATOM     13  C   UNL     1     136.740 122.948 137.106  1.00  0.00     0.011 C 
ENDBRANCH  10  11
ENDBRANCH   9  10
ENDBRANCH   7   9
ENDBRANCH   1   7
BRANCH   6  14
ATOM     14  C   UNL     1     135.810 124.305 142.816  1.00  0.00     0.339 C 
ATOM     15  O   UNL     1     134.907 125.006 142.284  1.00  0.00    -0.246 OA
BRANCH  14  16
ATOM     16  O   UNL     1     135.822 124.106 144.201  1.00  0.00    -0.462 OA
BRANCH  16  17
ATOM     17  C   UNL     1     136.864 124.592 145.042  1.00  0.00     0.236 C 
BRANCH  17  18
ATOM     18  C   UNL     1     136.328 125.670 145.997  1.00  0.00     0.021 C 
ATOM     19  C   UNL     1     135.677 126.822 145.222  1.00  0.00     0.011 C 
ATOM     20  C   UNL     1     137.438 126.192 146.917  1.00  0.00     0.011 C 
ENDBRANCH  17  18
ENDBRANCH  16  17
ENDBRANCH  14  16
ENDBRANCH   6  14
TORSDOF 8
ENDMDL
MODEL 8
REMARK VINA RESULT:    -4.416      1.646      6.455
REMARK INTER + INTRA:          -6.741
REMARK INTER:                  -6.706
REMARK INTRA:                  -0.035
REMARK UNBOUND:                -0.260
REMARK SMILES CC(C)COC(=O)c1ccccc1C(=O)OCC(C)C
REMARK SMILES IDX 8 1 9 2 10 3 11 4 12 5 13 6 6 7 7 8 5 9 4 10 2 11 1 12 3 13
REMARK SMILES IDX 14 14 15 15 16 16 17 17 18 18 19 19 20 20
REMARK H PARENT
REMARK Flexibility Score: inf
ROOT
ATOM      1  C   UNL     1     136.908 123.740 142.021  1.00  0.00     0.074 A 
ATOM      2  C   UNL     1     138.237 124.079 142.336  1.00  0.00     0.016 A 
ATOM      3  C   UNL     1     139.288 123.673 141.512  1.00  0.00     0.001 A 
ATOM      4  C   UNL     1     139.029 122.927 140.365  1.00  0.00     0.001 A 
ATOM      5  C   UNL     1     137.720 122.562 140.047  1.00  0.00     0.016 A 
ATOM      6  C   UNL     1     136.649 122.939 140.877  1.00  0.00     0.074 A 
ENDROOT
BRANCH   1   7
ATOM      7  C   UNL     1     135.824 124.302 142.854  1.00  0.00     0.339 C 
ATOM      8  O   UNL     1     134.861 124.909 142.309  1.00  0.00    -0.246 OA
BRANCH   7   9
ATOM      9  O   UNL     1     135.844 124.109 144.239  1.00  0.00    -0.462 OA
BRANCH   9  10
ATOM     10  C   UNL     1     136.900 124.582 145.071  1.00  0.00     0.236 C 
BRANCH  10  11
ATOM     11  C   UNL     1     136.378 125.639 146.056  1.00  0.00     0.021 C 
ATOM     12  C   UNL     1     137.493 126.117 146.994  1.00  0.00     0.011 C 
ATOM     13  C   UNL     1     135.749 126.827 145.317  1.00  0.00     0.011 C 
ENDBRANCH  10  11
ENDBRANCH   9  10
ENDBRANCH   7   9
ENDBRANCH   1   7
BRANCH   6  14
ATOM     14  C   UNL     1     135.302 122.416 140.553  1.00  0.00     0.339 C 
ATOM     15  O   UNL     1     134.877 121.363 141.103  1.00  0.00    -0.246 OA
BRANCH  14  16
ATOM     16  O   UNL     1     134.523 123.069 139.592  1.00  0.00    -0.462 OA
BRANCH  16  17
ATOM     17  C   UNL     1     134.526 122.699 138.215  1.00  0.00     0.236 C 
BRANCH  17  18
ATOM     18  C   UNL     1     135.461 123.617 137.412  1.00  0.00     0.021 C 
ATOM     19  C   UNL     1     136.795 122.923 137.114  1.00  0.00     0.011 C 
ATOM     20  C   UNL     1     135.691 124.945 138.144  1.00  0.00     0.011 C 
ENDBRANCH  17  18
ENDBRANCH  16  17
ENDBRANCH  14  16
ENDBRANCH   6  14
TORSDOF 8
ENDMDL
MODEL 9
REMARK VINA RESULT:    -4.398      1.862      3.276
REMARK INTER + INTRA:          -6.714
REMARK INTER:                  -5.587
REMARK INTRA:                  -1.127
REMARK UNBOUND:                -0.260
REMARK SMILES CC(C)COC(=O)c1ccccc1C(=O)OCC(C)C
REMARK SMILES IDX 8 1 9 2 10 3 11 4 12 5 13 6 6 7 7 8 5 9 4 10 2 11 1 12 3 13
REMARK SMILES IDX 14 14 15 15 16 16 17 17 18 18 19 19 20 20
REMARK H PARENT
REMARK Flexibility Score: inf
ROOT
ATOM      1  C   UNL     1     136.730 123.969 140.179  1.00  0.00     0.074 A 
ATOM      2  C   UNL     1     138.078 123.926 139.775  1.00  0.00     0.016 A 
ATOM      3  C   UNL     1     138.964 123.013 140.350  1.00  0.00     0.001 A 
ATOM      4  C   UNL     1     138.518 122.132 141.333  1.00  0.00     0.001 A 
ATOM      5  C   UNL     1     137.191 122.174 141.763  1.00  0.00     0.016 A 
ATOM      6  C   UNL     1     136.288 123.103 141.214  1.00  0.00     0.074 A 
ENDROOT
BRANCH   1   7
ATOM      7  C   UNL     1     135.807 124.863 139.449  1.00  0.00     0.339 C 
ATOM      8  O   UNL     1     135.370 125.907 140.005  1.00  0.00    -0.246 OA
BRANCH   7   9
ATOM      9  O   UNL     1     135.467 124.574 138.123  1.00  0.00    -0.462 OA
BRANCH   9  10
ATOM     10  C   UNL     1     134.610 123.495 137.761  1.00  0.00     0.236 C 
BRANCH  10  11
ATOM     11  C   UNL     1     135.435 122.260 137.365  1.00  0.00     0.021 C 
ATOM     12  C   UNL     1     136.868 122.653 136.986  1.00  0.00     0.011 C 
ATOM     13  C   UNL     1     135.441 121.212 138.484  1.00  0.00     0.011 C 
ENDBRANCH  10  11
ENDBRANCH   9  10
ENDBRANCH   7   9
ENDBRANCH   1   7
BRANCH   6  14
ATOM     14  C   UNL     1     134.931 123.182 141.800  1.00  0.00     0.339 C 
ATOM     15  O   UNL     1     133.945 122.677 141.196  1.00  0.00    -0.246 OA
BRANCH  14  16
ATOM     16  O   UNL     1     134.740 123.869 143.003  1.00  0.00    -0.462 OA
BRANCH  16  17
ATOM     17  C   UNL     1     135.399 125.096 143.305  1.00  0.00     0.236 C 
BRANCH  17  18
ATOM     18  C   UNL     1     135.893 125.099 144.761  1.00  0.00     0.021 C 
ATOM     19  C   UNL     1     135.817 126.505 145.368  1.00  0.00     0.011 C 
ATOM     20  C   UNL     1     137.317 124.540 144.860  1.00  0.00     0.011 C 
ENDBRANCH  17  18
ENDBRANCH  16  17
ENDBRANCH  14  16
ENDBRANCH   6  14
TORSDOF 8
ENDMDL
