MODEL 1
REMARK VINA RESULT:    -5.702      0.000      0.000
REMARK INTER + INTRA:          -6.844
REMARK INTER:                  -7.035
REMARK INTRA:                   0.191
REMARK UNBOUND:                 0.191
REMARK SMILES Oc1cc(O)c2cc(O)c(-c3cc(O)c(O)c(O)c3)[o+]c2c1
REMARK SMILES IDX 10 1 20 2 21 3 22 4 2 5 3 6 4 7 6 8 7 9 8 10 11 11 12 12
REMARK SMILES IDX 13 13 19 14 15 15 17 16 14 17 16 19 18 21 9 23 1 25 5 27
REMARK H PARENT 14 18 16 20 18 22 9 24 1 26 5 28
REMARK Flexibility Score: inf
ROOT
ATOM      1  C   UNL     1      45.273  16.381  -3.312  1.00  0.00     0.402 A 
ATOM      2  O   UNL     1      45.803  15.351  -2.656  1.00  0.00    -0.202 OA
ATOM      3  C   UNL     1      46.917  14.737  -3.041  1.00  0.00     0.368 A 
ATOM      4  C   UNL     1      47.395  13.661  -2.288  1.00  0.00     0.162 A 
ATOM      5  C   UNL     1      48.563  12.995  -2.671  1.00  0.00     0.128 A 
ATOM      6  C   UNL     1      49.254  13.405  -3.813  1.00  0.00     0.093 A 
ATOM      7  C   UNL     1      48.796  14.480  -4.585  1.00  0.00     0.136 A 
ATOM      8  C   UNL     1      47.613  15.161  -4.199  1.00  0.00     0.125 A 
ATOM      9  C   UNL     1      47.087  16.256  -4.904  1.00  0.00     0.078 A 
ATOM     10  C   UNL     1      45.918  16.881  -4.459  1.00  0.00     0.223 A 
ENDROOT
BRANCH   1  11
ATOM     11  C   UNL     1      44.022  16.974  -2.789  1.00  0.00     0.091 A 
ATOM     12  C   UNL     1      43.068  16.147  -2.180  1.00  0.00     0.068 A 
ATOM     13  C   UNL     1      41.865  16.671  -1.692  1.00  0.00     0.162 A 
ATOM     14  C   UNL     1      43.742  18.341  -2.940  1.00  0.00     0.068 A 
ATOM     15  C   UNL     1      41.599  18.055  -1.828  1.00  0.00     0.200 A 
ATOM     16  C   UNL     1      42.546  18.881  -2.460  1.00  0.00     0.162 A 
BRANCH  13  17
ATOM     17  O   UNL     1      40.971  15.785  -1.087  1.00  0.00    -0.504 OA
ATOM     18  H   UNL     1      41.118  14.788  -1.019  1.00  0.00     0.293 HD
ENDBRANCH  13  17
BRANCH  15  19
ATOM     19  O   UNL     1      40.420  18.636  -1.354  1.00  0.00    -0.502 OA
ATOM     20  H   UNL     1      39.680  18.127  -0.893  1.00  0.00     0.293 HD
ENDBRANCH  15  19
BRANCH  16  21
ATOM     21  O   UNL     1      42.313  20.247  -2.627  1.00  0.00    -0.504 OA
ATOM     22  H   UNL     1      41.662  20.604  -3.315  1.00  0.00     0.293 HD
ENDBRANCH  16  21
ENDBRANCH   1  11
BRANCH  10  23
ATOM     23  O   UNL     1      45.423  17.999  -5.129  1.00  0.00    -0.500 OA
ATOM     24  H   UNL     1      45.689  18.939  -4.864  1.00  0.00     0.294 HD
ENDBRANCH  10  23
BRANCH   5  25
ATOM     25  O   UNL     1      49.045  11.922  -1.924  1.00  0.00    -0.507 OA
ATOM     26  H   UNL     1      48.766  10.969  -2.125  1.00  0.00     0.293 HD
ENDBRANCH   5  25
BRANCH   7  27
ATOM     27  O   UNL     1      49.544  14.826  -5.714  1.00  0.00    -0.507 OA
ATOM     28  H   UNL     1      49.445  15.694  -6.220  1.00  0.00     0.293 HD
ENDBRANCH   7  27
TORSDOF 7
ENDMDL
MODEL 2
REMARK VINA RESULT:    -5.664      0.338      1.836
REMARK INTER + INTRA:          -6.798
REMARK INTER:                  -6.977
REMARK INTRA:                   0.179
REMARK UNBOUND:                 0.191
REMARK SMILES Oc1cc(O)c2cc(O)c(-c3cc(O)c(O)c(O)c3)[o+]c2c1
REMARK SMILES IDX 10 1 20 2 21 3 22 4 2 5 3 6 4 7 6 8 7 9 8 10 11 11 12 12
REMARK SMILES IDX 13 13 19 14 15 15 17 16 14 17 16 19 18 21 9 23 1 25 5 27
REMARK H PARENT 14 18 16 20 18 22 9 24 1 26 5 28
REMARK Flexibility Score: inf
ROOT
ATOM      1  C   UNL     1      45.411  16.421  -3.517  1.00  0.00     0.402 A 
ATOM      2  O   UNL     1      45.991  15.394  -2.902  1.00  0.00    -0.202 OA
ATOM      3  C   UNL     1      47.100  14.811  -3.344  1.00  0.00     0.368 A 
ATOM      4  C   UNL     1      47.634  13.735  -2.630  1.00  0.00     0.162 A 
ATOM      5  C   UNL     1      48.799  13.102  -3.073  1.00  0.00     0.128 A 
ATOM      6  C   UNL     1      49.431  13.545  -4.237  1.00  0.00     0.093 A 
ATOM      7  C   UNL     1      48.916  14.621  -4.971  1.00  0.00     0.136 A 
ATOM      8  C   UNL     1      47.736  15.269  -4.523  1.00  0.00     0.125 A 
ATOM      9  C   UNL     1      47.156  16.363  -5.187  1.00  0.00     0.078 A 
ATOM     10  C   UNL     1      45.995  16.954  -4.682  1.00  0.00     0.223 A 
ENDROOT
BRANCH   1  11
ATOM     11  C   UNL     1      44.171  16.979  -2.932  1.00  0.00     0.091 A 
ATOM     12  C   UNL     1      43.952  18.363  -2.969  1.00  0.00     0.068 A 
ATOM     13  C   UNL     1      42.800  18.926  -2.407  1.00  0.00     0.162 A 
ATOM     14  C   UNL     1      43.233  16.157  -2.288  1.00  0.00     0.068 A 
ATOM     15  C   UNL     1      41.847  18.090  -1.779  1.00  0.00     0.200 A 
ATOM     16  C   UNL     1      42.077  16.703  -1.721  1.00  0.00     0.162 A 
BRANCH  13  17
ATOM     17  O   UNL     1      42.648  20.312  -2.495  1.00  0.00    -0.504 OA
ATOM     18  H   UNL     1      43.250  20.916  -3.037  1.00  0.00     0.293 HD
ENDBRANCH  13  17
BRANCH  15  19
ATOM     19  O   UNL     1      40.675  18.594  -1.208  1.00  0.00    -0.502 OA
ATOM     20  H   UNL     1      40.565  19.542  -0.880  1.00  0.00     0.293 HD
ENDBRANCH  15  19
BRANCH  16  21
ATOM     21  O   UNL     1      41.169  15.847  -1.096  1.00  0.00    -0.504 OA
ATOM     22  H   UNL     1      40.900  15.958  -0.127  1.00  0.00     0.293 HD
ENDBRANCH  16  21
ENDBRANCH   1  11
BRANCH  10  23
ATOM     23  O   UNL     1      45.447  18.071  -5.313  1.00  0.00    -0.500 OA
ATOM     24  H   UNL     1      45.701  19.013  -5.041  1.00  0.00     0.294 HD
ENDBRANCH  10  23
BRANCH   5  25
ATOM     25  O   UNL     1      49.336  12.028  -2.366  1.00  0.00    -0.507 OA
ATOM     26  H   UNL     1      48.967  11.090  -2.465  1.00  0.00     0.293 HD
ENDBRANCH   5  25
BRANCH   7  27
ATOM     27  O   UNL     1      49.607  15.002  -6.125  1.00  0.00    -0.507 OA
ATOM     28  H   UNL     1      49.230  14.949  -7.059  1.00  0.00     0.293 HD
ENDBRANCH   7  27
TORSDOF 7
ENDMDL
MODEL 3
REMARK VINA RESULT:    -5.487      1.642      2.987
REMARK INTER + INTRA:          -6.580
REMARK INTER:                  -6.537
REMARK INTRA:                  -0.043
REMARK UNBOUND:                 0.191
REMARK SMILES Oc1cc(O)c2cc(O)c(-c3cc(O)c(O)c(O)c3)[o+]c2c1
REMARK SMILES IDX 10 1 20 2 21 3 22 4 2 5 3 6 4 7 6 8 7 9 8 10 11 11 12 12
REMARK SMILES IDX 13 13 19 14 15 15 17 16 14 17 16 19 18 21 9 23 1 25 5 27
REMARK H PARENT 14 18 16 20 18 22 9 24 1 26 5 28
REMARK Flexibility Score: inf
ROOT
ATOM      1  C   UNL     1      46.271  16.102  -3.815  1.00  0.00     0.402 A 
ATOM      2  O   UNL     1      47.475  16.497  -4.221  1.00  0.00    -0.202 OA
ATOM      3  C   UNL     1      48.536  15.697  -4.245  1.00  0.00     0.368 A 
ATOM      4  C   UNL     1      49.761  16.205  -4.686  1.00  0.00     0.162 A 
ATOM      5  C   UNL     1      50.894  15.386  -4.719  1.00  0.00     0.128 A 
ATOM      6  C   UNL     1      50.801  14.055  -4.307  1.00  0.00     0.093 A 
ATOM      7  C   UNL     1      49.585  13.521  -3.861  1.00  0.00     0.136 A 
ATOM      8  C   UNL     1      48.432  14.347  -3.829  1.00  0.00     0.125 A 
ATOM      9  C   UNL     1      47.170  13.896  -3.410  1.00  0.00     0.078 A 
ATOM     10  C   UNL     1      46.077  14.767  -3.410  1.00  0.00     0.223 A 
ENDROOT
BRANCH   1  11
ATOM     11  C   UNL     1      45.169  17.090  -3.825  1.00  0.00     0.091 A 
ATOM     12  C   UNL     1      44.360  17.232  -2.689  1.00  0.00     0.068 A 
ATOM     13  C   UNL     1      43.297  18.142  -2.671  1.00  0.00     0.162 A 
ATOM     14  C   UNL     1      44.879  17.850  -4.968  1.00  0.00     0.068 A 
ATOM     15  C   UNL     1      43.023  18.923  -3.819  1.00  0.00     0.200 A 
ATOM     16  C   UNL     1      43.821  18.764  -4.968  1.00  0.00     0.162 A 
BRANCH  13  17
ATOM     17  O   UNL     1      42.544  18.235  -1.498  1.00  0.00    -0.504 OA
ATOM     18  H   UNL     1      41.538  18.145  -1.461  1.00  0.00     0.293 HD
ENDBRANCH  13  17
BRANCH  15  19
ATOM     19  O   UNL     1      41.981  19.853  -3.858  1.00  0.00    -0.502 OA
ATOM     20  H   UNL     1      41.101  19.701  -4.327  1.00  0.00     0.293 HD
ENDBRANCH  15  19
BRANCH  16  21
ATOM     21  O   UNL     1      43.574  19.503  -6.125  1.00  0.00    -0.504 OA
ATOM     22  H   UNL     1      44.176  20.260  -6.422  1.00  0.00     0.293 HD
ENDBRANCH  16  21
ENDBRANCH   1  11
BRANCH  10  23
ATOM     23  O   UNL     1      44.814  14.307  -3.042  1.00  0.00    -0.500 OA
ATOM     24  H   UNL     1      44.357  13.552  -3.539  1.00  0.00     0.294 HD
ENDBRANCH  10  23
BRANCH   5  25
ATOM     25  O   UNL     1      52.118  15.886  -5.157  1.00  0.00    -0.507 OA
ATOM     26  H   UNL     1      52.237  16.864  -5.391  1.00  0.00     0.293 HD
ENDBRANCH   5  25
BRANCH   7  27
ATOM     27  O   UNL     1      49.577  12.181  -3.465  1.00  0.00    -0.507 OA
ATOM     28  H   UNL     1      48.786  11.562  -3.562  1.00  0.00     0.293 HD
ENDBRANCH   7  27
TORSDOF 7
ENDMDL
MODEL 4
REMARK VINA RESULT:    -5.481      1.648      3.302
REMARK INTER + INTRA:          -6.571
REMARK INTER:                  -6.462
REMARK INTRA:                  -0.110
REMARK UNBOUND:                 0.191
REMARK SMILES Oc1cc(O)c2cc(O)c(-c3cc(O)c(O)c(O)c3)[o+]c2c1
REMARK SMILES IDX 10 1 20 2 21 3 22 4 2 5 3 6 4 7 6 8 7 9 8 10 11 11 12 12
REMARK SMILES IDX 13 13 19 14 15 15 17 16 14 17 16 19 18 21 9 23 1 25 5 27
REMARK H PARENT 14 18 16 20 18 22 9 24 1 26 5 28
REMARK Flexibility Score: inf
ROOT
ATOM      1  C   UNL     1      46.242  16.052  -3.847  1.00  0.00     0.402 A 
ATOM      2  O   UNL     1      47.461  16.444  -4.211  1.00  0.00    -0.202 OA
ATOM      3  C   UNL     1      48.509  15.627  -4.249  1.00  0.00     0.368 A 
ATOM      4  C   UNL     1      49.751  16.133  -4.643  1.00  0.00     0.162 A 
ATOM      5  C   UNL     1      50.870  15.297  -4.689  1.00  0.00     0.128 A 
ATOM      6  C   UNL     1      50.748  13.951  -4.339  1.00  0.00     0.093 A 
ATOM      7  C   UNL     1      49.514  13.419  -3.941  1.00  0.00     0.136 A 
ATOM      8  C   UNL     1      48.374  14.263  -3.895  1.00  0.00     0.125 A 
ATOM      9  C   UNL     1      47.097  13.816  -3.521  1.00  0.00     0.078 A 
ATOM     10  C   UNL     1      46.019  14.705  -3.505  1.00  0.00     0.223 A 
ENDROOT
BRANCH   1  11
ATOM     11  C   UNL     1      45.157  17.059  -3.836  1.00  0.00     0.091 A 
ATOM     12  C   UNL     1      44.979  17.894  -4.948  1.00  0.00     0.068 A 
ATOM     13  C   UNL     1      43.977  18.870  -4.964  1.00  0.00     0.162 A 
ATOM     14  C   UNL     1      44.336  17.236  -2.712  1.00  0.00     0.068 A 
ATOM     15  C   UNL     1      43.137  19.029  -3.835  1.00  0.00     0.200 A 
ATOM     16  C   UNL     1      43.330  18.207  -2.710  1.00  0.00     0.162 A 
BRANCH  13  17
ATOM     17  O   UNL     1      43.855  19.655  -6.112  1.00  0.00    -0.504 OA
ATOM     18  H   UNL     1      43.636  20.641  -6.105  1.00  0.00     0.293 HD
ENDBRANCH  13  17
BRANCH  15  19
ATOM     19  O   UNL     1      42.114  19.981  -3.796  1.00  0.00    -0.502 OA
ATOM     20  H   UNL     1      41.995  20.715  -4.478  1.00  0.00     0.293 HD
ENDBRANCH  15  19
BRANCH  16  21
ATOM     21  O   UNL     1      42.533  18.343  -1.573  1.00  0.00    -0.504 OA
ATOM     22  H   UNL     1      42.200  19.243  -1.251  1.00  0.00     0.293 HD
ENDBRANCH  16  21
ENDBRANCH   1  11
BRANCH  10  23
ATOM     23  O   UNL     1      44.740  14.250  -3.182  1.00  0.00    -0.500 OA
ATOM     24  H   UNL     1      44.294  14.496  -2.307  1.00  0.00     0.294 HD
ENDBRANCH  10  23
BRANCH   5  25
ATOM     25  O   UNL     1      52.111  15.795  -5.081  1.00  0.00    -0.507 OA
ATOM     26  H   UNL     1      52.598  16.496  -4.534  1.00  0.00     0.293 HD
ENDBRANCH   5  25
BRANCH   7  27
ATOM     27  O   UNL     1      49.477  12.063  -3.604  1.00  0.00    -0.507 OA
ATOM     28  H   UNL     1      49.057  11.696  -2.763  1.00  0.00     0.293 HD
ENDBRANCH   7  27
TORSDOF 7
ENDMDL
MODEL 5
REMARK VINA RESULT:    -5.181      1.310      7.210
REMARK INTER + INTRA:          -6.202
REMARK INTER:                  -6.190
REMARK INTRA:                  -0.011
REMARK UNBOUND:                 0.191
REMARK SMILES Oc1cc(O)c2cc(O)c(-c3cc(O)c(O)c(O)c3)[o+]c2c1
REMARK SMILES IDX 10 1 20 2 21 3 22 4 2 5 3 6 4 7 6 8 7 9 8 10 11 11 12 12
REMARK SMILES IDX 13 13 19 14 15 15 17 16 14 17 16 19 18 21 9 23 1 25 5 27
REMARK H PARENT 14 18 16 20 18 22 9 24 1 26 5 28
REMARK Flexibility Score: inf
ROOT
ATOM      1  C   UNL     1      44.772  15.848  -2.952  1.00  0.00     0.402 A 
ATOM      2  O   UNL     1      44.694  17.173  -2.869  1.00  0.00    -0.202 OA
ATOM      3  C   UNL     1      43.551  17.826  -2.682  1.00  0.00     0.368 A 
ATOM      4  C   UNL     1      43.569  19.222  -2.611  1.00  0.00     0.162 A 
ATOM      5  C   UNL     1      42.382  19.934  -2.417  1.00  0.00     0.128 A 
ATOM      6  C   UNL     1      41.172  19.248  -2.295  1.00  0.00     0.093 A 
ATOM      7  C   UNL     1      41.126  17.850  -2.363  1.00  0.00     0.136 A 
ATOM      8  C   UNL     1      42.329  17.122  -2.557  1.00  0.00     0.125 A 
ATOM      9  C   UNL     1      42.381  15.720  -2.624  1.00  0.00     0.078 A 
ATOM     10  C   UNL     1      43.605  15.072  -2.812  1.00  0.00     0.223 A 
ENDROOT
BRANCH   1  11
ATOM     11  C   UNL     1      46.102  15.237  -3.172  1.00  0.00     0.091 A 
ATOM     12  C   UNL     1      46.532  14.199  -2.334  1.00  0.00     0.068 A 
ATOM     13  C   UNL     1      47.792  13.612  -2.501  1.00  0.00     0.162 A 
ATOM     14  C   UNL     1      46.970  15.714  -4.167  1.00  0.00     0.068 A 
ATOM     15  C   UNL     1      48.653  14.082  -3.521  1.00  0.00     0.200 A 
ATOM     16  C   UNL     1      48.232  15.140  -4.347  1.00  0.00     0.162 A 
BRANCH  13  17
ATOM     17  O   UNL     1      48.143  12.575  -1.634  1.00  0.00    -0.504 OA
ATOM     18  H   UNL     1      48.971  12.005  -1.737  1.00  0.00     0.293 HD
ENDBRANCH  13  17
BRANCH  15  19
ATOM     19  O   UNL     1      49.919  13.531  -3.740  1.00  0.00    -0.502 OA
ATOM     20  H   UNL     1      50.437  13.622  -4.602  1.00  0.00     0.293 HD
ENDBRANCH  15  19
BRANCH  16  21
ATOM     21  O   UNL     1      49.058  15.642  -5.353  1.00  0.00    -0.504 OA
ATOM     22  H   UNL     1      48.689  16.094  -6.180  1.00  0.00     0.293 HD
ENDBRANCH  16  21
ENDBRANCH   1  11
BRANCH  10  23
ATOM     23  O   UNL     1      43.665  13.679  -2.829  1.00  0.00    -0.500 OA
ATOM     24  H   UNL     1      43.587  13.133  -1.979  1.00  0.00     0.294 HD
ENDBRANCH  10  23
BRANCH   5  25
ATOM     25  O   UNL     1      42.393  21.325  -2.345  1.00  0.00    -0.507 OA
ATOM     26  H   UNL     1      42.767  21.892  -3.097  1.00  0.00     0.293 HD
ENDBRANCH   5  25
BRANCH   7  27
ATOM     27  O   UNL     1      39.875  17.240  -2.235  1.00  0.00    -0.507 OA
ATOM     28  H   UNL     1      39.502  16.563  -2.883  1.00  0.00     0.293 HD
ENDBRANCH   7  27
TORSDOF 7
ENDMDL
MODEL 6
REMARK VINA RESULT:    -5.154      1.305      7.410
REMARK INTER + INTRA:          -6.169
REMARK INTER:                  -6.212
REMARK INTRA:                   0.044
REMARK UNBOUND:                 0.191
REMARK SMILES Oc1cc(O)c2cc(O)c(-c3cc(O)c(O)c(O)c3)[o+]c2c1
REMARK SMILES IDX 10 1 20 2 21 3 22 4 2 5 3 6 4 7 6 8 7 9 8 10 11 11 12 12
REMARK SMILES IDX 13 13 19 14 15 15 17 16 14 17 16 19 18 21 9 23 1 25 5 27
REMARK H PARENT 14 18 16 20 18 22 9 24 1 26 5 28
REMARK Flexibility Score: inf
ROOT
ATOM      1  C   UNL     1      44.829  15.908  -2.940  1.00  0.00     0.402 A 
ATOM      2  O   UNL     1      44.712  17.231  -2.848  1.00  0.00    -0.202 OA
ATOM      3  C   UNL     1      43.550  17.850  -2.667  1.00  0.00     0.368 A 
ATOM      4  C   UNL     1      43.528  19.244  -2.585  1.00  0.00     0.162 A 
ATOM      5  C   UNL     1      42.319  19.921  -2.398  1.00  0.00     0.128 A 
ATOM      6  C   UNL     1      41.127  19.201  -2.295  1.00  0.00     0.093 A 
ATOM      7  C   UNL     1      41.122  17.802  -2.374  1.00  0.00     0.136 A 
ATOM      8  C   UNL     1      42.347  17.110  -2.561  1.00  0.00     0.125 A 
ATOM      9  C   UNL     1      42.440  15.711  -2.638  1.00  0.00     0.078 A 
ATOM     10  C   UNL     1      43.683  15.099  -2.818  1.00  0.00     0.223 A 
ENDROOT
BRANCH   1  11
ATOM     11  C   UNL     1      46.178  15.338  -3.152  1.00  0.00     0.091 A 
ATOM     12  C   UNL     1      47.022  15.903  -4.118  1.00  0.00     0.068 A 
ATOM     13  C   UNL     1      48.296  15.376  -4.359  1.00  0.00     0.162 A 
ATOM     14  C   UNL     1      46.612  14.206  -2.446  1.00  0.00     0.068 A 
ATOM     15  C   UNL     1      48.737  14.248  -3.627  1.00  0.00     0.200 A 
ATOM     16  C   UNL     1      47.882  13.666  -2.674  1.00  0.00     0.162 A 
BRANCH  13  17
ATOM     17  O   UNL     1      49.082  16.002  -5.329  1.00  0.00    -0.504 OA
ATOM     18  H   UNL     1      49.209  17.002  -5.399  1.00  0.00     0.293 HD
ENDBRANCH  13  17
BRANCH  15  19
ATOM     19  O   UNL     1      50.001  13.684  -3.818  1.00  0.00    -0.502 OA
ATOM     20  H   UNL     1      50.858  14.215  -3.880  1.00  0.00     0.293 HD
ENDBRANCH  15  19
BRANCH  16  21
ATOM     21  O   UNL     1      48.273  12.544  -1.943  1.00  0.00    -0.504 OA
ATOM     22  H   UNL     1      47.619  12.002  -1.392  1.00  0.00     0.293 HD
ENDBRANCH  16  21
ENDBRANCH   1  11
BRANCH  10  23
ATOM     23  O   UNL     1      43.782  13.708  -2.845  1.00  0.00    -0.500 OA
ATOM     24  H   UNL     1      44.426  13.233  -3.467  1.00  0.00     0.294 HD
ENDBRANCH  10  23
BRANCH   5  25
ATOM     25  O   UNL     1      42.290  21.312  -2.315  1.00  0.00    -0.507 OA
ATOM     26  H   UNL     1      42.621  21.895  -3.075  1.00  0.00     0.293 HD
ENDBRANCH   5  25
BRANCH   7  27
ATOM     27  O   UNL     1      39.888  17.156  -2.263  1.00  0.00    -0.507 OA
ATOM     28  H   UNL     1      39.342  16.830  -3.046  1.00  0.00     0.293 HD
ENDBRANCH   7  27
TORSDOF 7
ENDMDL
MODEL 7
REMARK VINA RESULT:    -5.127      1.327      6.774
REMARK INTER + INTRA:          -6.135
REMARK INTER:                  -6.302
REMARK INTRA:                   0.167
REMARK UNBOUND:                 0.191
REMARK SMILES Oc1cc(O)c2cc(O)c(-c3cc(O)c(O)c(O)c3)[o+]c2c1
REMARK SMILES IDX 10 1 20 2 21 3 22 4 2 5 3 6 4 7 6 8 7 9 8 10 11 11 12 12
REMARK SMILES IDX 13 13 19 14 15 15 17 16 14 17 16 19 18 21 9 23 1 25 5 27
REMARK H PARENT 14 18 16 20 18 22 9 24 1 26 5 28
REMARK Flexibility Score: inf
ROOT
ATOM      1  C   UNL     1      45.907  15.887  -3.658  1.00  0.00     0.402 A 
ATOM      2  O   UNL     1      44.889  16.090  -2.825  1.00  0.00    -0.202 OA
ATOM      3  C   UNL     1      44.003  17.068  -2.981  1.00  0.00     0.368 A 
ATOM      4  C   UNL     1      42.969  17.203  -2.051  1.00  0.00     0.162 A 
ATOM      5  C   UNL     1      42.024  18.224  -2.190  1.00  0.00     0.128 A 
ATOM      6  C   UNL     1      42.116  19.115  -3.261  1.00  0.00     0.093 A 
ATOM      7  C   UNL     1      43.143  19.002  -4.206  1.00  0.00     0.136 A 
ATOM      8  C   UNL     1      44.102  17.965  -4.072  1.00  0.00     0.125 A 
ATOM      9  C   UNL     1      45.157  17.767  -4.978  1.00  0.00     0.078 A 
ATOM     10  C   UNL     1      46.061  16.719  -4.783  1.00  0.00     0.223 A 
ENDROOT
BRANCH   1  11
ATOM     11  C   UNL     1      46.834  14.769  -3.372  1.00  0.00     0.091 A 
ATOM     12  C   UNL     1      46.373  13.658  -2.651  1.00  0.00     0.068 A 
ATOM     13  C   UNL     1      47.226  12.592  -2.344  1.00  0.00     0.162 A 
ATOM     14  C   UNL     1      48.182  14.820  -3.756  1.00  0.00     0.068 A 
ATOM     15  C   UNL     1      48.580  12.640  -2.755  1.00  0.00     0.200 A 
ATOM     16  C   UNL     1      49.049  13.765  -3.457  1.00  0.00     0.162 A 
BRANCH  13  17
ATOM     17  O   UNL     1      46.690  11.516  -1.634  1.00  0.00    -0.504 OA
ATOM     18  H   UNL     1      46.101  11.612  -0.819  1.00  0.00     0.293 HD
ENDBRANCH  13  17
BRANCH  15  19
ATOM     19  O   UNL     1      49.477  11.603  -2.485  1.00  0.00    -0.502 OA
ATOM     20  H   UNL     1      50.242  11.669  -1.830  1.00  0.00     0.293 HD
ENDBRANCH  15  19
BRANCH  16  21
ATOM     21  O   UNL     1      50.380  13.856  -3.865  1.00  0.00    -0.504 OA
ATOM     22  H   UNL     1      51.152  13.630  -3.249  1.00  0.00     0.293 HD
ENDBRANCH  16  21
ENDBRANCH   1  11
BRANCH  10  23
ATOM     23  O   UNL     1      47.080  16.492  -5.708  1.00  0.00    -0.500 OA
ATOM     24  H   UNL     1      47.012  15.757  -6.403  1.00  0.00     0.294 HD
ENDBRANCH  10  23
BRANCH   5  25
ATOM     25  O   UNL     1      40.990  18.364  -1.266  1.00  0.00    -0.507 OA
ATOM     26  H   UNL     1      41.009  19.086  -0.555  1.00  0.00     0.293 HD
ENDBRANCH   5  25
BRANCH   7  27
ATOM     27  O   UNL     1      43.165  19.935  -5.247  1.00  0.00    -0.507 OA
ATOM     28  H   UNL     1      42.391  20.533  -5.494  1.00  0.00     0.293 HD
ENDBRANCH   7  27
TORSDOF 7
ENDMDL
MODEL 8
REMARK VINA RESULT:    -5.109      2.098      7.992
REMARK INTER + INTRA:          -6.113
REMARK INTER:                  -5.941
REMARK INTRA:                  -0.172
REMARK UNBOUND:                 0.191
REMARK SMILES Oc1cc(O)c2cc(O)c(-c3cc(O)c(O)c(O)c3)[o+]c2c1
REMARK SMILES IDX 10 1 20 2 21 3 22 4 2 5 3 6 4 7 6 8 7 9 8 10 11 11 12 12
REMARK SMILES IDX 13 13 19 14 15 15 17 16 14 17 16 19 18 21 9 23 1 25 5 27
REMARK H PARENT 14 18 16 20 18 22 9 24 1 26 5 28
REMARK Flexibility Score: inf
ROOT
ATOM      1  C   UNL     1      47.831  15.289  -4.151  1.00  0.00     0.402 A 
ATOM      2  O   UNL     1      47.344  16.330  -4.821  1.00  0.00    -0.202 OA
ATOM      3  C   UNL     1      46.160  16.876  -4.560  1.00  0.00     0.368 A 
ATOM      4  C   UNL     1      45.732  17.967  -5.321  1.00  0.00     0.162 A 
ATOM      5  C   UNL     1      44.491  18.559  -5.070  1.00  0.00     0.128 A 
ATOM      6  C   UNL     1      43.673  18.055  -4.056  1.00  0.00     0.093 A 
ATOM      7  C   UNL     1      44.078  16.962  -3.279  1.00  0.00     0.136 A 
ATOM      8  C   UNL     1      45.339  16.360  -3.528  1.00  0.00     0.125 A 
ATOM      9  C   UNL     1      45.833  15.271  -2.792  1.00  0.00     0.078 A 
ATOM     10  C   UNL     1      47.088  14.734  -3.092  1.00  0.00     0.223 A 
ENDROOT
BRANCH   1  11
ATOM     11  C   UNL     1      49.159  14.765  -4.542  1.00  0.00     0.091 A 
ATOM     12  C   UNL     1      50.255  15.637  -4.603  1.00  0.00     0.068 A 
ATOM     13  C   UNL     1      51.520  15.181  -4.989  1.00  0.00     0.162 A 
ATOM     14  C   UNL     1      49.336  13.422  -4.909  1.00  0.00     0.068 A 
ATOM     15  C   UNL     1      51.697  13.820  -5.336  1.00  0.00     0.200 A 
ATOM     16  C   UNL     1      50.593  12.949  -5.297  1.00  0.00     0.162 A 
BRANCH  13  17
ATOM     17  O   UNL     1      52.564  16.108  -5.014  1.00  0.00    -0.504 OA
ATOM     18  H   UNL     1      53.533  15.876  -4.849  1.00  0.00     0.293 HD
ENDBRANCH  13  17
BRANCH  15  19
ATOM     19  O   UNL     1      52.938  13.304  -5.721  1.00  0.00    -0.502 OA
ATOM     20  H   UNL     1      53.351  13.438  -6.632  1.00  0.00     0.293 HD
ENDBRANCH  15  19
BRANCH  16  21
ATOM     21  O   UNL     1      50.723  11.604  -5.647  1.00  0.00    -0.504 OA
ATOM     22  H   UNL     1      50.263  10.864  -5.132  1.00  0.00     0.293 HD
ENDBRANCH  16  21
ENDBRANCH   1  11
BRANCH  10  23
ATOM     23  O   UNL     1      47.601  13.684  -2.330  1.00  0.00    -0.500 OA
ATOM     24  H   UNL     1      48.568  13.668  -2.029  1.00  0.00     0.294 HD
ENDBRANCH  10  23
BRANCH   5  25
ATOM     25  O   UNL     1      44.058  19.647  -5.824  1.00  0.00    -0.507 OA
ATOM     26  H   UNL     1      43.300  20.241  -5.511  1.00  0.00     0.293 HD
ENDBRANCH   5  25
BRANCH   7  27
ATOM     27  O   UNL     1      43.201  16.518  -2.286  1.00  0.00    -0.507 OA
ATOM     28  H   UNL     1      42.308  16.084  -2.466  1.00  0.00     0.293 HD
ENDBRANCH   7  27
TORSDOF 7
ENDMDL
MODEL 9
REMARK VINA RESULT:    -2.779      1.401      6.915
REMARK INTER + INTRA:          -3.238
REMARK INTER:                  -3.535
REMARK INTRA:                   0.297
REMARK UNBOUND:                 0.191
REMARK SMILES Oc1cc(O)c2cc(O)c(-c3cc(O)c(O)c(O)c3)[o+]c2c1
REMARK SMILES IDX 10 1 20 2 21 3 22 4 2 5 3 6 4 7 6 8 7 9 8 10 11 11 12 12
REMARK SMILES IDX 13 13 19 14 15 15 17 16 14 17 16 19 18 21 9 23 1 25 5 27
REMARK H PARENT 14 18 16 20 18 22 9 24 1 26 5 28
REMARK Flexibility Score: inf
ROOT
ATOM      1  C   UNL     1      46.418  16.529  -4.249  1.00  0.00     0.402 A 
ATOM      2  O   UNL     1      45.545  16.103  -3.339  1.00  0.00    -0.202 OA
ATOM      3  C   UNL     1      44.336  16.632  -3.184  1.00  0.00     0.368 A 
ATOM      4  C   UNL     1      43.490  16.117  -2.198  1.00  0.00     0.162 A 
ATOM      5  C   UNL     1      42.213  16.657  -2.011  1.00  0.00     0.128 A 
ATOM      6  C   UNL     1      41.783  17.717  -2.812  1.00  0.00     0.093 A 
ATOM      7  C   UNL     1      42.612  18.252  -3.807  1.00  0.00     0.136 A 
ATOM      8  C   UNL     1      43.907  17.705  -4.003  1.00  0.00     0.125 A 
ATOM      9  C   UNL     1      44.800  18.167  -4.983  1.00  0.00     0.078 A 
ATOM     10  C   UNL     1      46.059  17.575  -5.120  1.00  0.00     0.223 A 
ENDROOT
BRANCH   1  11
ATOM     11  C   UNL     1      47.738  15.864  -4.317  1.00  0.00     0.091 A 
ATOM     12  C   UNL     1      47.925  14.633  -3.673  1.00  0.00     0.068 A 
ATOM     13  C   UNL     1      49.166  13.986  -3.699  1.00  0.00     0.162 A 
ATOM     14  C   UNL     1      48.827  16.466  -4.966  1.00  0.00     0.068 A 
ATOM     15  C   UNL     1      50.254  14.587  -4.375  1.00  0.00     0.200 A 
ATOM     16  C   UNL     1      50.074  15.834  -5.002  1.00  0.00     0.162 A 
BRANCH  13  17
ATOM     17  O   UNL     1      49.269  12.757  -3.044  1.00  0.00    -0.504 OA
ATOM     18  H   UNL     1      49.127  12.629  -2.052  1.00  0.00     0.293 HD
ENDBRANCH  13  17
BRANCH  15  19
ATOM     19  O   UNL     1      51.514  13.985  -4.443  1.00  0.00    -0.502 OA
ATOM     20  H   UNL     1      51.776  13.157  -3.929  1.00  0.00     0.293 HD
ENDBRANCH  15  19
BRANCH  16  21
ATOM     21  O   UNL     1      51.126  16.466  -5.665  1.00  0.00    -0.504 OA
ATOM     22  H   UNL     1      52.058  16.521  -5.272  1.00  0.00     0.293 HD
ENDBRANCH  16  21
ENDBRANCH   1  11
BRANCH  10  23
ATOM     23  O   UNL     1      46.927  18.000  -6.125  1.00  0.00    -0.500 OA
ATOM     24  H   UNL     1      47.789  18.489  -5.912  1.00  0.00     0.294 HD
ENDBRANCH  10  23
BRANCH   5  25
ATOM     25  O   UNL     1      41.365  16.149  -1.031  1.00  0.00    -0.507 OA
ATOM     26  H   UNL     1      40.670  15.444  -1.245  1.00  0.00     0.293 HD
ENDBRANCH   5  25
BRANCH   7  27
ATOM     27  O   UNL     1      42.107  19.313  -4.564  1.00  0.00    -0.507 OA
ATOM     28  H   UNL     1      42.056  19.320  -5.572  1.00  0.00     0.293 HD
ENDBRANCH   7  27
TORSDOF 7
ENDMDL
