MODEL 1
REMARK VINA RESULT:    -2.375      0.000      0.000
REMARK INTER + INTRA:          -2.375
REMARK INTER:                  -2.375
REMARK INTRA:                   0.000
REMARK UNBOUND:                 0.000
REMARK SMILES CC(=O)[O-]
REMARK SMILES IDX 1 1 2 2 3 3 4 4
REMARK H PARENT
REMARK Flexibility Score: inf
ROOT
ATOM      1  C   UNL     1      16.702  16.157   7.262  1.00  0.00     0.063 C 
ATOM      2  C   UNL     1      15.887  15.084   7.900  1.00  0.00     0.038 C 
ATOM      3  O   UNL     1      16.083  13.877   7.599  1.00  0.00    -0.550 OA
ATOM      4  O   UNL     1      14.947  15.408   8.870  1.00  0.00    -0.550 OA
ENDROOT
TORSDOF 0
ENDMDL
MODEL 2
REMARK VINA RESULT:    -2.341     13.190     13.430
REMARK INTER + INTRA:          -2.341
REMARK INTER:                  -2.341
REMARK INTRA:                   0.000
REMARK UNBOUND:                 0.000
REMARK SMILES CC(=O)[O-]
REMARK SMILES IDX 1 1 2 2 3 3 4 4
REMARK H PARENT
REMARK Flexibility Score: inf
ROOT
ATOM      1  C   UNL     1      19.379  26.143  12.534  1.00  0.00     0.063 C 
ATOM      2  C   UNL     1      20.669  26.779  12.140  1.00  0.00     0.038 C 
ATOM      3  O   UNL     1      20.699  27.623  11.206  1.00  0.00    -0.550 OA
ATOM      4  O   UNL     1      21.833  26.484  12.840  1.00  0.00    -0.550 OA
ENDROOT
TORSDOF 0
ENDMDL
MODEL 3
REMARK VINA RESULT:    -2.334     13.184     13.528
REMARK INTER + INTRA:          -2.334
REMARK INTER:                  -2.334
REMARK INTRA:                   0.000
REMARK UNBOUND:                 0.000
REMARK SMILES CC(=O)[O-]
REMARK SMILES IDX 1 1 2 2 3 3 4 4
REMARK H PARENT
REMARK Flexibility Score: inf
ROOT
ATOM      1  C   UNL     1      21.766  26.671  12.871  1.00  0.00     0.063 C 
ATOM      2  C   UNL     1      20.524  27.044  12.134  1.00  0.00     0.038 C 
ATOM      3  O   UNL     1      20.598  27.704  11.064  1.00  0.00    -0.550 OA
ATOM      4  O   UNL     1      19.286  26.617  12.596  1.00  0.00    -0.550 OA
ENDROOT
TORSDOF 0
ENDMDL
MODEL 4
REMARK VINA RESULT:    -2.333     13.173     13.431
REMARK INTER + INTRA:          -2.333
REMARK INTER:                  -2.333
REMARK INTRA:                   0.000
REMARK UNBOUND:                 0.000
REMARK SMILES CC(=O)[O-]
REMARK SMILES IDX 1 1 2 2 3 3 4 4
REMARK H PARENT
REMARK Flexibility Score: inf
ROOT
ATOM      1  C   UNL     1      19.270  26.228  12.481  1.00  0.00     0.063 C 
ATOM      2  C   UNL     1      20.574  26.861  12.129  1.00  0.00     0.038 C 
ATOM      3  O   UNL     1      21.616  26.560  12.768  1.00  0.00    -0.550 OA
ATOM      4  O   UNL     1      20.652  27.744  11.059  1.00  0.00    -0.550 OA
ENDROOT
TORSDOF 0
ENDMDL
MODEL 5
REMARK VINA RESULT:    -2.328      5.941      6.521
REMARK INTER + INTRA:          -2.328
REMARK INTER:                  -2.328
REMARK INTRA:                   0.000
REMARK UNBOUND:                 0.000
REMARK SMILES CC(=O)[O-]
REMARK SMILES IDX 1 1 2 2 3 3 4 4
REMARK H PARENT
REMARK Flexibility Score: inf
ROOT
ATOM      1  C   UNL     1      16.158  20.479   7.951  1.00  0.00     0.063 C 
ATOM      2  C   UNL     1      16.556  21.237   9.172  1.00  0.00     0.038 C 
ATOM      3  O   UNL     1      15.984  21.013  10.271  1.00  0.00    -0.550 OA
ATOM      4  O   UNL     1      17.597  22.155   9.112  1.00  0.00    -0.550 OA
ENDROOT
TORSDOF 0
ENDMDL
MODEL 6
REMARK VINA RESULT:    -2.318      1.262      1.807
REMARK INTER + INTRA:          -2.318
REMARK INTER:                  -2.318
REMARK INTRA:                   0.000
REMARK UNBOUND:                 0.000
REMARK SMILES CC(=O)[O-]
REMARK SMILES IDX 1 1 2 2 3 3 4 4
REMARK H PARENT
REMARK Flexibility Score: inf
ROOT
ATOM      1  C   UNL     1      14.925  14.650   9.439  1.00  0.00     0.063 C 
ATOM      2  C   UNL     1      15.647  14.934   8.166  1.00  0.00     0.038 C 
ATOM      3  O   UNL     1      16.113  13.988   7.478  1.00  0.00    -0.550 OA
ATOM      4  O   UNL     1      15.759  16.241   7.707  1.00  0.00    -0.550 OA
ENDROOT
TORSDOF 0
ENDMDL
MODEL 7
REMARK VINA RESULT:    -2.240     10.034     10.571
REMARK INTER + INTRA:          -2.240
REMARK INTER:                  -2.240
REMARK INTRA:                   0.000
REMARK UNBOUND:                 0.000
REMARK SMILES CC(=O)[O-]
REMARK SMILES IDX 1 1 2 2 3 3 4 4
REMARK H PARENT
REMARK Flexibility Score: inf
ROOT
ATOM      1  C   UNL     1      19.117  25.713  11.471  1.00  0.00     0.063 C 
ATOM      2  C   UNL     1      18.851  24.864  10.275  1.00  0.00     0.038 C 
ATOM      3  O   UNL     1      19.313  23.694  10.214  1.00  0.00    -0.550 OA
ATOM      4  O   UNL     1      18.044  25.340   9.249  1.00  0.00    -0.550 OA
ENDROOT
TORSDOF 0
ENDMDL
MODEL 8
REMARK VINA RESULT:    -2.238      8.776      9.238
REMARK INTER + INTRA:          -2.238
REMARK INTER:                  -2.238
REMARK INTRA:                   0.000
REMARK UNBOUND:                 0.000
REMARK SMILES CC(=O)[O-]
REMARK SMILES IDX 1 1 2 2 3 3 4 4
REMARK H PARENT
REMARK Flexibility Score: inf
ROOT
ATOM      1  C   UNL     1      17.545  22.480   9.334  1.00  0.00     0.063 C 
ATOM      2  C   UNL     1      18.351  23.717   9.544  1.00  0.00     0.038 C 
ATOM      3  O   UNL     1      19.450  23.660  10.156  1.00  0.00    -0.550 OA
ATOM      4  O   UNL     1      17.917  24.928   9.018  1.00  0.00    -0.550 OA
ENDROOT
TORSDOF 0
ENDMDL
MODEL 9
REMARK VINA RESULT:    -2.210     11.098     11.619
REMARK INTER + INTRA:          -2.210
REMARK INTER:                  -2.210
REMARK INTRA:                   0.000
REMARK UNBOUND:                 0.000
REMARK SMILES CC(=O)[O-]
REMARK SMILES IDX 1 1 2 2 3 3 4 4
REMARK H PARENT
REMARK Flexibility Score: inf
ROOT
ATOM      1  C   UNL     1      20.343  26.349  12.113  1.00  0.00     0.063 C 
ATOM      2  C   UNL     1      19.160  25.563  11.659  1.00  0.00     0.038 C 
ATOM      3  O   UNL     1      19.304  24.628  10.827  1.00  0.00    -0.550 OA
ATOM      4  O   UNL     1      17.904  25.822  12.193  1.00  0.00    -0.550 OA
ENDROOT
TORSDOF 0
ENDMDL
