MODEL 1
REMARK VINA RESULT:    13.345      0.000      0.000
REMARK INTER + INTRA:          14.538
REMARK INTER:                  14.905
REMARK INTRA:                  -0.367
REMARK UNBOUND:                -0.367
REMARK SMILES CC1(C)CC[C@]2(C(=O)[O-])[C@H](O)C[C@@]3(C)C(=CC[C@H]4[C@]5(C)CC[C@H](O)C(C)(C)[C@@H]5CC[C@]43C)[C@@H]2C1
REMARK SMILES IDX 6 1 5 2 33 3 10 4 4 5 34 6 15 7 12 8 2 9 16 10 13 11 1 12
REMARK SMILES IDX 3 13 17 14 31 15 14 16 18 17 30 18 32 19 19 20 29 21 21 22
REMARK SMILES IDX 20 23 28 24 22 25 25 26 23 27 26 28 27 29 7 30 8 31 9 32
REMARK SMILES IDX 11 33 24 35
REMARK H PARENT 11 34 24 36
REMARK Flexibility Score: inf
ROOT
ATOM      1  C   UNL     1      20.109  -6.824 -13.792  1.00  0.00     0.042 C 
ATOM      2  C   UNL     1      19.973  -6.599 -12.246  1.00  0.00     0.017 C 
ATOM      3  C   UNL     1      18.670  -6.916 -14.442  1.00  0.00     0.030 C 
ATOM      4  C   UNL     1      21.006  -5.685 -14.411  1.00  0.00     0.127 C 
ATOM      5  C   UNL     1      18.793  -7.351 -11.644  1.00  0.00     0.007 C 
ATOM      6  C   UNL     1      17.581  -6.201 -13.595  1.00  0.00     0.015 C 
ATOM      7  C   UNL     1      18.587  -6.439 -15.901  1.00  0.00    -0.063 C 
ATOM      8  C   UNL     1      20.198  -4.648 -15.238  1.00  0.00     0.044 C 
ATOM      9  C   UNL     1      17.433  -6.814 -12.169  1.00  0.00    -0.035 C 
ATOM     10  C   UNL     1      17.632  -6.970 -16.679  1.00  0.00    -0.027 C 
ATOM     11  C   UNL     1      19.402  -5.273 -16.433  1.00  0.00    -0.003 C 
ATOM     12  C   UNL     1      16.399  -7.964 -12.205  1.00  0.00     0.011 C 
ATOM     13  C   UNL     1      16.912  -5.726 -11.209  1.00  0.00     0.011 C 
ATOM     14  C   UNL     1      17.161  -6.366 -17.966  1.00  0.00     0.032 C 
ATOM     15  C   UNL     1      18.414  -4.222 -17.166  1.00  0.00    -0.020 C 
ATOM     16  C   UNL     1      20.444  -5.855 -17.439  1.00  0.00     0.017 C 
ATOM     17  C   UNL     1      17.672  -4.923 -18.378  1.00  0.00     0.006 C 
ATOM     18  C   UNL     1      17.316  -3.721 -16.188  1.00  0.00     0.008 C 
ATOM     19  C   UNL     1      19.253  -3.008 -17.663  1.00  0.00     0.012 C 
ATOM     20  C   UNL     1      16.509  -4.092 -19.120  1.00  0.00    -0.025 C 
ATOM     21  C   UNL     1      16.195  -2.893 -16.831  1.00  0.00     0.005 C 
ATOM     22  C   UNL     1      17.045  -2.914 -20.025  1.00  0.00     0.010 C 
ATOM     23  C   UNL     1      15.830  -5.106 -20.125  1.00  0.00     0.012 C 
ATOM     24  C   UNL     1      15.473  -3.553 -18.053  1.00  0.00     0.003 C 
ATOM     25  C   UNL     1      16.549  -1.483 -19.717  1.00  0.00     0.033 C 
ATOM     26  C   UNL     1      14.379  -2.559 -18.638  1.00  0.00    -0.006 C 
ATOM     27  C   UNL     1      15.056  -1.304 -19.332  1.00  0.00     0.120 C 
ATOM     28  C   UNL     1      13.455  -3.263 -19.681  1.00  0.00     0.014 C 
ATOM     29  C   UNL     1      13.412  -2.139 -17.488  1.00  0.00     0.014 C 
ENDROOT
BRANCH   1  30
ATOM     30  C   UNL     1      20.825  -8.154 -14.040  1.00  0.00     0.051 C 
ATOM     31  O   UNL     1      22.029  -8.299 -13.690  1.00  0.00    -0.549 OA
ATOM     32  O   UNL     1      20.138  -9.257 -14.537  1.00  0.00    -0.549 OA
ENDBRANCH   1  30
BRANCH   4  33
ATOM     33  O   UNL     1      21.820  -5.068 -13.431  1.00  0.00    -0.392 OA
ATOM     34  H   UNL     1      22.665  -4.744 -13.836  1.00  0.00     0.210 HD
ENDBRANCH   4  33
BRANCH  27  35
ATOM     35  O   UNL     1      14.972  -0.157 -18.520  1.00  0.00    -0.393 OA
ATOM     36  H   UNL     1      14.640   0.586 -19.089  1.00  0.00     0.210 HD
ENDBRANCH  27  35
TORSDOF 3
ENDMDL
MODEL 2
REMARK VINA RESULT:    13.682      2.742      4.675
REMARK INTER + INTRA:          14.915
REMARK INTER:                  14.988
REMARK INTRA:                  -0.073
REMARK UNBOUND:                -0.367
REMARK SMILES CC1(C)CC[C@]2(C(=O)[O-])[C@H](O)C[C@@]3(C)C(=CC[C@H]4[C@]5(C)CC[C@H](O)C(C)(C)[C@@H]5CC[C@]43C)[C@@H]2C1
REMARK SMILES IDX 6 1 5 2 33 3 10 4 4 5 34 6 15 7 12 8 2 9 16 10 13 11 1 12
REMARK SMILES IDX 3 13 17 14 31 15 14 16 18 17 30 18 32 19 19 20 29 21 21 22
REMARK SMILES IDX 20 23 28 24 22 25 25 26 23 27 26 28 27 29 7 30 8 31 9 32
REMARK SMILES IDX 11 33 24 35
REMARK H PARENT 11 34 24 36
REMARK Flexibility Score: inf
ROOT
ATOM      1  C   UNL     1      20.266  -9.943 -11.495  1.00  0.00     0.042 C 
ATOM      2  C   UNL     1      21.407  -9.874 -10.423  1.00  0.00     0.017 C 
ATOM      3  C   UNL     1      19.495  -8.563 -11.537  1.00  0.00     0.030 C 
ATOM      4  C   UNL     1      20.877 -10.364 -12.886  1.00  0.00     0.127 C 
ATOM      5  C   UNL     1      21.015  -9.060  -9.197  1.00  0.00     0.007 C 
ATOM      6  C   UNL     1      20.358  -7.377 -11.023  1.00  0.00     0.015 C 
ATOM      7  C   UNL     1      18.883  -8.204 -12.902  1.00  0.00    -0.063 C 
ATOM      8  C   UNL     1      20.945  -9.195 -13.906  1.00  0.00     0.044 C 
ATOM      9  C   UNL     1      20.803  -7.560  -9.540  1.00  0.00    -0.035 C 
ATOM     10  C   UNL     1      17.801  -7.411 -12.912  1.00  0.00    -0.027 C 
ATOM     11  C   UNL     1      19.555  -8.547 -14.220  1.00  0.00    -0.003 C 
ATOM     12  C   UNL     1      19.732  -6.957  -8.600  1.00  0.00     0.011 C 
ATOM     13  C   UNL     1      22.125  -6.797  -9.318  1.00  0.00     0.011 C 
ATOM     14  C   UNL     1      17.319  -6.661 -14.115  1.00  0.00     0.032 C 
ATOM     15  C   UNL     1      19.660  -7.211 -15.127  1.00  0.00    -0.020 C 
ATOM     16  C   UNL     1      18.677  -9.631 -14.921  1.00  0.00     0.017 C 
ATOM     17  C   UNL     1      18.213  -6.637 -15.424  1.00  0.00     0.006 C 
ATOM     18  C   UNL     1      20.448  -6.098 -14.384  1.00  0.00     0.008 C 
ATOM     19  C   UNL     1      20.394  -7.563 -16.455  1.00  0.00     0.012 C 
ATOM     20  C   UNL     1      18.115  -5.207 -16.159  1.00  0.00    -0.025 C 
ATOM     21  C   UNL     1      20.421  -4.718 -15.055  1.00  0.00     0.005 C 
ATOM     22  C   UNL     1      18.499  -5.252 -17.691  1.00  0.00     0.010 C 
ATOM     23  C   UNL     1      16.585  -4.813 -16.131  1.00  0.00     0.012 C 
ATOM     24  C   UNL     1      19.002  -4.148 -15.389  1.00  0.00     0.003 C 
ATOM     25  C   UNL     1      19.655  -4.344 -18.173  1.00  0.00     0.033 C 
ATOM     26  C   UNL     1      19.140  -2.745 -16.123  1.00  0.00    -0.006 C 
ATOM     27  C   UNL     1      19.744  -2.913 -17.579  1.00  0.00     0.120 C 
ATOM     28  C   UNL     1      17.765  -2.014 -16.239  1.00  0.00     0.014 C 
ATOM     29  C   UNL     1      20.006  -1.796 -15.237  1.00  0.00     0.014 C 
ENDROOT
BRANCH   1  30
ATOM     30  C   UNL     1      19.266 -11.030 -11.089  1.00  0.00     0.051 C 
ATOM     31  O   UNL     1      18.401 -11.434 -11.914  1.00  0.00    -0.549 OA
ATOM     32  O   UNL     1      19.367 -11.675  -9.860  1.00  0.00    -0.549 OA
ENDBRANCH   1  30
BRANCH   4  33
ATOM     33  O   UNL     1      22.125 -11.014 -12.735  1.00  0.00    -0.392 OA
ATOM     34  H   UNL     1      22.182 -11.452 -11.846  1.00  0.00     0.210 HD
ENDBRANCH   4  33
BRANCH  27  35
ATOM     35  O   UNL     1      21.099  -2.531 -17.623  1.00  0.00    -0.393 OA
ATOM     36  H   UNL     1      21.588  -3.232 -18.128  1.00  0.00     0.210 HD
ENDBRANCH  27  35
TORSDOF 3
ENDMDL
MODEL 3
REMARK VINA RESULT:    14.078      2.101      7.629
REMARK INTER + INTRA:          15.356
REMARK INTER:                  15.410
REMARK INTRA:                  -0.053
REMARK UNBOUND:                -0.367
REMARK SMILES CC1(C)CC[C@]2(C(=O)[O-])[C@H](O)C[C@@]3(C)C(=CC[C@H]4[C@]5(C)CC[C@H](O)C(C)(C)[C@@H]5CC[C@]43C)[C@@H]2C1
REMARK SMILES IDX 6 1 5 2 33 3 10 4 4 5 34 6 15 7 12 8 2 9 16 10 13 11 1 12
REMARK SMILES IDX 3 13 17 14 31 15 14 16 18 17 30 18 32 19 19 20 29 21 21 22
REMARK SMILES IDX 20 23 28 24 22 25 25 26 23 27 26 28 27 29 7 30 8 31 9 32
REMARK SMILES IDX 11 33 24 35
REMARK H PARENT 11 34 24 36
REMARK Flexibility Score: inf
ROOT
ATOM      1  C   UNL     1      16.765  -4.369 -18.604  1.00  0.00     0.042 C 
ATOM      2  C   UNL     1      15.223  -4.087 -18.594  1.00  0.00     0.017 C 
ATOM      3  C   UNL     1      17.370  -4.056 -17.177  1.00  0.00     0.030 C 
ATOM      4  C   UNL     1      17.025  -5.847 -19.086  1.00  0.00     0.127 C 
ATOM      5  C   UNL     1      14.850  -2.885 -17.736  1.00  0.00     0.007 C 
ATOM      6  C   UNL     1      16.311  -4.148 -16.043  1.00  0.00     0.015 C 
ATOM      7  C   UNL     1      18.605  -4.890 -16.800  1.00  0.00    -0.063 C 
ATOM      8  C   UNL     1      17.466  -6.798 -17.941  1.00  0.00     0.044 C 
ATOM      9  C   UNL     1      15.143  -3.133 -16.231  1.00  0.00    -0.035 C 
ATOM     10  C   UNL     1      19.482  -4.354 -15.938  1.00  0.00    -0.027 C 
ATOM     11  C   UNL     1      18.772  -6.343 -17.208  1.00  0.00    -0.003 C 
ATOM     12  C   UNL     1      15.505  -1.794 -15.545  1.00  0.00     0.011 C 
ATOM     13  C   UNL     1      13.877  -3.696 -15.553  1.00  0.00     0.011 C 
ATOM     14  C   UNL     1      20.503  -5.141 -15.177  1.00  0.00     0.032 C 
ATOM     15  C   UNL     1      19.113  -7.228 -15.896  1.00  0.00    -0.020 C 
ATOM     16  C   UNL     1      19.939  -6.406 -18.242  1.00  0.00     0.017 C 
ATOM     17  C   UNL     1      20.461  -6.724 -15.232  1.00  0.00     0.006 C 
ATOM     18  C   UNL     1      17.997  -7.083 -14.825  1.00  0.00     0.008 C 
ATOM     19  C   UNL     1      19.232  -8.723 -16.316  1.00  0.00     0.012 C 
ATOM     20  C   UNL     1      20.874  -7.360 -13.811  1.00  0.00    -0.025 C 
ATOM     21  C   UNL     1      18.318  -7.700 -13.457  1.00  0.00     0.005 C 
ATOM     22  C   UNL     1      21.384  -8.852 -13.905  1.00  0.00     0.010 C 
ATOM     23  C   UNL     1      22.125  -6.530 -13.316  1.00  0.00     0.012 C 
ATOM     24  C   UNL     1      19.663  -7.243 -12.801  1.00  0.00     0.003 C 
ATOM     25  C   UNL     1      20.632  -9.925 -13.084  1.00  0.00     0.033 C 
ATOM     26  C   UNL     1      19.879  -8.003 -11.421  1.00  0.00    -0.006 C 
ATOM     27  C   UNL     1      20.168  -9.544 -11.652  1.00  0.00     0.120 C 
ATOM     28  C   UNL     1      21.062  -7.394 -10.603  1.00  0.00     0.014 C 
ATOM     29  C   UNL     1      18.628  -7.772 -10.518  1.00  0.00     0.014 C 
ENDROOT
BRANCH   1  30
ATOM     30  C   UNL     1      17.435  -3.435 -19.616  1.00  0.00     0.051 C 
ATOM     31  O   UNL     1      18.565  -3.728 -20.097  1.00  0.00    -0.549 OA
ATOM     32  O   UNL     1      16.767  -2.321 -20.116  1.00  0.00    -0.549 OA
ENDBRANCH   1  30
BRANCH   4  33
ATOM     33  O   UNL     1      15.926  -6.362 -19.815  1.00  0.00    -0.392 OA
ATOM     34  H   UNL     1      15.599  -7.202 -19.401  1.00  0.00     0.210 HD
ENDBRANCH   4  33
BRANCH  27  35
ATOM     35  O   UNL     1      19.037 -10.331 -11.361  1.00  0.00    -0.393 OA
ATOM     36  H   UNL     1      18.826 -10.201 -10.399  1.00  0.00     0.210 HD
ENDBRANCH  27  35
TORSDOF 3
ENDMDL
MODEL 4
REMARK VINA RESULT:    14.281      3.019      8.078
REMARK INTER + INTRA:          15.583
REMARK INTER:                  15.581
REMARK INTRA:                   0.002
REMARK UNBOUND:                -0.367
REMARK SMILES CC1(C)CC[C@]2(C(=O)[O-])[C@H](O)C[C@@]3(C)C(=CC[C@H]4[C@]5(C)CC[C@H](O)C(C)(C)[C@@H]5CC[C@]43C)[C@@H]2C1
REMARK SMILES IDX 6 1 5 2 33 3 10 4 4 5 34 6 15 7 12 8 2 9 16 10 13 11 1 12
REMARK SMILES IDX 3 13 17 14 31 15 14 16 18 17 30 18 32 19 19 20 29 21 21 22
REMARK SMILES IDX 20 23 28 24 22 25 25 26 23 27 26 28 27 29 7 30 8 31 9 32
REMARK SMILES IDX 11 33 24 35
REMARK H PARENT 11 34 24 36
REMARK Flexibility Score: inf
ROOT
ATOM      1  C   UNL     1      20.133  -5.037 -18.194  1.00  0.00     0.042 C 
ATOM      2  C   UNL     1      21.185  -5.410 -19.295  1.00  0.00     0.017 C 
ATOM      3  C   UNL     1      19.494  -6.358 -17.603  1.00  0.00     0.030 C 
ATOM      4  C   UNL     1      20.815  -4.127 -17.102  1.00  0.00     0.127 C 
ATOM      5  C   UNL     1      20.768  -6.619 -20.122  1.00  0.00     0.007 C 
ATOM      6  C   UNL     1      20.415  -7.598 -17.774  1.00  0.00     0.015 C 
ATOM      7  C   UNL     1      19.030  -6.255 -16.141  1.00  0.00    -0.063 C 
ATOM      8  C   UNL     1      21.070  -4.864 -15.760  1.00  0.00     0.044 C 
ATOM      9  C   UNL     1      20.720  -7.917 -19.269  1.00  0.00    -0.035 C 
ATOM     10  C   UNL     1      18.028  -7.054 -15.746  1.00  0.00    -0.027 C 
ATOM     11  C   UNL     1      19.773  -5.439 -15.098  1.00  0.00    -0.003 C 
ATOM     12  C   UNL     1      19.634  -8.866 -19.828  1.00  0.00     0.011 C 
ATOM     13  C   UNL     1      22.082  -8.635 -19.360  1.00  0.00     0.011 C 
ATOM     14  C   UNL     1      17.714  -7.366 -14.316  1.00  0.00     0.032 C 
ATOM     15  C   UNL     1      20.071  -6.370 -13.807  1.00  0.00    -0.020 C 
ATOM     16  C   UNL     1      18.863  -4.230 -14.717  1.00  0.00     0.017 C 
ATOM     17  C   UNL     1      18.710  -6.886 -13.180  1.00  0.00     0.006 C 
ATOM     18  C   UNL     1      20.892  -7.626 -14.208  1.00  0.00     0.008 C 
ATOM     19  C   UNL     1      20.876  -5.539 -12.765  1.00  0.00     0.012 C 
ATOM     20  C   UNL     1      18.800  -7.974 -11.997  1.00  0.00    -0.025 C 
ATOM     21  C   UNL     1      21.043  -8.687 -13.110  1.00  0.00     0.005 C 
ATOM     22  C   UNL     1      19.302  -7.380 -10.622  1.00  0.00     0.010 C 
ATOM     23  C   UNL     1      17.314  -8.439 -11.725  1.00  0.00     0.012 C 
ATOM     24  C   UNL     1      19.713  -9.184 -12.452  1.00  0.00     0.003 C 
ATOM     25  C   UNL     1      20.570  -7.999  -9.988  1.00  0.00     0.033 C 
ATOM     26  C   UNL     1      20.034 -10.236 -11.305  1.00  0.00    -0.006 C 
ATOM     27  C   UNL     1      20.738  -9.539 -10.066  1.00  0.00     0.120 C 
ATOM     28  C   UNL     1      18.744 -10.956 -10.801  1.00  0.00     0.014 C 
ATOM     29  C   UNL     1      20.907 -11.383 -11.903  1.00  0.00     0.014 C 
ENDROOT
BRANCH   1  30
ATOM     30  C   UNL     1      19.011  -4.216 -18.835  1.00  0.00     0.051 C 
ATOM     31  O   UNL     1      18.703  -4.401 -20.046  1.00  0.00    -0.549 OA
ATOM     32  O   UNL     1      18.232  -3.348 -18.075  1.00  0.00    -0.549 OA
ENDBRANCH   1  30
BRANCH   4  33
ATOM     33  O   UNL     1      21.984  -3.501 -17.599  1.00  0.00    -0.392 OA
ATOM     34  H   UNL     1      22.778  -4.074 -17.439  1.00  0.00     0.210 HD
ENDBRANCH   4  33
BRANCH  27  35
ATOM     35  O   UNL     1      22.120  -9.807 -10.040  1.00  0.00    -0.393 OA
ATOM     36  H   UNL     1      22.430  -9.674  -9.106  1.00  0.00     0.210 HD
ENDBRANCH  27  35
TORSDOF 3
ENDMDL
MODEL 5
REMARK VINA RESULT:    14.403      2.026      3.261
REMARK INTER + INTRA:          15.720
REMARK INTER:                  15.741
REMARK INTRA:                  -0.021
REMARK UNBOUND:                -0.367
REMARK SMILES CC1(C)CC[C@]2(C(=O)[O-])[C@H](O)C[C@@]3(C)C(=CC[C@H]4[C@]5(C)CC[C@H](O)C(C)(C)[C@@H]5CC[C@]43C)[C@@H]2C1
REMARK SMILES IDX 6 1 5 2 33 3 10 4 4 5 34 6 15 7 12 8 2 9 16 10 13 11 1 12
REMARK SMILES IDX 3 13 17 14 31 15 14 16 18 17 30 18 32 19 19 20 29 21 21 22
REMARK SMILES IDX 20 23 28 24 22 25 25 26 23 27 26 28 27 29 7 30 8 31 9 32
REMARK SMILES IDX 11 33 24 35
REMARK H PARENT 11 34 24 36
REMARK Flexibility Score: inf
ROOT
ATOM      1  C   UNL     1      18.469  -5.455 -15.893  1.00  0.00     0.042 C 
ATOM      2  C   UNL     1      18.871  -5.490 -14.378  1.00  0.00     0.017 C 
ATOM      3  C   UNL     1      16.898  -5.315 -16.021  1.00  0.00     0.030 C 
ATOM      4  C   UNL     1      19.263  -4.305 -16.622  1.00  0.00     0.127 C 
ATOM      5  C   UNL     1      17.859  -6.233 -13.517  1.00  0.00     0.007 C 
ATOM      6  C   UNL     1      16.249  -4.668 -14.765  1.00  0.00     0.015 C 
ATOM      7  C   UNL     1      16.414  -4.588 -17.286  1.00  0.00    -0.063 C 
ATOM      8  C   UNL     1      18.381  -3.078 -16.977  1.00  0.00     0.044 C 
ATOM      9  C   UNL     1      16.488  -5.503 -13.471  1.00  0.00    -0.035 C 
ATOM     10  C   UNL     1      15.196  -4.896 -17.757  1.00  0.00    -0.027 C 
ATOM     11  C   UNL     1      17.164  -3.420 -17.902  1.00  0.00    -0.003 C 
ATOM     12  C   UNL     1      15.352  -6.540 -13.307  1.00  0.00     0.011 C 
ATOM     13  C   UNL     1      16.458  -4.557 -12.253  1.00  0.00     0.011 C 
ATOM     14  C   UNL     1      14.422  -4.042 -18.712  1.00  0.00     0.032 C 
ATOM     15  C   UNL     1      16.145  -2.180 -18.106  1.00  0.00    -0.020 C 
ATOM     16  C   UNL     1      17.736  -3.904 -19.271  1.00  0.00     0.017 C 
ATOM     17  C   UNL     1      14.963  -2.598 -19.075  1.00  0.00     0.006 C 
ATOM     18  C   UNL     1      15.500  -1.766 -16.754  1.00  0.00     0.008 C 
ATOM     19  C   UNL     1      16.935  -0.972 -18.691  1.00  0.00     0.012 C 
ATOM     20  C   UNL     1      13.747  -1.558 -19.258  1.00  0.00    -0.025 C 
ATOM     21  C   UNL     1      14.355  -0.749 -16.860  1.00  0.00     0.005 C 
ATOM     22  C   UNL     1      14.117  -0.290 -20.125  1.00  0.00     0.010 C 
ATOM     23  C   UNL     1      12.649  -2.324 -20.099  1.00  0.00     0.012 C 
ATOM     24  C   UNL     1      13.195  -1.126 -17.840  1.00  0.00     0.003 C 
ATOM     25  C   UNL     1      13.946   1.103 -19.476  1.00  0.00     0.033 C 
ATOM     26  C   UNL     1      12.116   0.041 -17.879  1.00  0.00    -0.006 C 
ATOM     27  C   UNL     1      12.696   1.336 -18.586  1.00  0.00     0.120 C 
ATOM     28  C   UNL     1      10.818  -0.394 -18.629  1.00  0.00     0.014 C 
ATOM     29  C   UNL     1      11.639   0.335 -16.423  1.00  0.00     0.014 C 
ENDROOT
BRANCH   1  30
ATOM     30  C   UNL     1      18.879  -6.777 -16.547  1.00  0.00     0.051 C 
ATOM     31  O   UNL     1      19.358  -7.709 -15.844  1.00  0.00    -0.549 OA
ATOM     32  O   UNL     1      18.620  -7.023 -17.892  1.00  0.00    -0.549 OA
ENDBRANCH   1  30
BRANCH   4  33
ATOM     33  O   UNL     1      20.426  -3.936 -15.904  1.00  0.00    -0.392 OA
ATOM     34  H   UNL     1      20.357  -4.229 -14.959  1.00  0.00     0.210 HD
ENDBRANCH   4  33
BRANCH  27  35
ATOM     35  O   UNL     1      13.036   2.329 -17.647  1.00  0.00    -0.393 OA
ATOM     36  H   UNL     1      13.630   2.980 -18.106  1.00  0.00     0.210 HD
ENDBRANCH  27  35
TORSDOF 3
ENDMDL
MODEL 6
REMARK VINA RESULT:    15.464      2.646      8.045
REMARK INTER + INTRA:          16.905
REMARK INTER:                  17.194
REMARK INTRA:                  -0.289
REMARK UNBOUND:                -0.367
REMARK SMILES CC1(C)CC[C@]2(C(=O)[O-])[C@H](O)C[C@@]3(C)C(=CC[C@H]4[C@]5(C)CC[C@H](O)C(C)(C)[C@@H]5CC[C@]43C)[C@@H]2C1
REMARK SMILES IDX 6 1 5 2 33 3 10 4 4 5 34 6 15 7 12 8 2 9 16 10 13 11 1 12
REMARK SMILES IDX 3 13 17 14 31 15 14 16 18 17 30 18 32 19 19 20 29 21 21 22
REMARK SMILES IDX 20 23 28 24 22 25 25 26 23 27 26 28 27 29 7 30 8 31 9 32
REMARK SMILES IDX 11 33 24 35
REMARK H PARENT 11 34 24 36
REMARK Flexibility Score: inf
ROOT
ATOM      1  C   UNL     1      17.615  -3.861 -16.799  1.00  0.00     0.042 C 
ATOM      2  C   UNL     1      17.880  -2.332 -16.578  1.00  0.00     0.017 C 
ATOM      3  C   UNL     1      18.921  -4.681 -16.449  1.00  0.00     0.030 C 
ATOM      4  C   UNL     1      16.354  -4.302 -15.962  1.00  0.00     0.127 C 
ATOM      5  C   UNL     1      19.295  -1.918 -16.961  1.00  0.00     0.007 C 
ATOM      6  C   UNL     1      19.857  -3.927 -15.463  1.00  0.00     0.015 C 
ATOM      7  C   UNL     1      18.672  -6.109 -15.936  1.00  0.00    -0.063 C 
ATOM      8  C   UNL     1      16.711  -5.156 -14.716  1.00  0.00     0.044 C 
ATOM      9  C   UNL     1      20.360  -2.568 -16.036  1.00  0.00    -0.035 C 
ATOM     10  C   UNL     1      19.630  -7.024 -16.145  1.00  0.00    -0.027 C 
ATOM     11  C   UNL     1      17.491  -6.471 -15.052  1.00  0.00    -0.003 C 
ATOM     12  C   UNL     1      21.669  -2.793 -16.829  1.00  0.00     0.011 C 
ATOM     13  C   UNL     1      20.664  -1.613 -14.863  1.00  0.00     0.011 C 
ATOM     14  C   UNL     1      19.734  -8.319 -15.401  1.00  0.00     0.032 C 
ATOM     15  C   UNL     1      18.029  -7.252 -13.740  1.00  0.00    -0.020 C 
ATOM     16  C   UNL     1      16.541  -7.380 -15.893  1.00  0.00     0.017 C 
ATOM     17  C   UNL     1      18.778  -8.582 -14.164  1.00  0.00     0.006 C 
ATOM     18  C   UNL     1      19.052  -6.382 -12.959  1.00  0.00     0.008 C 
ATOM     19  C   UNL     1      16.817  -7.574 -12.817  1.00  0.00     0.012 C 
ATOM     20  C   UNL     1      19.543  -9.405 -13.011  1.00  0.00    -0.025 C 
ATOM     21  C   UNL     1      19.791  -7.103 -11.823  1.00  0.00     0.005 C 
ATOM     22  C   UNL     1      18.575 -10.170 -12.025  1.00  0.00     0.010 C 
ATOM     23  C   UNL     1      20.350 -10.542 -13.758  1.00  0.00     0.012 C 
ATOM     24  C   UNL     1      20.507  -8.438 -12.214  1.00  0.00     0.003 C 
ATOM     25  C   UNL     1      18.671  -9.838 -10.517  1.00  0.00     0.033 C 
ATOM     26  C   UNL     1      21.180  -9.089 -10.929  1.00  0.00    -0.006 C 
ATOM     27  C   UNL     1      20.084  -9.623  -9.915  1.00  0.00     0.120 C 
ATOM     28  C   UNL     1      22.125 -10.273 -11.306  1.00  0.00     0.014 C 
ATOM     29  C   UNL     1      22.125  -8.038 -10.267  1.00  0.00     0.014 C 
ENDROOT
BRANCH   1  30
ATOM     30  C   UNL     1      17.289  -4.101 -18.276  1.00  0.00     0.051 C 
ATOM     31  O   UNL     1      18.004  -4.882 -18.963  1.00  0.00    -0.549 OA
ATOM     32  O   UNL     1      16.140  -3.569 -18.853  1.00  0.00    -0.549 OA
ENDBRANCH   1  30
BRANCH   4  33
ATOM     33  O   UNL     1      15.531  -3.198 -15.635  1.00  0.00    -0.392 OA
ATOM     34  H   UNL     1      15.604  -2.985 -14.669  1.00  0.00     0.210 HD
ENDBRANCH   4  33
BRANCH  27  35
ATOM     35  O   UNL     1      19.937  -8.760  -8.812  1.00  0.00    -0.393 OA
ATOM     36  H   UNL     1      19.129  -9.051  -8.314  1.00  0.00     0.210 HD
ENDBRANCH  27  35
TORSDOF 3
ENDMDL
