MODEL 1
REMARK VINA RESULT:    59.065      0.000      0.000
REMARK INTER + INTRA:          81.057
REMARK INTER:                  81.510
REMARK INTRA:                  -0.452
REMARK UNBOUND:                -0.452
REMARK SMILES O=C([O-])[C@H]1O[C@H](Oc2cc3oc(-c4ccccc4)cc(=O)c3c(O)c2O)[C@@H](O)[C@@H](O)[C@@H]1O
REMARK SMILES IDX 7 1 6 2 4 3 31 4 5 5 29 6 27 7 2 8 1 9 3 10 32 11 30 13
REMARK SMILES IDX 28 15 8 17 25 18 9 19 23 20 10 21 22 22 11 23 20 24 12 25
REMARK SMILES IDX 19 26 21 27 26 28 24 30 13 32 14 33 18 34 15 35 17 36 16 37
REMARK H PARENT 32 12 30 14 28 16 26 29 24 31
REMARK Flexibility Score: inf
ROOT
ATOM      1  O   UNL     1      12.341  74.730   5.163  1.00  0.00    -0.458 OA
ENDROOT
BRANCH   1   2
ATOM      2  C   UNL     1      11.381  75.868   4.998  1.00  0.00     0.339 C 
ATOM      3  C   UNL     1      11.408  77.025   2.926  1.00  0.00     0.199 C 
ATOM      4  C   UNL     1      10.112  77.903   3.055  1.00  0.00     0.180 C 
ATOM      5  O   UNL     1      12.020  76.912   4.241  1.00  0.00    -0.328 OA
ATOM      6  C   UNL     1       9.259  77.106   4.174  1.00  0.00     0.181 C 
ATOM      7  C   UNL     1       9.830  75.630   4.632  1.00  0.00     0.214 C 
BRANCH   3   8
ATOM      8  C   UNL     1      12.307  76.494   1.742  1.00  0.00     0.073 C 
ATOM      9  O   UNL     1      11.801  75.516   1.037  1.00  0.00    -0.547 OA
ATOM     10  O   UNL     1      11.849  75.465   0.851  1.00  0.00    -0.547 OA
ENDBRANCH   3   8
BRANCH   4  11
ATOM     11  O   UNL     1       9.462  78.204   1.813  1.00  0.00    -0.387 OA
ATOM     12  H   UNL     1       9.806  77.559   1.091  1.00  0.00     0.211 HD
ENDBRANCH   4  11
BRANCH   6  13
ATOM     13  O   UNL     1       8.860  77.912   5.221  1.00  0.00    -0.387 OA
ATOM     14  H   UNL     1       8.101  78.470   4.841  1.00  0.00     0.211 HD
ENDBRANCH   6  13
BRANCH   7  15
ATOM     15  O   UNL     1       9.221  74.986   5.723  1.00  0.00    -0.384 OA
ATOM     16  H   UNL     1       8.865  74.149   5.264  1.00  0.00     0.211 HD
ENDBRANCH   7  15
ENDBRANCH   1   2
BRANCH   1  17
ATOM     17  C   UNL     1      12.194  73.559   5.993  1.00  0.00     0.172 A 
ATOM     18  C   UNL     1      13.299  72.820   6.542  1.00  0.00     0.201 A 
ATOM     19  C   UNL     1      10.990  72.822   5.882  1.00  0.00     0.098 A 
ATOM     20  C   UNL     1      13.237  71.418   6.539  1.00  0.00     0.176 A 
ATOM     21  C   UNL     1      11.090  71.511   5.428  1.00  0.00     0.146 A 
ATOM     22  C   UNL     1      12.225  70.778   5.790  1.00  0.00     0.111 A 
ATOM     23  O   UNL     1      10.200  71.070   4.546  1.00  0.00    -0.456 OA
ATOM     24  C   UNL     1      12.386  69.510   5.169  1.00  0.00     0.197 A 
ATOM     25  C   UNL     1      10.369  69.901   3.871  1.00  0.00     0.138 A 
ATOM     26  C   UNL     1      11.494  69.073   4.207  1.00  0.00     0.100 A 
ATOM     27  O   UNL     1      13.409  68.854   5.418  1.00  0.00    -0.289 OA
BRANCH  18  28
ATOM     28  O   UNL     1      14.360  73.362   7.324  1.00  0.00    -0.502 OA
ATOM     29  H   UNL     1      14.550  74.347   7.675  1.00  0.00     0.293 HD
ENDBRANCH  18  28
BRANCH  20  30
ATOM     30  O   UNL     1      14.218  70.685   7.186  1.00  0.00    -0.504 OA
ATOM     31  H   UNL     1      15.025  71.126   7.777  1.00  0.00     0.293 HD
ENDBRANCH  20  30
BRANCH  25  32
ATOM     32  C   UNL     1       9.596  69.603   2.698  1.00  0.00     0.017 A 
ATOM     33  C   UNL     1       9.169  70.651   1.881  1.00  0.00     0.012 A 
ATOM     34  C   UNL     1       9.624  68.299   2.197  1.00  0.00     0.012 A 
ATOM     35  C   UNL     1       8.786  70.415   0.562  1.00  0.00     0.001 A 
ATOM     36  C   UNL     1       9.389  68.078   0.841  1.00  0.00     0.001 A 
ATOM     37  C   UNL     1       9.018  69.154   0.012  1.00  0.00     0.000 A 
ENDBRANCH  25  32
ENDBRANCH   1  17
TORSDOF 9
ENDMDL
MODEL 2
REMARK VINA RESULT:    59.821      1.933      6.964
REMARK INTER + INTRA:          82.100
REMARK INTER:                  82.806
REMARK INTRA:                  -0.705
REMARK UNBOUND:                -0.452
REMARK SMILES O=C([O-])[C@H]1O[C@H](Oc2cc3oc(-c4ccccc4)cc(=O)c3c(O)c2O)[C@@H](O)[C@@H](O)[C@@H]1O
REMARK SMILES IDX 7 1 6 2 4 3 31 4 5 5 29 6 27 7 2 8 1 9 3 10 32 11 30 13
REMARK SMILES IDX 28 15 8 17 25 18 9 19 23 20 10 21 22 22 11 23 20 24 12 25
REMARK SMILES IDX 19 26 21 27 26 28 24 30 13 32 14 33 18 34 15 35 17 36 16 37
REMARK H PARENT 32 12 30 14 28 16 26 29 24 31
REMARK Flexibility Score: inf
ROOT
ATOM      1  O   UNL     1       9.478  73.261   5.751  1.00  0.00    -0.458 OA
ENDROOT
BRANCH   1   2
ATOM      2  C   UNL     1       9.992  72.120   4.928  1.00  0.00     0.339 C 
ATOM      3  C   UNL     1      12.000  71.076   5.645  1.00  0.00     0.199 C 
ATOM      4  C   UNL     1      12.024  69.805   4.723  1.00  0.00     0.180 C 
ATOM      5  O   UNL     1      11.429  72.181   4.891  1.00  0.00    -0.328 OA
ATOM      6  C   UNL     1      10.472  69.652   4.296  1.00  0.00     0.181 C 
ATOM      7  C   UNL     1       9.390  70.631   5.063  1.00  0.00     0.214 C 
BRANCH   3   8
ATOM      8  C   UNL     1      12.655  71.495   7.019  1.00  0.00     0.073 C 
ATOM      9  O   UNL     1      13.904  71.877   6.961  1.00  0.00    -0.547 OA
ATOM     10  O   UNL     1      14.000  71.992   7.091  1.00  0.00    -0.547 OA
ENDBRANCH   3   8
BRANCH   4  11
ATOM     11  O   UNL     1      12.672  68.659   5.293  1.00  0.00    -0.387 OA
ATOM     12  H   UNL     1      12.791  67.946   4.563  1.00  0.00     0.211 HD
ENDBRANCH   4  11
BRANCH   6  13
ATOM     13  O   UNL     1      10.296  69.571   2.929  1.00  0.00    -0.387 OA
ATOM     14  H   UNL     1      11.198  69.823   2.538  1.00  0.00     0.211 HD
ENDBRANCH   6  13
BRANCH   7  15
ATOM     15  O   UNL     1       8.064  70.656   4.597  1.00  0.00    -0.384 OA
ATOM     16  H   UNL     1       7.786  71.591   4.895  1.00  0.00     0.211 HD
ENDBRANCH   7  15
ENDBRANCH   1   2
BRANCH   1  17
ATOM     17  C   UNL     1       9.934  74.631   5.749  1.00  0.00     0.172 A 
ATOM     18  C   UNL     1       9.061  75.766   5.886  1.00  0.00     0.201 A 
ATOM     19  C   UNL     1      11.171  74.911   5.121  1.00  0.00     0.098 A 
ATOM     20  C   UNL     1       9.293  76.892   5.081  1.00  0.00     0.176 A 
ATOM     21  C   UNL     1      11.143  75.755   4.015  1.00  0.00     0.146 A 
ATOM     22  C   UNL     1      10.203  76.790   4.006  1.00  0.00     0.111 A 
ATOM     23  O   UNL     1      11.883  75.446   2.956  1.00  0.00    -0.456 OA
ATOM     24  C   UNL     1      10.076  77.522   2.793  1.00  0.00     0.197 A 
ATOM     25  C   UNL     1      11.726  76.069   1.757  1.00  0.00     0.138 A 
ATOM     26  C   UNL     1      10.802  77.166   1.672  1.00  0.00     0.100 A 
ATOM     27  O   UNL     1       9.213  78.410   2.725  1.00  0.00    -0.289 OA
BRANCH  18  28
ATOM     28  O   UNL     1       8.122  75.975   6.938  1.00  0.00    -0.502 OA
ATOM     29  H   UNL     1       8.202  76.479   7.869  1.00  0.00     0.293 HD
ENDBRANCH  18  28
BRANCH  20  30
ATOM     30  O   UNL     1       8.560  78.049   5.290  1.00  0.00    -0.504 OA
ATOM     31  H   UNL     1       7.521  78.182   4.982  1.00  0.00     0.293 HD
ENDBRANCH  20  30
BRANCH  25  32
ATOM     32  C   UNL     1      12.276  75.511   0.554  1.00  0.00     0.017 A 
ATOM     33  C   UNL     1      11.702  74.359   0.013  1.00  0.00     0.012 A 
ATOM     34  C   UNL     1      13.088  76.322  -0.243  1.00  0.00     0.012 A 
ATOM     35  C   UNL     1      11.914  74.017  -1.321  1.00  0.00     0.001 A 
ATOM     36  C   UNL     1      13.181  76.070  -1.611  1.00  0.00     0.001 A 
ATOM     37  C   UNL     1      12.546  74.937  -2.157  1.00  0.00     0.000 A 
ENDBRANCH  25  32
ENDBRANCH   1  17
TORSDOF 9
ENDMDL
MODEL 3
REMARK VINA RESULT:    59.932      2.137      7.724
REMARK INTER + INTRA:          82.253
REMARK INTER:                  83.604
REMARK INTRA:                  -1.352
REMARK UNBOUND:                -0.452
REMARK SMILES O=C([O-])[C@H]1O[C@H](Oc2cc3oc(-c4ccccc4)cc(=O)c3c(O)c2O)[C@@H](O)[C@@H](O)[C@@H]1O
REMARK SMILES IDX 7 1 6 2 4 3 31 4 5 5 29 6 27 7 2 8 1 9 3 10 32 11 30 13
REMARK SMILES IDX 28 15 8 17 25 18 9 19 23 20 10 21 22 22 11 23 20 24 12 25
REMARK SMILES IDX 19 26 21 27 26 28 24 30 13 32 14 33 18 34 15 35 17 36 16 37
REMARK H PARENT 32 12 30 14 28 16 26 29 24 31
REMARK Flexibility Score: inf
ROOT
ATOM      1  O   UNL     1      11.176  73.062   4.608  1.00  0.00    -0.458 OA
ENDROOT
BRANCH   1   2
ATOM      2  C   UNL     1      10.654  71.707   4.972  1.00  0.00     0.339 C 
ATOM      3  C   UNL     1       9.425  70.531   3.316  1.00  0.00     0.199 C 
ATOM      4  C   UNL     1       9.323  69.107   3.970  1.00  0.00     0.180 C 
ATOM      5  O   UNL     1       9.358  71.529   4.373  1.00  0.00    -0.328 OA
ATOM      6  C   UNL     1      10.552  69.117   5.022  1.00  0.00     0.181 C 
ATOM      7  C   UNL     1      11.590  70.394   4.940  1.00  0.00     0.214 C 
BRANCH   3   8
ATOM      8  C   UNL     1       9.312  71.121   1.856  1.00  0.00     0.073 C 
ATOM      9  O   UNL     1       9.413  70.256   0.882  1.00  0.00    -0.547 OA
ATOM     10  O   UNL     1       9.345  70.275   0.697  1.00  0.00    -0.547 OA
ENDBRANCH   3   8
BRANCH   4  11
ATOM     11  O   UNL     1       9.256  68.019   3.038  1.00  0.00    -0.387 OA
ATOM     12  H   UNL     1       9.381  67.136   3.547  1.00  0.00     0.211 HD
ENDBRANCH   4  11
BRANCH   6  13
ATOM     13  O   UNL     1      10.166  68.778   6.302  1.00  0.00    -0.387 OA
ATOM     14  H   UNL     1       9.923  67.794   6.246  1.00  0.00     0.211 HD
ENDBRANCH   6  13
BRANCH   7  15
ATOM     15  O   UNL     1      12.562  70.532   5.947  1.00  0.00    -0.384 OA
ATOM     16  H   UNL     1      12.136  69.974   6.686  1.00  0.00     0.211 HD
ENDBRANCH   7  15
ENDBRANCH   1   2
BRANCH   1  17
ATOM     17  C   UNL     1      10.864  74.328   5.228  1.00  0.00     0.172 A 
ATOM     18  C   UNL     1       9.529  74.752   5.557  1.00  0.00     0.201 A 
ATOM     19  C   UNL     1      11.797  75.381   5.077  1.00  0.00     0.098 A 
ATOM     20  C   UNL     1       9.171  76.087   5.312  1.00  0.00     0.176 A 
ATOM     21  C   UNL     1      11.368  76.515   4.394  1.00  0.00     0.146 A 
ATOM     22  C   UNL     1      10.030  76.897   4.538  1.00  0.00     0.111 A 
ATOM     23  O   UNL     1      12.187  77.081   3.515  1.00  0.00    -0.456 OA
ATOM     24  C   UNL     1       9.576  77.947   3.694  1.00  0.00     0.197 A 
ATOM     25  C   UNL     1      11.762  78.027   2.635  1.00  0.00     0.138 A 
ATOM     26  C   UNL     1      10.409  78.498   2.738  1.00  0.00     0.100 A 
ATOM     27  O   UNL     1       8.382  78.277   3.749  1.00  0.00    -0.289 OA
BRANCH  18  28
ATOM     28  O   UNL     1       8.591  74.023   6.343  1.00  0.00    -0.502 OA
ATOM     29  H   UNL     1       7.534  74.088   6.425  1.00  0.00     0.293 HD
ENDBRANCH  18  28
BRANCH  20  30
ATOM     30  O   UNL     1       7.943  76.560   5.748  1.00  0.00    -0.504 OA
ATOM     31  H   UNL     1       7.621  77.600   5.666  1.00  0.00     0.293 HD
ENDBRANCH  20  30
BRANCH  25  32
ATOM     32  C   UNL     1      12.550  78.380   1.488  1.00  0.00     0.017 A 
ATOM     33  C   UNL     1      12.592  77.509   0.397  1.00  0.00     0.012 A 
ATOM     34  C   UNL     1      12.924  79.716   1.324  1.00  0.00     0.012 A 
ATOM     35  C   UNL     1      12.985  77.962  -0.861  1.00  0.00     0.001 A 
ATOM     36  C   UNL     1      13.171  80.209   0.044  1.00  0.00     0.001 A 
ATOM     37  C   UNL     1      13.150  79.333  -1.058  1.00  0.00     0.000 A 
ENDBRANCH  25  32
ENDBRANCH   1  17
TORSDOF 9
ENDMDL
MODEL 4
REMARK VINA RESULT:    60.161      2.914      8.060
REMARK INTER + INTRA:          82.568
REMARK INTER:                  83.984
REMARK INTRA:                  -1.416
REMARK UNBOUND:                -0.452
REMARK SMILES O=C([O-])[C@H]1O[C@H](Oc2cc3oc(-c4ccccc4)cc(=O)c3c(O)c2O)[C@@H](O)[C@@H](O)[C@@H]1O
REMARK SMILES IDX 7 1 6 2 4 3 31 4 5 5 29 6 27 7 2 8 1 9 3 10 32 11 30 13
REMARK SMILES IDX 28 15 8 17 25 18 9 19 23 20 10 21 22 22 11 23 20 24 12 25
REMARK SMILES IDX 19 26 21 27 26 28 24 30 13 32 14 33 18 34 15 35 17 36 16 37
REMARK H PARENT 32 12 30 14 28 16 26 29 24 31
REMARK Flexibility Score: inf
ROOT
ATOM      1  O   UNL     1       9.012  70.520   1.324  1.00  0.00    -0.458 OA
ENDROOT
BRANCH   1   2
ATOM      2  C   UNL     1       9.746  70.330   2.615  1.00  0.00     0.339 C 
ATOM      3  C   UNL     1       8.510  69.487   4.458  1.00  0.00     0.199 C 
ATOM      4  C   UNL     1       9.664  69.172   5.476  1.00  0.00     0.180 C 
ATOM      5  O   UNL     1       8.873  70.678   3.704  1.00  0.00    -0.328 OA
ATOM      6  C   UNL     1      10.955  69.040   4.511  1.00  0.00     0.181 C 
ATOM      7  C   UNL     1      10.673  69.039   2.888  1.00  0.00     0.214 C 
BRANCH   3   8
ATOM      8  C   UNL     1       7.017  69.018   4.253  1.00  0.00     0.073 C 
ATOM      9  O   UNL     1       6.788  67.746   4.444  1.00  0.00    -0.547 OA
ATOM     10  O   UNL     1       6.614  67.661   4.488  1.00  0.00    -0.547 OA
ENDBRANCH   3   8
BRANCH   4  11
ATOM     11  O   UNL     1       9.394  68.089   6.376  1.00  0.00    -0.387 OA
ATOM     12  H   UNL     1       8.812  68.435   7.149  1.00  0.00     0.211 HD
ENDBRANCH   4  11
BRANCH   6  13
ATOM     13  O   UNL     1      12.005  69.844   4.906  1.00  0.00    -0.387 OA
ATOM     14  H   UNL     1      12.179  69.584   5.872  1.00  0.00     0.211 HD
ENDBRANCH   6  13
BRANCH   7  15
ATOM     15  O   UNL     1      11.775  69.105   2.017  1.00  0.00    -0.384 OA
ATOM     16  H   UNL     1      12.539  69.092   2.692  1.00  0.00     0.211 HD
ENDBRANCH   7  15
ENDBRANCH   1   2
BRANCH   1  17
ATOM     17  C   UNL     1       9.373  71.373   0.217  1.00  0.00     0.172 A 
ATOM     18  C   UNL     1      10.511  71.145  -0.633  1.00  0.00     0.201 A 
ATOM     19  C   UNL     1       8.915  72.712   0.242  1.00  0.00     0.098 A 
ATOM     20  C   UNL     1      11.290  72.247  -1.021  1.00  0.00     0.176 A 
ATOM     21  C   UNL     1       9.881  73.712   0.292  1.00  0.00     0.146 A 
ATOM     22  C   UNL     1      11.087  73.489  -0.381  1.00  0.00     0.111 A 
ATOM     23  O   UNL     1       9.690  74.746   1.102  1.00  0.00    -0.456 OA
ATOM     24  C   UNL     1      12.119  74.443  -0.165  1.00  0.00     0.197 A 
ATOM     25  C   UNL     1      10.683  75.628   1.396  1.00  0.00     0.138 A 
ATOM     26  C   UNL     1      11.944  75.488   0.722  1.00  0.00     0.100 A 
ATOM     27  O   UNL     1      13.223  74.251  -0.696  1.00  0.00    -0.289 OA
BRANCH  18  28
ATOM     28  O   UNL     1      10.800  69.941  -1.337  1.00  0.00    -0.502 OA
ATOM     29  H   UNL     1      11.475  69.728  -2.129  1.00  0.00     0.293 HD
ENDBRANCH  18  28
BRANCH  20  30
ATOM     30  O   UNL     1      12.304  72.078  -1.949  1.00  0.00    -0.504 OA
ATOM     31  H   UNL     1      12.147  71.742  -2.976  1.00  0.00     0.293 HD
ENDBRANCH  20  30
BRANCH  25  32
ATOM     32  C   UNL     1      10.571  76.525   2.512  1.00  0.00     0.017 A 
ATOM     33  C   UNL     1       9.357  76.616   3.194  1.00  0.00     0.012 A 
ATOM     34  C   UNL     1      11.745  76.977   3.121  1.00  0.00     0.012 A 
ATOM     35  C   UNL     1       9.302  77.135   4.486  1.00  0.00     0.001 A 
ATOM     36  C   UNL     1      11.722  77.355   4.463  1.00  0.00     0.001 A 
ATOM     37  C   UNL     1      10.499  77.383   5.159  1.00  0.00     0.000 A 
ENDBRANCH  25  32
ENDBRANCH   1  17
TORSDOF 9
ENDMDL
MODEL 5
REMARK VINA RESULT:    61.225      1.862      7.040
REMARK INTER + INTRA:          84.037
REMARK INTER:                  84.392
REMARK INTRA:                  -0.355
REMARK UNBOUND:                -0.452
REMARK SMILES O=C([O-])[C@H]1O[C@H](Oc2cc3oc(-c4ccccc4)cc(=O)c3c(O)c2O)[C@@H](O)[C@@H](O)[C@@H]1O
REMARK SMILES IDX 7 1 6 2 4 3 31 4 5 5 29 6 27 7 2 8 1 9 3 10 32 11 30 13
REMARK SMILES IDX 28 15 8 17 25 18 9 19 23 20 10 21 22 22 11 23 20 24 12 25
REMARK SMILES IDX 19 26 21 27 26 28 24 30 13 32 14 33 18 34 15 35 17 36 16 37
REMARK H PARENT 32 12 30 14 28 16 26 29 24 31
REMARK Flexibility Score: inf
ROOT
ATOM      1  O   UNL     1       9.550  73.502   5.593  1.00  0.00    -0.458 OA
ENDROOT
BRANCH   1   2
ATOM      2  C   UNL     1      10.418  72.303   5.821  1.00  0.00     0.339 C 
ATOM      3  C   UNL     1      10.052  70.414   4.430  1.00  0.00     0.199 C 
ATOM      4  C   UNL     1      11.304  69.535   4.782  1.00  0.00     0.180 C 
ATOM      5  O   UNL     1       9.629  71.114   5.634  1.00  0.00    -0.328 OA
ATOM      6  C   UNL     1      12.342  70.624   5.375  1.00  0.00     0.181 C 
ATOM      7  C   UNL     1      11.916  72.210   5.234  1.00  0.00     0.214 C 
BRANCH   3   8
ATOM      8  C   UNL     1       9.031  70.509   3.230  1.00  0.00     0.073 C 
ATOM      9  O   UNL     1       9.421  69.967   2.106  1.00  0.00    -0.547 OA
ATOM     10  O   UNL     1       9.306  69.904   1.957  1.00  0.00    -0.547 OA
ENDBRANCH   3   8
BRANCH   4  11
ATOM     11  O   UNL     1      11.765  68.690   3.718  1.00  0.00    -0.387 OA
ATOM     12  H   UNL     1      11.081  67.939   3.568  1.00  0.00     0.211 HD
ENDBRANCH   4  11
BRANCH   6  13
ATOM     13  O   UNL     1      12.835  70.276   6.616  1.00  0.00    -0.387 OA
ATOM     14  H   UNL     1      12.229  70.753   7.277  1.00  0.00     0.211 HD
ENDBRANCH   6  13
BRANCH   7  15
ATOM     15  O   UNL     1      12.700  73.174   5.892  1.00  0.00    -0.384 OA
ATOM     16  H   UNL     1      12.119  73.349   6.712  1.00  0.00     0.211 HD
ENDBRANCH   7  15
ENDBRANCH   1   2
BRANCH   1  17
ATOM     17  C   UNL     1       9.938  74.892   5.607  1.00  0.00     0.172 A 
ATOM     18  C   UNL     1       9.006  75.984   5.704  1.00  0.00     0.201 A 
ATOM     19  C   UNL     1      11.186  75.232   5.032  1.00  0.00     0.098 A 
ATOM     20  C   UNL     1       9.218  77.120   4.906  1.00  0.00     0.176 A 
ATOM     21  C   UNL     1      11.165  76.073   3.923  1.00  0.00     0.146 A 
ATOM     22  C   UNL     1      10.177  77.062   3.872  1.00  0.00     0.111 A 
ATOM     23  O   UNL     1      11.964  75.800   2.898  1.00  0.00    -0.456 OA
ATOM     24  C   UNL     1      10.068  77.785   2.653  1.00  0.00     0.197 A 
ATOM     25  C   UNL     1      11.829  76.413   1.692  1.00  0.00     0.138 A 
ATOM     26  C   UNL     1      10.857  77.464   1.565  1.00  0.00     0.100 A 
ATOM     27  O   UNL     1       9.167  78.630   2.545  1.00  0.00    -0.289 OA
BRANCH  18  28
ATOM     28  O   UNL     1       8.014  76.149   6.714  1.00  0.00    -0.502 OA
ATOM     29  H   UNL     1       7.765  75.563   7.564  1.00  0.00     0.293 HD
ENDBRANCH  18  28
BRANCH  20  30
ATOM     30  O   UNL     1       8.422  78.240   5.081  1.00  0.00    -0.504 OA
ATOM     31  H   UNL     1       8.490  79.143   4.471  1.00  0.00     0.293 HD
ENDBRANCH  20  30
BRANCH  25  32
ATOM     32  C   UNL     1      12.456  75.883   0.515  1.00  0.00     0.017 A 
ATOM     33  C   UNL     1      12.071  74.625   0.047  1.00  0.00     0.012 A 
ATOM     34  C   UNL     1      13.127  76.765  -0.336  1.00  0.00     0.012 A 
ATOM     35  C   UNL     1      12.330  74.245  -1.269  1.00  0.00     0.001 A 
ATOM     36  C   UNL     1      13.254  76.453  -1.689  1.00  0.00     0.001 A 
ATOM     37  C   UNL     1      12.805  75.205  -2.162  1.00  0.00     0.000 A 
ENDBRANCH  25  32
ENDBRANCH   1  17
TORSDOF 9
ENDMDL
MODEL 6
REMARK VINA RESULT:    61.291      4.284      8.734
REMARK INTER + INTRA:          84.129
REMARK INTER:                  85.096
REMARK INTRA:                  -0.967
REMARK UNBOUND:                -0.452
REMARK SMILES O=C([O-])[C@H]1O[C@H](Oc2cc3oc(-c4ccccc4)cc(=O)c3c(O)c2O)[C@@H](O)[C@@H](O)[C@@H]1O
REMARK SMILES IDX 7 1 6 2 4 3 31 4 5 5 29 6 27 7 2 8 1 9 3 10 32 11 30 13
REMARK SMILES IDX 28 15 8 17 25 18 9 19 23 20 10 21 22 22 11 23 20 24 12 25
REMARK SMILES IDX 19 26 21 27 26 28 24 30 13 32 14 33 18 34 15 35 17 36 16 37
REMARK H PARENT 32 12 30 14 28 16 26 29 24 31
REMARK Flexibility Score: inf
ROOT
ATOM      1  O   UNL     1       8.860  67.929   7.225  1.00  0.00    -0.458 OA
ENDROOT
BRANCH   1   2
ATOM      2  C   UNL     1       8.905  66.436   7.124  1.00  0.00     0.339 C 
ATOM      3  C   UNL     1      10.155  65.269   8.771  1.00  0.00     0.199 C 
ATOM      4  C   UNL     1       9.717  63.788   8.487  1.00  0.00     0.180 C 
ATOM      5  O   UNL     1      10.216  65.981   7.503  1.00  0.00    -0.328 OA
ATOM      6  C   UNL     1       8.313  63.980   7.708  1.00  0.00     0.181 C 
ATOM      7  C   UNL     1       7.697  65.508   7.653  1.00  0.00     0.214 C 
BRANCH   3   8
ATOM      8  C   UNL     1      10.774  66.057   9.990  1.00  0.00     0.073 C 
ATOM      9  O   UNL     1      12.080  66.110  10.031  1.00  0.00    -0.547 OA
ATOM     10  O   UNL     1      12.191  66.244  10.125  1.00  0.00    -0.547 OA
ENDBRANCH   3   8
BRANCH   4  11
ATOM     11  O   UNL     1       9.727  62.926   9.634  1.00  0.00    -0.387 OA
ATOM     12  H   UNL     1       9.137  62.108   9.442  1.00  0.00     0.211 HD
ENDBRANCH   4  11
BRANCH   6  13
ATOM     13  O   UNL     1       8.268  63.306   6.505  1.00  0.00    -0.387 OA
ATOM     14  H   UNL     1       8.965  63.765   5.926  1.00  0.00     0.211 HD
ENDBRANCH   6  13
BRANCH   7  15
ATOM     15  O   UNL     1       6.577  65.749   6.838  1.00  0.00    -0.384 OA
ATOM     16  H   UNL     1       5.869  65.924   7.551  1.00  0.00     0.211 HD
ENDBRANCH   7  15
ENDBRANCH   1   2
BRANCH   1  17
ATOM     17  C   UNL     1       9.695  68.888   6.542  1.00  0.00     0.172 A 
ATOM     18  C   UNL     1       9.461  70.308   6.555  1.00  0.00     0.201 A 
ATOM     19  C   UNL     1      10.465  68.428   5.447  1.00  0.00     0.098 A 
ATOM     20  C   UNL     1       9.634  71.028   5.362  1.00  0.00     0.176 A 
ATOM     21  C   UNL     1      10.184  68.978   4.200  1.00  0.00     0.146 A 
ATOM     22  C   UNL     1       9.789  70.319   4.151  1.00  0.00     0.111 A 
ATOM     23  O   UNL     1      10.141  68.176   3.143  1.00  0.00    -0.456 OA
ATOM     24  C   UNL     1       9.338  70.801   2.892  1.00  0.00     0.197 A 
ATOM     25  C   UNL     1       9.635  68.582   1.947  1.00  0.00     0.138 A 
ATOM     26  C   UNL     1       9.236  69.955   1.804  1.00  0.00     0.100 A 
ATOM     27  O   UNL     1       8.924  71.968   2.818  1.00  0.00    -0.289 OA
BRANCH  18  28
ATOM     28  O   UNL     1       9.308  71.119   7.717  1.00  0.00    -0.502 OA
ATOM     29  H   UNL     1       9.679  71.016   8.707  1.00  0.00     0.293 HD
ENDBRANCH  18  28
BRANCH  20  30
ATOM     30  O   UNL     1       9.554  72.410   5.376  1.00  0.00    -0.504 OA
ATOM     31  H   UNL     1      10.420  73.076   5.349  1.00  0.00     0.293 HD
ENDBRANCH  20  30
BRANCH  25  32
ATOM     32  C   UNL     1       9.282  67.632   0.929  1.00  0.00     0.017 A 
ATOM     33  C   UNL     1       9.074  66.299   1.287  1.00  0.00     0.012 A 
ATOM     34  C   UNL     1       8.783  68.112  -0.283  1.00  0.00     0.012 A 
ATOM     35  C   UNL     1       8.355  65.443   0.454  1.00  0.00     0.001 A 
ATOM     36  C   UNL     1       7.937  67.308  -1.046  1.00  0.00     0.001 A 
ATOM     37  C   UNL     1       7.684  65.983  -0.643  1.00  0.00     0.000 A 
ENDBRANCH  25  32
ENDBRANCH   1  17
TORSDOF 9
ENDMDL
MODEL 7
REMARK VINA RESULT:    61.699      2.423      5.053
REMARK INTER + INTRA:          84.691
REMARK INTER:                  82.187
REMARK INTRA:                   2.505
REMARK UNBOUND:                -0.452
REMARK SMILES O=C([O-])[C@H]1O[C@H](Oc2cc3oc(-c4ccccc4)cc(=O)c3c(O)c2O)[C@@H](O)[C@@H](O)[C@@H]1O
REMARK SMILES IDX 7 1 6 2 4 3 31 4 5 5 29 6 27 7 2 8 1 9 3 10 32 11 30 13
REMARK SMILES IDX 28 15 8 17 25 18 9 19 23 20 10 21 22 22 11 23 20 24 12 25
REMARK SMILES IDX 19 26 21 27 26 28 24 30 13 32 14 33 18 34 15 35 17 36 16 37
REMARK H PARENT 32 12 30 14 28 16 26 29 24 31
REMARK Flexibility Score: inf
ROOT
ATOM      1  O   UNL     1       8.401  76.443   1.815  1.00  0.00    -0.458 OA
ENDROOT
BRANCH   1   2
ATOM      2  C   UNL     1       9.391  76.000   0.783  1.00  0.00     0.339 C 
ATOM      3  C   UNL     1      11.663  75.837   1.452  1.00  0.00     0.199 C 
ATOM      4  C   UNL     1      12.288  75.093   0.218  1.00  0.00     0.180 C 
ATOM      5  O   UNL     1      10.618  76.728   0.971  1.00  0.00    -0.328 OA
ATOM      6  C   UNL     1      10.998  74.384  -0.453  1.00  0.00     0.181 C 
ATOM      7  C   UNL     1       9.588  74.447   0.399  1.00  0.00     0.214 C 
BRANCH   3   8
ATOM      8  C   UNL     1      12.052  76.048   2.967  1.00  0.00     0.073 C 
ATOM      9  O   UNL     1      12.616  77.191   3.257  1.00  0.00    -0.547 OA
ATOM     10  O   UNL     1      12.623  77.280   3.434  1.00  0.00    -0.547 OA
ENDBRANCH   3   8
BRANCH   4  11
ATOM     11  O   UNL     1      13.417  74.263   0.524  1.00  0.00    -0.387 OA
ATOM     12  H   UNL     1      14.275  74.750   0.240  1.00  0.00     0.211 HD
ENDBRANCH   4  11
BRANCH   6  13
ATOM     13  O   UNL     1      10.865  74.672  -1.796  1.00  0.00    -0.387 OA
ATOM     14  H   UNL     1      10.100  74.083  -2.110  1.00  0.00     0.211 HD
ENDBRANCH   6  13
BRANCH   7  15
ATOM     15  O   UNL     1       8.409  74.003  -0.225  1.00  0.00    -0.384 OA
ATOM     16  H   UNL     1       7.901  74.883  -0.298  1.00  0.00     0.211 HD
ENDBRANCH   7  15
ENDBRANCH   1   2
BRANCH   1  17
ATOM     17  C   UNL     1       8.621  76.637   3.228  1.00  0.00     0.172 A 
ATOM     18  C   UNL     1       9.639  77.498   3.771  1.00  0.00     0.201 A 
ATOM     19  C   UNL     1       8.178  75.621   4.109  1.00  0.00     0.098 A 
ATOM     20  C   UNL     1      10.368  77.055   4.886  1.00  0.00     0.176 A 
ATOM     21  C   UNL     1       9.149  74.965   4.858  1.00  0.00     0.146 A 
ATOM     22  C   UNL     1      10.257  75.705   5.285  1.00  0.00     0.111 A 
ATOM     23  O   UNL     1       9.070  73.646   4.993  1.00  0.00    -0.456 OA
ATOM     24  C   UNL     1      11.313  74.972   5.891  1.00  0.00     0.197 A 
ATOM     25  C   UNL     1      10.097  72.906   5.490  1.00  0.00     0.138 A 
ATOM     26  C   UNL     1      11.260  73.594   5.980  1.00  0.00     0.100 A 
ATOM     27  O   UNL     1      12.338  75.582   6.231  1.00  0.00    -0.289 OA
BRANCH  18  28
ATOM     28  O   UNL     1       9.827  78.873   3.451  1.00  0.00    -0.502 OA
ATOM     29  H   UNL     1      10.195  79.354   2.578  1.00  0.00     0.293 HD
ENDBRANCH  18  28
BRANCH  20  30
ATOM     30  O   UNL     1      11.252  77.916   5.515  1.00  0.00    -0.504 OA
ATOM     31  H   UNL     1      10.993  78.919   5.859  1.00  0.00     0.293 HD
ENDBRANCH  20  30
BRANCH  25  32
ATOM     32  C   UNL     1      10.137  71.481   5.319  1.00  0.00     0.017 A 
ATOM     33  C   UNL     1       9.027  70.830   4.778  1.00  0.00     0.012 A 
ATOM     34  C   UNL     1      11.381  70.845   5.323  1.00  0.00     0.012 A 
ATOM     35  C   UNL     1       9.148  69.558   4.223  1.00  0.00     0.001 A 
ATOM     36  C   UNL     1      11.541  69.642   4.636  1.00  0.00     0.001 A 
ATOM     37  C   UNL     1      10.424  69.025   4.041  1.00  0.00     0.000 A 
ENDBRANCH  25  32
ENDBRANCH   1  17
TORSDOF 9
ENDMDL
