MODEL 1
REMARK VINA RESULT:    -4.379      0.000      0.000
REMARK INTER + INTRA:          -9.803
REMARK INTER:                  -8.091
REMARK INTRA:                  -1.712
REMARK UNBOUND:                -1.712
REMARK SMILES CCCCCCCCCCCCCCCCO
REMARK SMILES IDX 9 1 8 2 7 3 6 4 5 5 4 6 3 7 2 8 1 9 10 10 11 11 12 12 13 13
REMARK SMILES IDX 14 14 15 15 16 16 17 17
REMARK H PARENT 17 18
REMARK Flexibility Score: inf
ROOT
ATOM      1  C   UNL     1      14.055  -2.994 -49.009  1.00  0.00     0.000 C 
ENDROOT
BRANCH   1   2
ATOM      2  C   UNL     1      12.840  -3.582 -49.754  1.00  0.00    -0.000 C 
BRANCH   2   3
ATOM      3  C   UNL     1      11.677  -2.582 -49.931  1.00  0.00    -0.000 C 
BRANCH   3   4
ATOM      4  C   UNL     1      12.140  -1.122 -49.777  1.00  0.00    -0.000 C 
BRANCH   4   5
ATOM      5  C   UNL     1      11.358  -0.367 -48.692  1.00  0.00    -0.000 C 
BRANCH   5   6
ATOM      6  C   UNL     1      12.287   0.279 -47.649  1.00  0.00    -0.000 C 
BRANCH   6   7
ATOM      7  C   UNL     1      11.928   1.746 -47.366  1.00  0.00    -0.000 C 
BRANCH   7   8
ATOM      8  C   UNL     1      13.104   2.702 -47.615  1.00  0.00    -0.003 C 
ATOM      9  C   UNL     1      13.281   2.980 -49.105  1.00  0.00     0.004 C 
ENDBRANCH   7   8
ENDBRANCH   6   7
ENDBRANCH   5   6
ENDBRANCH   4   5
ENDBRANCH   3   4
ENDBRANCH   2   3
ENDBRANCH   1   2
BRANCH   1  10
ATOM     10  C   UNL     1      15.400  -3.135 -49.742  1.00  0.00     0.000 C 
BRANCH  10  11
ATOM     11  C   UNL     1      16.401  -2.028 -49.369  1.00  0.00     0.000 C 
BRANCH  11  12
ATOM     12  C   UNL     1      15.751  -0.633 -49.299  1.00  0.00     0.000 C 
BRANCH  12  13
ATOM     13  C   UNL     1      15.911   0.097 -47.955  1.00  0.00     0.000 C 
BRANCH  13  14
ATOM     14  C   UNL     1      16.475   1.519 -48.110  1.00  0.00     0.002 C 
BRANCH  14  15
ATOM     15  C   UNL     1      17.339   1.945 -46.911  1.00  0.00     0.028 C 
BRANCH  15  16
ATOM     16  C   UNL     1      16.774   1.459 -45.570  1.00  0.00     0.156 C 
BRANCH  16  17
ATOM     17  O   UNL     1      17.134   2.345 -44.546  1.00  0.00    -0.396 OA
ATOM     18  H   UNL     1      17.441   3.180 -44.988  1.00  0.00     0.210 HD
ENDBRANCH  16  17
ENDBRANCH  15  16
ENDBRANCH  14  15
ENDBRANCH  13  14
ENDBRANCH  12  13
ENDBRANCH  11  12
ENDBRANCH  10  11
ENDBRANCH   1  10
TORSDOF 15
ENDMDL
MODEL 2
REMARK VINA RESULT:    -4.252      3.259      5.867
REMARK INTER + INTRA:          -9.568
REMARK INTER:                  -8.767
REMARK INTRA:                  -0.801
REMARK UNBOUND:                -1.712
REMARK SMILES CCCCCCCCCCCCCCCCO
REMARK SMILES IDX 9 1 8 2 7 3 6 4 5 5 4 6 3 7 2 8 1 9 10 10 11 11 12 12 13 13
REMARK SMILES IDX 14 14 15 15 16 16 17 17
REMARK H PARENT 17 18
REMARK Flexibility Score: inf
ROOT
ATOM      1  C   UNL     1      14.481  -3.436 -49.159  1.00  0.00     0.000 C 
ENDROOT
BRANCH   1   2
ATOM      2  C   UNL     1      13.400  -4.128 -50.015  1.00  0.00    -0.000 C 
BRANCH   2   3
ATOM      3  C   UNL     1      13.100  -5.579 -49.584  1.00  0.00    -0.000 C 
BRANCH   3   4
ATOM      4  C   UNL     1      14.319  -6.252 -48.929  1.00  0.00    -0.000 C 
BRANCH   4   5
ATOM      5  C   UNL     1      13.936  -7.118 -47.719  1.00  0.00    -0.000 C 
BRANCH   5   6
ATOM      6  C   UNL     1      12.416  -7.140 -47.478  1.00  0.00    -0.000 C 
BRANCH   6   7
ATOM      7  C   UNL     1      11.984  -8.278 -46.540  1.00  0.00    -0.000 C 
BRANCH   7   8
ATOM      8  C   UNL     1      11.076  -9.304 -47.233  1.00  0.00    -0.003 C 
ATOM      9  C   UNL     1      11.866 -10.163 -48.216  1.00  0.00     0.004 C 
ENDBRANCH   7   8
ENDBRANCH   6   7
ENDBRANCH   5   6
ENDBRANCH   4   5
ENDBRANCH   3   4
ENDBRANCH   2   3
ENDBRANCH   1   2
BRANCH   1  10
ATOM     10  C   UNL     1      15.763  -3.049 -49.916  1.00  0.00     0.000 C 
BRANCH  10  11
ATOM     11  C   UNL     1      16.325  -1.686 -49.479  1.00  0.00     0.000 C 
BRANCH  11  12
ATOM     12  C   UNL     1      15.258  -0.779 -48.836  1.00  0.00     0.000 C 
BRANCH  12  13
ATOM     13  C   UNL     1      15.768   0.134 -47.708  1.00  0.00     0.000 C 
BRANCH  13  14
ATOM     14  C   UNL     1      15.986   1.586 -48.165  1.00  0.00     0.002 C 
BRANCH  14  15
ATOM     15  C   UNL     1      17.239   2.219 -47.540  1.00  0.00     0.028 C 
BRANCH  15  16
ATOM     16  C   UNL     1      17.471   1.770 -46.091  1.00  0.00     0.156 C 
BRANCH  16  17
ATOM     17  O   UNL     1      18.836   1.540 -45.871  1.00  0.00    -0.396 OA
ATOM     18  H   UNL     1      18.908   1.063 -45.002  1.00  0.00     0.210 HD
ENDBRANCH  16  17
ENDBRANCH  15  16
ENDBRANCH  14  15
ENDBRANCH  13  14
ENDBRANCH  12  13
ENDBRANCH  11  12
ENDBRANCH  10  11
ENDBRANCH   1  10
TORSDOF 15
ENDMDL
MODEL 3
REMARK VINA RESULT:    -4.248      3.287      5.785
REMARK INTER + INTRA:          -9.562
REMARK INTER:                  -8.120
REMARK INTRA:                  -1.442
REMARK UNBOUND:                -1.712
REMARK SMILES CCCCCCCCCCCCCCCCO
REMARK SMILES IDX 9 1 8 2 7 3 6 4 5 5 4 6 3 7 2 8 1 9 10 10 11 11 12 12 13 13
REMARK SMILES IDX 14 14 15 15 16 16 17 17
REMARK H PARENT 17 18
REMARK Flexibility Score: inf
ROOT
ATOM      1  C   UNL     1      14.039  -5.000 -49.012  1.00  0.00     0.000 C 
ENDROOT
BRANCH   1   2
ATOM      2  C   UNL     1      12.978  -5.587 -49.965  1.00  0.00    -0.000 C 
BRANCH   2   3
ATOM      3  C   UNL     1      11.764  -6.204 -49.238  1.00  0.00    -0.000 C 
BRANCH   3   4
ATOM      4  C   UNL     1      11.652  -5.717 -47.782  1.00  0.00    -0.000 C 
BRANCH   4   5
ATOM      5  C   UNL     1      11.356  -6.861 -46.799  1.00  0.00    -0.000 C 
BRANCH   5   6
ATOM      6  C   UNL     1      12.188  -8.119 -47.104  1.00  0.00    -0.000 C 
BRANCH   6   7
ATOM      7  C   UNL     1      13.663  -7.963 -46.705  1.00  0.00    -0.000 C 
BRANCH   7   8
ATOM      8  C   UNL     1      14.624  -8.561 -47.743  1.00  0.00    -0.003 C 
ATOM      9  C   UNL     1      13.869  -9.392 -48.776  1.00  0.00     0.004 C 
ENDBRANCH   7   8
ENDBRANCH   6   7
ENDBRANCH   5   6
ENDBRANCH   4   5
ENDBRANCH   3   4
ENDBRANCH   2   3
ENDBRANCH   1   2
BRANCH   1  10
ATOM     10  C   UNL     1      14.636  -3.652 -49.451  1.00  0.00     0.000 C 
BRANCH  10  11
ATOM     11  C   UNL     1      13.647  -2.484 -49.295  1.00  0.00     0.000 C 
BRANCH  11  12
ATOM     12  C   UNL     1      14.317  -1.107 -49.469  1.00  0.00     0.000 C 
BRANCH  12  13
ATOM     13  C   UNL     1      15.787  -1.033 -49.019  1.00  0.00     0.000 C 
BRANCH  13  14
ATOM     14  C   UNL     1      16.189   0.364 -48.518  1.00  0.00     0.002 C 
BRANCH  14  15
ATOM     15  C   UNL     1      15.617   0.679 -47.126  1.00  0.00     0.028 C 
BRANCH  15  16
ATOM     16  C   UNL     1      16.573   1.518 -46.268  1.00  0.00     0.156 C 
BRANCH  16  17
ATOM     17  O   UNL     1      17.682   0.749 -45.890  1.00  0.00    -0.396 OA
ATOM     18  H   UNL     1      17.807   0.890 -44.914  1.00  0.00     0.210 HD
ENDBRANCH  16  17
ENDBRANCH  15  16
ENDBRANCH  14  15
ENDBRANCH  13  14
ENDBRANCH  12  13
ENDBRANCH  11  12
ENDBRANCH  10  11
ENDBRANCH   1  10
TORSDOF 15
ENDMDL
MODEL 4
REMARK VINA RESULT:    -4.200      2.917      5.484
REMARK INTER + INTRA:          -9.471
REMARK INTER:                  -8.440
REMARK INTRA:                  -1.031
REMARK UNBOUND:                -1.712
REMARK SMILES CCCCCCCCCCCCCCCCO
REMARK SMILES IDX 9 1 8 2 7 3 6 4 5 5 4 6 3 7 2 8 1 9 10 10 11 11 12 12 13 13
REMARK SMILES IDX 14 14 15 15 16 16 17 17
REMARK H PARENT 17 18
REMARK Flexibility Score: inf
ROOT
ATOM      1  C   UNL     1      15.496  -2.611 -48.911  1.00  0.00     0.000 C 
ENDROOT
BRANCH   1   2
ATOM      2  C   UNL     1      14.174  -3.305 -49.297  1.00  0.00    -0.000 C 
BRANCH   2   3
ATOM      3  C   UNL     1      14.248  -4.846 -49.265  1.00  0.00    -0.000 C 
BRANCH   3   4
ATOM      4  C   UNL     1      12.868  -5.496 -49.466  1.00  0.00    -0.000 C 
BRANCH   4   5
ATOM      5  C   UNL     1      12.181  -5.848 -48.137  1.00  0.00    -0.000 C 
BRANCH   5   6
ATOM      6  C   UNL     1      12.020  -7.366 -47.949  1.00  0.00    -0.000 C 
BRANCH   6   7
ATOM      7  C   UNL     1      12.788  -7.895 -46.727  1.00  0.00    -0.000 C 
BRANCH   7   8
ATOM      8  C   UNL     1      14.302  -7.976 -46.969  1.00  0.00    -0.003 C 
ATOM      9  C   UNL     1      14.615  -8.760 -48.240  1.00  0.00     0.004 C 
ENDBRANCH   7   8
ENDBRANCH   6   7
ENDBRANCH   5   6
ENDBRANCH   4   5
ENDBRANCH   3   4
ENDBRANCH   2   3
ENDBRANCH   1   2
BRANCH   1  10
ATOM     10  C   UNL     1      15.634  -1.157 -49.392  1.00  0.00     0.000 C 
BRANCH  10  11
ATOM     11  C   UNL     1      14.283  -0.426 -49.476  1.00  0.00     0.000 C 
BRANCH  11  12
ATOM     12  C   UNL     1      14.276   0.905 -48.699  1.00  0.00     0.000 C 
BRANCH  12  13
ATOM     13  C   UNL     1      13.784   0.811 -47.244  1.00  0.00     0.000 C 
BRANCH  13  14
ATOM     14  C   UNL     1      14.730   1.502 -46.247  1.00  0.00     0.002 C 
BRANCH  14  15
ATOM     15  C   UNL     1      16.175   1.585 -46.766  1.00  0.00     0.028 C 
BRANCH  15  16
ATOM     16  C   UNL     1      17.210   1.628 -45.634  1.00  0.00     0.156 C 
BRANCH  16  17
ATOM     17  O   UNL     1      18.499   1.441 -46.152  1.00  0.00    -0.396 OA
ATOM     18  H   UNL     1      19.066   1.132 -45.397  1.00  0.00     0.210 HD
ENDBRANCH  16  17
ENDBRANCH  15  16
ENDBRANCH  14  15
ENDBRANCH  13  14
ENDBRANCH  12  13
ENDBRANCH  11  12
ENDBRANCH  10  11
ENDBRANCH   1  10
TORSDOF 15
ENDMDL
MODEL 5
REMARK VINA RESULT:    -4.167      1.512      4.895
REMARK INTER + INTRA:          -9.410
REMARK INTER:                  -7.645
REMARK INTRA:                  -1.766
REMARK UNBOUND:                -1.712
REMARK SMILES CCCCCCCCCCCCCCCCO
REMARK SMILES IDX 9 1 8 2 7 3 6 4 5 5 4 6 3 7 2 8 1 9 10 10 11 11 12 12 13 13
REMARK SMILES IDX 14 14 15 15 16 16 17 17
REMARK H PARENT 17 18
REMARK Flexibility Score: inf
ROOT
ATOM      1  C   UNL     1      12.101  -0.510 -49.090  1.00  0.00     0.000 C 
ENDROOT
BRANCH   1   2
ATOM      2  C   UNL     1      13.183   0.174 -49.951  1.00  0.00    -0.000 C 
BRANCH   2   3
ATOM      3  C   UNL     1      14.626  -0.148 -49.507  1.00  0.00    -0.000 C 
BRANCH   3   4
ATOM      4  C   UNL     1      14.693  -1.410 -48.629  1.00  0.00    -0.000 C 
BRANCH   4   5
ATOM      5  C   UNL     1      15.809  -2.372 -49.064  1.00  0.00    -0.000 C 
BRANCH   5   6
ATOM      6  C   UNL     1      15.276  -3.531 -49.924  1.00  0.00    -0.000 C 
BRANCH   6   7
ATOM      7  C   UNL     1      13.781  -3.801 -49.689  1.00  0.00    -0.000 C 
BRANCH   7   8
ATOM      8  C   UNL     1      13.521  -5.171 -49.046  1.00  0.00    -0.003 C 
ATOM      9  C   UNL     1      13.514  -6.279 -50.094  1.00  0.00     0.004 C 
ENDBRANCH   7   8
ENDBRANCH   6   7
ENDBRANCH   5   6
ENDBRANCH   4   5
ENDBRANCH   3   4
ENDBRANCH   2   3
ENDBRANCH   1   2
BRANCH   1  10
ATOM     10  C   UNL     1      11.394   0.410 -48.080  1.00  0.00     0.000 C 
BRANCH  10  11
ATOM     11  C   UNL     1      11.733   0.065 -46.620  1.00  0.00     0.000 C 
BRANCH  11  12
ATOM     12  C   UNL     1      12.317   1.261 -45.844  1.00  0.00     0.000 C 
BRANCH  12  13
ATOM     13  C   UNL     1      13.602   1.862 -46.438  1.00  0.00     0.000 C 
BRANCH  13  14
ATOM     14  C   UNL     1      14.871   1.110 -46.006  1.00  0.00     0.002 C 
BRANCH  14  15
ATOM     15  C   UNL     1      16.149   1.709 -46.616  1.00  0.00     0.028 C 
BRANCH  15  16
ATOM     16  C   UNL     1      17.244   1.960 -45.570  1.00  0.00     0.156 C 
BRANCH  16  17
ATOM     17  O   UNL     1      18.474   1.476 -46.036  1.00  0.00    -0.396 OA
ATOM     18  H   UNL     1      18.883   2.207 -46.571  1.00  0.00     0.210 HD
ENDBRANCH  16  17
ENDBRANCH  15  16
ENDBRANCH  14  15
ENDBRANCH  13  14
ENDBRANCH  12  13
ENDBRANCH  11  12
ENDBRANCH  10  11
ENDBRANCH   1  10
TORSDOF 15
ENDMDL
MODEL 6
REMARK VINA RESULT:    -4.152      5.242      8.571
REMARK INTER + INTRA:          -9.383
REMARK INTER:                  -8.623
REMARK INTRA:                  -0.761
REMARK UNBOUND:                -1.712
REMARK SMILES CCCCCCCCCCCCCCCCO
REMARK SMILES IDX 9 1 8 2 7 3 6 4 5 5 4 6 3 7 2 8 1 9 10 10 11 11 12 12 13 13
REMARK SMILES IDX 14 14 15 15 16 16 17 17
REMARK H PARENT 17 18
REMARK Flexibility Score: inf
ROOT
ATOM      1  C   UNL     1      12.957  -7.521 -47.147  1.00  0.00     0.000 C 
ENDROOT
BRANCH   1   2
ATOM      2  C   UNL     1      14.439  -7.747 -47.510  1.00  0.00    -0.000 C 
BRANCH   2   3
ATOM      3  C   UNL     1      14.683  -9.006 -48.369  1.00  0.00    -0.000 C 
BRANCH   3   4
ATOM      4  C   UNL     1      15.884  -8.835 -49.316  1.00  0.00    -0.000 C 
BRANCH   4   5
ATOM      5  C   UNL     1      17.140  -9.564 -48.813  1.00  0.00    -0.000 C 
BRANCH   5   6
ATOM      6  C   UNL     1      18.359  -9.317 -49.720  1.00  0.00    -0.000 C 
BRANCH   6   7
ATOM      7  C   UNL     1      19.691  -9.594 -49.008  1.00  0.00    -0.000 C 
BRANCH   7   8
ATOM      8  C   UNL     1      19.505 -10.317 -47.666  1.00  0.00    -0.003 C 
ATOM      9  C   UNL     1      20.717 -10.117 -46.760  1.00  0.00     0.004 C 
ENDBRANCH   7   8
ENDBRANCH   6   7
ENDBRANCH   5   6
ENDBRANCH   4   5
ENDBRANCH   3   4
ENDBRANCH   2   3
ENDBRANCH   1   2
BRANCH   1  10
ATOM     10  C   UNL     1      12.261  -6.390 -47.922  1.00  0.00     0.000 C 
BRANCH  10  11
ATOM     11  C   UNL     1      13.203  -5.672 -48.903  1.00  0.00     0.000 C 
BRANCH  11  12
ATOM     12  C   UNL     1      12.720  -4.255 -49.267  1.00  0.00     0.000 C 
BRANCH  12  13
ATOM     13  C   UNL     1      13.777  -3.146 -49.123  1.00  0.00     0.000 C 
BRANCH  13  14
ATOM     14  C   UNL     1      15.195  -3.621 -49.480  1.00  0.00     0.002 C 
BRANCH  14  15
ATOM     15  C   UNL     1      16.188  -2.456 -49.622  1.00  0.00     0.028 C 
BRANCH  15  16
ATOM     16  C   UNL     1      15.637  -1.135 -49.069  1.00  0.00     0.156 C 
BRANCH  16  17
ATOM     17  O   UNL     1      16.581  -0.534 -48.225  1.00  0.00    -0.396 OA
ATOM     18  H   UNL     1      16.344  -0.801 -47.298  1.00  0.00     0.210 HD
ENDBRANCH  16  17
ENDBRANCH  15  16
ENDBRANCH  14  15
ENDBRANCH  13  14
ENDBRANCH  12  13
ENDBRANCH  11  12
ENDBRANCH  10  11
ENDBRANCH   1  10
TORSDOF 15
ENDMDL
MODEL 7
REMARK VINA RESULT:    -4.085      2.037      5.030
REMARK INTER + INTRA:          -9.260
REMARK INTER:                  -7.448
REMARK INTRA:                  -1.813
REMARK UNBOUND:                -1.712
REMARK SMILES CCCCCCCCCCCCCCCCO
REMARK SMILES IDX 9 1 8 2 7 3 6 4 5 5 4 6 3 7 2 8 1 9 10 10 11 11 12 12 13 13
REMARK SMILES IDX 14 14 15 15 16 16 17 17
REMARK H PARENT 17 18
REMARK Flexibility Score: inf
ROOT
ATOM      1  C   UNL     1      11.875   0.281 -46.295  1.00  0.00     0.000 C 
ENDROOT
BRANCH   1   2
ATOM      2  C   UNL     1      11.613   1.742 -46.716  1.00  0.00    -0.000 C 
BRANCH   2   3
ATOM      3  C   UNL     1      12.891   2.602 -46.806  1.00  0.00    -0.000 C 
BRANCH   3   4
ATOM      4  C   UNL     1      13.056   3.248 -48.193  1.00  0.00    -0.000 C 
BRANCH   4   5
ATOM      5  C   UNL     1      14.227   2.648 -48.988  1.00  0.00    -0.000 C 
BRANCH   5   6
ATOM      6  C   UNL     1      15.084   1.698 -48.133  1.00  0.00    -0.000 C 
BRANCH   6   7
ATOM      7  C   UNL     1      16.574   2.072 -48.149  1.00  0.00    -0.000 C 
BRANCH   7   8
ATOM      8  C   UNL     1      17.255   1.849 -46.791  1.00  0.00    -0.003 C 
ATOM      9  C   UNL     1      16.288   1.232 -45.785  1.00  0.00     0.004 C 
ENDBRANCH   7   8
ENDBRANCH   6   7
ENDBRANCH   5   6
ENDBRANCH   4   5
ENDBRANCH   3   4
ENDBRANCH   2   3
ENDBRANCH   1   2
BRANCH   1  10
ATOM     10  C   UNL     1      11.447  -0.780 -47.323  1.00  0.00     0.000 C 
BRANCH  10  11
ATOM     11  C   UNL     1      11.503  -0.265 -48.771  1.00  0.00     0.000 C 
BRANCH  11  12
ATOM     12  C   UNL     1      12.058  -1.312 -49.756  1.00  0.00     0.000 C 
BRANCH  12  13
ATOM     13  C   UNL     1      12.604  -2.596 -49.107  1.00  0.00     0.000 C 
BRANCH  13  14
ATOM     14  C   UNL     1      14.106  -2.804 -49.362  1.00  0.00     0.002 C 
BRANCH  14  15
ATOM     15  C   UNL     1      14.960  -1.638 -48.835  1.00  0.00     0.028 C 
BRANCH  15  16
ATOM     16  C   UNL     1      16.425  -1.727 -49.281  1.00  0.00     0.156 C 
BRANCH  16  17
ATOM     17  O   UNL     1      16.723  -3.031 -49.699  1.00  0.00    -0.396 OA
ATOM     18  H   UNL     1      16.941  -2.978 -50.667  1.00  0.00     0.210 HD
ENDBRANCH  16  17
ENDBRANCH  15  16
ENDBRANCH  14  15
ENDBRANCH  13  14
ENDBRANCH  12  13
ENDBRANCH  11  12
ENDBRANCH  10  11
ENDBRANCH   1  10
TORSDOF 15
ENDMDL
MODEL 8
REMARK VINA RESULT:    -4.075     10.253     12.697
REMARK INTER + INTRA:          -9.241
REMARK INTER:                  -8.417
REMARK INTRA:                  -0.825
REMARK UNBOUND:                -1.712
REMARK SMILES CCCCCCCCCCCCCCCCO
REMARK SMILES IDX 9 1 8 2 7 3 6 4 5 5 4 6 3 7 2 8 1 9 10 10 11 11 12 12 13 13
REMARK SMILES IDX 14 14 15 15 16 16 17 17
REMARK H PARENT 17 18
REMARK Flexibility Score: inf
ROOT
ATOM      1  C   UNL     1      18.666 -10.285 -47.750  1.00  0.00     0.000 C 
ENDROOT
BRANCH   1   2
ATOM      2  C   UNL     1      18.288  -9.433 -48.979  1.00  0.00    -0.000 C 
BRANCH   2   3
ATOM      3  C   UNL     1      17.439 -10.189 -50.023  1.00  0.00    -0.000 C 
BRANCH   3   4
ATOM      4  C   UNL     1      15.977  -9.709 -50.036  1.00  0.00    -0.000 C 
BRANCH   4   5
ATOM      5  C   UNL     1      15.737  -8.523 -49.089  1.00  0.00    -0.000 C 
BRANCH   5   6
ATOM      6  C   UNL     1      14.878  -8.913 -47.874  1.00  0.00    -0.000 C 
BRANCH   6   7
ATOM      7  C   UNL     1      14.142  -7.712 -47.260  1.00  0.00    -0.000 C 
BRANCH   7   8
ATOM      8  C   UNL     1      12.618  -7.896 -47.245  1.00  0.00    -0.003 C 
ATOM      9  C   UNL     1      12.222  -9.254 -47.816  1.00  0.00     0.004 C 
ENDBRANCH   7   8
ENDBRANCH   6   7
ENDBRANCH   5   6
ENDBRANCH   4   5
ENDBRANCH   3   4
ENDBRANCH   2   3
ENDBRANCH   1   2
BRANCH   1  10
ATOM     10  C   UNL     1      20.105 -10.093 -47.241  1.00  0.00     0.000 C 
BRANCH  10  11
ATOM     11  C   UNL     1      20.996 -11.322 -47.492  1.00  0.00     0.000 C 
BRANCH  11  12
ATOM     12  C   UNL     1      21.025 -11.745 -48.973  1.00  0.00     0.000 C 
BRANCH  12  13
ATOM     13  C   UNL     1      21.310 -13.237 -49.222  1.00  0.00     0.000 C 
BRANCH  13  14
ATOM     14  C   UNL     1      22.101 -13.894 -48.079  1.00  0.00     0.002 C 
BRANCH  14  15
ATOM     15  C   UNL     1      23.202 -14.838 -48.591  1.00  0.00     0.028 C 
BRANCH  15  16
ATOM     16  C   UNL     1      23.973 -15.521 -47.454  1.00  0.00     0.156 C 
BRANCH  16  17
ATOM     17  O   UNL     1      25.303 -15.738 -47.836  1.00  0.00    -0.396 OA
ATOM     18  H   UNL     1      25.352 -15.557 -48.812  1.00  0.00     0.210 HD
ENDBRANCH  16  17
ENDBRANCH  15  16
ENDBRANCH  14  15
ENDBRANCH  13  14
ENDBRANCH  12  13
ENDBRANCH  11  12
ENDBRANCH  10  11
ENDBRANCH   1  10
TORSDOF 15
ENDMDL
MODEL 9
REMARK VINA RESULT:    -4.032      2.906      5.639
REMARK INTER + INTRA:          -9.162
REMARK INTER:                  -7.966
REMARK INTRA:                  -1.196
REMARK UNBOUND:                -1.712
REMARK SMILES CCCCCCCCCCCCCCCCO
REMARK SMILES IDX 9 1 8 2 7 3 6 4 5 5 4 6 3 7 2 8 1 9 10 10 11 11 12 12 13 13
REMARK SMILES IDX 14 14 15 15 16 16 17 17
REMARK H PARENT 17 18
REMARK Flexibility Score: inf
ROOT
ATOM      1  C   UNL     1      13.882  -2.269 -49.227  1.00  0.00     0.000 C 
ENDROOT
BRANCH   1   2
ATOM      2  C   UNL     1      12.771  -3.234 -49.690  1.00  0.00    -0.000 C 
BRANCH   2   3
ATOM      3  C   UNL     1      11.908  -3.788 -48.537  1.00  0.00    -0.000 C 
BRANCH   3   4
ATOM      4  C   UNL     1      12.151  -5.290 -48.303  1.00  0.00    -0.000 C 
BRANCH   4   5
ATOM      5  C   UNL     1      13.031  -5.922 -49.393  1.00  0.00    -0.000 C 
BRANCH   5   6
ATOM      6  C   UNL     1      14.392  -6.385 -48.845  1.00  0.00    -0.000 C 
BRANCH   6   7
ATOM      7  C   UNL     1      14.574  -7.909 -48.928  1.00  0.00    -0.000 C 
BRANCH   7   8
ATOM      8  C   UNL     1      13.850  -8.654 -47.797  1.00  0.00    -0.003 C 
ATOM      9  C   UNL     1      14.306  -8.155 -46.429  1.00  0.00     0.004 C 
ENDBRANCH   7   8
ENDBRANCH   6   7
ENDBRANCH   5   6
ENDBRANCH   4   5
ENDBRANCH   3   4
ENDBRANCH   2   3
ENDBRANCH   1   2
BRANCH   1  10
ATOM     10  C   UNL     1      15.277  -2.902 -49.084  1.00  0.00     0.000 C 
BRANCH  10  11
ATOM     11  C   UNL     1      16.411  -1.865 -49.149  1.00  0.00     0.000 C 
BRANCH  11  12
ATOM     12  C   UNL     1      15.892  -0.418 -49.246  1.00  0.00     0.000 C 
BRANCH  12  13
ATOM     13  C   UNL     1      16.318   0.510 -48.094  1.00  0.00     0.000 C 
BRANCH  13  14
ATOM     14  C   UNL     1      15.258   1.570 -47.756  1.00  0.00     0.002 C 
BRANCH  14  15
ATOM     15  C   UNL     1      14.052   1.523 -48.708  1.00  0.00     0.028 C 
BRANCH  15  16
ATOM     16  C   UNL     1      13.491   2.915 -49.025  1.00  0.00     0.156 C 
BRANCH  16  17
ATOM     17  O   UNL     1      13.461   3.698 -47.863  1.00  0.00    -0.396 OA
ATOM     18  H   UNL     1      14.270   4.274 -47.887  1.00  0.00     0.210 HD
ENDBRANCH  16  17
ENDBRANCH  15  16
ENDBRANCH  14  15
ENDBRANCH  13  14
ENDBRANCH  12  13
ENDBRANCH  11  12
ENDBRANCH  10  11
ENDBRANCH   1  10
TORSDOF 15
ENDMDL
