MODEL 1
REMARK VINA RESULT:    -6.198      0.000      0.000
REMARK INTER + INTRA:          -6.916
REMARK INTER:                  -6.741
REMARK INTRA:                  -0.175
REMARK UNBOUND:                -0.175
REMARK SMILES Cc1ccc(C(C)C)c(O)c1
REMARK SMILES IDX 1 1 2 2 11 3 9 4 5 5 4 6 3 7 10 8 6 10 7 11 8 12
REMARK H PARENT 10 9
REMARK Flexibility Score: inf
ROOT
ATOM      1  C   UNL     1     -10.439  -9.384  38.176  1.00  0.00     0.044 C 
ATOM      2  C   UNL     1     -11.586  -8.416  38.203  1.00  0.00    -0.047 A 
ATOM      3  C   UNL     1     -12.259  -8.084  37.022  1.00  0.00     0.049 A 
ATOM      4  C   UNL     1     -13.314  -7.165  37.028  1.00  0.00     0.119 A 
ATOM      5  C   UNL     1     -13.669  -6.501  38.234  1.00  0.00    -0.004 A 
ATOM      6  C   UNL     1     -13.000  -6.870  39.421  1.00  0.00     0.008 A 
ATOM      7  C   UNL     1     -11.962  -7.802  39.401  1.00  0.00     0.004 A 
ENDROOT
BRANCH   4   8
ATOM      8  O   UNL     1     -13.989  -6.955  35.822  1.00  0.00    -0.508 OA
ATOM      9  H   UNL     1     -13.532  -6.775  34.939  1.00  0.00     0.293 HD
ENDBRANCH   4   8
BRANCH   5  10
ATOM     10  C   UNL     1     -14.790  -5.465  38.274  1.00  0.00     0.017 C 
ATOM     11  C   UNL     1     -16.147  -6.159  38.420  1.00  0.00     0.012 C 
ATOM     12  C   UNL     1     -14.602  -4.404  39.373  1.00  0.00     0.012 C 
ENDBRANCH   5  10
TORSDOF 2
ENDMDL
MODEL 2
REMARK VINA RESULT:    -5.614      0.974      4.103
REMARK INTER + INTRA:          -6.281
REMARK INTER:                  -6.130
REMARK INTRA:                  -0.152
REMARK UNBOUND:                -0.175
REMARK SMILES Cc1ccc(C(C)C)c(O)c1
REMARK SMILES IDX 1 1 2 2 11 3 9 4 5 5 4 6 3 7 10 8 6 10 7 11 8 12
REMARK H PARENT 10 9
REMARK Flexibility Score: inf
ROOT
ATOM      1  C   UNL     1     -14.938  -4.986  39.643  1.00  0.00     0.044 C 
ATOM      2  C   UNL     1     -13.977  -5.977  39.053  1.00  0.00    -0.047 A 
ATOM      3  C   UNL     1     -14.185  -6.481  37.764  1.00  0.00     0.049 A 
ATOM      4  C   UNL     1     -13.312  -7.425  37.211  1.00  0.00     0.119 A 
ATOM      5  C   UNL     1     -12.236  -7.936  37.987  1.00  0.00    -0.004 A 
ATOM      6  C   UNL     1     -12.024  -7.394  39.273  1.00  0.00     0.008 A 
ATOM      7  C   UNL     1     -12.893  -6.440  39.804  1.00  0.00     0.004 A 
ENDROOT
BRANCH   4   8
ATOM      8  O   UNL     1     -13.541  -7.811  35.887  1.00  0.00    -0.508 OA
ATOM      9  H   UNL     1     -12.895  -7.647  35.128  1.00  0.00     0.293 HD
ENDBRANCH   4   8
BRANCH   5  10
ATOM     10  C   UNL     1     -11.284  -8.992  37.432  1.00  0.00     0.017 C 
ATOM     11  C   UNL     1     -10.243  -8.339  36.519  1.00  0.00     0.012 C 
ATOM     12  C   UNL     1     -10.598  -9.831  38.524  1.00  0.00     0.012 C 
ENDBRANCH   5  10
TORSDOF 2
ENDMDL
MODEL 3
REMARK VINA RESULT:    -5.573      1.722      2.375
REMARK INTER + INTRA:          -6.236
REMARK INTER:                  -6.162
REMARK INTRA:                  -0.075
REMARK UNBOUND:                -0.175
REMARK SMILES Cc1ccc(C(C)C)c(O)c1
REMARK SMILES IDX 1 1 2 2 11 3 9 4 5 5 4 6 3 7 10 8 6 10 7 11 8 12
REMARK H PARENT 10 9
REMARK Flexibility Score: inf
ROOT
ATOM      1  C   UNL     1     -10.139  -9.709  39.068  1.00  0.00     0.044 C 
ATOM      2  C   UNL     1     -11.209  -8.696  38.780  1.00  0.00    -0.047 A 
ATOM      3  C   UNL     1     -11.682  -7.860  39.798  1.00  0.00     0.049 A 
ATOM      4  C   UNL     1     -12.697  -6.928  39.551  1.00  0.00     0.119 A 
ATOM      5  C   UNL     1     -13.310  -6.870  38.269  1.00  0.00    -0.004 A 
ATOM      6  C   UNL     1     -12.800  -7.700  37.247  1.00  0.00     0.008 A 
ATOM      7  C   UNL     1     -11.775  -8.612  37.506  1.00  0.00     0.004 A 
ENDROOT
BRANCH   4   8
ATOM      8  O   UNL     1     -13.050  -6.072  40.598  1.00  0.00    -0.508 OA
ATOM      9  H   UNL     1     -13.086  -6.347  41.569  1.00  0.00     0.293 HD
ENDBRANCH   4   8
BRANCH   5  10
ATOM     10  C   UNL     1     -14.444  -5.893  37.970  1.00  0.00     0.017 C 
ATOM     11  C   UNL     1     -14.733  -5.863  36.467  1.00  0.00     0.012 C 
ATOM     12  C   UNL     1     -15.728  -6.186  38.765  1.00  0.00     0.012 C 
ENDBRANCH   5  10
TORSDOF 2
ENDMDL
MODEL 4
REMARK VINA RESULT:    -5.555      2.306      4.981
REMARK INTER + INTRA:          -6.217
REMARK INTER:                  -6.037
REMARK INTRA:                  -0.181
REMARK UNBOUND:                -0.175
REMARK SMILES Cc1ccc(C(C)C)c(O)c1
REMARK SMILES IDX 1 1 2 2 11 3 9 4 5 5 4 6 3 7 10 8 6 10 7 11 8 12
REMARK H PARENT 10 9
REMARK Flexibility Score: inf
ROOT
ATOM      1  C   UNL     1     -13.572  -6.844  37.090  1.00  0.00     0.044 C 
ATOM      2  C   UNL     1     -12.505  -7.668  37.750  1.00  0.00    -0.047 A 
ATOM      3  C   UNL     1     -11.785  -8.613  37.011  1.00  0.00     0.049 A 
ATOM      4  C   UNL     1     -10.803  -9.405  37.618  1.00  0.00     0.119 A 
ATOM      5  C   UNL     1     -10.576  -9.305  39.018  1.00  0.00    -0.004 A 
ATOM      6  C   UNL     1     -11.291  -8.326  39.742  1.00  0.00     0.008 A 
ATOM      7  C   UNL     1     -12.253  -7.530  39.118  1.00  0.00     0.004 A 
ENDROOT
BRANCH   4   8
ATOM      8  O   UNL     1     -10.070 -10.262  36.792  1.00  0.00    -0.508 OA
ATOM      9  H   UNL     1     -10.436 -10.697  35.957  1.00  0.00     0.293 HD
ENDBRANCH   4   8
BRANCH   5  10
ATOM     10  C   UNL     1      -9.541 -10.177  39.724  1.00  0.00     0.017 C 
ATOM     11  C   UNL     1      -8.155  -9.534  39.628  1.00  0.00     0.012 C 
ATOM     12  C   UNL     1      -9.898 -10.486  41.188  1.00  0.00     0.012 C 
ENDBRANCH   5  10
TORSDOF 2
ENDMDL
MODEL 5
REMARK VINA RESULT:    -5.418      1.780      2.514
REMARK INTER + INTRA:          -6.068
REMARK INTER:                  -5.879
REMARK INTRA:                  -0.188
REMARK UNBOUND:                -0.175
REMARK SMILES Cc1ccc(C(C)C)c(O)c1
REMARK SMILES IDX 1 1 2 2 11 3 9 4 5 5 4 6 3 7 10 8 6 10 7 11 8 12
REMARK H PARENT 10 9
REMARK Flexibility Score: inf
ROOT
ATOM      1  C   UNL     1     -10.849  -8.964  37.082  1.00  0.00     0.044 C 
ATOM      2  C   UNL     1     -11.861  -8.043  37.700  1.00  0.00    -0.047 A 
ATOM      3  C   UNL     1     -11.805  -7.750  39.067  1.00  0.00     0.049 A 
ATOM      4  C   UNL     1     -12.756  -6.913  39.663  1.00  0.00     0.119 A 
ATOM      5  C   UNL     1     -13.837  -6.405  38.891  1.00  0.00    -0.004 A 
ATOM      6  C   UNL     1     -13.860  -6.688  37.508  1.00  0.00     0.008 A 
ATOM      7  C   UNL     1     -12.894  -7.510  36.926  1.00  0.00     0.004 A 
ENDROOT
BRANCH   4   8
ATOM      8  O   UNL     1     -12.578  -6.600  41.014  1.00  0.00    -0.508 OA
ATOM      9  H   UNL     1     -12.208  -5.722  41.349  1.00  0.00     0.293 HD
ENDBRANCH   4   8
BRANCH   5  10
ATOM     10  C   UNL     1     -14.914  -5.520  39.512  1.00  0.00     0.017 C 
ATOM     11  C   UNL     1     -14.490  -4.050  39.450  1.00  0.00     0.012 C 
ATOM     12  C   UNL     1     -16.303  -5.712  38.879  1.00  0.00     0.012 C 
ENDBRANCH   5  10
TORSDOF 2
ENDMDL
MODEL 6
REMARK VINA RESULT:    -5.225      1.957      4.568
REMARK INTER + INTRA:          -5.859
REMARK INTER:                  -5.667
REMARK INTRA:                  -0.192
REMARK UNBOUND:                -0.175
REMARK SMILES Cc1ccc(C(C)C)c(O)c1
REMARK SMILES IDX 1 1 2 2 11 3 9 4 5 5 4 6 3 7 10 8 6 10 7 11 8 12
REMARK H PARENT 10 9
REMARK Flexibility Score: inf
ROOT
ATOM      1  C   UNL     1     -15.102  -5.738  37.169  1.00  0.00     0.044 C 
ATOM      2  C   UNL     1     -13.966  -6.509  37.776  1.00  0.00    -0.047 A 
ATOM      3  C   UNL     1     -13.628  -6.327  39.121  1.00  0.00     0.049 A 
ATOM      4  C   UNL     1     -12.555  -7.020  39.694  1.00  0.00     0.119 A 
ATOM      5  C   UNL     1     -11.750  -7.871  38.889  1.00  0.00    -0.004 A 
ATOM      6  C   UNL     1     -12.124  -8.066  37.542  1.00  0.00     0.008 A 
ATOM      7  C   UNL     1     -13.207  -7.380  36.990  1.00  0.00     0.004 A 
ENDROOT
BRANCH   4   8
ATOM      8  O   UNL     1     -12.338  -6.847  41.064  1.00  0.00    -0.508 OA
ATOM      9  H   UNL     1     -13.076  -6.767  41.750  1.00  0.00     0.293 HD
ENDBRANCH   4   8
BRANCH   5  10
ATOM     10  C   UNL     1     -10.550  -8.616  39.468  1.00  0.00     0.017 C 
ATOM     11  C   UNL     1     -10.358  -9.953  38.745  1.00  0.00     0.012 C 
ATOM     12  C   UNL     1      -9.250  -7.794  39.443  1.00  0.00     0.012 C 
ENDBRANCH   5  10
TORSDOF 2
ENDMDL
MODEL 7
REMARK VINA RESULT:    -5.018      6.205      7.691
REMARK INTER + INTRA:          -5.633
REMARK INTER:                  -5.445
REMARK INTRA:                  -0.188
REMARK UNBOUND:                -0.175
REMARK SMILES Cc1ccc(C(C)C)c(O)c1
REMARK SMILES IDX 1 1 2 2 11 3 9 4 5 5 4 6 3 7 10 8 6 10 7 11 8 12
REMARK H PARENT 10 9
REMARK Flexibility Score: inf
ROOT
ATOM      1  C   UNL     1     -17.996  -6.306  40.382  1.00  0.00     0.044 C 
ATOM      2  C   UNL     1     -17.698  -7.027  41.664  1.00  0.00    -0.047 A 
ATOM      3  C   UNL     1     -17.996  -8.388  41.794  1.00  0.00     0.049 A 
ATOM      4  C   UNL     1     -17.746  -9.068  42.992  1.00  0.00     0.119 A 
ATOM      5  C   UNL     1     -17.250  -8.359  44.120  1.00  0.00    -0.004 A 
ATOM      6  C   UNL     1     -16.928  -6.994  43.962  1.00  0.00     0.008 A 
ATOM      7  C   UNL     1     -17.165  -6.334  42.754  1.00  0.00     0.004 A 
ENDROOT
BRANCH   4   8
ATOM      8  O   UNL     1     -17.990 -10.444  43.010  1.00  0.00    -0.508 OA
ATOM      9  H   UNL     1     -18.401 -10.938  43.790  1.00  0.00     0.293 HD
ENDBRANCH   4   8
BRANCH   5  10
ATOM     10  C   UNL     1     -17.000  -9.057  45.454  1.00  0.00     0.017 C 
ATOM     11  C   UNL     1     -15.582  -9.636  45.491  1.00  0.00     0.012 C 
ATOM     12  C   UNL     1     -17.248  -8.152  46.673  1.00  0.00     0.012 C 
ENDBRANCH   5  10
TORSDOF 2
ENDMDL
MODEL 8
REMARK VINA RESULT:    -4.938      2.956      5.606
REMARK INTER + INTRA:          -5.545
REMARK INTER:                  -5.427
REMARK INTRA:                  -0.118
REMARK UNBOUND:                -0.175
REMARK SMILES Cc1ccc(C(C)C)c(O)c1
REMARK SMILES IDX 1 1 2 2 11 3 9 4 5 5 4 6 3 7 10 8 6 10 7 11 8 12
REMARK H PARENT 10 9
REMARK Flexibility Score: inf
ROOT
ATOM      1  C   UNL     1     -12.689  -7.579  37.158  1.00  0.00     0.044 C 
ATOM      2  C   UNL     1     -11.855  -8.247  38.213  1.00  0.00    -0.047 A 
ATOM      3  C   UNL     1     -11.825  -7.737  39.516  1.00  0.00     0.049 A 
ATOM      4  C   UNL     1     -11.034  -8.334  40.505  1.00  0.00     0.119 A 
ATOM      5  C   UNL     1     -10.193  -9.431  40.173  1.00  0.00    -0.004 A 
ATOM      6  C   UNL     1     -10.259  -9.950  38.862  1.00  0.00     0.008 A 
ATOM      7  C   UNL     1     -11.067  -9.354  37.892  1.00  0.00     0.004 A 
ENDROOT
BRANCH   4   8
ATOM      8  O   UNL     1     -11.128  -7.817  41.800  1.00  0.00    -0.508 OA
ATOM      9  H   UNL     1     -11.555  -6.931  42.028  1.00  0.00     0.293 HD
ENDBRANCH   4   8
BRANCH   5  10
ATOM     10  C   UNL     1      -9.288 -10.086  41.213  1.00  0.00     0.017 C 
ATOM     11  C   UNL     1     -10.116 -10.964  42.157  1.00  0.00     0.012 C 
ATOM     12  C   UNL     1      -8.131 -10.892  40.597  1.00  0.00     0.012 C 
ENDBRANCH   5  10
TORSDOF 2
ENDMDL
MODEL 9
REMARK VINA RESULT:    -4.851      8.598      9.839
REMARK INTER + INTRA:          -5.451
REMARK INTER:                  -5.282
REMARK INTRA:                  -0.169
REMARK UNBOUND:                -0.175
REMARK SMILES Cc1ccc(C(C)C)c(O)c1
REMARK SMILES IDX 1 1 2 2 11 3 9 4 5 5 4 6 3 7 10 8 6 10 7 11 8 12
REMARK H PARENT 10 9
REMARK Flexibility Score: inf
ROOT
ATOM      1  C   UNL     1     -17.812  -9.082  43.195  1.00  0.00     0.044 C 
ATOM      2  C   UNL     1     -17.064  -9.495  44.430  1.00  0.00    -0.047 A 
ATOM      3  C   UNL     1     -17.121  -8.709  45.586  1.00  0.00     0.049 A 
ATOM      4  C   UNL     1     -16.411  -9.068  46.737  1.00  0.00     0.119 A 
ATOM      5  C   UNL     1     -15.561 -10.209  46.719  1.00  0.00    -0.004 A 
ATOM      6  C   UNL     1     -15.540 -11.007  45.554  1.00  0.00     0.008 A 
ATOM      7  C   UNL     1     -16.269 -10.644  44.420  1.00  0.00     0.004 A 
ENDROOT
BRANCH   4   8
ATOM      8  O   UNL     1     -16.591  -8.277  47.875  1.00  0.00    -0.508 OA
ATOM      9  H   UNL     1     -16.758  -7.281  47.853  1.00  0.00     0.293 HD
ENDBRANCH   4   8
BRANCH   5  10
ATOM     10  C   UNL     1     -14.742 -10.613  47.941  1.00  0.00     0.017 C 
ATOM     11  C   UNL     1     -14.373 -12.097  47.864  1.00  0.00     0.012 C 
ATOM     12  C   UNL     1     -13.485  -9.751  48.147  1.00  0.00     0.012 C 
ENDBRANCH   5  10
TORSDOF 2
ENDMDL
