MODEL 1
REMARK VINA RESULT:    -5.573      0.000      0.000
REMARK INTER + INTRA:         -12.794
REMARK INTER:                 -10.786
REMARK INTRA:                  -2.008
REMARK UNBOUND:                -2.008
REMARK SMILES CCCCCCCCCCCCCCCCCC(=O)[O-]
REMARK SMILES IDX 10 1 11 2 12 3 13 4 14 5 15 6 16 7 17 8 18 9 19 10 20 11
REMARK SMILES IDX 9 12 8 13 7 14 6 15 5 16 4 17 3 18 2 19 1 20
REMARK H PARENT
REMARK Flexibility Score: inf
ROOT
ATOM      1  C   UNL     1      -0.143 -29.242   5.223  1.00  0.00     0.000 C 
ENDROOT
BRANCH   1   2
ATOM      2  C   UNL     1      -0.512 -27.852   5.755  1.00  0.00     0.000 C 
BRANCH   2   3
ATOM      3  C   UNL     1       0.738 -27.083   6.201  1.00  0.00     0.000 C 
BRANCH   3   4
ATOM      4  C   UNL     1       0.791 -26.957   7.730  1.00  0.00     0.000 C 
BRANCH   4   5
ATOM      5  C   UNL     1      -0.519 -27.396   8.404  1.00  0.00     0.000 C 
BRANCH   5   6
ATOM      6  C   UNL     1      -0.880 -26.520   9.616  1.00  0.00     0.000 C 
BRANCH   6   7
ATOM      7  C   UNL     1      -2.371 -26.611   9.991  1.00  0.00     0.006 C 
BRANCH   7   8
ATOM      8  C   UNL     1      -2.868 -25.461  10.882  1.00  0.00     0.053 C 
BRANCH   8   9
ATOM      9  C   UNL     1      -4.275 -25.066  10.555  1.00  0.00     0.041 C 
ATOM     10  O   UNL     1      -4.718 -23.944  10.915  1.00  0.00    -0.550 OA
ATOM     11  O   UNL     1      -5.088 -25.926   9.828  1.00  0.00    -0.550 OA
ENDBRANCH   8   9
ENDBRANCH   7   8
ENDBRANCH   6   7
ENDBRANCH   5   6
ENDBRANCH   4   5
ENDBRANCH   3   4
ENDBRANCH   2   3
ENDBRANCH   1   2
BRANCH   1  12
ATOM     12  C   UNL     1       1.376 -29.368   5.023  1.00  0.00     0.000 C 
BRANCH  12  13
ATOM     13  C   UNL     1       1.764 -29.685   3.568  1.00  0.00    -0.000 C 
BRANCH  13  14
ATOM     14  C   UNL     1       0.634 -30.281   2.707  1.00  0.00    -0.000 C 
BRANCH  14  15
ATOM     15  C   UNL     1       0.185 -29.403   1.524  1.00  0.00    -0.000 C 
BRANCH  15  16
ATOM     16  C   UNL     1      -1.145 -28.657   1.774  1.00  0.00    -0.000 C 
BRANCH  16  17
ATOM     17  C   UNL     1      -0.992 -27.134   1.665  1.00  0.00    -0.000 C 
BRANCH  17  18
ATOM     18  C   UNL     1       0.356 -26.673   2.232  1.00  0.00    -0.000 C 
BRANCH  18  19
ATOM     19  C   UNL     1       0.216 -25.334   2.964  1.00  0.00    -0.003 C 
ATOM     20  C   UNL     1      -1.207 -25.128   3.471  1.00  0.00     0.004 C 
ENDBRANCH  18  19
ENDBRANCH  17  18
ENDBRANCH  16  17
ENDBRANCH  15  16
ENDBRANCH  14  15
ENDBRANCH  13  14
ENDBRANCH  12  13
ENDBRANCH   1  12
TORSDOF 16
ENDMDL
MODEL 2
REMARK VINA RESULT:    -5.510      3.258      7.559
REMARK INTER + INTRA:         -12.671
REMARK INTER:                 -11.234
REMARK INTRA:                  -1.437
REMARK UNBOUND:                -2.008
REMARK SMILES CCCCCCCCCCCCCCCCCC(=O)[O-]
REMARK SMILES IDX 10 1 11 2 12 3 13 4 14 5 15 6 16 7 17 8 18 9 19 10 20 11
REMARK SMILES IDX 9 12 8 13 7 14 6 15 5 16 4 17 3 18 2 19 1 20
REMARK H PARENT
REMARK Flexibility Score: inf
ROOT
ATOM      1  C   UNL     1      -0.048 -29.040   5.538  1.00  0.00     0.000 C 
ENDROOT
BRANCH   1   2
ATOM      2  C   UNL     1       1.443 -29.321   5.320  1.00  0.00     0.000 C 
BRANCH   2   3
ATOM      3  C   UNL     1       1.726 -29.690   3.858  1.00  0.00     0.000 C 
BRANCH   3   4
ATOM      4  C   UNL     1       0.450 -30.176   3.157  1.00  0.00     0.000 C 
BRANCH   4   5
ATOM      5  C   UNL     1       0.166 -29.413   1.852  1.00  0.00     0.000 C 
BRANCH   5   6
ATOM      6  C   UNL     1       0.359 -27.894   2.004  1.00  0.00     0.000 C 
BRANCH   6   7
ATOM      7  C   UNL     1      -0.936 -27.170   2.418  1.00  0.00     0.006 C 
BRANCH   7   8
ATOM      8  C   UNL     1      -2.042 -27.200   1.352  1.00  0.00     0.053 C 
BRANCH   8   9
ATOM      9  C   UNL     1      -2.219 -25.867   0.690  1.00  0.00     0.041 C 
ATOM     10  O   UNL     1      -1.872 -24.814   1.285  1.00  0.00    -0.550 OA
ATOM     11  O   UNL     1      -2.743 -25.792  -0.595  1.00  0.00    -0.550 OA
ENDBRANCH   8   9
ENDBRANCH   7   8
ENDBRANCH   6   7
ENDBRANCH   5   6
ENDBRANCH   4   5
ENDBRANCH   3   4
ENDBRANCH   2   3
ENDBRANCH   1   2
BRANCH   1  12
ATOM     12  C   UNL     1      -0.268 -27.610   6.055  1.00  0.00     0.000 C 
BRANCH  12  13
ATOM     13  C   UNL     1       0.935 -27.069   6.851  1.00  0.00    -0.000 C 
BRANCH  13  14
ATOM     14  C   UNL     1       0.614 -26.616   8.287  1.00  0.00    -0.000 C 
BRANCH  14  15
ATOM     15  C   UNL     1      -0.841 -26.853   8.735  1.00  0.00    -0.000 C 
BRANCH  15  16
ATOM     16  C   UNL     1      -1.103 -26.487  10.212  1.00  0.00    -0.000 C 
BRANCH  16  17
ATOM     17  C   UNL     1      -2.595 -26.524  10.571  1.00  0.00    -0.000 C 
BRANCH  17  18
ATOM     18  C   UNL     1      -3.138 -25.112  10.817  1.00  0.00    -0.000 C 
BRANCH  18  19
ATOM     19  C   UNL     1      -4.540 -24.949  10.219  1.00  0.00    -0.003 C 
ATOM     20  C   UNL     1      -5.199 -26.304   9.983  1.00  0.00     0.004 C 
ENDBRANCH  18  19
ENDBRANCH  17  18
ENDBRANCH  16  17
ENDBRANCH  15  16
ENDBRANCH  14  15
ENDBRANCH  13  14
ENDBRANCH  12  13
ENDBRANCH   1  12
TORSDOF 16
ENDMDL
MODEL 3
REMARK VINA RESULT:    -5.484      3.329      7.200
REMARK INTER + INTRA:         -12.621
REMARK INTER:                 -10.759
REMARK INTRA:                  -1.862
REMARK UNBOUND:                -2.008
REMARK SMILES CCCCCCCCCCCCCCCCCC(=O)[O-]
REMARK SMILES IDX 10 1 11 2 12 3 13 4 14 5 15 6 16 7 17 8 18 9 19 10 20 11
REMARK SMILES IDX 9 12 8 13 7 14 6 15 5 16 4 17 3 18 2 19 1 20
REMARK H PARENT
REMARK Flexibility Score: inf
ROOT
ATOM      1  C   UNL     1       1.675 -28.495   4.798  1.00  0.00     0.000 C 
ENDROOT
BRANCH   1   2
ATOM      2  C   UNL     1       1.852 -28.698   3.288  1.00  0.00     0.000 C 
BRANCH   2   3
ATOM      3  C   UNL     1       1.209 -30.013   2.831  1.00  0.00     0.000 C 
BRANCH   3   4
ATOM      4  C   UNL     1       0.065 -29.751   1.842  1.00  0.00     0.000 C 
BRANCH   4   5
ATOM      5  C   UNL     1      -0.159 -28.253   1.582  1.00  0.00     0.000 C 
BRANCH   5   6
ATOM      6  C   UNL     1      -1.530 -27.767   2.084  1.00  0.00     0.000 C 
BRANCH   6   7
ATOM      7  C   UNL     1      -1.428 -26.507   2.964  1.00  0.00     0.006 C 
BRANCH   7   8
ATOM      8  C   UNL     1      -0.424 -25.462   2.453  1.00  0.00     0.053 C 
BRANCH   8   9
ATOM      9  C   UNL     1      -0.969 -24.678   1.298  1.00  0.00     0.041 C 
ATOM     10  O   UNL     1      -1.589 -23.601   1.500  1.00  0.00    -0.550 OA
ATOM     11  O   UNL     1      -0.769 -25.124  -0.002  1.00  0.00    -0.550 OA
ENDBRANCH   8   9
ENDBRANCH   7   8
ENDBRANCH   6   7
ENDBRANCH   5   6
ENDBRANCH   4   5
ENDBRANCH   3   4
ENDBRANCH   2   3
ENDBRANCH   1   2
BRANCH   1  12
ATOM     12  C   UNL     1       0.596 -29.435   5.356  1.00  0.00     0.000 C 
BRANCH  12  13
ATOM     13  C   UNL     1      -0.482 -28.696   6.170  1.00  0.00    -0.000 C 
BRANCH  13  14
ATOM     14  C   UNL     1      -0.206 -27.199   6.405  1.00  0.00    -0.000 C 
BRANCH  14  15
ATOM     15  C   UNL     1       0.166 -26.825   7.852  1.00  0.00    -0.000 C 
BRANCH  15  16
ATOM     16  C   UNL     1      -0.938 -27.154   8.881  1.00  0.00    -0.000 C 
BRANCH  16  17
ATOM     17  C   UNL     1      -0.708 -26.458  10.231  1.00  0.00    -0.000 C 
BRANCH  17  18
ATOM     18  C   UNL     1      -2.040 -26.137  10.918  1.00  0.00    -0.000 C 
BRANCH  18  19
ATOM     19  C   UNL     1      -3.114 -25.763   9.890  1.00  0.00    -0.003 C 
ATOM     20  C   UNL     1      -4.502 -25.753  10.522  1.00  0.00     0.004 C 
ENDBRANCH  18  19
ENDBRANCH  17  18
ENDBRANCH  16  17
ENDBRANCH  15  16
ENDBRANCH  14  15
ENDBRANCH  13  14
ENDBRANCH  12  13
ENDBRANCH   1  12
TORSDOF 16
ENDMDL
MODEL 4
REMARK VINA RESULT:    -5.308      3.919      7.868
REMARK INTER + INTRA:         -12.281
REMARK INTER:                 -11.294
REMARK INTRA:                  -0.987
REMARK UNBOUND:                -2.008
REMARK SMILES CCCCCCCCCCCCCCCCCC(=O)[O-]
REMARK SMILES IDX 10 1 11 2 12 3 13 4 14 5 15 6 16 7 17 8 18 9 19 10 20 11
REMARK SMILES IDX 9 12 8 13 7 14 6 15 5 16 4 17 3 18 2 19 1 20
REMARK H PARENT
REMARK Flexibility Score: inf
ROOT
ATOM      1  C   UNL     1      -0.328 -29.136   5.901  1.00  0.00     0.000 C 
ENDROOT
BRANCH   1   2
ATOM      2  C   UNL     1       0.559 -29.256   4.657  1.00  0.00     0.000 C 
BRANCH   2   3
ATOM      3  C   UNL     1       1.051 -27.878   4.197  1.00  0.00     0.000 C 
BRANCH   3   4
ATOM      4  C   UNL     1       0.041 -27.223   3.244  1.00  0.00     0.000 C 
BRANCH   4   5
ATOM      5  C   UNL     1      -0.709 -26.049   3.895  1.00  0.00     0.000 C 
BRANCH   5   6
ATOM      6  C   UNL     1      -1.262 -25.056   2.858  1.00  0.00     0.000 C 
BRANCH   6   7
ATOM      7  C   UNL     1      -1.341 -25.657   1.443  1.00  0.00     0.006 C 
BRANCH   7   8
ATOM      8  C   UNL     1      -2.748 -25.636   0.826  1.00  0.00     0.053 C 
BRANCH   8   9
ATOM      9  C   UNL     1      -2.740 -25.097  -0.572  1.00  0.00     0.041 C 
ATOM     10  O   UNL     1      -3.249 -25.763  -1.511  1.00  0.00    -0.550 OA
ATOM     11  O   UNL     1      -2.193 -23.847  -0.833  1.00  0.00    -0.550 OA
ENDBRANCH   8   9
ENDBRANCH   7   8
ENDBRANCH   6   7
ENDBRANCH   5   6
ENDBRANCH   4   5
ENDBRANCH   3   4
ENDBRANCH   2   3
ENDBRANCH   1   2
BRANCH   1  12
ATOM     12  C   UNL     1       0.465 -28.573   7.090  1.00  0.00     0.000 C 
BRANCH  12  13
ATOM     13  C   UNL     1       0.098 -27.114   7.418  1.00  0.00    -0.000 C 
BRANCH  13  14
ATOM     14  C   UNL     1       0.768 -26.543   8.682  1.00  0.00    -0.000 C 
BRANCH  14  15
ATOM     15  C   UNL     1      -0.094 -26.596   9.957  1.00  0.00    -0.000 C 
BRANCH  15  16
ATOM     16  C   UNL     1      -1.602 -26.785   9.679  1.00  0.00    -0.000 C 
BRANCH  16  17
ATOM     17  C   UNL     1      -2.483 -26.040  10.691  1.00  0.00    -0.000 C 
BRANCH  17  18
ATOM     18  C   UNL     1      -3.960 -26.098  10.283  1.00  0.00    -0.000 C 
BRANCH  18  19
ATOM     19  C   UNL     1      -4.647 -24.747  10.514  1.00  0.00    -0.003 C 
ATOM     20  C   UNL     1      -3.917 -23.931  11.575  1.00  0.00     0.004 C 
ENDBRANCH  18  19
ENDBRANCH  17  18
ENDBRANCH  16  17
ENDBRANCH  15  16
ENDBRANCH  14  15
ENDBRANCH  13  14
ENDBRANCH  12  13
ENDBRANCH   1  12
TORSDOF 16
ENDMDL
MODEL 5
REMARK VINA RESULT:    -5.272      1.132      2.125
REMARK INTER + INTRA:         -12.211
REMARK INTER:                 -10.259
REMARK INTRA:                  -1.952
REMARK UNBOUND:                -2.008
REMARK SMILES CCCCCCCCCCCCCCCCCC(=O)[O-]
REMARK SMILES IDX 10 1 11 2 12 3 13 4 14 5 15 6 16 7 17 8 18 9 19 10 20 11
REMARK SMILES IDX 9 12 8 13 7 14 6 15 5 16 4 17 3 18 2 19 1 20
REMARK H PARENT
REMARK Flexibility Score: inf
ROOT
ATOM      1  C   UNL     1      -0.097 -29.497   5.411  1.00  0.00     0.000 C 
ENDROOT
BRANCH   1   2
ATOM      2  C   UNL     1       0.340 -29.107   6.828  1.00  0.00     0.000 C 
BRANCH   2   3
ATOM      3  C   UNL     1      -0.690 -28.181   7.486  1.00  0.00     0.000 C 
BRANCH   3   4
ATOM      4  C   UNL     1      -0.036 -26.872   7.949  1.00  0.00     0.000 C 
BRANCH   4   5
ATOM      5  C   UNL     1       0.204 -26.837   9.468  1.00  0.00     0.000 C 
BRANCH   5   6
ATOM      6  C   UNL     1      -1.034 -27.276  10.270  1.00  0.00     0.000 C 
BRANCH   6   7
ATOM      7  C   UNL     1      -2.305 -26.506   9.869  1.00  0.00     0.006 C 
BRANCH   7   8
ATOM      8  C   UNL     1      -2.791 -25.499  10.924  1.00  0.00     0.053 C 
BRANCH   8   9
ATOM      9  C   UNL     1      -4.207 -25.072  10.683  1.00  0.00     0.041 C 
ATOM     10  O   UNL     1      -4.611 -23.956  11.099  1.00  0.00    -0.550 OA
ATOM     11  O   UNL     1      -5.070 -25.898   9.974  1.00  0.00    -0.550 OA
ENDBRANCH   8   9
ENDBRANCH   7   8
ENDBRANCH   6   7
ENDBRANCH   5   6
ENDBRANCH   4   5
ENDBRANCH   3   4
ENDBRANCH   2   3
ENDBRANCH   1   2
BRANCH   1  12
ATOM     12  C   UNL     1       1.108 -29.555   4.460  1.00  0.00     0.000 C 
BRANCH  12  13
ATOM     13  C   UNL     1       1.957 -28.271   4.489  1.00  0.00    -0.000 C 
BRANCH  13  14
ATOM     14  C   UNL     1       1.961 -27.464   3.178  1.00  0.00    -0.000 C 
BRANCH  14  15
ATOM     15  C   UNL     1       1.328 -26.063   3.273  1.00  0.00    -0.000 C 
BRANCH  15  16
ATOM     16  C   UNL     1       0.331 -25.911   4.443  1.00  0.00    -0.000 C 
BRANCH  16  17
ATOM     17  C   UNL     1      -1.115 -26.209   4.024  1.00  0.00    -0.000 C 
BRANCH  17  18
ATOM     18  C   UNL     1      -1.340 -25.879   2.544  1.00  0.00    -0.000 C 
BRANCH  18  19
ATOM     19  C   UNL     1      -2.122 -26.995   1.843  1.00  0.00    -0.003 C 
ATOM     20  C   UNL     1      -1.296 -28.273   1.751  1.00  0.00     0.004 C 
ENDBRANCH  18  19
ENDBRANCH  17  18
ENDBRANCH  16  17
ENDBRANCH  15  16
ENDBRANCH  14  15
ENDBRANCH  13  14
ENDBRANCH  12  13
ENDBRANCH   1  12
TORSDOF 16
ENDMDL
MODEL 6
REMARK VINA RESULT:    -5.112      1.176      2.838
REMARK INTER + INTRA:         -11.901
REMARK INTER:                 -10.170
REMARK INTRA:                  -1.732
REMARK UNBOUND:                -2.008
REMARK SMILES CCCCCCCCCCCCCCCCCC(=O)[O-]
REMARK SMILES IDX 10 1 11 2 12 3 13 4 14 5 15 6 16 7 17 8 18 9 19 10 20 11
REMARK SMILES IDX 9 12 8 13 7 14 6 15 5 16 4 17 3 18 2 19 1 20
REMARK H PARENT
REMARK Flexibility Score: inf
ROOT
ATOM      1  C   UNL     1       0.851 -27.602   6.463  1.00  0.00     0.000 C 
ENDROOT
BRANCH   1   2
ATOM      2  C   UNL     1       0.887 -29.113   6.718  1.00  0.00     0.000 C 
BRANCH   2   3
ATOM      3  C   UNL     1       0.915 -29.418   8.221  1.00  0.00     0.000 C 
BRANCH   3   4
ATOM      4  C   UNL     1      -0.484 -29.276   8.836  1.00  0.00     0.000 C 
BRANCH   4   5
ATOM      5  C   UNL     1      -0.484 -28.414  10.109  1.00  0.00     0.000 C 
BRANCH   5   6
ATOM      6  C   UNL     1      -0.643 -26.914   9.804  1.00  0.00     0.000 C 
BRANCH   6   7
ATOM      7  C   UNL     1      -2.114 -26.497   9.622  1.00  0.00     0.006 C 
BRANCH   7   8
ATOM      8  C   UNL     1      -2.718 -25.774  10.836  1.00  0.00     0.053 C 
BRANCH   8   9
ATOM      9  C   UNL     1      -4.064 -25.189  10.528  1.00  0.00     0.041 C 
ATOM     10  O   UNL     1      -4.313 -23.990  10.815  1.00  0.00    -0.550 OA
ATOM     11  O   UNL     1      -5.031 -25.964   9.900  1.00  0.00    -0.550 OA
ENDBRANCH   8   9
ENDBRANCH   7   8
ENDBRANCH   6   7
ENDBRANCH   5   6
ENDBRANCH   4   5
ENDBRANCH   3   4
ENDBRANCH   2   3
ENDBRANCH   1   2
BRANCH   1  12
ATOM     12  C   UNL     1      -0.423 -27.203   5.703  1.00  0.00     0.000 C 
BRANCH  12  13
ATOM     13  C   UNL     1      -0.145 -26.244   4.531  1.00  0.00    -0.000 C 
BRANCH  13  14
ATOM     14  C   UNL     1      -1.397 -25.764   3.772  1.00  0.00    -0.000 C 
BRANCH  14  15
ATOM     15  C   UNL     1      -1.238 -25.677   2.243  1.00  0.00    -0.000 C 
BRANCH  15  16
ATOM     16  C   UNL     1      -0.487 -26.878   1.628  1.00  0.00    -0.000 C 
BRANCH  16  17
ATOM     17  C   UNL     1      -1.328 -28.163   1.635  1.00  0.00    -0.000 C 
BRANCH  17  18
ATOM     18  C   UNL     1      -0.438 -29.403   1.776  1.00  0.00    -0.000 C 
BRANCH  18  19
ATOM     19  C   UNL     1       0.871 -29.061   2.496  1.00  0.00    -0.003 C 
ATOM     20  C   UNL     1       1.510 -30.308   3.100  1.00  0.00     0.004 C 
ENDBRANCH  18  19
ENDBRANCH  17  18
ENDBRANCH  16  17
ENDBRANCH  15  16
ENDBRANCH  14  15
ENDBRANCH  13  14
ENDBRANCH  12  13
ENDBRANCH   1  12
TORSDOF 16
ENDMDL
MODEL 7
REMARK VINA RESULT:    -5.025      1.503      2.234
REMARK INTER + INTRA:         -11.733
REMARK INTER:                 -10.582
REMARK INTRA:                  -1.151
REMARK UNBOUND:                -2.008
REMARK SMILES CCCCCCCCCCCCCCCCCC(=O)[O-]
REMARK SMILES IDX 10 1 11 2 12 3 13 4 14 5 15 6 16 7 17 8 18 9 19 10 20 11
REMARK SMILES IDX 9 12 8 13 7 14 6 15 5 16 4 17 3 18 2 19 1 20
REMARK H PARENT
REMARK Flexibility Score: inf
ROOT
ATOM      1  C   UNL     1       1.804 -29.005   4.679  1.00  0.00     0.000 C 
ENDROOT
BRANCH   1   2
ATOM      2  C   UNL     1       0.433 -29.326   5.286  1.00  0.00     0.000 C 
BRANCH   2   3
ATOM      3  C   UNL     1      -0.193 -28.079   5.923  1.00  0.00     0.000 C 
BRANCH   3   4
ATOM      4  C   UNL     1      -0.380 -28.269   7.435  1.00  0.00     0.000 C 
BRANCH   4   5
ATOM      5  C   UNL     1      -0.268 -26.949   8.214  1.00  0.00     0.000 C 
BRANCH   5   6
ATOM      6  C   UNL     1      -0.587 -27.118   9.710  1.00  0.00     0.000 C 
BRANCH   6   7
ATOM      7  C   UNL     1      -1.715 -26.184  10.186  1.00  0.00     0.006 C 
BRANCH   7   8
ATOM      8  C   UNL     1      -3.116 -26.814  10.137  1.00  0.00     0.053 C 
BRANCH   8   9
ATOM      9  C   UNL     1      -4.194 -25.802  10.383  1.00  0.00     0.041 C 
ATOM     10  O   UNL     1      -5.318 -26.167  10.816  1.00  0.00    -0.550 OA
ATOM     11  O   UNL     1      -3.946 -24.453  10.160  1.00  0.00    -0.550 OA
ENDBRANCH   8   9
ENDBRANCH   7   8
ENDBRANCH   6   7
ENDBRANCH   5   6
ENDBRANCH   4   5
ENDBRANCH   3   4
ENDBRANCH   2   3
ENDBRANCH   1   2
BRANCH   1  12
ATOM     12  C   UNL     1       1.849 -29.387   3.191  1.00  0.00     0.000 C 
BRANCH  12  13
ATOM     13  C   UNL     1       0.583 -30.129   2.725  1.00  0.00    -0.000 C 
BRANCH  13  14
ATOM     14  C   UNL     1      -0.174 -29.457   1.564  1.00  0.00    -0.000 C 
BRANCH  14  15
ATOM     15  C   UNL     1      -0.152 -27.917   1.576  1.00  0.00    -0.000 C 
BRANCH  15  16
ATOM     16  C   UNL     1      -1.179 -27.289   2.543  1.00  0.00    -0.000 C 
BRANCH  16  17
ATOM     17  C   UNL     1      -2.294 -26.535   1.805  1.00  0.00    -0.000 C 
BRANCH  17  18
ATOM     18  C   UNL     1      -1.890 -26.232   0.358  1.00  0.00    -0.000 C 
BRANCH  18  19
ATOM     19  C   UNL     1      -2.783 -25.142  -0.246  1.00  0.00    -0.003 C 
ATOM     20  C   UNL     1      -3.322 -25.564  -1.609  1.00  0.00     0.004 C 
ENDBRANCH  18  19
ENDBRANCH  17  18
ENDBRANCH  16  17
ENDBRANCH  15  16
ENDBRANCH  14  15
ENDBRANCH  13  14
ENDBRANCH  12  13
ENDBRANCH   1  12
TORSDOF 16
ENDMDL
MODEL 8
REMARK VINA RESULT:    -4.904      1.874      3.010
REMARK INTER + INTRA:         -11.499
REMARK INTER:                 -10.427
REMARK INTRA:                  -1.072
REMARK UNBOUND:                -2.008
REMARK SMILES CCCCCCCCCCCCCCCCCC(=O)[O-]
REMARK SMILES IDX 10 1 11 2 12 3 13 4 14 5 15 6 16 7 17 8 18 9 19 10 20 11
REMARK SMILES IDX 9 12 8 13 7 14 6 15 5 16 4 17 3 18 2 19 1 20
REMARK H PARENT
REMARK Flexibility Score: inf
ROOT
ATOM      1  C   UNL     1      -0.229 -27.154   7.161  1.00  0.00     0.000 C 
ENDROOT
BRANCH   1   2
ATOM      2  C   UNL     1       0.199 -27.566   8.575  1.00  0.00     0.000 C 
BRANCH   2   3
ATOM      3  C   UNL     1       1.099 -26.499   9.210  1.00  0.00     0.000 C 
BRANCH   3   4
ATOM      4  C   UNL     1       1.464 -26.876  10.653  1.00  0.00     0.000 C 
BRANCH   4   5
ATOM      5  C   UNL     1       0.638 -26.100  11.692  1.00  0.00     0.000 C 
BRANCH   5   6
ATOM      6  C   UNL     1      -0.797 -26.639  11.827  1.00  0.00     0.000 C 
BRANCH   6   7
ATOM      7  C   UNL     1      -1.854 -25.648  11.306  1.00  0.00     0.006 C 
BRANCH   7   8
ATOM      8  C   UNL     1      -2.819 -26.245  10.268  1.00  0.00     0.053 C 
BRANCH   8   9
ATOM      9  C   UNL     1      -4.207 -25.699  10.414  1.00  0.00     0.041 C 
ATOM     10  O   UNL     1      -5.197 -26.475  10.399  1.00  0.00    -0.550 OA
ATOM     11  O   UNL     1      -4.402 -24.335  10.594  1.00  0.00    -0.550 OA
ENDBRANCH   8   9
ENDBRANCH   7   8
ENDBRANCH   6   7
ENDBRANCH   5   6
ENDBRANCH   4   5
ENDBRANCH   3   4
ENDBRANCH   2   3
ENDBRANCH   1   2
BRANCH   1  12
ATOM     12  C   UNL     1      -0.180 -28.353   6.201  1.00  0.00     0.000 C 
BRANCH  12  13
ATOM     13  C   UNL     1      -0.355 -27.946   4.726  1.00  0.00    -0.000 C 
BRANCH  13  14
ATOM     14  C   UNL     1      -0.770 -26.480   4.500  1.00  0.00    -0.000 C 
BRANCH  14  15
ATOM     15  C   UNL     1      -1.226 -26.146   3.067  1.00  0.00    -0.000 C 
BRANCH  15  16
ATOM     16  C   UNL     1      -1.380 -27.386   2.160  1.00  0.00    -0.000 C 
BRANCH  16  17
ATOM     17  C   UNL     1      -2.097 -27.064   0.841  1.00  0.00    -0.000 C 
BRANCH  17  18
ATOM     18  C   UNL     1      -2.499 -25.586   0.780  1.00  0.00    -0.000 C 
BRANCH  18  19
ATOM     19  C   UNL     1      -2.226 -24.998  -0.609  1.00  0.00    -0.003 C 
ATOM     20  C   UNL     1      -3.344 -25.349  -1.585  1.00  0.00     0.004 C 
ENDBRANCH  18  19
ENDBRANCH  17  18
ENDBRANCH  16  17
ENDBRANCH  15  16
ENDBRANCH  14  15
ENDBRANCH  13  14
ENDBRANCH  12  13
ENDBRANCH   1  12
TORSDOF 16
ENDMDL
MODEL 9
REMARK VINA RESULT:    -4.846      1.970      2.756
REMARK INTER + INTRA:         -11.387
REMARK INTER:                 -10.244
REMARK INTRA:                  -1.143
REMARK UNBOUND:                -2.008
REMARK SMILES CCCCCCCCCCCCCCCCCC(=O)[O-]
REMARK SMILES IDX 10 1 11 2 12 3 13 4 14 5 15 6 16 7 17 8 18 9 19 10 20 11
REMARK SMILES IDX 9 12 8 13 7 14 6 15 5 16 4 17 3 18 2 19 1 20
REMARK H PARENT
REMARK Flexibility Score: inf
ROOT
ATOM      1  C   UNL     1      -0.496 -28.408   5.131  1.00  0.00     0.000 C 
ENDROOT
BRANCH   1   2
ATOM      2  C   UNL     1       0.344 -29.082   6.222  1.00  0.00     0.000 C 
BRANCH   2   3
ATOM      3  C   UNL     1      -0.235 -28.802   7.615  1.00  0.00     0.000 C 
BRANCH   3   4
ATOM      4  C   UNL     1       0.765 -28.021   8.479  1.00  0.00     0.000 C 
BRANCH   4   5
ATOM      5  C   UNL     1       0.124 -26.810   9.175  1.00  0.00     0.000 C 
BRANCH   5   6
ATOM      6  C   UNL     1      -1.408 -26.791   9.031  1.00  0.00     0.000 C 
BRANCH   6   7
ATOM      7  C   UNL     1      -2.132 -26.747  10.389  1.00  0.00     0.006 C 
BRANCH   7   8
ATOM      8  C   UNL     1      -2.646 -25.354  10.785  1.00  0.00     0.053 C 
BRANCH   8   9
ATOM      9  C   UNL     1      -4.128 -25.230  10.603  1.00  0.00     0.041 C 
ATOM     10  O   UNL     1      -4.728 -24.191  10.984  1.00  0.00    -0.550 OA
ATOM     11  O   UNL     1      -4.841 -26.252   9.990  1.00  0.00    -0.550 OA
ENDBRANCH   8   9
ENDBRANCH   7   8
ENDBRANCH   6   7
ENDBRANCH   5   6
ENDBRANCH   4   5
ENDBRANCH   3   4
ENDBRANCH   2   3
ENDBRANCH   1   2
BRANCH   1  12
ATOM     12  C   UNL     1      -0.332 -26.881   5.177  1.00  0.00     0.000 C 
BRANCH  12  13
ATOM     13  C   UNL     1      -0.969 -26.173   3.967  1.00  0.00    -0.000 C 
BRANCH  13  14
ATOM     14  C   UNL     1      -0.251 -26.407   2.624  1.00  0.00    -0.000 C 
BRANCH  14  15
ATOM     15  C   UNL     1      -1.169 -26.815   1.457  1.00  0.00    -0.000 C 
BRANCH  15  16
ATOM     16  C   UNL     1      -2.259 -25.771   1.130  1.00  0.00    -0.000 C 
BRANCH  16  17
ATOM     17  C   UNL     1      -2.832 -25.943  -0.284  1.00  0.00    -0.000 C 
BRANCH  17  18
ATOM     18  C   UNL     1      -2.474 -24.747  -1.173  1.00  0.00    -0.000 C 
BRANCH  18  19
ATOM     19  C   UNL     1      -1.440 -23.844  -0.490  1.00  0.00    -0.003 C 
ATOM     20  C   UNL     1      -0.176 -23.717  -1.334  1.00  0.00     0.004 C 
ENDBRANCH  18  19
ENDBRANCH  17  18
ENDBRANCH  16  17
ENDBRANCH  15  16
ENDBRANCH  14  15
ENDBRANCH  13  14
ENDBRANCH  12  13
ENDBRANCH   1  12
TORSDOF 16
ENDMDL
