MODEL 1
REMARK VINA RESULT:    19.325      0.000      0.000
REMARK INTER + INTRA:          33.287
REMARK INTER:                  34.011
REMARK INTRA:                  -0.724
REMARK UNBOUND:                -0.724
REMARK SMILES CCCCCCC=CCCCCCCCC(=O)[O-]
REMARK SMILES IDX 10 1 11 2 12 3 13 4 14 5 15 6 16 7 17 8 18 9 9 10 8 11 7 12
REMARK SMILES IDX 6 13 5 14 4 15 3 16 2 17 1 18
REMARK H PARENT
REMARK Flexibility Score: inf
ROOT
ATOM      1  C   UNL     1     -41.204  24.306 -13.718  1.00  0.00     0.004 C 
ENDROOT
BRANCH   1   2
ATOM      2  C   UNL     1     -41.683  23.681 -12.395  1.00  0.00     0.000 C 
BRANCH   2   3
ATOM      3  C   UNL     1     -42.189  24.689 -11.348  1.00  0.00     0.000 C 
BRANCH   3   4
ATOM      4  C   UNL     1     -43.455  24.212 -10.620  1.00  0.00     0.000 C 
BRANCH   4   5
ATOM      5  C   UNL     1     -43.729  25.071  -9.376  1.00  0.00     0.006 C 
BRANCH   5   6
ATOM      6  C   UNL     1     -45.219  25.400  -9.215  1.00  0.00     0.053 C 
BRANCH   6   7
ATOM      7  C   UNL     1     -45.532  25.905  -7.840  1.00  0.00     0.041 C 
ATOM      8  O   UNL     1     -44.710  25.735  -6.900  1.00  0.00    -0.550 OA
ATOM      9  O   UNL     1     -46.715  26.593  -7.604  1.00  0.00    -0.550 OA
ENDBRANCH   6   7
ENDBRANCH   5   6
ENDBRANCH   4   5
ENDBRANCH   3   4
ENDBRANCH   2   3
ENDBRANCH   1   2
BRANCH   1  10
ATOM     10  C   UNL     1     -42.326  24.433 -14.757  1.00  0.00     0.027 C 
BRANCH  10  11
ATOM     11  C   UNL     1     -42.925  23.085 -15.068  1.00  0.00    -0.031 C 
ATOM     12  C   UNL     1     -42.870  22.488 -16.273  1.00  0.00    -0.031 C 
BRANCH  12  13
ATOM     13  C   UNL     1     -42.157  23.081 -17.466  1.00  0.00     0.027 C 
BRANCH  13  14
ATOM     14  C   UNL     1     -40.677  22.669 -17.535  1.00  0.00     0.004 C 
BRANCH  14  15
ATOM     15  C   UNL     1     -40.359  21.575 -18.577  1.00  0.00     0.000 C 
BRANCH  15  16
ATOM     16  C   UNL     1     -38.871  21.197 -18.698  1.00  0.00    -0.000 C 
BRANCH  16  17
ATOM     17  C   UNL     1     -37.933  22.401 -18.546  1.00  0.00    -0.003 C 
ATOM     18  C   UNL     1     -37.938  23.265 -19.805  1.00  0.00     0.004 C 
ENDBRANCH  16  17
ENDBRANCH  15  16
ENDBRANCH  14  15
ENDBRANCH  13  14
ENDBRANCH  12  13
ENDBRANCH  10  11
ENDBRANCH   1  10
TORSDOF 13
ENDMDL
MODEL 2
REMARK VINA RESULT:    19.513      6.060      7.969
REMARK INTER + INTRA:          33.618
REMARK INTER:                  34.186
REMARK INTRA:                  -0.568
REMARK UNBOUND:                -0.724
REMARK SMILES CCCCCCC=CCCCCCCCC(=O)[O-]
REMARK SMILES IDX 10 1 11 2 12 3 13 4 14 5 15 6 16 7 17 8 18 9 9 10 8 11 7 12
REMARK SMILES IDX 6 13 5 14 4 15 3 16 2 17 1 18
REMARK H PARENT
REMARK Flexibility Score: inf
ROOT
ATOM      1  C   UNL     1     -36.562  22.790  -7.619  1.00  0.00     0.004 C 
ENDROOT
BRANCH   1   2
ATOM      2  C   UNL     1     -37.306  22.098  -6.462  1.00  0.00     0.000 C 
BRANCH   2   3
ATOM      3  C   UNL     1     -37.082  22.730  -5.077  1.00  0.00     0.000 C 
BRANCH   3   4
ATOM      4  C   UNL     1     -37.702  24.129  -4.949  1.00  0.00     0.000 C 
BRANCH   4   5
ATOM      5  C   UNL     1     -36.655  25.220  -5.219  1.00  0.00     0.006 C 
BRANCH   5   6
ATOM      6  C   UNL     1     -37.176  26.622  -4.875  1.00  0.00     0.053 C 
BRANCH   6   7
ATOM      7  C   UNL     1     -37.457  27.428  -6.106  1.00  0.00     0.041 C 
ATOM      8  O   UNL     1     -36.639  27.429  -7.064  1.00  0.00    -0.550 OA
ATOM      9  O   UNL     1     -38.639  28.150  -6.209  1.00  0.00    -0.550 OA
ENDBRANCH   6   7
ENDBRANCH   5   6
ENDBRANCH   4   5
ENDBRANCH   3   4
ENDBRANCH   2   3
ENDBRANCH   1   2
BRANCH   1  10
ATOM     10  C   UNL     1     -36.931  22.215  -8.993  1.00  0.00     0.027 C 
BRANCH  10  11
ATOM     11  C   UNL     1     -36.073  22.820 -10.076  1.00  0.00    -0.031 C 
ATOM     12  C   UNL     1     -36.492  23.061 -11.332  1.00  0.00    -0.031 C 
BRANCH  12  13
ATOM     13  C   UNL     1     -37.900  22.792 -11.808  1.00  0.00     0.027 C 
BRANCH  13  14
ATOM     14  C   UNL     1     -38.415  23.875 -12.771  1.00  0.00     0.004 C 
BRANCH  14  15
ATOM     15  C   UNL     1     -39.767  24.505 -12.373  1.00  0.00     0.000 C 
BRANCH  15  16
ATOM     16  C   UNL     1     -40.991  23.970 -13.138  1.00  0.00    -0.000 C 
BRANCH  16  17
ATOM     17  C   UNL     1     -42.313  24.574 -12.648  1.00  0.00    -0.003 C 
ATOM     18  C   UNL     1     -42.564  24.234 -11.181  1.00  0.00     0.004 C 
ENDBRANCH  16  17
ENDBRANCH  15  16
ENDBRANCH  14  15
ENDBRANCH  13  14
ENDBRANCH  12  13
ENDBRANCH  10  11
ENDBRANCH   1  10
TORSDOF 13
ENDMDL
MODEL 3
REMARK VINA RESULT:    19.588      9.471     12.546
REMARK INTER + INTRA:          33.751
REMARK INTER:                  33.102
REMARK INTRA:                   0.650
REMARK UNBOUND:                -0.724
REMARK SMILES CCCCCCC=CCCCCCCCC(=O)[O-]
REMARK SMILES IDX 10 1 11 2 12 3 13 4 14 5 15 6 16 7 17 8 18 9 9 10 8 11 7 12
REMARK SMILES IDX 6 13 5 14 4 15 3 16 2 17 1 18
REMARK H PARENT
REMARK Flexibility Score: inf
ROOT
ATOM      1  C   UNL     1     -37.411  27.171  -6.135  1.00  0.00     0.004 C 
ENDROOT
BRANCH   1   2
ATOM      2  C   UNL     1     -36.573  26.313  -5.169  1.00  0.00     0.000 C 
BRANCH   2   3
ATOM      3  C   UNL     1     -36.182  24.925  -5.708  1.00  0.00     0.000 C 
BRANCH   3   4
ATOM      4  C   UNL     1     -36.766  23.774  -4.876  1.00  0.00     0.000 C 
BRANCH   4   5
ATOM      5  C   UNL     1     -37.684  22.889  -5.733  1.00  0.00     0.006 C 
BRANCH   5   6
ATOM      6  C   UNL     1     -37.727  23.345  -7.198  1.00  0.00     0.053 C 
BRANCH   6   7
ATOM      7  C   UNL     1     -36.737  22.602  -8.042  1.00  0.00     0.041 C 
ATOM      8  O   UNL     1     -36.620  21.352  -7.929  1.00  0.00    -0.550 OA
ATOM      9  O   UNL     1     -35.968  23.284  -8.976  1.00  0.00    -0.550 OA
ENDBRANCH   6   7
ENDBRANCH   5   6
ENDBRANCH   4   5
ENDBRANCH   3   4
ENDBRANCH   2   3
ENDBRANCH   1   2
BRANCH   1  10
ATOM     10  C   UNL     1     -38.813  27.480  -5.593  1.00  0.00     0.027 C 
BRANCH  10  11
ATOM     11  C   UNL     1     -38.850  28.844  -4.948  1.00  0.00    -0.031 C 
ATOM     12  C   UNL     1     -37.872  29.761  -5.053  1.00  0.00    -0.031 C 
BRANCH  12  13
ATOM     13  C   UNL     1     -36.618  29.554  -5.872  1.00  0.00     0.027 C 
BRANCH  13  14
ATOM     14  C   UNL     1     -35.344  29.962  -5.114  1.00  0.00     0.004 C 
BRANCH  14  15
ATOM     15  C   UNL     1     -34.090  30.126  -5.998  1.00  0.00     0.000 C 
BRANCH  15  16
ATOM     16  C   UNL     1     -32.779  30.393  -5.236  1.00  0.00    -0.000 C 
BRANCH  16  17
ATOM     17  C   UNL     1     -32.587  31.872  -4.876  1.00  0.00    -0.003 C 
ATOM     18  C   UNL     1     -31.769  32.597  -5.941  1.00  0.00     0.004 C 
ENDBRANCH  16  17
ENDBRANCH  15  16
ENDBRANCH  14  15
ENDBRANCH  13  14
ENDBRANCH  12  13
ENDBRANCH  10  11
ENDBRANCH   1  10
TORSDOF 13
ENDMDL
MODEL 4
REMARK VINA RESULT:    20.020      6.680     10.393
REMARK INTER + INTRA:          34.511
REMARK INTER:                  34.585
REMARK INTRA:                  -0.074
REMARK UNBOUND:                -0.724
REMARK SMILES CCCCCCC=CCCCCCCCC(=O)[O-]
REMARK SMILES IDX 10 1 11 2 12 3 13 4 14 5 15 6 16 7 17 8 18 9 9 10 8 11 7 12
REMARK SMILES IDX 6 13 5 14 4 15 3 16 2 17 1 18
REMARK H PARENT
REMARK Flexibility Score: inf
ROOT
ATOM      1  C   UNL     1     -36.288  23.368  -8.778  1.00  0.00     0.004 C 
ENDROOT
BRANCH   1   2
ATOM      2  C   UNL     1     -36.916  22.645  -9.983  1.00  0.00     0.000 C 
BRANCH   2   3
ATOM      3  C   UNL     1     -37.712  23.551 -10.941  1.00  0.00     0.000 C 
BRANCH   3   4
ATOM      4  C   UNL     1     -37.828  22.969 -12.357  1.00  0.00     0.000 C 
BRANCH   4   5
ATOM      5  C   UNL     1     -38.530  23.959 -13.300  1.00  0.00     0.006 C 
BRANCH   5   6
ATOM      6  C   UNL     1     -39.727  24.648 -12.631  1.00  0.00     0.053 C 
BRANCH   6   7
ATOM      7  C   UNL     1     -41.027  24.212 -13.233  1.00  0.00     0.041 C 
ATOM      8  O   UNL     1     -41.919  23.693 -12.510  1.00  0.00    -0.550 OA
ATOM      9  O   UNL     1     -41.268  24.411 -14.587  1.00  0.00    -0.550 OA
ENDBRANCH   6   7
ENDBRANCH   5   6
ENDBRANCH   4   5
ENDBRANCH   3   4
ENDBRANCH   2   3
ENDBRANCH   1   2
BRANCH   1  10
ATOM     10  C   UNL     1     -37.322  23.766  -7.716  1.00  0.00     0.027 C 
BRANCH  10  11
ATOM     11  C   UNL     1     -37.188  22.903  -6.486  1.00  0.00    -0.031 C 
ATOM     12  C   UNL     1     -37.246  23.365  -5.224  1.00  0.00    -0.031 C 
BRANCH  12  13
ATOM     13  C   UNL     1     -37.496  24.815  -4.876  1.00  0.00     0.027 C 
BRANCH  13  14
ATOM     14  C   UNL     1     -36.720  25.782  -5.786  1.00  0.00     0.004 C 
BRANCH  14  15
ATOM     15  C   UNL     1     -37.286  27.218  -5.834  1.00  0.00     0.000 C 
BRANCH  15  16
ATOM     16  C   UNL     1     -36.696  28.119  -6.934  1.00  0.00    -0.000 C 
BRANCH  16  17
ATOM     17  C   UNL     1     -36.201  29.469  -6.400  1.00  0.00    -0.003 C 
ATOM     18  C   UNL     1     -36.334  29.543  -4.881  1.00  0.00     0.004 C 
ENDBRANCH  16  17
ENDBRANCH  15  16
ENDBRANCH  14  15
ENDBRANCH  13  14
ENDBRANCH  12  13
ENDBRANCH  10  11
ENDBRANCH   1  10
TORSDOF 13
ENDMDL
MODEL 5
REMARK VINA RESULT:    20.472      7.052     10.169
REMARK INTER + INTRA:          35.306
REMARK INTER:                  36.050
REMARK INTRA:                  -0.744
REMARK UNBOUND:                -0.724
REMARK SMILES CCCCCCC=CCCCCCCCC(=O)[O-]
REMARK SMILES IDX 10 1 11 2 12 3 13 4 14 5 15 6 16 7 17 8 18 9 9 10 8 11 7 12
REMARK SMILES IDX 6 13 5 14 4 15 3 16 2 17 1 18
REMARK H PARENT
REMARK Flexibility Score: inf
ROOT
ATOM      1  C   UNL     1     -37.898  28.395 -21.967  1.00  0.00     0.004 C 
ENDROOT
BRANCH   1   2
ATOM      2  C   UNL     1     -38.080  29.396 -20.811  1.00  0.00     0.000 C 
BRANCH   2   3
ATOM      3  C   UNL     1     -39.542  29.747 -20.482  1.00  0.00     0.000 C 
BRANCH   3   4
ATOM      4  C   UNL     1     -40.490  29.546 -21.674  1.00  0.00     0.000 C 
BRANCH   4   5
ATOM      5  C   UNL     1     -41.933  29.906 -21.293  1.00  0.00     0.006 C 
BRANCH   5   6
ATOM      6  C   UNL     1     -42.610  30.789 -22.351  1.00  0.00     0.053 C 
BRANCH   6   7
ATOM      7  C   UNL     1     -43.739  31.585 -21.772  1.00  0.00     0.041 C 
ATOM      8  O   UNL     1     -44.592  32.120 -22.529  1.00  0.00    -0.550 OA
ATOM      9  O   UNL     1     -43.868  31.707 -20.394  1.00  0.00    -0.550 OA
ENDBRANCH   6   7
ENDBRANCH   5   6
ENDBRANCH   4   5
ENDBRANCH   3   4
ENDBRANCH   2   3
ENDBRANCH   1   2
BRANCH   1  10
ATOM     10  C   UNL     1     -37.420  27.016 -21.491  1.00  0.00     0.027 C 
BRANCH  10  11
ATOM     11  C   UNL     1     -38.384  25.937 -21.919  1.00  0.00    -0.031 C 
ATOM     12  C   UNL     1     -38.479  24.729 -21.336  1.00  0.00    -0.031 C 
BRANCH  12  13
ATOM     13  C   UNL     1     -37.654  24.311 -20.140  1.00  0.00     0.027 C 
BRANCH  13  14
ATOM     14  C   UNL     1     -37.873  22.838 -19.758  1.00  0.00     0.004 C 
BRANCH  14  15
ATOM     15  C   UNL     1     -38.563  22.619 -18.395  1.00  0.00     0.000 C 
BRANCH  15  16
ATOM     16  C   UNL     1     -39.976  22.012 -18.464  1.00  0.00    -0.000 C 
BRANCH  16  17
ATOM     17  C   UNL     1     -41.086  23.056 -18.287  1.00  0.00    -0.003 C 
ATOM     18  C   UNL     1     -41.968  22.723 -17.087  1.00  0.00     0.004 C 
ENDBRANCH  16  17
ENDBRANCH  15  16
ENDBRANCH  14  15
ENDBRANCH  13  14
ENDBRANCH  12  13
ENDBRANCH  10  11
ENDBRANCH   1  10
TORSDOF 13
ENDMDL
MODEL 6
REMARK VINA RESULT:    20.511      3.595      6.144
REMARK INTER + INTRA:          35.374
REMARK INTER:                  36.011
REMARK INTRA:                  -0.637
REMARK UNBOUND:                -0.724
REMARK SMILES CCCCCCC=CCCCCCCCC(=O)[O-]
REMARK SMILES IDX 10 1 11 2 12 3 13 4 14 5 15 6 16 7 17 8 18 9 9 10 8 11 7 12
REMARK SMILES IDX 6 13 5 14 4 15 3 16 2 17 1 18
REMARK H PARENT
REMARK Flexibility Score: inf
ROOT
ATOM      1  C   UNL     1     -40.365  22.043 -18.380  1.00  0.00     0.004 C 
ENDROOT
BRANCH   1   2
ATOM      2  C   UNL     1     -41.720  22.524 -17.832  1.00  0.00     0.000 C 
BRANCH   2   3
ATOM      3  C   UNL     1     -41.630  23.503 -16.648  1.00  0.00     0.000 C 
BRANCH   3   4
ATOM      4  C   UNL     1     -42.618  23.171 -15.519  1.00  0.00     0.000 C 
BRANCH   4   5
ATOM      5  C   UNL     1     -42.495  24.180 -14.369  1.00  0.00     0.006 C 
BRANCH   5   6
ATOM      6  C   UNL     1     -42.126  23.505 -13.040  1.00  0.00     0.053 C 
BRANCH   6   7
ATOM      7  C   UNL     1     -41.037  24.243 -12.324  1.00  0.00     0.041 C 
ATOM      8  O   UNL     1     -39.888  24.330 -12.834  1.00  0.00    -0.550 OA
ATOM      9  O   UNL     1     -41.300  24.864 -11.110  1.00  0.00    -0.550 OA
ENDBRANCH   6   7
ENDBRANCH   5   6
ENDBRANCH   4   5
ENDBRANCH   3   4
ENDBRANCH   2   3
ENDBRANCH   1   2
BRANCH   1  10
ATOM     10  C   UNL     1     -39.254  23.091 -18.228  1.00  0.00     0.027 C 
BRANCH  10  11
ATOM     11  C   UNL     1     -38.047  22.718 -19.053  1.00  0.00    -0.031 C 
ATOM     12  C   UNL     1     -37.706  23.313 -20.210  1.00  0.00    -0.031 C 
BRANCH  12  13
ATOM     13  C   UNL     1     -38.472  24.468 -20.814  1.00  0.00     0.027 C 
BRANCH  13  14
ATOM     14  C   UNL     1     -37.576  25.684 -21.101  1.00  0.00     0.004 C 
BRANCH  14  15
ATOM     15  C   UNL     1     -38.241  26.792 -21.946  1.00  0.00     0.000 C 
BRANCH  15  16
ATOM     16  C   UNL     1     -37.569  28.174 -21.863  1.00  0.00    -0.000 C 
BRANCH  16  17
ATOM     17  C   UNL     1     -38.352  29.171 -20.999  1.00  0.00    -0.003 C 
ATOM     18  C   UNL     1     -39.793  29.307 -21.486  1.00  0.00     0.004 C 
ENDBRANCH  16  17
ENDBRANCH  15  16
ENDBRANCH  14  15
ENDBRANCH  13  14
ENDBRANCH  12  13
ENDBRANCH  10  11
ENDBRANCH   1  10
TORSDOF 13
ENDMDL
MODEL 7
REMARK VINA RESULT:    20.691      5.735      9.902
REMARK INTER + INTRA:          35.692
REMARK INTER:                  36.275
REMARK INTRA:                  -0.583
REMARK UNBOUND:                -0.724
REMARK SMILES CCCCCCC=CCCCCCCCC(=O)[O-]
REMARK SMILES IDX 10 1 11 2 12 3 13 4 14 5 15 6 16 7 17 8 18 9 9 10 8 11 7 12
REMARK SMILES IDX 6 13 5 14 4 15 3 16 2 17 1 18
REMARK H PARENT
REMARK Flexibility Score: inf
ROOT
ATOM      1  C   UNL     1     -37.738  23.178 -20.003  1.00  0.00     0.004 C 
ENDROOT
BRANCH   1   2
ATOM      2  C   UNL     1     -38.125  24.623 -20.365  1.00  0.00     0.000 C 
BRANCH   2   3
ATOM      3  C   UNL     1     -37.077  25.387 -21.193  1.00  0.00     0.000 C 
BRANCH   3   4
ATOM      4  C   UNL     1     -37.062  26.894 -20.898  1.00  0.00     0.000 C 
BRANCH   4   5
ATOM      5  C   UNL     1     -38.020  27.645 -21.834  1.00  0.00     0.006 C 
BRANCH   5   6
ATOM      6  C   UNL     1     -38.124  29.136 -21.483  1.00  0.00     0.053 C 
BRANCH   6   7
ATOM      7  C   UNL     1     -39.496  29.501 -21.008  1.00  0.00     0.041 C 
ATOM      8  O   UNL     1     -39.650  30.081 -19.899  1.00  0.00    -0.550 OA
ATOM      9  O   UNL     1     -40.603  29.233 -21.803  1.00  0.00    -0.550 OA
ENDBRANCH   6   7
ENDBRANCH   5   6
ENDBRANCH   4   5
ENDBRANCH   3   4
ENDBRANCH   2   3
ENDBRANCH   1   2
BRANCH   1  10
ATOM     10  C   UNL     1     -38.255  22.750 -18.622  1.00  0.00     0.027 C 
BRANCH  10  11
ATOM     11  C   UNL     1     -39.352  21.723 -18.754  1.00  0.00    -0.031 C 
ATOM     12  C   UNL     1     -40.623  21.913 -18.356  1.00  0.00    -0.031 C 
BRANCH  12  13
ATOM     13  C   UNL     1     -41.125  23.207 -17.757  1.00  0.00     0.027 C 
BRANCH  13  14
ATOM     14  C   UNL     1     -42.131  22.978 -16.616  1.00  0.00     0.004 C 
BRANCH  14  15
ATOM     15  C   UNL     1     -42.157  24.089 -15.545  1.00  0.00     0.000 C 
BRANCH  15  16
ATOM     16  C   UNL     1     -42.811  23.697 -14.208  1.00  0.00    -0.000 C 
BRANCH  16  17
ATOM     17  C   UNL     1     -41.801  23.579 -13.059  1.00  0.00    -0.003 C 
ATOM     18  C   UNL     1     -42.216  24.440 -11.870  1.00  0.00     0.004 C 
ENDBRANCH  16  17
ENDBRANCH  15  16
ENDBRANCH  14  15
ENDBRANCH  13  14
ENDBRANCH  12  13
ENDBRANCH  10  11
ENDBRANCH   1  10
TORSDOF 13
ENDMDL
MODEL 8
REMARK VINA RESULT:    20.983      5.138      9.855
REMARK INTER + INTRA:          36.205
REMARK INTER:                  35.708
REMARK INTRA:                   0.497
REMARK UNBOUND:                -0.724
REMARK SMILES CCCCCCC=CCCCCCCCC(=O)[O-]
REMARK SMILES IDX 10 1 11 2 12 3 13 4 14 5 15 6 16 7 17 8 18 9 9 10 8 11 7 12
REMARK SMILES IDX 6 13 5 14 4 15 3 16 2 17 1 18
REMARK H PARENT
REMARK Flexibility Score: inf
ROOT
ATOM      1  C   UNL     1     -41.954  24.533 -15.010  1.00  0.00     0.004 C 
ENDROOT
BRANCH   1   2
ATOM      2  C   UNL     1     -42.436  23.393 -15.926  1.00  0.00     0.000 C 
BRANCH   2   3
ATOM      3  C   UNL     1     -41.771  23.352 -17.314  1.00  0.00     0.000 C 
BRANCH   3   4
ATOM      4  C   UNL     1     -41.700  21.935 -17.902  1.00  0.00     0.000 C 
BRANCH   4   5
ATOM      5  C   UNL     1     -40.332  21.680 -18.552  1.00  0.00     0.006 C 
BRANCH   5   6
ATOM      6  C   UNL     1     -39.360  22.849 -18.337  1.00  0.00     0.053 C 
BRANCH   6   7
ATOM      7  C   UNL     1     -38.130  22.713 -19.181  1.00  0.00     0.041 C 
ATOM      8  O   UNL     1     -37.477  21.635 -19.181  1.00  0.00    -0.550 OA
ATOM      9  O   UNL     1     -37.725  23.764 -19.994  1.00  0.00    -0.550 OA
ENDBRANCH   6   7
ENDBRANCH   5   6
ENDBRANCH   4   5
ENDBRANCH   3   4
ENDBRANCH   2   3
ENDBRANCH   1   2
BRANCH   1  10
ATOM     10  C   UNL     1     -41.926  24.135 -13.528  1.00  0.00     0.027 C 
BRANCH  10  11
ATOM     11  C   UNL     1     -40.519  24.183 -12.986  1.00  0.00    -0.031 C 
ATOM     12  C   UNL     1     -40.197  24.581 -11.742  1.00  0.00    -0.031 C 
BRANCH  12  13
ATOM     13  C   UNL     1     -41.219  24.994 -10.707  1.00  0.00     0.027 C 
BRANCH  13  14
ATOM     14  C   UNL     1     -42.649  24.581 -11.092  1.00  0.00     0.004 C 
BRANCH  14  15
ATOM     15  C   UNL     1     -43.638  24.499  -9.910  1.00  0.00     0.000 C 
BRANCH  15  16
ATOM     16  C   UNL     1     -44.674  25.636  -9.840  1.00  0.00    -0.000 C 
BRANCH  16  17
ATOM     17  C   UNL     1     -45.596  25.532  -8.619  1.00  0.00    -0.003 C 
ATOM     18  C   UNL     1     -44.808  25.683  -7.320  1.00  0.00     0.004 C 
ENDBRANCH  16  17
ENDBRANCH  15  16
ENDBRANCH  14  15
ENDBRANCH  13  14
ENDBRANCH  12  13
ENDBRANCH  10  11
ENDBRANCH   1  10
TORSDOF 13
ENDMDL
