MODEL 1
REMARK VINA RESULT:    -2.241      0.000      0.000
REMARK INTER + INTRA:          -2.241
REMARK INTER:                  -2.241
REMARK INTRA:                   0.000
REMARK UNBOUND:                 0.000
REMARK SMILES CC(=O)[O-]
REMARK SMILES IDX 1 1 2 2 3 3 4 4
REMARK H PARENT
REMARK Flexibility Score: inf
ROOT
ATOM      1  C   UNL     1     -22.517  33.755  -1.558  1.00  0.00     0.063 C 
ATOM      2  C   UNL     1     -23.876  33.437  -1.033  1.00  0.00     0.038 C 
ATOM      3  O   UNL     1     -24.577  32.553  -1.591  1.00  0.00    -0.550 OA
ATOM      4  O   UNL     1     -24.349  34.075   0.107  1.00  0.00    -0.550 OA
ENDROOT
TORSDOF 0
ENDMDL
MODEL 2
REMARK VINA RESULT:    -2.191      0.183      1.629
REMARK INTER + INTRA:          -2.191
REMARK INTER:                  -2.191
REMARK INTRA:                   0.000
REMARK UNBOUND:                 0.000
REMARK SMILES CC(=O)[O-]
REMARK SMILES IDX 1 1 2 2 3 3 4 4
REMARK H PARENT
REMARK Flexibility Score: inf
ROOT
ATOM      1  C   UNL     1     -22.395  33.750  -1.605  1.00  0.00     0.063 C 
ATOM      2  C   UNL     1     -23.742  33.393  -1.074  1.00  0.00     0.038 C 
ATOM      3  O   UNL     1     -24.213  34.007  -0.081  1.00  0.00    -0.550 OA
ATOM      4  O   UNL     1     -24.504  32.419  -1.706  1.00  0.00    -0.550 OA
ENDROOT
TORSDOF 0
ENDMDL
MODEL 3
REMARK VINA RESULT:    -2.107     14.597     15.107
REMARK INTER + INTRA:          -2.107
REMARK INTER:                  -2.107
REMARK INTRA:                   0.000
REMARK UNBOUND:                 0.000
REMARK SMILES CC(=O)[O-]
REMARK SMILES IDX 1 1 2 2 3 3 4 4
REMARK H PARENT
REMARK Flexibility Score: inf
ROOT
ATOM      1  C   UNL     1     -13.372  22.846  -4.886  1.00  0.00     0.063 C 
ATOM      2  C   UNL     1     -14.303  22.223  -3.902  1.00  0.00     0.038 C 
ATOM      3  O   UNL     1     -15.445  22.718  -3.712  1.00  0.00    -0.550 OA
ATOM      4  O   UNL     1     -13.935  21.063  -3.233  1.00  0.00    -0.550 OA
ENDROOT
TORSDOF 0
ENDMDL
MODEL 4
REMARK VINA RESULT:    -2.103      1.391      1.680
REMARK INTER + INTRA:          -2.103
REMARK INTER:                  -2.103
REMARK INTRA:                   0.000
REMARK UNBOUND:                 0.000
REMARK SMILES CC(=O)[O-]
REMARK SMILES IDX 1 1 2 2 3 3 4 4
REMARK H PARENT
REMARK Flexibility Score: inf
ROOT
ATOM      1  C   UNL     1     -24.280  32.453  -1.651  1.00  0.00     0.063 C 
ATOM      2  C   UNL     1     -23.708  33.591  -0.876  1.00  0.00     0.038 C 
ATOM      3  O   UNL     1     -22.652  34.155  -1.267  1.00  0.00    -0.550 OA
ATOM      4  O   UNL     1     -24.368  34.069   0.249  1.00  0.00    -0.550 OA
ENDROOT
TORSDOF 0
ENDMDL
MODEL 5
REMARK VINA RESULT:    -2.068      2.085      2.369
REMARK INTER + INTRA:          -2.068
REMARK INTER:                  -2.068
REMARK INTRA:                   0.000
REMARK UNBOUND:                 0.000
REMARK SMILES CC(=O)[O-]
REMARK SMILES IDX 1 1 2 2 3 3 4 4
REMARK H PARENT
REMARK Flexibility Score: inf
ROOT
ATOM      1  C   UNL     1     -23.756  33.739  -0.739  1.00  0.00     0.063 C 
ATOM      2  C   UNL     1     -22.776  32.946  -1.535  1.00  0.00     0.038 C 
ATOM      3  O   UNL     1     -22.174  33.477  -2.505  1.00  0.00    -0.550 OA
ATOM      4  O   UNL     1     -22.483  31.637  -1.175  1.00  0.00    -0.550 OA
ENDROOT
TORSDOF 0
ENDMDL
MODEL 6
REMARK VINA RESULT:    -2.065      2.046      2.372
REMARK INTER + INTRA:          -2.065
REMARK INTER:                  -2.065
REMARK INTRA:                   0.000
REMARK UNBOUND:                 0.000
REMARK SMILES CC(=O)[O-]
REMARK SMILES IDX 1 1 2 2 3 3 4 4
REMARK H PARENT
REMARK Flexibility Score: inf
ROOT
ATOM      1  C   UNL     1     -23.707  33.737  -0.866  1.00  0.00     0.063 C 
ATOM      2  C   UNL     1     -22.710  32.893  -1.585  1.00  0.00     0.038 C 
ATOM      3  O   UNL     1     -22.534  31.694  -1.244  1.00  0.00    -0.550 OA
ATOM      4  O   UNL     1     -22.012  33.411  -2.669  1.00  0.00    -0.550 OA
ENDROOT
TORSDOF 0
ENDMDL
MODEL 7
REMARK VINA RESULT:    -1.988      1.766      1.885
REMARK INTER + INTRA:          -1.988
REMARK INTER:                  -1.988
REMARK INTRA:                   0.000
REMARK UNBOUND:                 0.000
REMARK SMILES CC(=O)[O-]
REMARK SMILES IDX 1 1 2 2 3 3 4 4
REMARK H PARENT
REMARK Flexibility Score: inf
ROOT
ATOM      1  C   UNL     1     -22.686  31.879  -1.599  1.00  0.00     0.063 C 
ATOM      2  C   UNL     1     -22.991  33.300  -1.265  1.00  0.00     0.038 C 
ATOM      3  O   UNL     1     -22.117  34.190  -1.430  1.00  0.00    -0.550 OA
ATOM      4  O   UNL     1     -24.260  33.654  -0.822  1.00  0.00    -0.550 OA
ENDROOT
TORSDOF 0
ENDMDL
MODEL 8
REMARK VINA RESULT:    -1.919      3.179      3.493
REMARK INTER + INTRA:          -1.919
REMARK INTER:                  -1.919
REMARK INTRA:                   0.000
REMARK UNBOUND:                 0.000
REMARK SMILES CC(=O)[O-]
REMARK SMILES IDX 1 1 2 2 3 3 4 4
REMARK H PARENT
REMARK Flexibility Score: inf
ROOT
ATOM      1  C   UNL     1     -22.208  33.795  -1.630  1.00  0.00     0.063 C 
ATOM      2  C   UNL     1     -21.329  33.153  -2.649  1.00  0.00     0.038 C 
ATOM      3  O   UNL     1     -21.718  33.045  -3.842  1.00  0.00    -0.550 OA
ATOM      4  O   UNL     1     -20.056  32.721  -2.298  1.00  0.00    -0.550 OA
ENDROOT
TORSDOF 0
ENDMDL
MODEL 9
REMARK VINA RESULT:    -1.858      5.694      6.145
REMARK INTER + INTRA:          -1.858
REMARK INTER:                  -1.858
REMARK INTRA:                   0.000
REMARK UNBOUND:                 0.000
REMARK SMILES CC(=O)[O-]
REMARK SMILES IDX 1 1 2 2 3 3 4 4
REMARK H PARENT
REMARK Flexibility Score: inf
ROOT
ATOM      1  C   UNL     1     -18.153  30.715  -1.346  1.00  0.00     0.063 C 
ATOM      2  C   UNL     1     -18.414  31.806  -2.329  1.00  0.00     0.038 C 
ATOM      3  O   UNL     1     -19.531  32.387  -2.346  1.00  0.00    -0.550 OA
ATOM      4  O   UNL     1     -17.408  32.222  -3.191  1.00  0.00    -0.550 OA
ENDROOT
TORSDOF 0
ENDMDL
