MODEL 1
REMARK VINA RESULT:    -4.459      0.000      0.000
REMARK INTER + INTRA:          -6.598
REMARK INTER:                  -6.283
REMARK INTRA:                  -0.314
REMARK UNBOUND:                -0.314
REMARK SMILES C=CCCCCCCC(=O)[O-]
REMARK SMILES IDX 6 1 7 2 8 3 9 4 10 5 11 6 5 7 4 8 3 9 2 10 1 11
REMARK H PARENT
REMARK Flexibility Score: inf
ROOT
ATOM      1  C   UNL     1      47.748  50.297  34.554  1.00  0.00     0.000 C 
ENDROOT
BRANCH   1   2
ATOM      2  C   UNL     1      47.435  48.790  34.602  1.00  0.00     0.006 C 
BRANCH   2   3
ATOM      3  C   UNL     1      46.179  48.430  35.412  1.00  0.00     0.053 C 
BRANCH   3   4
ATOM      4  C   UNL     1      46.109  46.966  35.719  1.00  0.00     0.041 C 
ATOM      5  O   UNL     1      45.470  46.188  34.961  1.00  0.00    -0.550 OA
ATOM      6  O   UNL     1      46.722  46.465  36.860  1.00  0.00    -0.550 OA
ENDBRANCH   3   4
ENDBRANCH   2   3
ENDBRANCH   1   2
BRANCH   1   7
ATOM      7  C   UNL     1      49.179  50.623  35.008  1.00  0.00     0.000 C 
BRANCH   7   8
ATOM      8  C   UNL     1      49.816  49.420  35.720  1.00  0.00     0.004 C 
BRANCH   8   9
ATOM      9  C   UNL     1      51.297  49.660  36.049  1.00  0.00     0.027 C 
BRANCH   9  10
ATOM     10  C   UNL     1      51.506  50.887  36.897  1.00  0.00    -0.035 C 
ATOM     11  C   UNL     1      51.894  50.804  38.173  1.00  0.00     0.004 C 
ENDBRANCH   9  10
ENDBRANCH   8   9
ENDBRANCH   7   8
ENDBRANCH   1   7
TORSDOF 7
ENDMDL
MODEL 2
REMARK VINA RESULT:    -4.443      2.951      5.573
REMARK INTER + INTRA:          -6.575
REMARK INTER:                  -6.218
REMARK INTRA:                  -0.357
REMARK UNBOUND:                -0.314
REMARK SMILES C=CCCCCCCC(=O)[O-]
REMARK SMILES IDX 6 1 7 2 8 3 9 4 10 5 11 6 5 7 4 8 3 9 2 10 1 11
REMARK H PARENT
REMARK Flexibility Score: inf
ROOT
ATOM      1  C   UNL     1      47.801  50.320  34.522  1.00  0.00     0.000 C 
ENDROOT
BRANCH   1   2
ATOM      2  C   UNL     1      49.226  50.592  35.040  1.00  0.00     0.006 C 
BRANCH   2   3
ATOM      3  C   UNL     1      49.863  49.411  35.789  1.00  0.00     0.053 C 
BRANCH   3   4
ATOM      4  C   UNL     1      51.157  49.793  36.441  1.00  0.00     0.041 C 
ATOM      5  O   UNL     1      52.091  48.954  36.535  1.00  0.00    -0.550 OA
ATOM      6  O   UNL     1      51.319  51.065  36.974  1.00  0.00    -0.550 OA
ENDBRANCH   3   4
ENDBRANCH   2   3
ENDBRANCH   1   2
BRANCH   1   7
ATOM      7  C   UNL     1      47.408  48.838  34.612  1.00  0.00     0.000 C 
BRANCH   7   8
ATOM      8  C   UNL     1      46.060  48.671  35.330  1.00  0.00     0.004 C 
BRANCH   8   9
ATOM      9  C   UNL     1      45.650  47.195  35.454  1.00  0.00     0.027 C 
BRANCH   9  10
ATOM     10  C   UNL     1      46.603  46.272  34.744  1.00  0.00    -0.035 C 
ATOM     11  C   UNL     1      46.204  45.103  34.233  1.00  0.00     0.004 C 
ENDBRANCH   9  10
ENDBRANCH   8   9
ENDBRANCH   7   8
ENDBRANCH   1   7
TORSDOF 7
ENDMDL
MODEL 3
REMARK VINA RESULT:    -4.430      1.451      2.601
REMARK INTER + INTRA:          -6.557
REMARK INTER:                  -6.126
REMARK INTRA:                  -0.431
REMARK UNBOUND:                -0.314
REMARK SMILES C=CCCCCCCC(=O)[O-]
REMARK SMILES IDX 6 1 7 2 8 3 9 4 10 5 11 6 5 7 4 8 3 9 2 10 1 11
REMARK H PARENT
REMARK Flexibility Score: inf
ROOT
ATOM      1  C   UNL     1      46.321  48.748  35.396  1.00  0.00     0.000 C 
ENDROOT
BRANCH   1   2
ATOM      2  C   UNL     1      46.360  47.298  35.914  1.00  0.00     0.006 C 
BRANCH   2   3
ATOM      3  C   UNL     1      45.580  46.295  35.048  1.00  0.00     0.053 C 
BRANCH   3   4
ATOM      4  C   UNL     1      46.490  45.358  34.317  1.00  0.00     0.041 C 
ATOM      5  O   UNL     1      47.739  45.507  34.381  1.00  0.00    -0.550 OA
ATOM      6  O   UNL     1      45.959  44.340  33.536  1.00  0.00    -0.550 OA
ENDBRANCH   3   4
ENDBRANCH   2   3
ENDBRANCH   1   2
BRANCH   1   7
ATOM      7  C   UNL     1      47.512  49.089  34.488  1.00  0.00     0.000 C 
BRANCH   7   8
ATOM      8  C   UNL     1      47.740  50.606  34.428  1.00  0.00     0.004 C 
BRANCH   8   9
ATOM      9  C   UNL     1      49.113  51.009  34.986  1.00  0.00     0.027 C 
BRANCH   9  10
ATOM     10  C   UNL     1      49.992  49.818  35.262  1.00  0.00    -0.035 C 
ATOM     11  C   UNL     1      50.753  49.743  36.359  1.00  0.00     0.004 C 
ENDBRANCH   9  10
ENDBRANCH   8   9
ENDBRANCH   7   8
ENDBRANCH   1   7
TORSDOF 7
ENDMDL
MODEL 4
REMARK VINA RESULT:    -4.390      2.230      3.784
REMARK INTER + INTRA:          -6.500
REMARK INTER:                  -6.167
REMARK INTRA:                  -0.334
REMARK UNBOUND:                -0.314
REMARK SMILES C=CCCCCCCC(=O)[O-]
REMARK SMILES IDX 6 1 7 2 8 3 9 4 10 5 11 6 5 7 4 8 3 9 2 10 1 11
REMARK H PARENT
REMARK Flexibility Score: inf
ROOT
ATOM      1  C   UNL     1      45.637  46.729  35.324  1.00  0.00     0.000 C 
ENDROOT
BRANCH   1   2
ATOM      2  C   UNL     1      46.716  46.163  34.381  1.00  0.00     0.006 C 
BRANCH   2   3
ATOM      3  C   UNL     1      47.088  44.697  34.653  1.00  0.00     0.053 C 
BRANCH   3   4
ATOM      4  C   UNL     1      46.186  43.746  33.929  1.00  0.00     0.041 C 
ATOM      5  O   UNL     1      46.041  42.566  34.347  1.00  0.00    -0.550 OA
ATOM      6  O   UNL     1      45.531  44.151  32.774  1.00  0.00    -0.550 OA
ENDBRANCH   3   4
ENDBRANCH   2   3
ENDBRANCH   1   2
BRANCH   1   7
ATOM      7  C   UNL     1      45.791  48.238  35.568  1.00  0.00     0.000 C 
BRANCH   7   8
ATOM      8  C   UNL     1      47.264  48.662  35.472  1.00  0.00     0.004 C 
BRANCH   8   9
ATOM      9  C   UNL     1      47.449  49.921  34.612  1.00  0.00     0.027 C 
BRANCH   9  10
ATOM     10  C   UNL     1      48.766  50.604  34.870  1.00  0.00    -0.035 C 
ATOM     11  C   UNL     1      49.806  49.952  35.400  1.00  0.00     0.004 C 
ENDBRANCH   9  10
ENDBRANCH   8   9
ENDBRANCH   7   8
ENDBRANCH   1   7
TORSDOF 7
ENDMDL
MODEL 5
REMARK VINA RESULT:    -4.382      3.040      5.710
REMARK INTER + INTRA:          -6.490
REMARK INTER:                  -6.114
REMARK INTRA:                  -0.376
REMARK UNBOUND:                -0.314
REMARK SMILES C=CCCCCCCC(=O)[O-]
REMARK SMILES IDX 6 1 7 2 8 3 9 4 10 5 11 6 5 7 4 8 3 9 2 10 1 11
REMARK H PARENT
REMARK Flexibility Score: inf
ROOT
ATOM      1  C   UNL     1      47.117  48.480  35.619  1.00  0.00     0.000 C 
ENDROOT
BRANCH   1   2
ATOM      2  C   UNL     1      47.240  49.769  34.784  1.00  0.00     0.006 C 
BRANCH   2   3
ATOM      3  C   UNL     1      48.665  50.342  34.712  1.00  0.00     0.053 C 
BRANCH   3   4
ATOM      4  C   UNL     1      49.638  49.357  34.140  1.00  0.00     0.041 C 
ATOM      5  O   UNL     1      50.646  49.002  34.806  1.00  0.00    -0.550 OA
ATOM      6  O   UNL     1      49.448  48.856  32.859  1.00  0.00    -0.550 OA
ENDBRANCH   3   4
ENDBRANCH   2   3
ENDBRANCH   1   2
BRANCH   1   7
ATOM      7  C   UNL     1      45.668  47.986  35.741  1.00  0.00     0.000 C 
BRANCH   7   8
ATOM      8  C   UNL     1      45.511  46.587  35.126  1.00  0.00     0.004 C 
BRANCH   8   9
ATOM      9  C   UNL     1      46.810  46.095  34.470  1.00  0.00     0.027 C 
BRANCH   9  10
ATOM     10  C   UNL     1      46.708  44.670  33.993  1.00  0.00    -0.035 C 
ATOM     11  C   UNL     1      45.691  44.253  33.232  1.00  0.00     0.004 C 
ENDBRANCH   9  10
ENDBRANCH   8   9
ENDBRANCH   7   8
ENDBRANCH   1   7
TORSDOF 7
ENDMDL
MODEL 6
REMARK VINA RESULT:    -4.339      3.385      5.843
REMARK INTER + INTRA:          -6.428
REMARK INTER:                  -6.150
REMARK INTRA:                  -0.278
REMARK UNBOUND:                -0.314
REMARK SMILES C=CCCCCCCC(=O)[O-]
REMARK SMILES IDX 6 1 7 2 8 3 9 4 10 5 11 6 5 7 4 8 3 9 2 10 1 11
REMARK H PARENT
REMARK Flexibility Score: inf
ROOT
ATOM      1  C   UNL     1      49.834  49.557  35.753  1.00  0.00     0.000 C 
ENDROOT
BRANCH   1   2
ATOM      2  C   UNL     1      51.304  49.926  36.030  1.00  0.00     0.006 C 
BRANCH   2   3
ATOM      3  C   UNL     1      51.491  51.064  37.045  1.00  0.00     0.053 C 
BRANCH   3   4
ATOM      4  C   UNL     1      52.072  50.575  38.336  1.00  0.00     0.041 C 
ATOM      5  O   UNL     1      51.873  51.212  39.404  1.00  0.00    -0.550 OA
ATOM      6  O   UNL     1      52.861  49.432  38.355  1.00  0.00    -0.550 OA
ENDBRANCH   3   4
ENDBRANCH   2   3
ENDBRANCH   1   2
BRANCH   1   7
ATOM      7  C   UNL     1      49.141  50.545  34.802  1.00  0.00     0.000 C 
BRANCH   7   8
ATOM      8  C   UNL     1      47.644  50.229  34.678  1.00  0.00     0.004 C 
BRANCH   8   9
ATOM      9  C   UNL     1      47.372  48.718  34.630  1.00  0.00     0.027 C 
BRANCH   9  10
ATOM     10  C   UNL     1      46.136  48.332  35.397  1.00  0.00    -0.035 C 
ATOM     11  C   UNL     1      45.659  47.083  35.383  1.00  0.00     0.004 C 
ENDBRANCH   9  10
ENDBRANCH   8   9
ENDBRANCH   7   8
ENDBRANCH   1   7
TORSDOF 7
ENDMDL
MODEL 7
REMARK VINA RESULT:    -4.310      2.599      4.084
REMARK INTER + INTRA:          -6.389
REMARK INTER:                  -5.690
REMARK INTRA:                  -0.699
REMARK UNBOUND:                -0.314
REMARK SMILES C=CCCCCCCC(=O)[O-]
REMARK SMILES IDX 6 1 7 2 8 3 9 4 10 5 11 6 5 7 4 8 3 9 2 10 1 11
REMARK H PARENT
REMARK Flexibility Score: inf
ROOT
ATOM      1  C   UNL     1      45.874  46.408  35.053  1.00  0.00     0.000 C 
ENDROOT
BRANCH   1   2
ATOM      2  C   UNL     1      47.360  46.057  34.853  1.00  0.00     0.006 C 
BRANCH   2   3
ATOM      3  C   UNL     1      47.795  45.959  33.381  1.00  0.00     0.053 C 
BRANCH   3   4
ATOM      4  C   UNL     1      49.083  46.680  33.128  1.00  0.00     0.041 C 
ATOM      5  O   UNL     1      50.135  46.329  33.724  1.00  0.00    -0.550 OA
ATOM      6  O   UNL     1      49.115  47.762  32.257  1.00  0.00    -0.550 OA
ENDBRANCH   3   4
ENDBRANCH   2   3
ENDBRANCH   1   2
BRANCH   1   7
ATOM      7  C   UNL     1      45.662  47.848  35.544  1.00  0.00     0.000 C 
BRANCH   7   8
ATOM      8  C   UNL     1      47.005  48.575  35.706  1.00  0.00     0.004 C 
BRANCH   8   9
ATOM      9  C   UNL     1      47.131  49.778  34.759  1.00  0.00     0.027 C 
BRANCH   9  10
ATOM     10  C   UNL     1      48.543  50.290  34.666  1.00  0.00    -0.035 C 
ATOM     11  C   UNL     1      49.541  49.738  35.365  1.00  0.00     0.004 C 
ENDBRANCH   9  10
ENDBRANCH   8   9
ENDBRANCH   7   8
ENDBRANCH   1   7
TORSDOF 7
ENDMDL
MODEL 8
REMARK VINA RESULT:    -4.282      8.115     11.016
REMARK INTER + INTRA:          -6.348
REMARK INTER:                  -6.111
REMARK INTRA:                  -0.237
REMARK UNBOUND:                -0.314
REMARK SMILES C=CCCCCCCC(=O)[O-]
REMARK SMILES IDX 6 1 7 2 8 3 9 4 10 5 11 6 5 7 4 8 3 9 2 10 1 11
REMARK H PARENT
REMARK Flexibility Score: inf
ROOT
ATOM      1  C   UNL     1      40.682  50.220  32.070  1.00  0.00     0.000 C 
ENDROOT
BRANCH   1   2
ATOM      2  C   UNL     1      40.459  51.280  33.166  1.00  0.00     0.006 C 
BRANCH   2   3
ATOM      3  C   UNL     1      41.750  51.931  33.688  1.00  0.00     0.053 C 
BRANCH   3   4
ATOM      4  C   UNL     1      42.004  51.598  35.126  1.00  0.00     0.041 C 
ATOM      5  O   UNL     1      43.091  51.065  35.472  1.00  0.00    -0.550 OA
ATOM      6  O   UNL     1      41.026  51.847  36.081  1.00  0.00    -0.550 OA
ENDBRANCH   3   4
ENDBRANCH   2   3
ENDBRANCH   1   2
BRANCH   1   7
ATOM      7  C   UNL     1      39.520  50.147  31.068  1.00  0.00     0.000 C 
BRANCH   7   8
ATOM      8  C   UNL     1      38.338  49.361  31.654  1.00  0.00     0.004 C 
BRANCH   8   9
ATOM      9  C   UNL     1      37.569  48.582  30.577  1.00  0.00     0.027 C 
BRANCH   9  10
ATOM     10  C   UNL     1      37.530  49.310  29.260  1.00  0.00    -0.035 C 
ATOM     11  C   UNL     1      37.110  48.716  28.138  1.00  0.00     0.004 C 
ENDBRANCH   9  10
ENDBRANCH   8   9
ENDBRANCH   7   8
ENDBRANCH   1   7
TORSDOF 7
ENDMDL
MODEL 9
REMARK VINA RESULT:    -4.251      7.421      9.160
REMARK INTER + INTRA:          -6.304
REMARK INTER:                  -5.898
REMARK INTRA:                  -0.407
REMARK UNBOUND:                -0.314
REMARK SMILES C=CCCCCCCC(=O)[O-]
REMARK SMILES IDX 6 1 7 2 8 3 9 4 10 5 11 6 5 7 4 8 3 9 2 10 1 11
REMARK H PARENT
REMARK Flexibility Score: inf
ROOT
ATOM      1  C   UNL     1      40.660  50.497  32.714  1.00  0.00     0.000 C 
ENDROOT
BRANCH   1   2
ATOM      2  C   UNL     1      40.400  50.058  31.261  1.00  0.00     0.006 C 
BRANCH   2   3
ATOM      3  C   UNL     1      39.055  50.534  30.687  1.00  0.00     0.053 C 
BRANCH   3   4
ATOM      4  C   UNL     1      37.962  49.536  30.918  1.00  0.00     0.041 C 
ATOM      5  O   UNL     1      37.331  49.526  32.008  1.00  0.00    -0.550 OA
ATOM      6  O   UNL     1      37.662  48.595  29.941  1.00  0.00    -0.550 OA
ENDBRANCH   3   4
ENDBRANCH   2   3
ENDBRANCH   1   2
BRANCH   1   7
ATOM      7  C   UNL     1      40.235  51.948  32.983  1.00  0.00     0.000 C 
BRANCH   7   8
ATOM      8  C   UNL     1      41.050  52.554  34.135  1.00  0.00     0.004 C 
BRANCH   8   9
ATOM      9  C   UNL     1      42.108  51.578  34.672  1.00  0.00     0.027 C 
BRANCH   9  10
ATOM     10  C   UNL     1      43.358  52.282  35.129  1.00  0.00    -0.035 C 
ATOM     11  C   UNL     1      44.302  52.672  34.267  1.00  0.00     0.004 C 
ENDBRANCH   9  10
ENDBRANCH   8   9
ENDBRANCH   7   8
ENDBRANCH   1   7
TORSDOF 7
ENDMDL
