MODEL 1
REMARK VINA RESULT:    -5.666      0.000      0.000
REMARK INTER + INTRA:          -5.666
REMARK INTER:                  -5.666
REMARK INTRA:                   0.000
REMARK UNBOUND:                 0.000
REMARK SMILES CC1=CC[C@@]2(C)CCCC(C)(C)[C@]23C[C@H]13
REMARK SMILES IDX 1 1 2 2 3 3 4 4 5 5 7 6 8 7 9 8 10 9 13 10 15 11 14 12 11 13
REMARK SMILES IDX 12 14 6 15
REMARK H PARENT
REMARK Flexibility Score: inf
ROOT
ATOM      1  C   UNL     1      33.125  10.151  32.795  1.00  0.00     0.039 C 
ATOM      2  C   UNL     1      32.324  10.467  31.561  1.00  0.00    -0.074 C 
ATOM      3  C   UNL     1      32.592  11.594  30.890  1.00  0.00    -0.027 C 
ATOM      4  C   UNL     1      31.744  12.059  29.754  1.00  0.00     0.034 C 
ATOM      5  C   UNL     1      31.208  10.916  28.837  1.00  0.00    -0.022 C 
ATOM      6  C   UNL     1      32.343  10.501  27.865  1.00  0.00     0.008 C 
ATOM      7  C   UNL     1      31.988   9.293  26.987  1.00  0.00     0.001 C 
ATOM      8  C   UNL     1      31.621   8.065  27.827  1.00  0.00     0.007 C 
ATOM      9  C   UNL     1      30.460   8.295  28.835  1.00  0.00    -0.029 C 
ATOM     10  C   UNL     1      30.738   9.637  29.644  1.00  0.00    -0.012 C 
ATOM     11  C   UNL     1      31.319   9.450  31.065  1.00  0.00     0.022 C 
ATOM     12  C   UNL     1      29.881   9.934  30.886  1.00  0.00     0.017 C 
ATOM     13  C   UNL     1      29.102   8.376  28.092  1.00  0.00     0.012 C 
ATOM     14  C   UNL     1      30.394   7.010  29.715  1.00  0.00     0.012 C 
ATOM     15  C   UNL     1      30.030  11.544  28.044  1.00  0.00     0.012 C 
ENDROOT
TORSDOF 0
ENDMDL
MODEL 2
REMARK VINA RESULT:    -5.637      1.447      4.554
REMARK INTER + INTRA:          -5.637
REMARK INTER:                  -5.637
REMARK INTRA:                   0.000
REMARK UNBOUND:                 0.000
REMARK SMILES CC1=CC[C@@]2(C)CCCC(C)(C)[C@]23C[C@H]13
REMARK SMILES IDX 1 1 2 2 3 3 4 4 5 5 7 6 8 7 9 8 10 9 13 10 15 11 14 12 11 13
REMARK SMILES IDX 12 14 6 15
REMARK H PARENT
REMARK Flexibility Score: inf
ROOT
ATOM      1  C   UNL     1      31.250   7.306  28.088  1.00  0.00     0.039 C 
ATOM      2  C   UNL     1      30.958   7.976  29.403  1.00  0.00    -0.074 C 
ATOM      3  C   UNL     1      30.839   7.218  30.499  1.00  0.00    -0.027 C 
ATOM      4  C   UNL     1      30.396   7.783  31.808  1.00  0.00     0.034 C 
ATOM      5  C   UNL     1      30.939   9.214  32.111  1.00  0.00    -0.022 C 
ATOM      6  C   UNL     1      32.397   9.082  32.623  1.00  0.00     0.008 C 
ATOM      7  C   UNL     1      33.095  10.432  32.840  1.00  0.00     0.001 C 
ATOM      8  C   UNL     1      33.125  11.271  31.559  1.00  0.00     0.007 C 
ATOM      9  C   UNL     1      31.729  11.539  30.928  1.00  0.00    -0.029 C 
ATOM     10  C   UNL     1      30.929  10.167  30.846  1.00  0.00    -0.012 C 
ATOM     11  C   UNL     1      30.914   9.487  29.456  1.00  0.00     0.022 C 
ATOM     12  C   UNL     1      29.639  10.120  30.010  1.00  0.00     0.017 C 
ATOM     13  C   UNL     1      30.944  12.580  31.768  1.00  0.00     0.012 C 
ATOM     14  C   UNL     1      32.002  12.215  29.551  1.00  0.00     0.012 C 
ATOM     15  C   UNL     1      30.026   9.769  33.238  1.00  0.00     0.012 C 
ENDROOT
TORSDOF 0
ENDMDL
MODEL 3
REMARK VINA RESULT:    -5.467      1.301      2.282
REMARK INTER + INTRA:          -5.467
REMARK INTER:                  -5.467
REMARK INTRA:                   0.000
REMARK UNBOUND:                 0.000
REMARK SMILES CC1=CC[C@@]2(C)CCCC(C)(C)[C@]23C[C@H]13
REMARK SMILES IDX 1 1 2 2 3 3 4 4 5 5 7 6 8 7 9 8 10 9 13 10 15 11 14 12 11 13
REMARK SMILES IDX 12 14 6 15
REMARK H PARENT
REMARK Flexibility Score: inf
ROOT
ATOM      1  C   UNL     1      32.436   7.331  33.040  1.00  0.00     0.039 C 
ATOM      2  C   UNL     1      31.988   8.659  32.493  1.00  0.00    -0.074 C 
ATOM      3  C   UNL     1      32.598   9.771  32.922  1.00  0.00    -0.027 C 
ATOM      4  C   UNL     1      32.113  11.133  32.553  1.00  0.00     0.034 C 
ATOM      5  C   UNL     1      31.579  11.255  31.091  1.00  0.00    -0.022 C 
ATOM      6  C   UNL     1      32.796  11.394  30.140  1.00  0.00     0.008 C 
ATOM      7  C   UNL     1      32.416  11.395  28.653  1.00  0.00     0.001 C 
ATOM      8  C   UNL     1      31.656  10.125  28.257  1.00  0.00     0.007 C 
ATOM      9  C   UNL     1      30.372   9.853  29.090  1.00  0.00    -0.029 C 
ATOM     10  C   UNL     1      30.718  10.007  30.635  1.00  0.00    -0.012 C 
ATOM     11  C   UNL     1      30.940   8.682  31.403  1.00  0.00     0.022 C 
ATOM     12  C   UNL     1      29.688   9.518  31.668  1.00  0.00     0.017 C 
ATOM     13  C   UNL     1      29.241  10.833  28.683  1.00  0.00     0.012 C 
ATOM     14  C   UNL     1      29.882   8.434  28.673  1.00  0.00     0.012 C 
ATOM     15  C   UNL     1      30.735  12.558  31.070  1.00  0.00     0.012 C 
ENDROOT
TORSDOF 0
ENDMDL
MODEL 4
REMARK VINA RESULT:    -5.349      3.918      6.504
REMARK INTER + INTRA:          -5.349
REMARK INTER:                  -5.349
REMARK INTRA:                   0.000
REMARK UNBOUND:                 0.000
REMARK SMILES CC1=CC[C@@]2(C)CCCC(C)(C)[C@]23C[C@H]13
REMARK SMILES IDX 1 1 2 2 3 3 4 4 5 5 7 6 8 7 9 8 10 9 13 10 15 11 14 12 11 13
REMARK SMILES IDX 12 14 6 15
REMARK H PARENT
REMARK Flexibility Score: inf
ROOT
ATOM      1  C   UNL     1      33.125  10.880  32.611  1.00  0.00     0.039 C 
ATOM      2  C   UNL     1      32.162   9.804  33.034  1.00  0.00    -0.074 C 
ATOM      3  C   UNL     1      32.376   8.550  32.618  1.00  0.00    -0.027 C 
ATOM      4  C   UNL     1      31.388   7.457  32.859  1.00  0.00     0.034 C 
ATOM      5  C   UNL     1      30.672   7.528  34.244  1.00  0.00    -0.022 C 
ATOM      6  C   UNL     1      31.629   6.945  35.316  1.00  0.00     0.008 C 
ATOM      7  C   UNL     1      31.094   7.071  36.749  1.00  0.00     0.001 C 
ATOM      8  C   UNL     1      30.805   8.528  37.125  1.00  0.00     0.007 C 
ATOM      9  C   UNL     1      29.819   9.258  36.169  1.00  0.00    -0.029 C 
ATOM     10  C   UNL     1      30.272   9.001  34.666  1.00  0.00    -0.012 C 
ATOM     11  C   UNL     1      31.052  10.158  33.998  1.00  0.00     0.022 C 
ATOM     12  C   UNL     1      29.625   9.841  33.552  1.00  0.00     0.017 C 
ATOM     13  C   UNL     1      28.369   8.757  36.396  1.00  0.00     0.012 C 
ATOM     14  C   UNL     1      29.830  10.755  36.603  1.00  0.00     0.012 C 
ATOM     15  C   UNL     1      29.416   6.625  34.103  1.00  0.00     0.012 C 
ENDROOT
TORSDOF 0
ENDMDL
MODEL 5
REMARK VINA RESULT:    -5.314      3.313      5.268
REMARK INTER + INTRA:          -5.314
REMARK INTER:                  -5.314
REMARK INTRA:                   0.000
REMARK UNBOUND:                 0.000
REMARK SMILES CC1=CC[C@@]2(C)CCCC(C)(C)[C@]23C[C@H]13
REMARK SMILES IDX 1 1 2 2 3 3 4 4 5 5 7 6 8 7 9 8 10 9 13 10 15 11 14 12 11 13
REMARK SMILES IDX 12 14 6 15
REMARK H PARENT
REMARK Flexibility Score: inf
ROOT
ATOM      1  C   UNL     1      31.598   6.389  36.718  1.00  0.00     0.039 C 
ATOM      2  C   UNL     1      31.168   7.674  36.066  1.00  0.00    -0.074 C 
ATOM      3  C   UNL     1      31.230   8.808  36.775  1.00  0.00    -0.027 C 
ATOM      4  C   UNL     1      30.676  10.095  36.261  1.00  0.00     0.034 C 
ATOM      5  C   UNL     1      30.882  10.320  34.730  1.00  0.00    -0.022 C 
ATOM      6  C   UNL     1      32.334  10.814  34.502  1.00  0.00     0.008 C 
ATOM      7  C   UNL     1      32.709  10.955  33.020  1.00  0.00     0.001 C 
ATOM      8  C   UNL     1      32.541   9.635  32.261  1.00  0.00     0.007 C 
ATOM      9  C   UNL     1      31.117   9.015  32.349  1.00  0.00    -0.029 C 
ATOM     10  C   UNL     1      30.650   9.011  33.869  1.00  0.00    -0.012 C 
ATOM     11  C   UNL     1      30.783   7.656  34.604  1.00  0.00     0.022 C 
ATOM     12  C   UNL     1      29.399   8.199  34.249  1.00  0.00     0.017 C 
ATOM     13  C   UNL     1      30.120   9.816  31.473  1.00  0.00     0.012 C 
ATOM     14  C   UNL     1      31.223   7.603  31.699  1.00  0.00     0.012 C 
ATOM     15  C   UNL     1      29.872  11.434  34.340  1.00  0.00     0.012 C 
ENDROOT
TORSDOF 0
ENDMDL
MODEL 6
REMARK VINA RESULT:    -5.247      2.671      5.235
REMARK INTER + INTRA:          -5.247
REMARK INTER:                  -5.247
REMARK INTRA:                   0.000
REMARK UNBOUND:                 0.000
REMARK SMILES CC1=CC[C@@]2(C)CCCC(C)(C)[C@]23C[C@H]13
REMARK SMILES IDX 1 1 2 2 3 3 4 4 5 5 7 6 8 7 9 8 10 9 13 10 15 11 14 12 11 13
REMARK SMILES IDX 12 14 6 15
REMARK H PARENT
REMARK Flexibility Score: inf
ROOT
ATOM      1  C   UNL     1      30.719   7.744  29.625  1.00  0.00     0.039 C 
ATOM      2  C   UNL     1      31.199   8.563  30.791  1.00  0.00    -0.074 C 
ATOM      3  C   UNL     1      31.596   9.823  30.573  1.00  0.00    -0.027 C 
ATOM      4  C   UNL     1      32.232  10.649  31.642  1.00  0.00     0.034 C 
ATOM      5  C   UNL     1      31.632  10.436  33.067  1.00  0.00    -0.022 C 
ATOM      6  C   UNL     1      30.319  11.255  33.168  1.00  0.00     0.008 C 
ATOM      7  C   UNL     1      29.557  11.033  34.482  1.00  0.00     0.001 C 
ATOM      8  C   UNL     1      29.204   9.557  34.695  1.00  0.00     0.007 C 
ATOM      9  C   UNL     1      30.422   8.590  34.666  1.00  0.00    -0.029 C 
ATOM     10  C   UNL     1      31.310   8.919  33.388  1.00  0.00    -0.012 C 
ATOM     11  C   UNL     1      31.116   7.971  32.181  1.00  0.00     0.022 C 
ATOM     12  C   UNL     1      32.413   7.924  32.988  1.00  0.00     0.017 C 
ATOM     13  C   UNL     1      31.258   8.730  35.964  1.00  0.00     0.012 C 
ATOM     14  C   UNL     1      29.827   7.150  34.690  1.00  0.00     0.012 C 
ATOM     15  C   UNL     1      32.693  11.004  34.048  1.00  0.00     0.012 C 
ENDROOT
TORSDOF 0
ENDMDL
MODEL 7
REMARK VINA RESULT:    -5.206      2.240      4.788
REMARK INTER + INTRA:          -5.206
REMARK INTER:                  -5.206
REMARK INTRA:                   0.000
REMARK UNBOUND:                 0.000
REMARK SMILES CC1=CC[C@@]2(C)CCCC(C)(C)[C@]23C[C@H]13
REMARK SMILES IDX 1 1 2 2 3 3 4 4 5 5 7 6 8 7 9 8 10 9 13 10 15 11 14 12 11 13
REMARK SMILES IDX 12 14 6 15
REMARK H PARENT
REMARK Flexibility Score: inf
ROOT
ATOM      1  C   UNL     1      30.377   6.709  35.074  1.00  0.00     0.039 C 
ATOM      2  C   UNL     1      30.638   7.399  33.763  1.00  0.00    -0.074 C 
ATOM      3  C   UNL     1      29.874   7.086  32.709  1.00  0.00    -0.027 C 
ATOM      4  C   UNL     1      30.166   7.603  31.339  1.00  0.00     0.034 C 
ATOM      5  C   UNL     1      30.688   9.073  31.301  1.00  0.00    -0.022 C 
ATOM      6  C   UNL     1      29.471  10.025  31.438  1.00  0.00     0.008 C 
ATOM      7  C   UNL     1      29.859  11.506  31.542  1.00  0.00     0.001 C 
ATOM      8  C   UNL     1      30.793  11.770  32.727  1.00  0.00     0.007 C 
ATOM      9  C   UNL     1      32.096  10.922  32.725  1.00  0.00    -0.029 C 
ATOM     10  C   UNL     1      31.720   9.399  32.457  1.00  0.00    -0.012 C 
ATOM     11  C   UNL     1      31.681   8.493  33.709  1.00  0.00     0.022 C 
ATOM     12  C   UNL     1      32.800   8.328  32.683  1.00  0.00     0.017 C 
ATOM     13  C   UNL     1      33.080  11.440  31.645  1.00  0.00     0.012 C 
ATOM     14  C   UNL     1      32.784  11.188  34.098  1.00  0.00     0.012 C 
ATOM     15  C   UNL     1      31.341   9.240  29.902  1.00  0.00     0.012 C 
ENDROOT
TORSDOF 0
ENDMDL
MODEL 8
REMARK VINA RESULT:    -5.144      1.666      3.991
REMARK INTER + INTRA:          -5.144
REMARK INTER:                  -5.144
REMARK INTRA:                   0.000
REMARK UNBOUND:                 0.000
REMARK SMILES CC1=CC[C@@]2(C)CCCC(C)(C)[C@]23C[C@H]13
REMARK SMILES IDX 1 1 2 2 3 3 4 4 5 5 7 6 8 7 9 8 10 9 13 10 15 11 14 12 11 13
REMARK SMILES IDX 12 14 6 15
REMARK H PARENT
REMARK Flexibility Score: inf
ROOT
ATOM      1  C   UNL     1      31.706  10.354  30.865  1.00  0.00     0.039 C 
ATOM      2  C   UNL     1      31.283   9.257  29.925  1.00  0.00    -0.074 C 
ATOM      3  C   UNL     1      30.997   8.051  30.431  1.00  0.00    -0.027 C 
ATOM      4  C   UNL     1      30.726   6.871  29.558  1.00  0.00     0.034 C 
ATOM      5  C   UNL     1      29.918   7.198  28.263  1.00  0.00    -0.022 C 
ATOM      6  C   UNL     1      28.418   7.308  28.640  1.00  0.00     0.008 C 
ATOM      7  C   UNL     1      27.523   7.752  27.475  1.00  0.00     0.001 C 
ATOM      8  C   UNL     1      27.960   9.104  26.903  1.00  0.00     0.007 C 
ATOM      9  C   UNL     1      29.440   9.159  26.431  1.00  0.00    -0.029 C 
ATOM     10  C   UNL     1      30.368   8.550  27.571  1.00  0.00    -0.012 C 
ATOM     11  C   UNL     1      31.096   9.585  28.461  1.00  0.00     0.022 C 
ATOM     12  C   UNL     1      31.889   8.746  27.460  1.00  0.00     0.017 C 
ATOM     13  C   UNL     1      29.618   8.375  25.105  1.00  0.00     0.012 C 
ATOM     14  C   UNL     1      29.727  10.652  26.089  1.00  0.00     0.012 C 
ATOM     15  C   UNL     1      30.145   5.984  27.321  1.00  0.00     0.012 C 
ENDROOT
TORSDOF 0
ENDMDL
MODEL 9
REMARK VINA RESULT:    -4.924      1.708      4.021
REMARK INTER + INTRA:          -4.924
REMARK INTER:                  -4.924
REMARK INTRA:                   0.000
REMARK UNBOUND:                 0.000
REMARK SMILES CC1=CC[C@@]2(C)CCCC(C)(C)[C@]23C[C@H]13
REMARK SMILES IDX 1 1 2 2 3 3 4 4 5 5 7 6 8 7 9 8 10 9 13 10 15 11 14 12 11 13
REMARK SMILES IDX 12 14 6 15
REMARK H PARENT
REMARK Flexibility Score: inf
ROOT
ATOM      1  C   UNL     1      31.685   9.885  30.985  1.00  0.00     0.039 C 
ATOM      2  C   UNL     1      31.026   9.629  29.657  1.00  0.00    -0.074 C 
ATOM      3  C   UNL     1      29.834   9.020  29.637  1.00  0.00    -0.027 C 
ATOM      4  C   UNL     1      29.187   8.587  28.363  1.00  0.00     0.034 C 
ATOM      5  C   UNL     1      29.390   9.571  27.169  1.00  0.00    -0.022 C 
ATOM      6  C   UNL     1      28.382  10.739  27.324  1.00  0.00     0.008 C 
ATOM      7  C   UNL     1      28.561  11.848  26.279  1.00  0.00     0.001 C 
ATOM      8  C   UNL     1      29.972  12.443  26.315  1.00  0.00     0.007 C 
ATOM      9  C   UNL     1      31.117  11.407  26.129  1.00  0.00    -0.029 C 
ATOM     10  C   UNL     1      30.854  10.171  27.097  1.00  0.00    -0.012 C 
ATOM     11  C   UNL     1      31.682  10.161  28.403  1.00  0.00     0.022 C 
ATOM     12  C   UNL     1      31.985   9.148  27.300  1.00  0.00     0.017 C 
ATOM     13  C   UNL     1      31.192  10.938  24.653  1.00  0.00     0.012 C 
ATOM     14  C   UNL     1      32.443  12.177  26.404  1.00  0.00     0.012 C 
ATOM     15  C   UNL     1      29.059   8.746  25.896  1.00  0.00     0.012 C 
ENDROOT
TORSDOF 0
ENDMDL
