MODEL 1
REMARK VINA RESULT:    -5.157      0.000      0.000
REMARK INTER + INTRA:          -7.626
REMARK INTER:                  -7.267
REMARK INTRA:                  -0.359
REMARK UNBOUND:                -0.359
REMARK SMILES C=CCCCCCCC(=O)[O-]
REMARK SMILES IDX 6 1 7 2 8 3 9 4 10 5 11 6 5 7 4 8 3 9 2 10 1 11
REMARK H PARENT
REMARK Flexibility Score: inf
ROOT
ATOM      1  C   UNL     1     124.921 133.965 127.245  1.00  0.00     0.000 C 
ENDROOT
BRANCH   1   2
ATOM      2  C   UNL     1     123.520 133.995 127.867  1.00  0.00     0.006 C 
BRANCH   2   3
ATOM      3  C   UNL     1     123.166 135.402 128.355  1.00  0.00     0.053 C 
BRANCH   3   4
ATOM      4  C   UNL     1     121.712 135.680 128.142  1.00  0.00     0.041 C 
ATOM      5  O   UNL     1     120.875 135.409 129.043  1.00  0.00    -0.550 OA
ATOM      6  O   UNL     1     121.285 136.287 126.967  1.00  0.00    -0.550 OA
ENDBRANCH   3   4
ENDBRANCH   2   3
ENDBRANCH   1   2
BRANCH   1   7
ATOM      7  C   UNL     1     125.389 132.520 127.013  1.00  0.00     0.000 C 
BRANCH   7   8
ATOM      8  C   UNL     1     126.090 132.330 125.656  1.00  0.00     0.004 C 
BRANCH   8   9
ATOM      9  C   UNL     1     125.737 133.398 124.610  1.00  0.00     0.027 C 
BRANCH   9  10
ATOM     10  C   UNL     1     125.189 132.786 123.348  1.00  0.00    -0.035 C 
ATOM     11  C   UNL     1     124.592 131.591 123.345  1.00  0.00     0.004 C 
ENDBRANCH   9  10
ENDBRANCH   8   9
ENDBRANCH   7   8
ENDBRANCH   1   7
TORSDOF 7
ENDMDL
MODEL 2
REMARK VINA RESULT:    -5.133      3.030      5.502
REMARK INTER + INTRA:          -7.593
REMARK INTER:                  -7.315
REMARK INTRA:                  -0.277
REMARK UNBOUND:                -0.359
REMARK SMILES C=CCCCCCCC(=O)[O-]
REMARK SMILES IDX 6 1 7 2 8 3 9 4 10 5 11 6 5 7 4 8 3 9 2 10 1 11
REMARK H PARENT
REMARK Flexibility Score: inf
ROOT
ATOM      1  C   UNL     1     125.181 132.414 127.037  1.00  0.00     0.000 C 
ENDROOT
BRANCH   1   2
ATOM      2  C   UNL     1     125.703 133.314 125.912  1.00  0.00     0.006 C 
BRANCH   2   3
ATOM      3  C   UNL     1     126.241 132.479 124.746  1.00  0.00     0.053 C 
BRANCH   3   4
ATOM      4  C   UNL     1     125.272 132.484 123.607  1.00  0.00     0.041 C 
ATOM      5  O   UNL     1     124.646 131.434 123.302  1.00  0.00    -0.550 OA
ATOM      6  O   UNL     1     125.020 133.661 122.913  1.00  0.00    -0.550 OA
ENDBRANCH   3   4
ENDBRANCH   2   3
ENDBRANCH   1   2
BRANCH   1   7
ATOM      7  C   UNL     1     123.936 133.026 127.698  1.00  0.00     0.000 C 
BRANCH   7   8
ATOM      8  C   UNL     1     123.997 134.563 127.775  1.00  0.00     0.004 C 
BRANCH   8   9
ATOM      9  C   UNL     1     122.950 135.188 128.709  1.00  0.00     0.027 C 
BRANCH   9  10
ATOM     10  C   UNL     1     121.645 135.437 128.000  1.00  0.00    -0.035 C 
ATOM     11  C   UNL     1     120.975 136.584 128.138  1.00  0.00     0.004 C 
ENDBRANCH   9  10
ENDBRANCH   8   9
ENDBRANCH   7   8
ENDBRANCH   1   7
TORSDOF 7
ENDMDL
MODEL 3
REMARK VINA RESULT:    -5.017      1.335      1.934
REMARK INTER + INTRA:          -7.429
REMARK INTER:                  -6.990
REMARK INTRA:                  -0.439
REMARK UNBOUND:                -0.359
REMARK SMILES C=CCCCCCCC(=O)[O-]
REMARK SMILES IDX 6 1 7 2 8 3 9 4 10 5 11 6 5 7 4 8 3 9 2 10 1 11
REMARK H PARENT
REMARK Flexibility Score: inf
ROOT
ATOM      1  C   UNL     1     125.694 132.403 127.008  1.00  0.00     0.000 C 
ENDROOT
BRANCH   1   2
ATOM      2  C   UNL     1     124.245 132.824 127.281  1.00  0.00     0.006 C 
BRANCH   2   3
ATOM      3  C   UNL     1     124.150 134.331 127.533  1.00  0.00     0.053 C 
BRANCH   3   4
ATOM      4  C   UNL     1     123.015 134.637 128.457  1.00  0.00     0.041 C 
ATOM      5  O   UNL     1     122.872 133.984 129.525  1.00  0.00    -0.550 OA
ATOM      6  O   UNL     1     122.142 135.678 128.166  1.00  0.00    -0.550 OA
ENDBRANCH   3   4
ENDBRANCH   2   3
ENDBRANCH   1   2
BRANCH   1   7
ATOM      7  C   UNL     1     126.034 132.536 125.516  1.00  0.00     0.000 C 
BRANCH   7   8
ATOM      8  C   UNL     1     124.937 131.961 124.601  1.00  0.00     0.004 C 
BRANCH   8   9
ATOM      9  C   UNL     1     125.042 132.408 123.135  1.00  0.00     0.027 C 
BRANCH   9  10
ATOM     10  C   UNL     1     125.677 133.767 123.009  1.00  0.00    -0.035 C 
ATOM     11  C   UNL     1     124.947 134.878 122.875  1.00  0.00     0.004 C 
ENDBRANCH   9  10
ENDBRANCH   8   9
ENDBRANCH   7   8
ENDBRANCH   1   7
TORSDOF 7
ENDMDL
MODEL 4
REMARK VINA RESULT:    -4.644      2.705      5.114
REMARK INTER + INTRA:          -6.903
REMARK INTER:                  -6.586
REMARK INTRA:                  -0.317
REMARK UNBOUND:                -0.359
REMARK SMILES C=CCCCCCCC(=O)[O-]
REMARK SMILES IDX 6 1 7 2 8 3 9 4 10 5 11 6 5 7 4 8 3 9 2 10 1 11
REMARK H PARENT
REMARK Flexibility Score: inf
ROOT
ATOM      1  C   UNL     1     126.152 132.358 125.539  1.00  0.00     0.000 C 
ENDROOT
BRANCH   1   2
ATOM      2  C   UNL     1     124.982 132.469 124.554  1.00  0.00     0.006 C 
BRANCH   2   3
ATOM      3  C   UNL     1     125.442 133.068 123.222  1.00  0.00     0.053 C 
BRANCH   3   4
ATOM      4  C   UNL     1     125.394 134.562 123.275  1.00  0.00     0.041 C 
ATOM      5  O   UNL     1     126.408 135.216 123.637  1.00  0.00    -0.550 OA
ATOM      6  O   UNL     1     124.247 135.236 122.876  1.00  0.00    -0.550 OA
ENDBRANCH   3   4
ENDBRANCH   2   3
ENDBRANCH   1   2
BRANCH   1   7
ATOM      7  C   UNL     1     125.668 132.524 126.987  1.00  0.00     0.000 C 
BRANCH   7   8
ATOM      8  C   UNL     1     124.925 133.853 127.219  1.00  0.00     0.004 C 
BRANCH   8   9
ATOM      9  C   UNL     1     123.617 133.713 128.013  1.00  0.00     0.027 C 
BRANCH   9  10
ATOM     10  C   UNL     1     123.109 135.046 128.494  1.00  0.00    -0.035 C 
ATOM     11  C   UNL     1     121.949 135.555 128.069  1.00  0.00     0.004 C 
ENDBRANCH   9  10
ENDBRANCH   8   9
ENDBRANCH   7   8
ENDBRANCH   1   7
TORSDOF 7
ENDMDL
MODEL 5
REMARK VINA RESULT:    -3.747      2.926      5.495
REMARK INTER + INTRA:          -5.639
REMARK INTER:                  -5.357
REMARK INTRA:                  -0.282
REMARK UNBOUND:                -0.359
REMARK SMILES C=CCCCCCCC(=O)[O-]
REMARK SMILES IDX 6 1 7 2 8 3 9 4 10 5 11 6 5 7 4 8 3 9 2 10 1 11
REMARK H PARENT
REMARK Flexibility Score: inf
ROOT
ATOM      1  C   UNL     1     123.656 135.114 128.362  1.00  0.00     0.000 C 
ENDROOT
BRANCH   1   2
ATOM      2  C   UNL     1     124.485 134.586 127.185  1.00  0.00     0.006 C 
BRANCH   2   3
ATOM      3  C   UNL     1     124.904 133.132 127.417  1.00  0.00     0.053 C 
BRANCH   3   4
ATOM      4  C   UNL     1     125.152 132.443 126.113  1.00  0.00     0.041 C 
ATOM      5  O   UNL     1     124.183 132.072 125.398  1.00  0.00    -0.550 OA
ATOM      6  O   UNL     1     126.452 132.255 125.661  1.00  0.00    -0.550 OA
ENDBRANCH   3   4
ENDBRANCH   2   3
ENDBRANCH   1   2
BRANCH   1   7
ATOM      7  C   UNL     1     122.196 134.647 128.259  1.00  0.00     0.000 C 
BRANCH   7   8
ATOM      8  C   UNL     1     121.207 135.631 128.911  1.00  0.00     0.004 C 
BRANCH   8   9
ATOM      9  C   UNL     1     121.080 136.975 128.177  1.00  0.00     0.027 C 
BRANCH   9  10
ATOM     10  C   UNL     1     121.184 136.809 126.685  1.00  0.00    -0.035 C 
ATOM     11  C   UNL     1     120.881 137.800 125.842  1.00  0.00     0.004 C 
ENDBRANCH   9  10
ENDBRANCH   8   9
ENDBRANCH   7   8
ENDBRANCH   1   7
TORSDOF 7
ENDMDL
MODEL 6
REMARK VINA RESULT:    -3.432      3.099      5.299
REMARK INTER + INTRA:          -5.196
REMARK INTER:                  -5.089
REMARK INTRA:                  -0.107
REMARK UNBOUND:                -0.359
REMARK SMILES C=CCCCCCCC(=O)[O-]
REMARK SMILES IDX 6 1 7 2 8 3 9 4 10 5 11 6 5 7 4 8 3 9 2 10 1 11
REMARK H PARENT
REMARK Flexibility Score: inf
ROOT
ATOM      1  C   UNL     1     126.107 133.537 124.594  1.00  0.00     0.000 C 
ENDROOT
BRANCH   1   2
ATOM      2  C   UNL     1     125.377 133.960 123.314  1.00  0.00     0.006 C 
BRANCH   2   3
ATOM      3  C   UNL     1     124.149 133.080 123.066  1.00  0.00     0.053 C 
BRANCH   3   4
ATOM      4  C   UNL     1     124.381 131.697 123.586  1.00  0.00     0.041 C 
ATOM      5  O   UNL     1     123.814 131.313 124.643  1.00  0.00    -0.550 OA
ATOM      6  O   UNL     1     125.184 130.813 122.876  1.00  0.00    -0.550 OA
ENDBRANCH   3   4
ENDBRANCH   2   3
ENDBRANCH   1   2
BRANCH   1   7
ATOM      7  C   UNL     1     125.434 134.141 125.836  1.00  0.00     0.000 C 
BRANCH   7   8
ATOM      8  C   UNL     1     125.260 133.121 126.976  1.00  0.00     0.004 C 
BRANCH   8   9
ATOM      9  C   UNL     1     123.903 133.203 127.693  1.00  0.00     0.027 C 
BRANCH   9  10
ATOM     10  C   UNL     1     123.719 134.523 128.393  1.00  0.00    -0.035 C 
ATOM     11  C   UNL     1     122.659 135.303 128.161  1.00  0.00     0.004 C 
ENDBRANCH   9  10
ENDBRANCH   8   9
ENDBRANCH   7   8
ENDBRANCH   1   7
TORSDOF 7
ENDMDL
MODEL 7
REMARK VINA RESULT:    -2.395      3.741      5.468
REMARK INTER + INTRA:          -3.734
REMARK INTER:                  -3.500
REMARK INTRA:                  -0.234
REMARK UNBOUND:                -0.359
REMARK SMILES C=CCCCCCCC(=O)[O-]
REMARK SMILES IDX 6 1 7 2 8 3 9 4 10 5 11 6 5 7 4 8 3 9 2 10 1 11
REMARK H PARENT
REMARK Flexibility Score: inf
ROOT
ATOM      1  C   UNL     1     125.625 132.609 126.967  1.00  0.00     0.000 C 
ENDROOT
BRANCH   1   2
ATOM      2  C   UNL     1     125.701 133.531 125.745  1.00  0.00     0.006 C 
BRANCH   2   3
ATOM      3  C   UNL     1     126.180 132.766 124.508  1.00  0.00     0.053 C 
BRANCH   3   4
ATOM      4  C   UNL     1     125.037 132.499 123.581  1.00  0.00     0.041 C 
ATOM      5  O   UNL     1     124.570 131.335 123.470  1.00  0.00    -0.550 OA
ATOM      6  O   UNL     1     124.454 133.545 122.877  1.00  0.00    -0.550 OA
ENDBRANCH   3   4
ENDBRANCH   2   3
ENDBRANCH   1   2
BRANCH   1   7
ATOM      7  C   UNL     1     124.229 132.658 127.607  1.00  0.00     0.000 C 
BRANCH   7   8
ATOM      8  C   UNL     1     123.601 131.263 127.779  1.00  0.00     0.004 C 
BRANCH   8   9
ATOM      9  C   UNL     1     123.027 131.000 129.180  1.00  0.00     0.027 C 
BRANCH   9  10
ATOM     10  C   UNL     1     122.793 129.532 129.421  1.00  0.00    -0.035 C 
ATOM     11  C   UNL     1     121.676 128.920 129.016  1.00  0.00     0.004 C 
ENDBRANCH   9  10
ENDBRANCH   8   9
ENDBRANCH   7   8
ENDBRANCH   1   7
TORSDOF 7
ENDMDL
MODEL 8
REMARK VINA RESULT:    -2.254      1.530      2.448
REMARK INTER + INTRA:          -3.535
REMARK INTER:                  -3.200
REMARK INTRA:                  -0.335
REMARK UNBOUND:                -0.359
REMARK SMILES C=CCCCCCCC(=O)[O-]
REMARK SMILES IDX 6 1 7 2 8 3 9 4 10 5 11 6 5 7 4 8 3 9 2 10 1 11
REMARK H PARENT
REMARK Flexibility Score: inf
ROOT
ATOM      1  C   UNL     1     125.493 134.677 125.292  1.00  0.00     0.000 C 
ENDROOT
BRANCH   1   2
ATOM      2  C   UNL     1     125.332 133.842 126.568  1.00  0.00     0.006 C 
BRANCH   2   3
ATOM      3  C   UNL     1     124.970 134.728 127.763  1.00  0.00     0.053 C 
BRANCH   3   4
ATOM      4  C   UNL     1     123.541 134.524 128.154  1.00  0.00     0.041 C 
ATOM      5  O   UNL     1     122.660 135.346 127.788  1.00  0.00    -0.550 OA
ATOM      6  O   UNL     1     123.173 133.398 128.880  1.00  0.00    -0.550 OA
ENDBRANCH   3   4
ENDBRANCH   2   3
ENDBRANCH   1   2
BRANCH   1   7
ATOM      7  C   UNL     1     126.103 133.837 124.159  1.00  0.00     0.000 C 
BRANCH   7   8
ATOM      8  C   UNL     1     125.975 132.322 124.405  1.00  0.00     0.004 C 
BRANCH   8   9
ATOM      9  C   UNL     1     124.997 131.611 123.457  1.00  0.00     0.027 C 
BRANCH   9  10
ATOM     10  C   UNL     1     123.623 131.489 124.059  1.00  0.00    -0.035 C 
ATOM     11  C   UNL     1     123.423 131.556 125.379  1.00  0.00     0.004 C 
ENDBRANCH   9  10
ENDBRANCH   8   9
ENDBRANCH   7   8
ENDBRANCH   1   7
TORSDOF 7
ENDMDL
