MODEL 1
REMARK VINA RESULT:    -5.116      0.000      0.000
REMARK INTER + INTRA:          -9.720
REMARK INTER:                  -7.958
REMARK INTRA:                  -1.762
REMARK UNBOUND:                -1.762
REMARK SMILES COc1cc(CNC(=O)CCCCC=CC(C)C)ccc1O
REMARK SMILES IDX 11 1 12 2 13 3 14 4 15 5 16 6 17 7 18 8 10 9 8 10 9 11 7 12
REMARK SMILES IDX 6 14 5 15 4 16 19 17 3 18 20 19 21 20 2 21 1 22 22 23
REMARK H PARENT 7 13 22 24
REMARK Flexibility Score: inf
ROOT
ATOM      1  C   UNL     1      -9.192 -34.964 -30.791  1.00  0.00     0.010 C 
ENDROOT
BRANCH   1   2
ATOM      2  C   UNL     1      -9.438 -35.010 -32.309  1.00  0.00     0.005 C 
BRANCH   2   3
ATOM      3  C   UNL     1      -8.134 -35.014 -33.120  1.00  0.00     0.027 C 
BRANCH   3   4
ATOM      4  C   UNL     1      -7.503 -33.646 -33.128  1.00  0.00    -0.031 C 
ATOM      5  C   UNL     1      -6.280 -33.363 -32.640  1.00  0.00    -0.028 C 
BRANCH   5   6
ATOM      6  C   UNL     1      -5.384 -34.357 -31.932  1.00  0.00     0.005 C 
ATOM      7  C   UNL     1      -5.588 -34.253 -30.417  1.00  0.00     0.012 C 
ATOM      8  C   UNL     1      -3.921 -34.094 -32.296  1.00  0.00     0.012 C 
ENDBRANCH   5   6
ENDBRANCH   3   4
ENDBRANCH   2   3
ENDBRANCH   1   2
BRANCH   1   9
ATOM      9  C   UNL     1      -9.400 -36.311 -30.080  1.00  0.00     0.100 C 
BRANCH   9  10
ATOM     10  C   UNL     1      -8.117 -36.853 -29.521  1.00  0.00     0.220 C 
ATOM     11  O   UNL     1      -7.789 -36.569 -28.337  1.00  0.00    -0.275 OA
ATOM     12  N   UNL     1      -7.254 -37.657 -30.339  1.00  0.00    -0.352 N 
ATOM     13  H   UNL     1      -7.527 -37.852 -31.329  1.00  0.00     0.163 HD
BRANCH  12  14
ATOM     14  C   UNL     1      -5.983 -38.186 -29.853  1.00  0.00     0.151 C 
BRANCH  14  15
ATOM     15  C   UNL     1      -5.028 -38.386 -30.997  1.00  0.00    -0.025 A 
ATOM     16  C   UNL     1      -5.281 -39.379 -31.956  1.00  0.00     0.056 A 
ATOM     17  C   UNL     1      -3.866 -37.608 -31.100  1.00  0.00     0.009 A 
ATOM     18  C   UNL     1      -4.383 -39.592 -33.022  1.00  0.00     0.160 A 
ATOM     19  C   UNL     1      -2.974 -37.814 -32.153  1.00  0.00     0.050 A 
ATOM     20  C   UNL     1      -3.224 -38.799 -33.113  1.00  0.00     0.157 A 
BRANCH  18  21
ATOM     21  O   UNL     1      -4.610 -40.575 -33.999  1.00  0.00    -0.493 OA
ATOM     22  C   UNL     1      -5.447 -41.712 -33.822  1.00  0.00     0.278 C 
ENDBRANCH  18  21
BRANCH  20  23
ATOM     23  O   UNL     1      -2.310 -38.976 -34.150  1.00  0.00    -0.504 OA
ATOM     24  H   UNL     1      -1.458 -39.514 -34.036  1.00  0.00     0.293 HD
ENDBRANCH  20  23
ENDBRANCH  14  15
ENDBRANCH  12  14
ENDBRANCH   9  10
ENDBRANCH   1   9
TORSDOF 10
ENDMDL
MODEL 2
REMARK VINA RESULT:    -5.083      0.708      1.091
REMARK INTER + INTRA:          -9.669
REMARK INTER:                  -7.899
REMARK INTRA:                  -1.770
REMARK UNBOUND:                -1.762
REMARK SMILES COc1cc(CNC(=O)CCCCC=CC(C)C)ccc1O
REMARK SMILES IDX 11 1 12 2 13 3 14 4 15 5 16 6 17 7 18 8 10 9 8 10 9 11 7 12
REMARK SMILES IDX 6 14 5 15 4 16 19 17 3 18 20 19 21 20 2 21 1 22 22 23
REMARK H PARENT 7 13 22 24
REMARK Flexibility Score: inf
ROOT
ATOM      1  C   UNL     1      -9.274 -35.018 -31.003  1.00  0.00     0.010 C 
ENDROOT
BRANCH   1   2
ATOM      2  C   UNL     1      -9.011 -35.138 -32.514  1.00  0.00     0.005 C 
BRANCH   2   3
ATOM      3  C   UNL     1      -7.889 -34.207 -32.996  1.00  0.00     0.027 C 
BRANCH   3   4
ATOM      4  C   UNL     1      -6.537 -34.822 -32.742  1.00  0.00    -0.031 C 
ATOM      5  C   UNL     1      -5.729 -34.497 -31.715  1.00  0.00    -0.028 C 
BRANCH   5   6
ATOM      6  C   UNL     1      -6.013 -33.403 -30.707  1.00  0.00     0.005 C 
ATOM      7  C   UNL     1      -5.304 -32.112 -31.128  1.00  0.00     0.012 C 
ATOM      8  C   UNL     1      -5.550 -33.841 -29.316  1.00  0.00     0.012 C 
ENDBRANCH   5   6
ENDBRANCH   3   4
ENDBRANCH   2   3
ENDBRANCH   1   2
BRANCH   1   9
ATOM      9  C   UNL     1      -9.383 -36.368 -30.276  1.00  0.00     0.100 C 
BRANCH   9  10
ATOM     10  C   UNL     1      -8.060 -36.815 -29.724  1.00  0.00     0.220 C 
ATOM     11  O   UNL     1      -7.704 -36.424 -28.579  1.00  0.00    -0.275 OA
ATOM     12  N   UNL     1      -7.195 -37.650 -30.507  1.00  0.00    -0.352 N 
ATOM     13  H   UNL     1      -7.493 -37.934 -31.468  1.00  0.00     0.163 HD
BRANCH  12  14
ATOM     14  C   UNL     1      -5.887 -38.091 -30.028  1.00  0.00     0.151 C 
BRANCH  14  15
ATOM     15  C   UNL     1      -4.967 -38.353 -31.189  1.00  0.00    -0.025 A 
ATOM     16  C   UNL     1      -5.236 -39.411 -32.072  1.00  0.00     0.056 A 
ATOM     17  C   UNL     1      -3.821 -37.569 -31.381  1.00  0.00     0.009 A 
ATOM     18  C   UNL     1      -4.370 -39.682 -33.150  1.00  0.00     0.160 A 
ATOM     19  C   UNL     1      -2.960 -37.832 -32.447  1.00  0.00     0.050 A 
ATOM     20  C   UNL     1      -3.228 -38.882 -33.332  1.00  0.00     0.157 A 
BRANCH  18  21
ATOM     21  O   UNL     1      -4.614 -40.731 -34.053  1.00  0.00    -0.493 OA
ATOM     22  C   UNL     1      -5.545 -41.785 -33.834  1.00  0.00     0.278 C 
ENDBRANCH  18  21
BRANCH  20  23
ATOM     23  O   UNL     1      -2.345 -39.115 -34.386  1.00  0.00    -0.504 OA
ATOM     24  H   UNL     1      -1.909 -40.018 -34.538  1.00  0.00     0.293 HD
ENDBRANCH  20  23
ENDBRANCH  14  15
ENDBRANCH  12  14
ENDBRANCH   9  10
ENDBRANCH   1   9
TORSDOF 10
ENDMDL
MODEL 3
REMARK VINA RESULT:    -4.953      1.204      1.799
REMARK INTER + INTRA:          -9.467
REMARK INTER:                  -7.857
REMARK INTRA:                  -1.609
REMARK UNBOUND:                -1.762
REMARK SMILES COc1cc(CNC(=O)CCCCC=CC(C)C)ccc1O
REMARK SMILES IDX 11 1 12 2 13 3 14 4 15 5 16 6 17 7 18 8 10 9 8 10 9 11 7 12
REMARK SMILES IDX 6 14 5 15 4 16 19 17 3 18 20 19 21 20 2 21 1 22 22 23
REMARK H PARENT 7 13 22 24
REMARK Flexibility Score: inf
ROOT
ATOM      1  C   UNL     1      -8.553 -36.908 -29.864  1.00  0.00     0.010 C 
ENDROOT
BRANCH   1   2
ATOM      2  C   UNL     1      -9.782 -36.002 -30.054  1.00  0.00     0.005 C 
BRANCH   2   3
ATOM      3  C   UNL     1      -9.457 -34.722 -30.839  1.00  0.00     0.027 C 
BRANCH   3   4
ATOM      4  C   UNL     1      -9.187 -35.036 -32.288  1.00  0.00    -0.031 C 
ATOM      5  C   UNL     1      -7.973 -34.987 -32.869  1.00  0.00    -0.028 C 
BRANCH   5   6
ATOM      6  C   UNL     1      -6.706 -34.528 -32.179  1.00  0.00     0.005 C 
ATOM      7  C   UNL     1      -6.020 -33.447 -33.021  1.00  0.00     0.012 C 
ATOM      8  C   UNL     1      -5.767 -35.717 -31.964  1.00  0.00     0.012 C 
ENDBRANCH   5   6
ENDBRANCH   3   4
ENDBRANCH   2   3
ENDBRANCH   1   2
BRANCH   1   9
ATOM      9  C   UNL     1      -7.894 -36.790 -28.480  1.00  0.00     0.100 C 
BRANCH   9  10
ATOM     10  C   UNL     1      -6.510 -37.371 -28.468  1.00  0.00     0.220 C 
ATOM     11  O   UNL     1      -5.552 -36.678 -28.030  1.00  0.00    -0.275 OA
ATOM     12  N   UNL     1      -6.275 -38.690 -28.983  1.00  0.00    -0.352 N 
ATOM     13  H   UNL     1      -7.076 -39.235 -29.373  1.00  0.00     0.163 HD
BRANCH  12  14
ATOM     14  C   UNL     1      -4.944 -39.291 -29.018  1.00  0.00     0.151 C 
BRANCH  14  15
ATOM     15  C   UNL     1      -4.270 -38.992 -30.329  1.00  0.00    -0.025 A 
ATOM     16  C   UNL     1      -4.629 -39.709 -31.481  1.00  0.00     0.056 A 
ATOM     17  C   UNL     1      -3.261 -38.023 -30.407  1.00  0.00     0.009 A 
ATOM     18  C   UNL     1      -3.991 -39.456 -32.712  1.00  0.00     0.160 A 
ATOM     19  C   UNL     1      -2.626 -37.766 -31.622  1.00  0.00     0.050 A 
ATOM     20  C   UNL     1      -2.984 -38.475 -32.774  1.00  0.00     0.157 A 
BRANCH  18  21
ATOM     21  O   UNL     1      -4.329 -40.154 -33.882  1.00  0.00    -0.493 OA
ATOM     22  C   UNL     1      -5.158 -41.311 -33.922  1.00  0.00     0.278 C 
ENDBRANCH  18  21
BRANCH  20  23
ATOM     23  O   UNL     1      -2.326 -38.192 -33.970  1.00  0.00    -0.504 OA
ATOM     24  H   UNL     1      -2.792 -37.746 -34.752  1.00  0.00     0.293 HD
ENDBRANCH  20  23
ENDBRANCH  14  15
ENDBRANCH  12  14
ENDBRANCH   9  10
ENDBRANCH   1   9
TORSDOF 10
ENDMDL
MODEL 4
REMARK VINA RESULT:    -4.823      2.749      5.555
REMARK INTER + INTRA:          -9.264
REMARK INTER:                  -7.588
REMARK INTRA:                  -1.675
REMARK UNBOUND:                -1.762
REMARK SMILES COc1cc(CNC(=O)CCCCC=CC(C)C)ccc1O
REMARK SMILES IDX 11 1 12 2 13 3 14 4 15 5 16 6 17 7 18 8 10 9 8 10 9 11 7 12
REMARK SMILES IDX 6 14 5 15 4 16 19 17 3 18 20 19 21 20 2 21 1 22 22 23
REMARK H PARENT 7 13 22 24
REMARK Flexibility Score: inf
ROOT
ATOM      1  C   UNL     1      -8.132 -37.150 -28.671  1.00  0.00     0.010 C 
ENDROOT
BRANCH   1   2
ATOM      2  C   UNL     1      -6.731 -36.896 -29.255  1.00  0.00     0.005 C 
BRANCH   2   3
ATOM      3  C   UNL     1      -6.017 -38.192 -29.667  1.00  0.00     0.027 C 
BRANCH   3   4
ATOM      4  C   UNL     1      -5.993 -38.336 -31.167  1.00  0.00    -0.031 C 
ATOM      5  C   UNL     1      -4.875 -38.345 -31.917  1.00  0.00    -0.028 C 
BRANCH   5   6
ATOM      6  C   UNL     1      -3.476 -38.125 -31.382  1.00  0.00     0.005 C 
ATOM      7  C   UNL     1      -2.662 -37.297 -32.381  1.00  0.00     0.012 C 
ATOM      8  C   UNL     1      -2.797 -39.472 -31.123  1.00  0.00     0.012 C 
ENDBRANCH   5   6
ENDBRANCH   3   4
ENDBRANCH   2   3
ENDBRANCH   1   2
BRANCH   1   9
ATOM      9  C   UNL     1      -9.245 -37.243 -29.726  1.00  0.00     0.100 C 
BRANCH   9  10
ATOM     10  C   UNL     1      -9.253 -36.049 -30.637  1.00  0.00     0.220 C 
ATOM     11  O   UNL     1      -9.703 -34.950 -30.211  1.00  0.00    -0.275 OA
ATOM     12  N   UNL     1      -8.787 -36.167 -31.988  1.00  0.00    -0.352 N 
ATOM     13  H   UNL     1      -8.451 -37.095 -32.332  1.00  0.00     0.163 HD
BRANCH  12  14
ATOM     14  C   UNL     1      -8.798 -35.044 -32.922  1.00  0.00     0.151 C 
BRANCH  14  15
ATOM     15  C   UNL     1      -7.461 -34.355 -32.928  1.00  0.00    -0.025 A 
ATOM     16  C   UNL     1      -7.323 -33.097 -33.534  1.00  0.00     0.056 A 
ATOM     17  C   UNL     1      -6.339 -34.974 -32.359  1.00  0.00     0.009 A 
ATOM     18  C   UNL     1      -6.071 -32.450 -33.567  1.00  0.00     0.160 A 
ATOM     19  C   UNL     1      -5.097 -34.338 -32.387  1.00  0.00     0.050 A 
ATOM     20  C   UNL     1      -4.956 -33.082 -32.986  1.00  0.00     0.157 A 
BRANCH  18  21
ATOM     21  O   UNL     1      -5.901 -31.190 -34.163  1.00  0.00    -0.493 OA
ATOM     22  C   UNL     1      -5.566 -30.982 -35.531  1.00  0.00     0.278 C 
ENDBRANCH  18  21
BRANCH  20  23
ATOM     23  O   UNL     1      -3.699 -32.479 -32.996  1.00  0.00    -0.504 OA
ATOM     24  H   UNL     1      -3.193 -32.268 -32.143  1.00  0.00     0.293 HD
ENDBRANCH  20  23
ENDBRANCH  14  15
ENDBRANCH  12  14
ENDBRANCH   9  10
ENDBRANCH   1   9
TORSDOF 10
ENDMDL
MODEL 5
REMARK VINA RESULT:    -4.776      1.373      2.635
REMARK INTER + INTRA:          -9.191
REMARK INTER:                  -7.562
REMARK INTRA:                  -1.629
REMARK UNBOUND:                -1.762
REMARK SMILES COc1cc(CNC(=O)CCCCC=CC(C)C)ccc1O
REMARK SMILES IDX 11 1 12 2 13 3 14 4 15 5 16 6 17 7 18 8 10 9 8 10 9 11 7 12
REMARK SMILES IDX 6 14 5 15 4 16 19 17 3 18 20 19 21 20 2 21 1 22 22 23
REMARK H PARENT 7 13 22 24
REMARK Flexibility Score: inf
ROOT
ATOM      1  C   UNL     1      -8.830 -36.967 -29.370  1.00  0.00     0.010 C 
ENDROOT
BRANCH   1   2
ATOM      2  C   UNL     1      -9.006 -36.706 -30.876  1.00  0.00     0.005 C 
BRANCH   2   3
ATOM      3  C   UNL     1      -9.146 -35.213 -31.207  1.00  0.00     0.027 C 
BRANCH   3   4
ATOM      4  C   UNL     1      -8.772 -34.945 -32.642  1.00  0.00    -0.031 C 
ATOM      5  C   UNL     1      -7.525 -34.667 -33.069  1.00  0.00    -0.028 C 
BRANCH   5   6
ATOM      6  C   UNL     1      -6.322 -34.497 -32.164  1.00  0.00     0.005 C 
ATOM      7  C   UNL     1      -5.389 -33.425 -32.737  1.00  0.00     0.012 C 
ATOM      8  C   UNL     1      -5.584 -35.829 -32.019  1.00  0.00     0.012 C 
ENDBRANCH   5   6
ENDBRANCH   3   4
ENDBRANCH   2   3
ENDBRANCH   1   2
BRANCH   1   9
ATOM      9  C   UNL     1      -7.581 -36.310 -28.761  1.00  0.00     0.100 C 
BRANCH   9  10
ATOM     10  C   UNL     1      -6.416 -37.257 -28.717  1.00  0.00     0.220 C 
ATOM     11  O   UNL     1      -5.366 -36.917 -28.108  1.00  0.00    -0.275 OA
ATOM     12  N   UNL     1      -6.487 -38.521 -29.391  1.00  0.00    -0.352 N 
ATOM     13  H   UNL     1      -7.353 -38.770 -29.920  1.00  0.00     0.163 HD
BRANCH  12  14
ATOM     14  C   UNL     1      -5.373 -39.467 -29.401  1.00  0.00     0.151 C 
BRANCH  14  15
ATOM     15  C   UNL     1      -4.549 -39.291 -30.647  1.00  0.00    -0.025 A 
ATOM     16  C   UNL     1      -3.369 -38.533 -30.605  1.00  0.00     0.056 A 
ATOM     17  C   UNL     1      -4.965 -39.852 -31.862  1.00  0.00     0.009 A 
ATOM     18  C   UNL     1      -2.598 -38.341 -31.769  1.00  0.00     0.160 A 
ATOM     19  C   UNL     1      -4.207 -39.666 -33.018  1.00  0.00     0.050 A 
ATOM     20  C   UNL     1      -3.027 -38.916 -32.980  1.00  0.00     0.157 A 
BRANCH  18  21
ATOM     21  O   UNL     1      -1.411 -37.591 -31.759  1.00  0.00    -0.493 OA
ATOM     22  C   UNL     1      -0.132 -38.107 -31.405  1.00  0.00     0.278 C 
ENDBRANCH  18  21
BRANCH  20  23
ATOM     23  O   UNL     1      -2.296 -38.751 -34.155  1.00  0.00    -0.504 OA
ATOM     24  H   UNL     1      -2.569 -38.093 -34.876  1.00  0.00     0.293 HD
ENDBRANCH  20  23
ENDBRANCH  14  15
ENDBRANCH  12  14
ENDBRANCH   9  10
ENDBRANCH   1   9
TORSDOF 10
ENDMDL
MODEL 6
REMARK VINA RESULT:    -4.723      1.940      3.681
REMARK INTER + INTRA:          -9.109
REMARK INTER:                  -7.158
REMARK INTRA:                  -1.951
REMARK UNBOUND:                -1.762
REMARK SMILES COc1cc(CNC(=O)CCCCC=CC(C)C)ccc1O
REMARK SMILES IDX 11 1 12 2 13 3 14 4 15 5 16 6 17 7 18 8 10 9 8 10 9 11 7 12
REMARK SMILES IDX 6 14 5 15 4 16 19 17 3 18 20 19 21 20 2 21 1 22 22 23
REMARK H PARENT 7 13 22 24
REMARK Flexibility Score: inf
ROOT
ATOM      1  C   UNL     1      -6.624 -33.500 -32.243  1.00  0.00     0.010 C 
ENDROOT
BRANCH   1   2
ATOM      2  C   UNL     1      -7.663 -34.258 -33.087  1.00  0.00     0.005 C 
BRANCH   2   3
ATOM      3  C   UNL     1      -8.406 -35.335 -32.283  1.00  0.00     0.027 C 
BRANCH   3   4
ATOM      4  C   UNL     1      -7.502 -36.504 -31.991  1.00  0.00    -0.031 C 
ATOM      5  C   UNL     1      -7.361 -37.081 -30.782  1.00  0.00    -0.028 C 
BRANCH   5   6
ATOM      6  C   UNL     1      -8.022 -36.590 -29.511  1.00  0.00     0.005 C 
ATOM      7  C   UNL     1      -7.147 -36.936 -28.303  1.00  0.00     0.012 C 
ATOM      8  C   UNL     1      -9.410 -37.220 -29.366  1.00  0.00     0.012 C 
ENDBRANCH   5   6
ENDBRANCH   3   4
ENDBRANCH   2   3
ENDBRANCH   1   2
BRANCH   1   9
ATOM      9  C   UNL     1      -5.168 -33.744 -32.673  1.00  0.00     0.100 C 
BRANCH   9  10
ATOM     10  C   UNL     1      -4.449 -34.656 -31.721  1.00  0.00     0.220 C 
ATOM     11  O   UNL     1      -4.608 -34.503 -30.479  1.00  0.00    -0.275 OA
ATOM     12  N   UNL     1      -3.564 -35.669 -32.219  1.00  0.00    -0.352 N 
ATOM     13  H   UNL     1      -3.419 -35.757 -33.251  1.00  0.00     0.163 HD
BRANCH  12  14
ATOM     14  C   UNL     1      -2.822 -36.564 -31.336  1.00  0.00     0.151 C 
BRANCH  14  15
ATOM     15  C   UNL     1      -3.589 -37.839 -31.119  1.00  0.00    -0.025 A 
ATOM     16  C   UNL     1      -4.177 -38.498 -32.210  1.00  0.00     0.056 A 
ATOM     17  C   UNL     1      -3.751 -38.363 -29.829  1.00  0.00     0.009 A 
ATOM     18  C   UNL     1      -4.919 -39.681 -32.019  1.00  0.00     0.160 A 
ATOM     19  C   UNL     1      -4.483 -39.535 -29.633  1.00  0.00     0.050 A 
ATOM     20  C   UNL     1      -5.067 -40.196 -30.718  1.00  0.00     0.157 A 
BRANCH  18  21
ATOM     21  O   UNL     1      -5.516 -40.365 -33.090  1.00  0.00    -0.493 OA
ATOM     22  C   UNL     1      -4.803 -41.108 -34.072  1.00  0.00     0.278 C 
ENDBRANCH  18  21
BRANCH  20  23
ATOM     23  O   UNL     1      -5.791 -41.364 -30.483  1.00  0.00    -0.504 OA
ATOM     24  H   UNL     1      -6.610 -41.612 -31.027  1.00  0.00     0.293 HD
ENDBRANCH  20  23
ENDBRANCH  14  15
ENDBRANCH  12  14
ENDBRANCH   9  10
ENDBRANCH   1   9
TORSDOF 10
ENDMDL
MODEL 7
REMARK VINA RESULT:    -4.704      1.427      2.261
REMARK INTER + INTRA:          -9.079
REMARK INTER:                  -6.779
REMARK INTRA:                  -2.300
REMARK UNBOUND:                -1.762
REMARK SMILES COc1cc(CNC(=O)CCCCC=CC(C)C)ccc1O
REMARK SMILES IDX 11 1 12 2 13 3 14 4 15 5 16 6 17 7 18 8 10 9 8 10 9 11 7 12
REMARK SMILES IDX 6 14 5 15 4 16 19 17 3 18 20 19 21 20 2 21 1 22 22 23
REMARK H PARENT 7 13 22 24
REMARK Flexibility Score: inf
ROOT
ATOM      1  C   UNL     1      -9.380 -34.619 -30.786  1.00  0.00     0.010 C 
ENDROOT
BRANCH   1   2
ATOM      2  C   UNL     1      -9.395 -35.049 -32.263  1.00  0.00     0.005 C 
BRANCH   2   3
ATOM      3  C   UNL     1      -7.997 -35.405 -32.790  1.00  0.00     0.027 C 
BRANCH   3   4
ATOM      4  C   UNL     1      -7.201 -34.159 -33.082  1.00  0.00    -0.031 C 
ATOM      5  C   UNL     1      -5.960 -33.917 -32.618  1.00  0.00    -0.028 C 
BRANCH   5   6
ATOM      6  C   UNL     1      -5.206 -34.817 -31.663  1.00  0.00     0.005 C 
ATOM      7  C   UNL     1      -5.507 -34.410 -30.217  1.00  0.00     0.012 C 
ATOM      8  C   UNL     1      -3.704 -34.735 -31.942  1.00  0.00     0.012 C 
ENDBRANCH   5   6
ENDBRANCH   3   4
ENDBRANCH   2   3
ENDBRANCH   1   2
BRANCH   1   9
ATOM      9  C   UNL     1      -9.750 -35.740 -29.802  1.00  0.00     0.100 C 
BRANCH   9  10
ATOM     10  C   UNL     1      -8.543 -36.283 -29.093  1.00  0.00     0.220 C 
ATOM     11  O   UNL     1      -8.109 -35.690 -28.068  1.00  0.00    -0.275 OA
ATOM     12  N   UNL     1      -7.870 -37.445 -29.598  1.00  0.00    -0.352 N 
ATOM     13  H   UNL     1      -8.225 -37.902 -30.468  1.00  0.00     0.163 HD
BRANCH  12  14
ATOM     14  C   UNL     1      -6.677 -37.998 -28.961  1.00  0.00     0.151 C 
BRANCH  14  15
ATOM     15  C   UNL     1      -5.574 -38.160 -29.970  1.00  0.00    -0.025 A 
ATOM     16  C   UNL     1      -4.234 -38.053 -29.567  1.00  0.00     0.056 A 
ATOM     17  C   UNL     1      -5.872 -38.388 -31.321  1.00  0.00     0.009 A 
ATOM     18  C   UNL     1      -3.190 -38.180 -30.506  1.00  0.00     0.160 A 
ATOM     19  C   UNL     1      -4.843 -38.515 -32.255  1.00  0.00     0.050 A 
ATOM     20  C   UNL     1      -3.506 -38.414 -31.857  1.00  0.00     0.157 A 
BRANCH  18  21
ATOM     21  O   UNL     1      -1.840 -38.081 -30.133  1.00  0.00    -0.493 OA
ATOM     22  C   UNL     1      -1.118 -39.091 -29.436  1.00  0.00     0.278 C 
ENDBRANCH  18  21
BRANCH  20  23
ATOM     23  O   UNL     1      -2.506 -38.547 -32.819  1.00  0.00    -0.504 OA
ATOM     24  H   UNL     1      -1.725 -39.182 -32.703  1.00  0.00     0.293 HD
ENDBRANCH  20  23
ENDBRANCH  14  15
ENDBRANCH  12  14
ENDBRANCH   9  10
ENDBRANCH   1   9
TORSDOF 10
ENDMDL
MODEL 8
REMARK VINA RESULT:    -4.657      2.280      5.146
REMARK INTER + INTRA:          -9.006
REMARK INTER:                  -7.427
REMARK INTRA:                  -1.578
REMARK UNBOUND:                -1.762
REMARK SMILES COc1cc(CNC(=O)CCCCC=CC(C)C)ccc1O
REMARK SMILES IDX 11 1 12 2 13 3 14 4 15 5 16 6 17 7 18 8 10 9 8 10 9 11 7 12
REMARK SMILES IDX 6 14 5 15 4 16 19 17 3 18 20 19 21 20 2 21 1 22 22 23
REMARK H PARENT 7 13 22 24
REMARK Flexibility Score: inf
ROOT
ATOM      1  C   UNL     1      -8.069 -37.022 -28.608  1.00  0.00     0.010 C 
ENDROOT
BRANCH   1   2
ATOM      2  C   UNL     1      -6.691 -36.766 -29.244  1.00  0.00     0.005 C 
BRANCH   2   3
ATOM      3  C   UNL     1      -5.980 -38.062 -29.660  1.00  0.00     0.027 C 
BRANCH   3   4
ATOM      4  C   UNL     1      -6.001 -38.227 -31.158  1.00  0.00    -0.031 C 
ATOM      5  C   UNL     1      -4.907 -38.386 -31.926  1.00  0.00    -0.028 C 
BRANCH   5   6
ATOM      6  C   UNL     1      -3.482 -38.338 -31.417  1.00  0.00     0.005 C 
ATOM      7  C   UNL     1      -2.542 -37.901 -32.545  1.00  0.00     0.012 C 
ATOM      8  C   UNL     1      -3.072 -39.710 -30.878  1.00  0.00     0.012 C 
ENDBRANCH   5   6
ENDBRANCH   3   4
ENDBRANCH   2   3
ENDBRANCH   1   2
BRANCH   1   9
ATOM      9  C   UNL     1      -9.217 -37.142 -29.622  1.00  0.00     0.100 C 
BRANCH   9  10
ATOM     10  C   UNL     1      -9.249 -35.978 -30.571  1.00  0.00     0.220 C 
ATOM     11  O   UNL     1      -9.682 -34.864 -30.169  1.00  0.00    -0.275 OA
ATOM     12  N   UNL     1      -8.823 -36.142 -31.931  1.00  0.00    -0.352 N 
ATOM     13  H   UNL     1      -8.500 -37.082 -32.254  1.00  0.00     0.163 HD
BRANCH  12  14
ATOM     14  C   UNL     1      -8.858 -35.050 -32.900  1.00  0.00     0.151 C 
BRANCH  14  15
ATOM     15  C   UNL     1      -7.528 -34.349 -32.946  1.00  0.00    -0.025 A 
ATOM     16  C   UNL     1      -6.399 -34.949 -32.367  1.00  0.00     0.056 A 
ATOM     17  C   UNL     1      -7.411 -33.083 -33.536  1.00  0.00     0.009 A 
ATOM     18  C   UNL     1      -5.151 -34.293 -32.383  1.00  0.00     0.160 A 
ATOM     19  C   UNL     1      -6.178 -32.429 -33.555  1.00  0.00     0.050 A 
ATOM     20  C   UNL     1      -5.050 -33.025 -32.984  1.00  0.00     0.157 A 
BRANCH  18  21
ATOM     21  O   UNL     1      -4.003 -34.868 -31.815  1.00  0.00    -0.493 OA
ATOM     22  C   UNL     1      -3.627 -34.741 -30.448  1.00  0.00     0.278 C 
ENDBRANCH  18  21
BRANCH  20  23
ATOM     23  O   UNL     1      -3.835 -32.341 -33.022  1.00  0.00    -0.504 OA
ATOM     24  H   UNL     1      -3.574 -31.662 -32.316  1.00  0.00     0.293 HD
ENDBRANCH  20  23
ENDBRANCH  14  15
ENDBRANCH  12  14
ENDBRANCH   9  10
ENDBRANCH   1   9
TORSDOF 10
ENDMDL
