MODEL 1
REMARK VINA RESULT:    -3.852      0.000      0.000
REMARK INTER + INTRA:          -5.451
REMARK INTER:                  -4.977
REMARK INTRA:                  -0.473
REMARK UNBOUND:                -0.473
REMARK SMILES C=CC(=O)CCCCC
REMARK SMILES IDX 6 1 7 2 8 3 9 4 5 5 3 6 4 7 2 8 1 9
REMARK H PARENT
REMARK Flexibility Score: inf
ROOT
ATOM      1  C   UNL     1      19.380 -22.447 -25.659  1.00  0.00     0.008 C 
ENDROOT
BRANCH   1   2
ATOM      2  C   UNL     1      19.610 -23.464 -24.531  1.00  0.00     0.000 C 
BRANCH   2   3
ATOM      3  C   UNL     1      18.837 -24.773 -24.751  1.00  0.00    -0.003 C 
ATOM      4  C   UNL     1      17.746 -24.645 -25.813  1.00  0.00     0.004 C 
ENDBRANCH   2   3
ENDBRANCH   1   2
BRANCH   1   5
ATOM      5  C   UNL     1      18.934 -21.094 -25.094  1.00  0.00     0.080 C 
BRANCH   5   6
ATOM      6  C   UNL     1      17.437 -21.004 -25.061  1.00  0.00     0.155 C 
ATOM      7  O   UNL     1      16.815 -21.409 -24.041  1.00  0.00    -0.295 OA
BRANCH   6   8
ATOM      8  C   UNL     1      16.702 -20.488 -26.232  1.00  0.00     0.039 C 
ATOM      9  C   UNL     1      16.128 -21.290 -27.127  1.00  0.00     0.012 C 
ENDBRANCH   6   8
ENDBRANCH   5   6
ENDBRANCH   1   5
TORSDOF 5
ENDMDL
MODEL 2
REMARK VINA RESULT:    -3.721      1.296      2.429
REMARK INTER + INTRA:          -5.282
REMARK INTER:                  -4.839
REMARK INTRA:                  -0.443
REMARK UNBOUND:                -0.473
REMARK SMILES C=CC(=O)CCCCC
REMARK SMILES IDX 6 1 7 2 8 3 9 4 5 5 3 6 4 7 2 8 1 9
REMARK H PARENT
REMARK Flexibility Score: inf
ROOT
ATOM      1  C   UNL     1      18.483 -23.533 -26.234  1.00  0.00     0.008 C 
ENDROOT
BRANCH   1   2
ATOM      2  C   UNL     1      17.913 -24.801 -25.581  1.00  0.00     0.000 C 
BRANCH   2   3
ATOM      3  C   UNL     1      18.735 -25.259 -24.367  1.00  0.00    -0.003 C 
ATOM      4  C   UNL     1      19.839 -24.272 -23.993  1.00  0.00     0.004 C 
ENDBRANCH   2   3
ENDBRANCH   1   2
BRANCH   1   5
ATOM      5  C   UNL     1      17.359 -22.575 -26.643  1.00  0.00     0.080 C 
BRANCH   5   6
ATOM      6  C   UNL     1      17.554 -21.230 -26.005  1.00  0.00     0.155 C 
ATOM      7  O   UNL     1      16.677 -20.338 -26.163  1.00  0.00    -0.295 OA
BRANCH   6   8
ATOM      8  C   UNL     1      18.784 -20.948 -25.240  1.00  0.00     0.039 C 
ATOM      9  C   UNL     1      18.774 -20.733 -23.926  1.00  0.00     0.012 C 
ENDBRANCH   6   8
ENDBRANCH   5   6
ENDBRANCH   1   5
TORSDOF 5
ENDMDL
MODEL 3
REMARK VINA RESULT:    -3.708      1.257      3.530
REMARK INTER + INTRA:          -5.266
REMARK INTER:                  -4.749
REMARK INTRA:                  -0.517
REMARK UNBOUND:                -0.473
REMARK SMILES C=CC(=O)CCCCC
REMARK SMILES IDX 6 1 7 2 8 3 9 4 5 5 3 6 4 7 2 8 1 9
REMARK H PARENT
REMARK Flexibility Score: inf
ROOT
ATOM      1  C   UNL     1      18.842 -21.089 -25.089  1.00  0.00     0.008 C 
ENDROOT
BRANCH   1   2
ATOM      2  C   UNL     1      17.308 -21.146 -25.063  1.00  0.00     0.000 C 
BRANCH   2   3
ATOM      3  C   UNL     1      16.672 -20.480 -26.293  1.00  0.00    -0.003 C 
ATOM      4  C   UNL     1      16.140 -21.493 -27.305  1.00  0.00     0.004 C 
ENDBRANCH   2   3
ENDBRANCH   1   2
BRANCH   1   5
ATOM      5  C   UNL     1      19.425 -22.338 -25.760  1.00  0.00     0.080 C 
BRANCH   5   6
ATOM      6  C   UNL     1      18.954 -23.580 -25.061  1.00  0.00     0.155 C 
ATOM      7  O   UNL     1      19.271 -23.768 -23.855  1.00  0.00    -0.295 OA
BRANCH   6   8
ATOM      8  C   UNL     1      18.166 -24.587 -25.797  1.00  0.00     0.039 C 
ATOM      9  C   UNL     1      16.921 -24.911 -25.454  1.00  0.00     0.012 C 
ENDBRANCH   6   8
ENDBRANCH   5   6
ENDBRANCH   1   5
TORSDOF 5
ENDMDL
MODEL 4
REMARK VINA RESULT:    -3.706      1.591      2.754
REMARK INTER + INTRA:          -5.262
REMARK INTER:                  -4.726
REMARK INTRA:                  -0.537
REMARK UNBOUND:                -0.473
REMARK SMILES C=CC(=O)CCCCC
REMARK SMILES IDX 6 1 7 2 8 3 9 4 5 5 3 6 4 7 2 8 1 9
REMARK H PARENT
REMARK Flexibility Score: inf
ROOT
ATOM      1  C   UNL     1      19.518 -22.101 -25.553  1.00  0.00     0.008 C 
ENDROOT
BRANCH   1   2
ATOM      2  C   UNL     1      18.695 -23.346 -25.916  1.00  0.00     0.000 C 
BRANCH   2   3
ATOM      3  C   UNL     1      18.820 -24.462 -24.867  1.00  0.00    -0.003 C 
ATOM      4  C   UNL     1      19.923 -24.192 -23.844  1.00  0.00     0.004 C 
ENDBRANCH   2   3
ENDBRANCH   1   2
BRANCH   1   5
ATOM      5  C   UNL     1      18.606 -20.897 -25.297  1.00  0.00     0.080 C 
BRANCH   5   6
ATOM      6  C   UNL     1      18.026 -20.959 -23.915  1.00  0.00     0.155 C 
ATOM      7  O   UNL     1      16.818 -21.288 -23.765  1.00  0.00    -0.295 OA
BRANCH   6   8
ATOM      8  C   UNL     1      18.855 -20.593 -22.749  1.00  0.00     0.039 C 
ATOM      9  C   UNL     1      18.766 -21.228 -21.582  1.00  0.00     0.012 C 
ENDBRANCH   6   8
ENDBRANCH   5   6
ENDBRANCH   1   5
TORSDOF 5
ENDMDL
MODEL 5
REMARK VINA RESULT:    -3.659      1.564      2.784
REMARK INTER + INTRA:          -5.202
REMARK INTER:                  -4.609
REMARK INTRA:                  -0.593
REMARK UNBOUND:                -0.473
REMARK SMILES C=CC(=O)CCCCC
REMARK SMILES IDX 6 1 7 2 8 3 9 4 5 5 3 6 4 7 2 8 1 9
REMARK H PARENT
REMARK Flexibility Score: inf
ROOT
ATOM      1  C   UNL     1      19.026 -23.278 -25.442  1.00  0.00     0.008 C 
ENDROOT
BRANCH   1   2
ATOM      2  C   UNL     1      19.562 -21.848 -25.608  1.00  0.00     0.000 C 
BRANCH   2   3
ATOM      3  C   UNL     1      18.833 -20.837 -24.711  1.00  0.00    -0.003 C 
ATOM      4  C   UNL     1      18.437 -21.424 -23.357  1.00  0.00     0.004 C 
ENDBRANCH   2   3
ENDBRANCH   1   2
BRANCH   1   5
ATOM      5  C   UNL     1      18.006 -23.611 -26.536  1.00  0.00     0.080 C 
BRANCH   5   6
ATOM      6  C   UNL     1      16.608 -23.514 -26.000  1.00  0.00     0.155 C 
ATOM      7  O   UNL     1      16.172 -24.424 -25.243  1.00  0.00    -0.295 OA
BRANCH   6   8
ATOM      8  C   UNL     1      15.742 -22.387 -26.395  1.00  0.00     0.039 C 
ATOM      9  C   UNL     1      16.113 -21.484 -27.301  1.00  0.00     0.012 C 
ENDBRANCH   6   8
ENDBRANCH   5   6
ENDBRANCH   1   5
TORSDOF 5
ENDMDL
MODEL 6
REMARK VINA RESULT:    -3.627      1.776      2.643
REMARK INTER + INTRA:          -5.161
REMARK INTER:                  -4.833
REMARK INTRA:                  -0.328
REMARK UNBOUND:                -0.473
REMARK SMILES C=CC(=O)CCCCC
REMARK SMILES IDX 6 1 7 2 8 3 9 4 5 5 3 6 4 7 2 8 1 9
REMARK H PARENT
REMARK Flexibility Score: inf
ROOT
ATOM      1  C   UNL     1      19.557 -23.702 -24.182  1.00  0.00     0.008 C 
ENDROOT
BRANCH   1   2
ATOM      2  C   UNL     1      18.928 -25.022 -24.650  1.00  0.00     0.000 C 
BRANCH   2   3
ATOM      3  C   UNL     1      17.915 -24.822 -25.788  1.00  0.00    -0.003 C 
ATOM      4  C   UNL     1      16.487 -25.180 -25.379  1.00  0.00     0.004 C 
ENDBRANCH   2   3
ENDBRANCH   1   2
BRANCH   1   5
ATOM      5  C   UNL     1      19.458 -22.630 -25.273  1.00  0.00     0.080 C 
BRANCH   5   6
ATOM      6  C   UNL     1      18.746 -21.416 -24.754  1.00  0.00     0.155 C 
ATOM      7  O   UNL     1      18.480 -20.470 -25.545  1.00  0.00    -0.295 OA
BRANCH   6   8
ATOM      8  C   UNL     1      18.402 -21.316 -23.322  1.00  0.00     0.039 C 
ATOM      9  C   UNL     1      18.891 -20.360 -22.535  1.00  0.00     0.012 C 
ENDBRANCH   6   8
ENDBRANCH   5   6
ENDBRANCH   1   5
TORSDOF 5
ENDMDL
MODEL 7
REMARK VINA RESULT:    -3.620      1.864      3.239
REMARK INTER + INTRA:          -5.152
REMARK INTER:                  -4.820
REMARK INTRA:                  -0.332
REMARK UNBOUND:                -0.473
REMARK SMILES C=CC(=O)CCCCC
REMARK SMILES IDX 6 1 7 2 8 3 9 4 5 5 3 6 4 7 2 8 1 9
REMARK H PARENT
REMARK Flexibility Score: inf
ROOT
ATOM      1  C   UNL     1      18.112 -24.661 -24.313  1.00  0.00     0.008 C 
ENDROOT
BRANCH   1   2
ATOM      2  C   UNL     1      19.362 -25.439 -23.878  1.00  0.00     0.000 C 
BRANCH   2   3
ATOM      3  C   UNL     1      20.420 -24.539 -23.222  1.00  0.00    -0.003 C 
ATOM      4  C   UNL     1      21.142 -25.222 -22.062  1.00  0.00     0.004 C 
ENDBRANCH   2   3
ENDBRANCH   1   2
BRANCH   1   5
ATOM      5  C   UNL     1      18.058 -24.517 -25.837  1.00  0.00     0.080 C 
BRANCH   5   6
ATOM      6  C   UNL     1      18.102 -23.070 -26.232  1.00  0.00     0.155 C 
ATOM      7  O   UNL     1      17.244 -22.624 -27.042  1.00  0.00    -0.295 OA
BRANCH   6   8
ATOM      8  C   UNL     1      19.168 -22.193 -25.708  1.00  0.00     0.039 C 
ATOM      9  C   UNL     1      18.909 -21.027 -25.121  1.00  0.00     0.012 C 
ENDBRANCH   6   8
ENDBRANCH   5   6
ENDBRANCH   1   5
TORSDOF 5
ENDMDL
MODEL 8
REMARK VINA RESULT:    -3.601      1.912      4.305
REMARK INTER + INTRA:          -5.127
REMARK INTER:                  -4.571
REMARK INTRA:                  -0.556
REMARK UNBOUND:                -0.473
REMARK SMILES C=CC(=O)CCCCC
REMARK SMILES IDX 6 1 7 2 8 3 9 4 5 5 3 6 4 7 2 8 1 9
REMARK H PARENT
REMARK Flexibility Score: inf
ROOT
ATOM      1  C   UNL     1      17.868 -23.398 -26.010  1.00  0.00     0.008 C 
ENDROOT
BRANCH   1   2
ATOM      2  C   UNL     1      19.186 -22.627 -25.851  1.00  0.00     0.000 C 
BRANCH   2   3
ATOM      3  C   UNL     1      18.983 -21.231 -25.244  1.00  0.00    -0.003 C 
ATOM      4  C   UNL     1      18.627 -21.277 -23.758  1.00  0.00     0.004 C 
ENDBRANCH   2   3
ENDBRANCH   1   2
BRANCH   1   5
ATOM      5  C   UNL     1      18.042 -24.869 -25.616  1.00  0.00     0.080 C 
BRANCH   5   6
ATOM      6  C   UNL     1      18.308 -24.992 -24.144  1.00  0.00     0.155 C 
ATOM      7  O   UNL     1      17.416 -24.645 -23.324  1.00  0.00    -0.295 OA
BRANCH   6   8
ATOM      8  C   UNL     1      19.619 -25.474 -23.668  1.00  0.00     0.039 C 
ATOM      9  C   UNL     1      20.456 -24.703 -22.976  1.00  0.00     0.012 C 
ENDBRANCH   6   8
ENDBRANCH   5   6
ENDBRANCH   1   5
TORSDOF 5
ENDMDL
MODEL 9
REMARK VINA RESULT:    -3.566      1.667      2.302
REMARK INTER + INTRA:          -5.082
REMARK INTER:                  -4.801
REMARK INTRA:                  -0.281
REMARK UNBOUND:                -0.473
REMARK SMILES C=CC(=O)CCCCC
REMARK SMILES IDX 6 1 7 2 8 3 9 4 5 5 3 6 4 7 2 8 1 9
REMARK H PARENT
REMARK Flexibility Score: inf
ROOT
ATOM      1  C   UNL     1      19.578 -23.516 -24.154  1.00  0.00     0.008 C 
ENDROOT
BRANCH   1   2
ATOM      2  C   UNL     1      19.208 -24.992 -24.365  1.00  0.00     0.000 C 
BRANCH   2   3
ATOM      3  C   UNL     1      19.759 -25.902 -23.256  1.00  0.00    -0.003 C 
ATOM      4  C   UNL     1      20.836 -25.222 -22.413  1.00  0.00     0.004 C 
ENDBRANCH   2   3
ENDBRANCH   1   2
BRANCH   1   5
ATOM      5  C   UNL     1      19.604 -22.762 -25.488  1.00  0.00     0.080 C 
BRANCH   5   6
ATOM      6  C   UNL     1      18.631 -21.621 -25.468  1.00  0.00     0.155 C 
ATOM      7  O   UNL     1      18.905 -20.586 -24.801  1.00  0.00    -0.295 OA
BRANCH   6   8
ATOM      8  C   UNL     1      17.347 -21.732 -26.187  1.00  0.00     0.039 C 
ATOM      9  C   UNL     1      17.086 -22.724 -27.036  1.00  0.00     0.012 C 
ENDBRANCH   6   8
ENDBRANCH   5   6
ENDBRANCH   1   5
TORSDOF 5
ENDMDL
