MODEL 1
REMARK VINA RESULT:    -9.981      0.000      0.000
REMARK INTER + INTRA:         -12.020
REMARK INTER:                 -11.732
REMARK INTRA:                  -0.289
REMARK UNBOUND:                -0.289
REMARK SMILES O=c1cc(-c2ccc(O)c(O)c2)oc2cc(O)cc(O)c12
REMARK SMILES IDX 4 1 3 2 2 3 1 4 21 5 19 6 18 7 16 8 15 9 14 10 13 11 5 12
REMARK SMILES IDX 6 13 7 14 8 15 12 16 10 17 9 18 11 20 20 22 17 24
REMARK H PARENT 9 19 11 21 20 23 17 25
REMARK Flexibility Score: inf
ROOT
ATOM      1  C   UNL     1     119.004 120.021 114.753  1.00  0.00     0.138 A 
ATOM      2  C   UNL     1     119.320 121.151 115.526  1.00  0.00     0.100 A 
ATOM      3  C   UNL     1     119.663 120.991 116.869  1.00  0.00     0.197 A 
ATOM      4  O   UNL     1     119.944 122.012 117.555  1.00  0.00    -0.289 OA
ATOM      5  C   UNL     1     119.686 119.700 117.432  1.00  0.00     0.107 A 
ATOM      6  C   UNL     1     120.025 119.449 118.783  1.00  0.00     0.134 A 
ATOM      7  C   UNL     1     120.018 118.134 119.269  1.00  0.00     0.093 A 
ATOM      8  C   UNL     1     119.680 117.067 118.433  1.00  0.00     0.123 A 
ATOM      9  C   UNL     1     119.345 117.308 117.096  1.00  0.00     0.094 A 
ATOM     10  C   UNL     1     119.346 118.612 116.592  1.00  0.00     0.146 A 
ATOM     11  O   UNL     1     119.026 118.816 115.319  1.00  0.00    -0.456 OA
ENDROOT
BRANCH   1  12
ATOM     12  C   UNL     1     118.630 120.131 113.322  1.00  0.00     0.021 A 
ATOM     13  C   UNL     1     117.773 119.172 112.755  1.00  0.00     0.016 A 
ATOM     14  C   UNL     1     117.412 119.248 111.408  1.00  0.00     0.051 A 
ATOM     15  C   UNL     1     117.908 120.278 110.600  1.00  0.00     0.157 A 
ATOM     16  C   UNL     1     119.137 121.157 112.500  1.00  0.00     0.062 A 
ATOM     17  C   UNL     1     118.778 121.235 111.149  1.00  0.00     0.158 A 
BRANCH  15  18
ATOM     18  O   UNL     1     117.545 120.352 109.256  1.00  0.00    -0.504 OA
ATOM     19  H   UNL     1     118.059 119.855 108.539  1.00  0.00     0.293 HD
ENDBRANCH  15  18
BRANCH  17  20
ATOM     20  O   UNL     1     119.298 122.266 110.368  1.00  0.00    -0.504 OA
ATOM     21  H   UNL     1     120.268 122.553 110.432  1.00  0.00     0.293 HD
ENDBRANCH  17  20
ENDBRANCH   1  12
BRANCH   6  22
ATOM     22  O   UNL     1     120.365 120.494 119.642  1.00  0.00    -0.507 OA
ATOM     23  H   UNL     1     121.318 120.637 119.958  1.00  0.00     0.293 HD
ENDBRANCH   6  22
BRANCH   8  24
ATOM     24  O   UNL     1     119.682 115.770 118.940  1.00  0.00    -0.508 OA
ATOM     25  H   UNL     1     119.446 115.577 119.906  1.00  0.00     0.293 HD
ENDBRANCH   8  24
TORSDOF 5
ENDMDL
MODEL 2
REMARK VINA RESULT:    -9.980      2.196      2.643
REMARK INTER + INTRA:         -12.018
REMARK INTER:                 -11.729
REMARK INTRA:                  -0.289
REMARK UNBOUND:                -0.289
REMARK SMILES O=c1cc(-c2ccc(O)c(O)c2)oc2cc(O)cc(O)c12
REMARK SMILES IDX 4 1 3 2 2 3 1 4 21 5 19 6 18 7 16 8 15 9 14 10 13 11 5 12
REMARK SMILES IDX 6 13 7 14 8 15 12 16 10 17 9 18 11 20 20 22 17 24
REMARK H PARENT 9 19 11 21 20 23 17 25
REMARK Flexibility Score: inf
ROOT
ATOM      1  C   UNL     1     119.055 119.014 114.716  1.00  0.00     0.138 A 
ATOM      2  C   UNL     1     117.927 119.350 115.483  1.00  0.00     0.100 A 
ATOM      3  C   UNL     1     118.088 119.701 116.825  1.00  0.00     0.197 A 
ATOM      4  O   UNL     1     117.068 119.999 117.506  1.00  0.00    -0.289 OA
ATOM      5  C   UNL     1     119.378 119.711 117.391  1.00  0.00     0.107 A 
ATOM      6  C   UNL     1     119.629 120.056 118.740  1.00  0.00     0.134 A 
ATOM      7  C   UNL     1     120.943 120.036 119.230  1.00  0.00     0.093 A 
ATOM      8  C   UNL     1     122.008 119.679 118.399  1.00  0.00     0.123 A 
ATOM      9  C   UNL     1     121.766 119.337 117.063  1.00  0.00     0.094 A 
ATOM     10  C   UNL     1     120.463 119.352 116.556  1.00  0.00     0.146 A 
ATOM     11  O   UNL     1     120.258 119.024 115.285  1.00  0.00    -0.456 OA
ENDROOT
BRANCH   1  12
ATOM     12  C   UNL     1     118.943 118.631 113.287  1.00  0.00     0.021 A 
ATOM     13  C   UNL     1     119.908 117.779 112.722  1.00  0.00     0.016 A 
ATOM     14  C   UNL     1     119.831 117.409 111.377  1.00  0.00     0.051 A 
ATOM     15  C   UNL     1     118.795 117.893 110.570  1.00  0.00     0.157 A 
ATOM     16  C   UNL     1     117.912 119.125 112.465  1.00  0.00     0.062 A 
ATOM     17  C   UNL     1     117.833 118.758 111.117  1.00  0.00     0.158 A 
BRANCH  15  18
ATOM     18  O   UNL     1     118.720 117.522 109.228  1.00  0.00    -0.504 OA
ATOM     19  H   UNL     1     118.046 116.839 108.903  1.00  0.00     0.293 HD
ENDBRANCH  15  18
BRANCH  17  20
ATOM     20  O   UNL     1     116.795 119.267 110.336  1.00  0.00    -0.504 OA
ATOM     21  H   UNL     1     115.831 119.249 110.645  1.00  0.00     0.293 HD
ENDBRANCH  17  20
ENDBRANCH   1  12
BRANCH   6  22
ATOM     22  O   UNL     1     118.586 120.416 119.594  1.00  0.00    -0.507 OA
ATOM     23  H   UNL     1     118.458 121.372 119.906  1.00  0.00     0.293 HD
ENDBRANCH   6  22
BRANCH   8  24
ATOM     24  O   UNL     1     123.304 119.668 118.909  1.00  0.00    -0.508 OA
ATOM     25  H   UNL     1     123.991 120.356 118.627  1.00  0.00     0.293 HD
ENDBRANCH   8  24
TORSDOF 5
ENDMDL
MODEL 3
REMARK VINA RESULT:    -9.968      2.201      2.638
REMARK INTER + INTRA:         -12.005
REMARK INTER:                 -11.715
REMARK INTRA:                  -0.290
REMARK UNBOUND:                -0.289
REMARK SMILES O=c1cc(-c2ccc(O)c(O)c2)oc2cc(O)cc(O)c12
REMARK SMILES IDX 4 1 3 2 2 3 1 4 21 5 19 6 18 7 16 8 15 9 14 10 13 11 5 12
REMARK SMILES IDX 6 13 7 14 8 15 12 16 10 17 9 18 11 20 20 22 17 24
REMARK H PARENT 9 19 11 21 20 23 17 25
REMARK Flexibility Score: inf
ROOT
ATOM      1  C   UNL     1     119.973 120.007 114.696  1.00  0.00     0.138 A 
ATOM      2  C   UNL     1     121.099 119.670 115.464  1.00  0.00     0.100 A 
ATOM      3  C   UNL     1     120.936 119.320 116.806  1.00  0.00     0.197 A 
ATOM      4  O   UNL     1     121.954 119.021 117.488  1.00  0.00    -0.289 OA
ATOM      5  C   UNL     1     119.646 119.314 117.371  1.00  0.00     0.107 A 
ATOM      6  C   UNL     1     119.392 118.970 118.721  1.00  0.00     0.134 A 
ATOM      7  C   UNL     1     118.078 118.994 119.209  1.00  0.00     0.093 A 
ATOM      8  C   UNL     1     117.015 119.353 118.377  1.00  0.00     0.123 A 
ATOM      9  C   UNL     1     117.259 119.693 117.041  1.00  0.00     0.094 A 
ATOM     10  C   UNL     1     118.562 119.675 116.535  1.00  0.00     0.146 A 
ATOM     11  O   UNL     1     118.769 120.000 115.264  1.00  0.00    -0.456 OA
ENDROOT
BRANCH   1  12
ATOM     12  C   UNL     1     120.086 120.388 113.266  1.00  0.00     0.021 A 
ATOM     13  C   UNL     1     119.109 121.220 112.693  1.00  0.00     0.016 A 
ATOM     14  C   UNL     1     119.188 121.588 111.347  1.00  0.00     0.051 A 
ATOM     15  C   UNL     1     120.239 121.122 110.549  1.00  0.00     0.157 A 
ATOM     16  C   UNL     1     121.132 119.912 112.453  1.00  0.00     0.062 A 
ATOM     17  C   UNL     1     121.213 120.277 111.104  1.00  0.00     0.158 A 
BRANCH  15  18
ATOM     18  O   UNL     1     120.315 121.491 109.206  1.00  0.00    -0.504 OA
ATOM     19  H   UNL     1     121.133 121.954 108.828  1.00  0.00     0.293 HD
ENDBRANCH  15  18
BRANCH  17  20
ATOM     20  O   UNL     1     122.266 119.787 110.331  1.00  0.00    -0.504 OA
ATOM     21  H   UNL     1     122.332 118.810 110.070  1.00  0.00     0.293 HD
ENDBRANCH  17  20
ENDBRANCH   1  12
BRANCH   6  22
ATOM     22  O   UNL     1     120.434 118.609 119.576  1.00  0.00    -0.507 OA
ATOM     23  H   UNL     1     121.346 119.045 119.518  1.00  0.00     0.293 HD
ENDBRANCH   6  22
BRANCH   8  24
ATOM     24  O   UNL     1     115.719 119.368 118.886  1.00  0.00    -0.508 OA
ATOM     25  H   UNL     1     114.917 119.156 118.304  1.00  0.00     0.293 HD
ENDBRANCH   8  24
TORSDOF 5
ENDMDL
MODEL 4
REMARK VINA RESULT:    -9.964      2.377      3.748
REMARK INTER + INTRA:         -12.000
REMARK INTER:                 -11.710
REMARK INTRA:                  -0.290
REMARK UNBOUND:                -0.289
REMARK SMILES O=c1cc(-c2ccc(O)c(O)c2)oc2cc(O)cc(O)c12
REMARK SMILES IDX 4 1 3 2 2 3 1 4 21 5 19 6 18 7 16 8 15 9 14 10 13 11 5 12
REMARK SMILES IDX 6 13 7 14 8 15 12 16 10 17 9 18 11 20 20 22 17 24
REMARK H PARENT 9 19 11 21 20 23 17 25
REMARK Flexibility Score: inf
ROOT
ATOM      1  C   UNL     1     120.027 119.065 114.700  1.00  0.00     0.138 A 
ATOM      2  C   UNL     1     119.691 117.938 115.468  1.00  0.00     0.100 A 
ATOM      3  C   UNL     1     119.331 118.101 116.807  1.00  0.00     0.197 A 
ATOM      4  O   UNL     1     119.033 117.082 117.489  1.00  0.00    -0.289 OA
ATOM      5  C   UNL     1     119.312 119.392 117.369  1.00  0.00     0.107 A 
ATOM      6  C   UNL     1     118.958 119.645 118.716  1.00  0.00     0.134 A 
ATOM      7  C   UNL     1     118.969 120.961 119.202  1.00  0.00     0.093 A 
ATOM      8  C   UNL     1     119.328 122.024 118.371  1.00  0.00     0.123 A 
ATOM      9  C   UNL     1     119.678 121.781 117.038  1.00  0.00     0.094 A 
ATOM     10  C   UNL     1     119.672 120.476 116.534  1.00  0.00     0.146 A 
ATOM     11  O   UNL     1     120.008 120.270 115.265  1.00  0.00    -0.456 OA
ENDROOT
BRANCH   1  12
ATOM     12  C   UNL     1     120.419 118.952 113.273  1.00  0.00     0.021 A 
ATOM     13  C   UNL     1     121.240 119.938 112.701  1.00  0.00     0.016 A 
ATOM     14  C   UNL     1     121.617 119.860 111.359  1.00  0.00     0.051 A 
ATOM     15  C   UNL     1     121.172 118.799 110.561  1.00  0.00     0.157 A 
ATOM     16  C   UNL     1     119.963 117.895 112.461  1.00  0.00     0.062 A 
ATOM     17  C   UNL     1     120.338 117.814 111.115  1.00  0.00     0.158 A 
BRANCH  15  18
ATOM     18  O   UNL     1     121.551 118.723 109.221  1.00  0.00    -0.504 OA
ATOM     19  H   UNL     1     121.264 119.423 108.547  1.00  0.00     0.293 HD
ENDBRANCH  15  18
BRANCH  17  20
ATOM     20  O   UNL     1     119.869 116.751 110.343  1.00  0.00    -0.504 OA
ATOM     21  H   UNL     1     119.478 116.889 109.419  1.00  0.00     0.293 HD
ENDBRANCH  17  20
ENDBRANCH   1  12
BRANCH   6  22
ATOM     22  O   UNL     1     118.597 118.603 119.571  1.00  0.00    -0.507 OA
ATOM     23  H   UNL     1     117.627 118.358 119.733  1.00  0.00     0.293 HD
ENDBRANCH   6  22
BRANCH   8  24
ATOM     24  O   UNL     1     119.330 123.322 118.878  1.00  0.00    -0.508 OA
ATOM     25  H   UNL     1     119.508 123.508 119.858  1.00  0.00     0.293 HD
ENDBRANCH   8  24
TORSDOF 5
ENDMDL
MODEL 5
REMARK VINA RESULT:    -9.650      1.515      1.857
REMARK INTER + INTRA:         -11.631
REMARK INTER:                 -11.354
REMARK INTRA:                  -0.276
REMARK UNBOUND:                -0.289
REMARK SMILES O=c1cc(-c2ccc(O)c(O)c2)oc2cc(O)cc(O)c12
REMARK SMILES IDX 4 1 3 2 2 3 1 4 21 5 19 6 18 7 16 8 15 9 14 10 13 11 5 12
REMARK SMILES IDX 6 13 7 14 8 15 12 16 10 17 9 18 11 20 20 22 17 24
REMARK H PARENT 9 19 11 21 20 23 17 25
REMARK Flexibility Score: inf
ROOT
ATOM      1  C   UNL     1     119.164 119.041 114.508  1.00  0.00     0.138 A 
ATOM      2  C   UNL     1     119.449 120.336 114.970  1.00  0.00     0.100 A 
ATOM      3  C   UNL     1     119.729 120.536 116.323  1.00  0.00     0.197 A 
ATOM      4  O   UNL     1     119.983 121.704 116.728  1.00  0.00    -0.289 OA
ATOM      5  C   UNL     1     119.720 119.438 117.205  1.00  0.00     0.107 A 
ATOM      6  C   UNL     1     119.996 119.554 118.589  1.00  0.00     0.134 A 
ATOM      7  C   UNL     1     119.960 118.412 119.402  1.00  0.00     0.093 A 
ATOM      8  C   UNL     1     119.656 117.160 118.860  1.00  0.00     0.123 A 
ATOM      9  C   UNL     1     119.384 117.040 117.493  1.00  0.00     0.094 A 
ATOM     10  C   UNL     1     119.415 118.166 116.665  1.00  0.00     0.146 A 
ATOM     11  O   UNL     1     119.154 118.026 115.370  1.00  0.00    -0.456 OA
ENDROOT
BRANCH   1  12
ATOM     12  C   UNL     1     118.856 118.768 113.082  1.00  0.00     0.021 A 
ATOM     13  C   UNL     1     117.722 119.355 112.495  1.00  0.00     0.016 A 
ATOM     14  C   UNL     1     117.406 119.109 111.156  1.00  0.00     0.051 A 
ATOM     15  C   UNL     1     118.212 118.263 110.384  1.00  0.00     0.157 A 
ATOM     16  C   UNL     1     119.654 117.907 112.303  1.00  0.00     0.062 A 
ATOM     17  C   UNL     1     119.339 117.657 110.962  1.00  0.00     0.158 A 
BRANCH  15  18
ATOM     18  O   UNL     1     117.894 118.020 109.048  1.00  0.00    -0.504 OA
ATOM     19  H   UNL     1     116.960 118.176 108.688  1.00  0.00     0.293 HD
ENDBRANCH  15  18
BRANCH  17  20
ATOM     20  O   UNL     1     120.155 116.801 110.223  1.00  0.00    -0.504 OA
ATOM     21  H   UNL     1     120.947 116.324 110.635  1.00  0.00     0.293 HD
ENDBRANCH  17  20
ENDBRANCH   1  12
BRANCH   6  22
ATOM     22  O   UNL     1     120.301 120.790 119.158  1.00  0.00    -0.507 OA
ATOM     23  H   UNL     1     120.844 121.487 118.661  1.00  0.00     0.293 HD
ENDBRANCH   6  22
BRANCH   8  24
ATOM     24  O   UNL     1     119.629 116.042 119.690  1.00  0.00    -0.508 OA
ATOM     25  H   UNL     1     118.869 115.372 119.653  1.00  0.00     0.293 HD
ENDBRANCH   8  24
TORSDOF 5
ENDMDL
MODEL 6
REMARK VINA RESULT:    -9.636      2.620      2.815
REMARK INTER + INTRA:         -11.614
REMARK INTER:                 -11.338
REMARK INTRA:                  -0.277
REMARK UNBOUND:                -0.289
REMARK SMILES O=c1cc(-c2ccc(O)c(O)c2)oc2cc(O)cc(O)c12
REMARK SMILES IDX 4 1 3 2 2 3 1 4 21 5 19 6 18 7 16 8 15 9 14 10 13 11 5 12
REMARK SMILES IDX 6 13 7 14 8 15 12 16 10 17 9 18 11 20 20 22 17 24
REMARK H PARENT 9 19 11 21 20 23 17 25
REMARK Flexibility Score: inf
ROOT
ATOM      1  C   UNL     1     119.988 119.158 114.509  1.00  0.00     0.138 A 
ATOM      2  C   UNL     1     118.690 119.453 114.958  1.00  0.00     0.100 A 
ATOM      3  C   UNL     1     118.477 119.731 116.309  1.00  0.00     0.197 A 
ATOM      4  O   UNL     1     117.307 119.994 116.702  1.00  0.00    -0.289 OA
ATOM      5  C   UNL     1     119.565 119.710 117.203  1.00  0.00     0.107 A 
ATOM      6  C   UNL     1     119.437 119.983 118.586  1.00  0.00     0.134 A 
ATOM      7  C   UNL     1     120.569 119.935 119.412  1.00  0.00     0.093 A 
ATOM      8  C   UNL     1     121.824 119.621 118.883  1.00  0.00     0.123 A 
ATOM      9  C   UNL     1     121.957 119.352 117.517  1.00  0.00     0.094 A 
ATOM     10  C   UNL     1     120.840 119.395 116.677  1.00  0.00     0.146 A 
ATOM     11  O   UNL     1     120.992 119.137 115.382  1.00  0.00    -0.456 OA
ENDROOT
BRANCH   1  12
ATOM     12  C   UNL     1     120.273 118.853 113.085  1.00  0.00     0.021 A 
ATOM     13  C   UNL     1     119.674 117.732 112.485  1.00  0.00     0.016 A 
ATOM     14  C   UNL     1     119.932 117.417 111.148  1.00  0.00     0.051 A 
ATOM     15  C   UNL     1     120.802 118.211 110.391  1.00  0.00     0.157 A 
ATOM     16  C   UNL     1     121.158 119.638 112.321  1.00  0.00     0.062 A 
ATOM     17  C   UNL     1     121.420 119.325 110.982  1.00  0.00     0.158 A 
BRANCH  15  18
ATOM     18  O   UNL     1     121.057 117.895 109.057  1.00  0.00    -0.504 OA
ATOM     19  H   UNL     1     120.567 118.356 108.299  1.00  0.00     0.293 HD
ENDBRANCH  15  18
BRANCH  17  20
ATOM     20  O   UNL     1     122.300 120.129 110.258  1.00  0.00    -0.504 OA
ATOM     21  H   UNL     1     122.401 121.120 110.444  1.00  0.00     0.293 HD
ENDBRANCH  17  20
ENDBRANCH   1  12
BRANCH   6  22
ATOM     22  O   UNL     1     118.197 120.297 119.143  1.00  0.00    -0.507 OA
ATOM     23  H   UNL     1     117.594 121.004 118.738  1.00  0.00     0.293 HD
ENDBRANCH   6  22
BRANCH   8  24
ATOM     24  O   UNL     1     122.933 119.582 119.725  1.00  0.00    -0.508 OA
ATOM     25  H   UNL     1     122.837 119.435 120.723  1.00  0.00     0.293 HD
ENDBRANCH   8  24
TORSDOF 5
ENDMDL
MODEL 7
REMARK VINA RESULT:    -9.568      1.850      3.290
REMARK INTER + INTRA:         -11.535
REMARK INTER:                 -11.255
REMARK INTRA:                  -0.280
REMARK UNBOUND:                -0.289
REMARK SMILES O=c1cc(-c2ccc(O)c(O)c2)oc2cc(O)cc(O)c12
REMARK SMILES IDX 4 1 3 2 2 3 1 4 21 5 19 6 18 7 16 8 15 9 14 10 13 11 5 12
REMARK SMILES IDX 6 13 7 14 8 15 12 16 10 17 9 18 11 20 20 22 17 24
REMARK H PARENT 9 19 11 21 20 23 17 25
REMARK Flexibility Score: inf
ROOT
ATOM      1  C   UNL     1     119.907 120.084 114.302  1.00  0.00     0.138 A 
ATOM      2  C   UNL     1     119.672 118.790 114.795  1.00  0.00     0.100 A 
ATOM      3  C   UNL     1     119.391 118.612 116.151  1.00  0.00     0.197 A 
ATOM      4  O   UNL     1     119.183 117.445 116.584  1.00  0.00    -0.289 OA
ATOM      5  C   UNL     1     119.350 119.731 117.005  1.00  0.00     0.107 A 
ATOM      6  C   UNL     1     119.072 119.638 118.390  1.00  0.00     0.134 A 
ATOM      7  C   UNL     1     119.055 120.801 119.175  1.00  0.00     0.093 A 
ATOM      8  C   UNL     1     119.312 122.050 118.604  1.00  0.00     0.123 A 
ATOM      9  C   UNL     1     119.587 122.148 117.235  1.00  0.00     0.094 A 
ATOM     10  C   UNL     1     119.608 121.001 116.436  1.00  0.00     0.146 A 
ATOM     11  O   UNL     1     119.871 121.119 115.139  1.00  0.00    -0.456 OA
ENDROOT
BRANCH   1  12
ATOM     12  C   UNL     1     120.212 120.333 112.871  1.00  0.00     0.021 A 
ATOM     13  C   UNL     1     121.326 119.711 112.283  1.00  0.00     0.016 A 
ATOM     14  C   UNL     1     121.640 119.934 110.940  1.00  0.00     0.051 A 
ATOM     15  C   UNL     1     120.852 120.793 110.164  1.00  0.00     0.157 A 
ATOM     16  C   UNL     1     119.432 121.207 112.088  1.00  0.00     0.062 A 
ATOM     17  C   UNL     1     119.745 121.435 110.743  1.00  0.00     0.158 A 
BRANCH  15  18
ATOM     18  O   UNL     1     121.167 121.014 108.824  1.00  0.00    -0.504 OA
ATOM     19  H   UNL     1     122.077 120.776 108.446  1.00  0.00     0.293 HD
ENDBRANCH  15  18
BRANCH  17  20
ATOM     20  O   UNL     1     118.947 122.304 110.000  1.00  0.00    -0.504 OA
ATOM     21  H   UNL     1     118.735 122.139 109.024  1.00  0.00     0.293 HD
ENDBRANCH  17  20
ENDBRANCH   1  12
BRANCH   6  22
ATOM     22  O   UNL     1     118.813 118.405 118.989  1.00  0.00    -0.507 OA
ATOM     23  H   UNL     1     118.419 118.337 119.920  1.00  0.00     0.293 HD
ENDBRANCH   6  22
BRANCH   8  24
ATOM     24  O   UNL     1     119.289 123.189 119.405  1.00  0.00    -0.508 OA
ATOM     25  H   UNL     1     118.426 123.544 119.799  1.00  0.00     0.293 HD
ENDBRANCH   8  24
TORSDOF 5
ENDMDL
MODEL 8
REMARK VINA RESULT:    -9.542      1.833      2.492
REMARK INTER + INTRA:         -11.504
REMARK INTER:                 -11.224
REMARK INTRA:                  -0.280
REMARK UNBOUND:                -0.289
REMARK SMILES O=c1cc(-c2ccc(O)c(O)c2)oc2cc(O)cc(O)c12
REMARK SMILES IDX 4 1 3 2 2 3 1 4 21 5 19 6 18 7 16 8 15 9 14 10 13 11 5 12
REMARK SMILES IDX 6 13 7 14 8 15 12 16 10 17 9 18 11 20 20 22 17 24
REMARK H PARENT 9 19 11 21 20 23 17 25
REMARK Flexibility Score: inf
ROOT
ATOM      1  C   UNL     1     118.934 119.909 114.259  1.00  0.00     0.138 A 
ATOM      2  C   UNL     1     120.223 119.636 114.745  1.00  0.00     0.100 A 
ATOM      3  C   UNL     1     120.398 119.337 116.098  1.00  0.00     0.197 A 
ATOM      4  O   UNL     1     121.560 119.095 116.524  1.00  0.00    -0.289 OA
ATOM      5  C   UNL     1     119.281 119.316 116.955  1.00  0.00     0.107 A 
ATOM      6  C   UNL     1     119.371 119.021 118.337  1.00  0.00     0.134 A 
ATOM      7  C   UNL     1     118.211 119.027 119.125  1.00  0.00     0.093 A 
ATOM      8  C   UNL     1     116.967 119.321 118.561  1.00  0.00     0.123 A 
ATOM      9  C   UNL     1     116.872 119.613 117.196  1.00  0.00     0.094 A 
ATOM     10  C   UNL     1     118.017 119.612 116.393  1.00  0.00     0.146 A 
ATOM     11  O   UNL     1     117.901 119.891 115.099  1.00  0.00    -0.456 OA
ENDROOT
BRANCH   1  12
ATOM     12  C   UNL     1     118.688 120.235 112.832  1.00  0.00     0.021 A 
ATOM     13  C   UNL     1     119.330 121.344 112.256  1.00  0.00     0.016 A 
ATOM     14  C   UNL     1     119.110 121.677 110.917  1.00  0.00     0.051 A 
ATOM     15  C   UNL     1     118.236 120.914 110.134  1.00  0.00     0.157 A 
ATOM     16  C   UNL     1     117.799 119.480 112.042  1.00  0.00     0.062 A 
ATOM     17  C   UNL     1     117.575 119.812 110.701  1.00  0.00     0.158 A 
BRANCH  15  18
ATOM     18  O   UNL     1     118.018 121.248 108.797  1.00  0.00    -0.504 OA
ATOM     19  H   UNL     1     117.248 120.855 108.270  1.00  0.00     0.293 HD
ENDBRANCH  15  18
BRANCH  17  20
ATOM     20  O   UNL     1     116.690 119.039 109.951  1.00  0.00    -0.504 OA
ATOM     21  H   UNL     1     115.695 119.021 110.142  1.00  0.00     0.293 HD
ENDBRANCH  17  20
ENDBRANCH   1  12
BRANCH   6  22
ATOM     22  O   UNL     1     120.599 118.725 118.929  1.00  0.00    -0.507 OA
ATOM     23  H   UNL     1     120.668 118.434 119.897  1.00  0.00     0.293 HD
ENDBRANCH   6  22
BRANCH   8  24
ATOM     24  O   UNL     1     115.830 119.319 119.366  1.00  0.00    -0.508 OA
ATOM     25  H   UNL     1     115.786 118.776 120.220  1.00  0.00     0.293 HD
ENDBRANCH   8  24
TORSDOF 5
ENDMDL
MODEL 9
REMARK VINA RESULT:    -9.384      2.515      3.194
REMARK INTER + INTRA:         -11.318
REMARK INTER:                 -11.052
REMARK INTRA:                  -0.266
REMARK UNBOUND:                -0.289
REMARK SMILES O=c1cc(-c2ccc(O)c(O)c2)oc2cc(O)cc(O)c12
REMARK SMILES IDX 4 1 3 2 2 3 1 4 21 5 19 6 18 7 16 8 15 9 14 10 13 11 5 12
REMARK SMILES IDX 6 13 7 14 8 15 12 16 10 17 9 18 11 20 20 22 17 24
REMARK H PARENT 9 19 11 21 20 23 17 25
REMARK Flexibility Score: inf
ROOT
ATOM      1  C   UNL     1     119.156 119.090 115.195  1.00  0.00     0.138 A 
ATOM      2  C   UNL     1     117.771 119.265 115.342  1.00  0.00     0.100 A 
ATOM      3  C   UNL     1     117.220 119.346 116.622  1.00  0.00     0.197 A 
ATOM      4  O   UNL     1     115.974 119.503 116.743  1.00  0.00    -0.289 OA
ATOM      5  C   UNL     1     118.061 119.247 117.748  1.00  0.00     0.107 A 
ATOM      6  C   UNL     1     117.585 119.321 119.079  1.00  0.00     0.134 A 
ATOM      7  C   UNL     1     118.487 119.208 120.147  1.00  0.00     0.093 A 
ATOM      8  C   UNL     1     119.851 119.023 119.910  1.00  0.00     0.123 A 
ATOM      9  C   UNL     1     120.328 118.950 118.597  1.00  0.00     0.094 A 
ATOM     10  C   UNL     1     119.445 119.061 117.518  1.00  0.00     0.146 A 
ATOM     11  O   UNL     1     119.921 118.990 116.280  1.00  0.00    -0.456 OA
ENDROOT
BRANCH   1  12
ATOM     12  C   UNL     1     119.797 118.995 113.859  1.00  0.00     0.021 A 
ATOM     13  C   UNL     1     120.734 119.967 113.471  1.00  0.00     0.016 A 
ATOM     14  C   UNL     1     121.345 119.906 112.216  1.00  0.00     0.051 A 
ATOM     15  C   UNL     1     121.023 118.877 111.324  1.00  0.00     0.157 A 
ATOM     16  C   UNL     1     119.467 117.970 112.951  1.00  0.00     0.062 A 
ATOM     17  C   UNL     1     120.076 117.907 111.692  1.00  0.00     0.158 A 
BRANCH  15  18
ATOM     18  O   UNL     1     121.635 118.817 110.072  1.00  0.00    -0.504 OA
ATOM     19  H   UNL     1     122.134 117.991 109.764  1.00  0.00     0.293 HD
ENDBRANCH  15  18
BRANCH  17  20
ATOM     20  O   UNL     1     119.725 116.876 110.821  1.00  0.00    -0.504 OA
ATOM     21  H   UNL     1     118.762 116.687 110.571  1.00  0.00     0.293 HD
ENDBRANCH  17  20
ENDBRANCH   1  12
BRANCH   6  22
ATOM     22  O   UNL     1     116.228 119.504 119.346  1.00  0.00    -0.507 OA
ATOM     23  H   UNL     1     115.792 120.417 119.291  1.00  0.00     0.293 HD
ENDBRANCH   6  22
BRANCH   8  24
ATOM     24  O   UNL     1     120.727 118.914 120.989  1.00  0.00    -0.508 OA
ATOM     25  H   UNL     1     121.357 118.126 121.083  1.00  0.00     0.293 HD
ENDBRANCH   8  24
TORSDOF 5
ENDMDL
