MODEL 1
REMARK VINA RESULT:    -3.386      0.000      0.000
REMARK INTER + INTRA:         -12.560
REMARK INTER:                  -8.929
REMARK INTRA:                  -3.631
REMARK UNBOUND:                -3.631
REMARK SMILES CCCCCCCCCCCCCCCCCCCCCCCCCCCCCC(=O)[O-]
REMARK SMILES IDX 16 1 17 2 18 3 19 4 20 5 21 6 22 7 23 8 24 9 25 10 26 11
REMARK SMILES IDX 27 12 28 13 29 14 30 15 31 16 32 17 15 18 14 19 13 20 12 21
REMARK SMILES IDX 11 22 10 23 9 24 8 25 7 26 6 27 5 28 4 29 3 30 2 31 1 32
REMARK H PARENT
REMARK Flexibility Score: inf
ROOT
ATOM      1  C   UNL     1    -103.625  27.765  21.849  1.00  0.00     0.000 C 
ENDROOT
BRANCH   1   2
ATOM      2  C   UNL     1    -104.855  28.669  21.697  1.00  0.00     0.000 C 
BRANCH   2   3
ATOM      3  C   UNL     1    -106.080  27.870  21.228  1.00  0.00     0.000 C 
BRANCH   3   4
ATOM      4  C   UNL     1    -107.282  27.996  22.183  1.00  0.00     0.000 C 
BRANCH   4   5
ATOM      5  C   UNL     1    -108.623  27.470  21.627  1.00  0.00     0.000 C 
BRANCH   5   6
ATOM      6  C   UNL     1    -109.574  26.869  22.680  1.00  0.00     0.000 C 
BRANCH   6   7
ATOM      7  C   UNL     1    -110.858  27.685  22.928  1.00  0.00     0.000 C 
BRANCH   7   8
ATOM      8  C   UNL     1    -111.269  28.607  21.765  1.00  0.00     0.000 C 
BRANCH   8   9
ATOM      9  C   UNL     1    -112.387  28.004  20.897  1.00  0.00     0.000 C 
BRANCH   9  10
ATOM     10  C   UNL     1    -111.915  27.643  19.479  1.00  0.00     0.000 C 
BRANCH  10  11
ATOM     11  C   UNL     1    -111.510  26.163  19.352  1.00  0.00     0.000 C 
BRANCH  11  12
ATOM     12  C   UNL     1    -111.943  25.540  18.007  1.00  0.00     0.000 C 
BRANCH  12  13
ATOM     13  C   UNL     1    -113.335  24.880  18.042  1.00  0.00     0.006 C 
BRANCH  13  14
ATOM     14  C   UNL     1    -113.747  24.195  16.731  1.00  0.00     0.053 C 
BRANCH  14  15
ATOM     15  C   UNL     1    -113.339  22.753  16.691  1.00  0.00     0.041 C 
ATOM     16  O   UNL     1    -114.202  21.852  16.507  1.00  0.00    -0.550 OA
ATOM     17  O   UNL     1    -112.009  22.400  16.879  1.00  0.00    -0.550 OA
ENDBRANCH  14  15
ENDBRANCH  13  14
ENDBRANCH  12  13
ENDBRANCH  11  12
ENDBRANCH  10  11
ENDBRANCH   9  10
ENDBRANCH   8   9
ENDBRANCH   7   8
ENDBRANCH   6   7
ENDBRANCH   5   6
ENDBRANCH   4   5
ENDBRANCH   3   4
ENDBRANCH   2   3
ENDBRANCH   1   2
BRANCH   1  18
ATOM     18  C   UNL     1    -102.603  28.046  20.740  1.00  0.00     0.000 C 
BRANCH  18  19
ATOM     19  C   UNL     1    -102.697  27.052  19.571  1.00  0.00     0.000 C 
BRANCH  19  20
ATOM     20  C   UNL     1    -102.684  25.574  20.011  1.00  0.00     0.000 C 
BRANCH  20  21
ATOM     21  C   UNL     1    -101.570  24.768  19.318  1.00  0.00     0.000 C 
BRANCH  21  22
ATOM     22  C   UNL     1    -102.126  23.673  18.393  1.00  0.00     0.000 C 
BRANCH  22  23
ATOM     23  C   UNL     1    -102.903  22.596  19.166  1.00  0.00     0.000 C 
BRANCH  23  24
ATOM     24  C   UNL     1    -104.014  21.979  18.306  1.00  0.00    -0.000 C 
BRANCH  24  25
ATOM     25  C   UNL     1    -104.437  22.951  17.193  1.00  0.00    -0.000 C 
BRANCH  25  26
ATOM     26  C   UNL     1    -105.959  23.165  17.133  1.00  0.00    -0.000 C 
BRANCH  26  27
ATOM     27  C   UNL     1    -106.346  24.653  17.185  1.00  0.00    -0.000 C 
BRANCH  27  28
ATOM     28  C   UNL     1    -105.131  25.594  17.075  1.00  0.00    -0.000 C 
BRANCH  28  29
ATOM     29  C   UNL     1    -105.458  27.026  16.610  1.00  0.00    -0.000 C 
BRANCH  29  30
ATOM     30  C   UNL     1    -105.713  27.992  17.779  1.00  0.00    -0.000 C 
BRANCH  30  31
ATOM     31  C   UNL     1    -107.072  28.700  17.673  1.00  0.00    -0.003 C 
ATOM     32  C   UNL     1    -108.240  27.790  18.048  1.00  0.00     0.004 C 
ENDBRANCH  30  31
ENDBRANCH  29  30
ENDBRANCH  28  29
ENDBRANCH  27  28
ENDBRANCH  26  27
ENDBRANCH  25  26
ENDBRANCH  24  25
ENDBRANCH  23  24
ENDBRANCH  22  23
ENDBRANCH  21  22
ENDBRANCH  20  21
ENDBRANCH  19  20
ENDBRANCH  18  19
ENDBRANCH   1  18
TORSDOF 28
ENDMDL
MODEL 2
REMARK VINA RESULT:    -3.367      1.703      3.146
REMARK INTER + INTRA:         -12.509
REMARK INTER:                  -8.432
REMARK INTRA:                  -4.077
REMARK UNBOUND:                -3.631
REMARK SMILES CCCCCCCCCCCCCCCCCCCCCCCCCCCCCC(=O)[O-]
REMARK SMILES IDX 16 1 17 2 18 3 19 4 20 5 21 6 22 7 23 8 24 9 25 10 26 11
REMARK SMILES IDX 27 12 28 13 29 14 30 15 31 16 32 17 15 18 14 19 13 20 12 21
REMARK SMILES IDX 11 22 10 23 9 24 8 25 7 26 6 27 5 28 4 29 3 30 2 31 1 32
REMARK H PARENT
REMARK Flexibility Score: inf
ROOT
ATOM      1  C   UNL     1    -106.117  29.009  21.826  1.00  0.00     0.000 C 
ENDROOT
BRANCH   1   2
ATOM      2  C   UNL     1    -107.180  27.956  21.488  1.00  0.00     0.000 C 
BRANCH   2   3
ATOM      3  C   UNL     1    -108.494  28.229  22.235  1.00  0.00     0.000 C 
BRANCH   3   4
ATOM      4  C   UNL     1    -109.244  26.941  22.624  1.00  0.00     0.000 C 
BRANCH   4   5
ATOM      5  C   UNL     1    -110.773  26.981  22.415  1.00  0.00     0.000 C 
BRANCH   5   6
ATOM      6  C   UNL     1    -111.239  26.732  20.967  1.00  0.00     0.000 C 
BRANCH   6   7
ATOM      7  C   UNL     1    -111.628  28.004  20.188  1.00  0.00     0.000 C 
BRANCH   7   8
ATOM      8  C   UNL     1    -110.667  28.378  19.044  1.00  0.00     0.000 C 
BRANCH   8   9
ATOM      9  C   UNL     1    -109.632  27.276  18.757  1.00  0.00     0.000 C 
BRANCH   9  10
ATOM     10  C   UNL     1    -109.398  27.053  17.254  1.00  0.00     0.000 C 
BRANCH  10  11
ATOM     11  C   UNL     1    -110.227  25.880  16.697  1.00  0.00     0.000 C 
BRANCH  11  12
ATOM     12  C   UNL     1    -111.615  26.322  16.184  1.00  0.00     0.000 C 
BRANCH  12  13
ATOM     13  C   UNL     1    -112.751  25.338  16.522  1.00  0.00     0.006 C 
BRANCH  13  14
ATOM     14  C   UNL     1    -112.929  25.063  18.022  1.00  0.00     0.053 C 
BRANCH  14  15
ATOM     15  C   UNL     1    -114.162  25.713  18.576  1.00  0.00     0.041 C 
ATOM     16  O   UNL     1    -114.411  25.655  19.810  1.00  0.00    -0.550 OA
ATOM     17  O   UNL     1    -115.047  26.363  17.728  1.00  0.00    -0.550 OA
ENDBRANCH  14  15
ENDBRANCH  13  14
ENDBRANCH  12  13
ENDBRANCH  11  12
ENDBRANCH  10  11
ENDBRANCH   9  10
ENDBRANCH   8   9
ENDBRANCH   7   8
ENDBRANCH   6   7
ENDBRANCH   5   6
ENDBRANCH   4   5
ENDBRANCH   3   4
ENDBRANCH   2   3
ENDBRANCH   1   2
BRANCH   1  18
ATOM     18  C   UNL     1    -104.812  28.339  22.274  1.00  0.00     0.000 C 
BRANCH  18  19
ATOM     19  C   UNL     1    -104.111  27.572  21.141  1.00  0.00     0.000 C 
BRANCH  19  20
ATOM     20  C   UNL     1    -102.689  28.082  20.833  1.00  0.00     0.000 C 
BRANCH  20  21
ATOM     21  C   UNL     1    -102.341  27.972  19.337  1.00  0.00     0.000 C 
BRANCH  21  22
ATOM     22  C   UNL     1    -102.316  26.514  18.846  1.00  0.00     0.000 C 
BRANCH  22  23
ATOM     23  C   UNL     1    -101.375  25.633  19.682  1.00  0.00     0.000 C 
BRANCH  23  24
ATOM     24  C   UNL     1    -101.932  24.213  19.844  1.00  0.00    -0.000 C 
BRANCH  24  25
ATOM     25  C   UNL     1    -102.030  23.513  18.479  1.00  0.00    -0.000 C 
BRANCH  25  26
ATOM     26  C   UNL     1    -103.116  22.425  18.442  1.00  0.00    -0.000 C 
BRANCH  26  27
ATOM     27  C   UNL     1    -103.376  21.902  17.019  1.00  0.00    -0.000 C 
BRANCH  27  28
ATOM     28  C   UNL     1    -104.566  22.597  16.331  1.00  0.00    -0.000 C 
BRANCH  28  29
ATOM     29  C   UNL     1    -105.698  23.038  17.278  1.00  0.00    -0.000 C 
BRANCH  29  30
ATOM     30  C   UNL     1    -106.369  24.350  16.839  1.00  0.00    -0.000 C 
BRANCH  30  31
ATOM     31  C   UNL     1    -105.521  25.587  17.173  1.00  0.00    -0.003 C 
ATOM     32  C   UNL     1    -106.030  26.336  18.402  1.00  0.00     0.004 C 
ENDBRANCH  30  31
ENDBRANCH  29  30
ENDBRANCH  28  29
ENDBRANCH  27  28
ENDBRANCH  26  27
ENDBRANCH  25  26
ENDBRANCH  24  25
ENDBRANCH  23  24
ENDBRANCH  22  23
ENDBRANCH  21  22
ENDBRANCH  20  21
ENDBRANCH  19  20
ENDBRANCH  18  19
ENDBRANCH   1  18
TORSDOF 28
ENDMDL
MODEL 3
REMARK VINA RESULT:    -3.366      2.558      7.977
REMARK INTER + INTRA:         -12.506
REMARK INTER:                  -8.618
REMARK INTRA:                  -3.887
REMARK UNBOUND:                -3.631
REMARK SMILES CCCCCCCCCCCCCCCCCCCCCCCCCCCCCC(=O)[O-]
REMARK SMILES IDX 16 1 17 2 18 3 19 4 20 5 21 6 22 7 23 8 24 9 25 10 26 11
REMARK SMILES IDX 27 12 28 13 29 14 30 15 31 16 32 17 15 18 14 19 13 20 12 21
REMARK SMILES IDX 11 22 10 23 9 24 8 25 7 26 6 27 5 28 4 29 3 30 2 31 1 32
REMARK H PARENT
REMARK Flexibility Score: inf
ROOT
ATOM      1  C   UNL     1    -106.733  26.876  19.663  1.00  0.00     0.000 C 
ENDROOT
BRANCH   1   2
ATOM      2  C   UNL     1    -106.555  28.207  20.406  1.00  0.00     0.000 C 
BRANCH   2   3
ATOM      3  C   UNL     1    -106.231  27.979  21.890  1.00  0.00     0.000 C 
BRANCH   3   4
ATOM      4  C   UNL     1    -104.850  28.526  22.296  1.00  0.00     0.000 C 
BRANCH   4   5
ATOM      5  C   UNL     1    -103.644  27.814  21.647  1.00  0.00     0.000 C 
BRANCH   5   6
ATOM      6  C   UNL     1    -102.821  28.683  20.675  1.00  0.00     0.000 C 
BRANCH   6   7
ATOM      7  C   UNL     1    -102.514  28.017  19.319  1.00  0.00     0.000 C 
BRANCH   7   8
ATOM      8  C   UNL     1    -101.265  27.116  19.313  1.00  0.00     0.000 C 
BRANCH   8   9
ATOM      9  C   UNL     1    -101.597  25.641  19.599  1.00  0.00     0.000 C 
BRANCH   9  10
ATOM     10  C   UNL     1    -100.587  24.668  18.969  1.00  0.00     0.000 C 
BRANCH  10  11
ATOM     11  C   UNL     1    -100.715  24.597  17.436  1.00  0.00     0.000 C 
BRANCH  11  12
ATOM     12  C   UNL     1    -100.347  23.208  16.871  1.00  0.00     0.000 C 
BRANCH  12  13
ATOM     13  C   UNL     1    -101.523  22.212  16.839  1.00  0.00     0.006 C 
BRANCH  13  14
ATOM     14  C   UNL     1    -102.906  22.856  17.007  1.00  0.00     0.053 C 
BRANCH  14  15
ATOM     15  C   UNL     1    -103.628  22.343  18.216  1.00  0.00     0.041 C 
ATOM     16  O   UNL     1    -102.995  22.102  19.280  1.00  0.00    -0.550 OA
ATOM     17  O   UNL     1    -104.995  22.108  18.165  1.00  0.00    -0.550 OA
ENDBRANCH  14  15
ENDBRANCH  13  14
ENDBRANCH  12  13
ENDBRANCH  11  12
ENDBRANCH  10  11
ENDBRANCH   9  10
ENDBRANCH   8   9
ENDBRANCH   7   8
ENDBRANCH   6   7
ENDBRANCH   5   6
ENDBRANCH   4   5
ENDBRANCH   3   4
ENDBRANCH   2   3
ENDBRANCH   1   2
BRANCH   1  18
ATOM     18  C   UNL     1    -105.486  26.548  18.831  1.00  0.00     0.000 C 
BRANCH  18  19
ATOM     19  C   UNL     1    -105.742  25.467  17.768  1.00  0.00     0.000 C 
BRANCH  19  20
ATOM     20  C   UNL     1    -106.761  25.885  16.689  1.00  0.00     0.000 C 
BRANCH  20  21
ATOM     21  C   UNL     1    -106.329  27.159  15.940  1.00  0.00     0.000 C 
BRANCH  21  22
ATOM     22  C   UNL     1    -107.294  28.333  16.174  1.00  0.00     0.000 C 
BRANCH  22  23
ATOM     23  C   UNL     1    -108.765  27.890  16.160  1.00  0.00     0.000 C 
BRANCH  23  24
ATOM     24  C   UNL     1    -109.479  28.273  17.463  1.00  0.00    -0.000 C 
BRANCH  24  25
ATOM     25  C   UNL     1    -110.001  27.019  18.182  1.00  0.00    -0.000 C 
BRANCH  25  26
ATOM     26  C   UNL     1    -111.536  26.973  18.263  1.00  0.00    -0.000 C 
BRANCH  26  27
ATOM     27  C   UNL     1    -112.042  25.843  19.177  1.00  0.00    -0.000 C 
BRANCH  27  28
ATOM     28  C   UNL     1    -112.372  26.325  20.602  1.00  0.00    -0.000 C 
BRANCH  28  29
ATOM     29  C   UNL     1    -112.041  27.803  20.882  1.00  0.00    -0.000 C 
BRANCH  29  30
ATOM     30  C   UNL     1    -111.208  27.999  22.160  1.00  0.00    -0.000 C 
BRANCH  30  31
ATOM     31  C   UNL     1    -109.966  27.096  22.199  1.00  0.00    -0.003 C 
ATOM     32  C   UNL     1    -110.025  26.063  23.322  1.00  0.00     0.004 C 
ENDBRANCH  30  31
ENDBRANCH  29  30
ENDBRANCH  28  29
ENDBRANCH  27  28
ENDBRANCH  26  27
ENDBRANCH  25  26
ENDBRANCH  24  25
ENDBRANCH  23  24
ENDBRANCH  22  23
ENDBRANCH  21  22
ENDBRANCH  20  21
ENDBRANCH  19  20
ENDBRANCH  18  19
ENDBRANCH   1  18
TORSDOF 28
ENDMDL
MODEL 4
REMARK VINA RESULT:    -3.347      2.261      8.197
REMARK INTER + INTRA:         -12.457
REMARK INTER:                  -8.291
REMARK INTRA:                  -4.166
REMARK UNBOUND:                -3.631
REMARK SMILES CCCCCCCCCCCCCCCCCCCCCCCCCCCCCC(=O)[O-]
REMARK SMILES IDX 16 1 17 2 18 3 19 4 20 5 21 6 22 7 23 8 24 9 25 10 26 11
REMARK SMILES IDX 27 12 28 13 29 14 30 15 31 16 32 17 15 18 14 19 13 20 12 21
REMARK SMILES IDX 11 22 10 23 9 24 8 25 7 26 6 27 5 28 4 29 3 30 2 31 1 32
REMARK H PARENT
REMARK Flexibility Score: inf
ROOT
ATOM      1  C   UNL     1    -108.006  26.983  19.977  1.00  0.00     0.000 C 
ENDROOT
BRANCH   1   2
ATOM      2  C   UNL     1    -107.853  28.243  20.839  1.00  0.00     0.000 C 
BRANCH   2   3
ATOM      3  C   UNL     1    -106.868  28.012  21.995  1.00  0.00     0.000 C 
BRANCH   3   4
ATOM      4  C   UNL     1    -105.578  28.842  21.863  1.00  0.00     0.000 C 
BRANCH   4   5
ATOM      5  C   UNL     1    -104.267  28.029  21.881  1.00  0.00     0.000 C 
BRANCH   5   6
ATOM      6  C   UNL     1    -103.243  28.419  20.796  1.00  0.00     0.000 C 
BRANCH   6   7
ATOM      7  C   UNL     1    -103.223  27.491  19.566  1.00  0.00     0.000 C 
BRANCH   7   8
ATOM      8  C   UNL     1    -101.987  26.577  19.469  1.00  0.00     0.000 C 
BRANCH   8   9
ATOM      9  C   UNL     1    -102.166  25.255  20.237  1.00  0.00     0.000 C 
BRANCH   9  10
ATOM     10  C   UNL     1    -101.196  24.158  19.771  1.00  0.00     0.000 C 
BRANCH  10  11
ATOM     11  C   UNL     1    -100.810  24.304  18.288  1.00  0.00     0.000 C 
BRANCH  11  12
ATOM     12  C   UNL     1    -101.356  23.155  17.413  1.00  0.00     0.000 C 
BRANCH  12  13
ATOM     13  C   UNL     1    -102.465  22.326  18.088  1.00  0.00     0.006 C 
BRANCH  13  14
ATOM     14  C   UNL     1    -103.713  22.107  17.221  1.00  0.00     0.053 C 
BRANCH  14  15
ATOM     15  C   UNL     1    -104.771  23.138  17.479  1.00  0.00     0.041 C 
ATOM     16  O   UNL     1    -104.448  24.315  17.795  1.00  0.00    -0.550 OA
ATOM     17  O   UNL     1    -106.114  22.796  17.392  1.00  0.00    -0.550 OA
ENDBRANCH  14  15
ENDBRANCH  13  14
ENDBRANCH  12  13
ENDBRANCH  11  12
ENDBRANCH  10  11
ENDBRANCH   9  10
ENDBRANCH   8   9
ENDBRANCH   7   8
ENDBRANCH   6   7
ENDBRANCH   5   6
ENDBRANCH   4   5
ENDBRANCH   3   4
ENDBRANCH   2   3
ENDBRANCH   1   2
BRANCH   1  18
ATOM     18  C   UNL     1    -106.919  26.929  18.896  1.00  0.00     0.000 C 
BRANCH  18  19
ATOM     19  C   UNL     1    -107.352  26.144  17.647  1.00  0.00     0.000 C 
BRANCH  19  20
ATOM     20  C   UNL     1    -108.749  26.535  17.122  1.00  0.00     0.000 C 
BRANCH  20  21
ATOM     21  C   UNL     1    -108.711  27.804  16.251  1.00  0.00     0.000 C 
BRANCH  21  22
ATOM     22  C   UNL     1    -109.897  28.742  16.530  1.00  0.00     0.000 C 
BRANCH  22  23
ATOM     23  C   UNL     1    -110.581  28.435  17.871  1.00  0.00     0.000 C 
BRANCH  23  24
ATOM     24  C   UNL     1    -112.040  28.910  17.879  1.00  0.00    -0.000 C 
BRANCH  24  25
ATOM     25  C   UNL     1    -112.582  28.966  19.316  1.00  0.00    -0.000 C 
BRANCH  25  26
ATOM     26  C   UNL     1    -111.486  28.772  20.376  1.00  0.00    -0.000 C 
BRANCH  26  27
ATOM     27  C   UNL     1    -111.746  27.549  21.273  1.00  0.00    -0.000 C 
BRANCH  27  28
ATOM     28  C   UNL     1    -111.598  26.211  20.523  1.00  0.00    -0.000 C 
BRANCH  28  29
ATOM     29  C   UNL     1    -112.884  25.368  20.437  1.00  0.00    -0.000 C 
BRANCH  29  30
ATOM     30  C   UNL     1    -113.383  25.181  18.994  1.00  0.00    -0.000 C 
BRANCH  30  31
ATOM     31  C   UNL     1    -112.235  25.137  17.974  1.00  0.00    -0.003 C 
ATOM     32  C   UNL     1    -112.257  23.874  17.117  1.00  0.00     0.004 C 
ENDBRANCH  30  31
ENDBRANCH  29  30
ENDBRANCH  28  29
ENDBRANCH  27  28
ENDBRANCH  26  27
ENDBRANCH  25  26
ENDBRANCH  24  25
ENDBRANCH  23  24
ENDBRANCH  22  23
ENDBRANCH  21  22
ENDBRANCH  20  21
ENDBRANCH  19  20
ENDBRANCH  18  19
ENDBRANCH   1  18
TORSDOF 28
ENDMDL
MODEL 5
REMARK VINA RESULT:    -3.327      2.124      3.835
REMARK INTER + INTRA:         -12.404
REMARK INTER:                  -8.562
REMARK INTRA:                  -3.842
REMARK UNBOUND:                -3.631
REMARK SMILES CCCCCCCCCCCCCCCCCCCCCCCCCCCCCC(=O)[O-]
REMARK SMILES IDX 16 1 17 2 18 3 19 4 20 5 21 6 22 7 23 8 24 9 25 10 26 11
REMARK SMILES IDX 27 12 28 13 29 14 30 15 31 16 32 17 15 18 14 19 13 20 12 21
REMARK SMILES IDX 11 22 10 23 9 24 8 25 7 26 6 27 5 28 4 29 3 30 2 31 1 32
REMARK H PARENT
REMARK Flexibility Score: inf
ROOT
ATOM      1  C   UNL     1    -104.738  28.243  22.246  1.00  0.00     0.000 C 
ENDROOT
BRANCH   1   2
ATOM      2  C   UNL     1    -106.037  28.903  21.768  1.00  0.00     0.000 C 
BRANCH   2   3
ATOM      3  C   UNL     1    -107.116  27.854  21.460  1.00  0.00     0.000 C 
BRANCH   3   4
ATOM      4  C   UNL     1    -108.439  28.115  22.207  1.00  0.00     0.000 C 
BRANCH   4   5
ATOM      5  C   UNL     1    -109.227  26.850  22.610  1.00  0.00     0.000 C 
BRANCH   5   6
ATOM      6  C   UNL     1    -110.708  27.091  22.963  1.00  0.00     0.000 C 
BRANCH   6   7
ATOM      7  C   UNL     1    -111.334  28.334  22.300  1.00  0.00     0.000 C 
BRANCH   7   8
ATOM      8  C   UNL     1    -112.025  28.063  20.950  1.00  0.00     0.000 C 
BRANCH   8   9
ATOM      9  C   UNL     1    -112.311  26.568  20.720  1.00  0.00     0.000 C 
BRANCH   9  10
ATOM     10  C   UNL     1    -112.937  26.284  19.345  1.00  0.00     0.000 C 
BRANCH  10  11
ATOM     11  C   UNL     1    -112.875  24.792  18.968  1.00  0.00     0.000 C 
BRANCH  11  12
ATOM     12  C   UNL     1    -112.287  24.558  17.559  1.00  0.00     0.000 C 
BRANCH  12  13
ATOM     13  C   UNL     1    -111.909  25.853  16.815  1.00  0.00     0.006 C 
BRANCH  13  14
ATOM     14  C   UNL     1    -110.400  26.065  16.632  1.00  0.00     0.053 C 
BRANCH  14  15
ATOM     15  C   UNL     1    -109.840  27.045  17.619  1.00  0.00     0.041 C 
ATOM     16  O   UNL     1    -110.375  28.177  17.763  1.00  0.00    -0.550 OA
ATOM     17  O   UNL     1    -108.716  26.718  18.365  1.00  0.00    -0.550 OA
ENDBRANCH  14  15
ENDBRANCH  13  14
ENDBRANCH  12  13
ENDBRANCH  11  12
ENDBRANCH  10  11
ENDBRANCH   9  10
ENDBRANCH   8   9
ENDBRANCH   7   8
ENDBRANCH   6   7
ENDBRANCH   5   6
ENDBRANCH   4   5
ENDBRANCH   3   4
ENDBRANCH   2   3
ENDBRANCH   1   2
BRANCH   1  18
ATOM     18  C   UNL     1    -103.656  28.324  21.162  1.00  0.00     0.000 C 
BRANCH  18  19
ATOM     19  C   UNL     1    -103.762  27.196  20.123  1.00  0.00     0.000 C 
BRANCH  19  20
ATOM     20  C   UNL     1    -104.258  27.669  18.741  1.00  0.00     0.000 C 
BRANCH  20  21
ATOM     21  C   UNL     1    -105.064  26.582  18.007  1.00  0.00     0.000 C 
BRANCH  21  22
ATOM     22  C   UNL     1    -104.375  25.207  18.056  1.00  0.00     0.000 C 
BRANCH  22  23
ATOM     23  C   UNL     1    -105.236  24.101  17.427  1.00  0.00     0.000 C 
BRANCH  23  24
ATOM     24  C   UNL     1    -104.368  22.989  16.823  1.00  0.00    -0.000 C 
BRANCH  24  25
ATOM     25  C   UNL     1    -103.049  23.566  16.286  1.00  0.00    -0.000 C 
BRANCH  25  26
ATOM     26  C   UNL     1    -101.847  22.639  16.534  1.00  0.00    -0.000 C 
BRANCH  26  27
ATOM     27  C   UNL     1    -100.611  23.402  17.041  1.00  0.00    -0.000 C 
BRANCH  27  28
ATOM     28  C   UNL     1    -100.816  24.929  17.067  1.00  0.00    -0.000 C 
BRANCH  28  29
ATOM     29  C   UNL     1    -100.805  25.562  18.471  1.00  0.00    -0.000 C 
BRANCH  29  30
ATOM     30  C   UNL     1    -100.538  24.539  19.588  1.00  0.00    -0.000 C 
BRANCH  30  31
ATOM     31  C   UNL     1    -101.772  24.292  20.468  1.00  0.00    -0.003 C 
ATOM     32  C   UNL     1    -102.441  22.949  20.181  1.00  0.00     0.004 C 
ENDBRANCH  30  31
ENDBRANCH  29  30
ENDBRANCH  28  29
ENDBRANCH  27  28
ENDBRANCH  26  27
ENDBRANCH  25  26
ENDBRANCH  24  25
ENDBRANCH  23  24
ENDBRANCH  22  23
ENDBRANCH  21  22
ENDBRANCH  20  21
ENDBRANCH  19  20
ENDBRANCH  18  19
ENDBRANCH   1  18
TORSDOF 28
ENDMDL
MODEL 6
REMARK VINA RESULT:    -3.304      2.187      7.743
REMARK INTER + INTRA:         -12.344
REMARK INTER:                  -8.041
REMARK INTRA:                  -4.303
REMARK UNBOUND:                -3.631
REMARK SMILES CCCCCCCCCCCCCCCCCCCCCCCCCCCCCC(=O)[O-]
REMARK SMILES IDX 16 1 17 2 18 3 19 4 20 5 21 6 22 7 23 8 24 9 25 10 26 11
REMARK SMILES IDX 27 12 28 13 29 14 30 15 31 16 32 17 15 18 14 19 13 20 12 21
REMARK SMILES IDX 11 22 10 23 9 24 8 25 7 26 6 27 5 28 4 29 3 30 2 31 1 32
REMARK H PARENT
REMARK Flexibility Score: inf
ROOT
ATOM      1  C   UNL     1    -104.411  28.854  21.606  1.00  0.00     0.000 C 
ENDROOT
BRANCH   1   2
ATOM      2  C   UNL     1    -103.537  27.603  21.457  1.00  0.00     0.000 C 
BRANCH   2   3
ATOM      3  C   UNL     1    -102.202  27.932  20.771  1.00  0.00     0.000 C 
BRANCH   3   4
ATOM      4  C   UNL     1    -102.335  28.097  19.245  1.00  0.00     0.000 C 
BRANCH   4   5
ATOM      5  C   UNL     1    -102.400  26.779  18.444  1.00  0.00     0.000 C 
BRANCH   5   6
ATOM      6  C   UNL     1    -101.954  25.523  19.219  1.00  0.00     0.000 C 
BRANCH   6   7
ATOM      7  C   UNL     1    -100.432  25.277  19.224  1.00  0.00     0.000 C 
BRANCH   7   8
ATOM      8  C   UNL     1     -99.934  24.308  18.135  1.00  0.00     0.000 C 
BRANCH   8   9
ATOM      9  C   UNL     1    -101.044  23.903  17.148  1.00  0.00     0.000 C 
BRANCH   9  10
ATOM     10  C   UNL     1    -100.916  22.449  16.668  1.00  0.00     0.000 C 
BRANCH  10  11
ATOM     11  C   UNL     1    -102.184  21.622  16.950  1.00  0.00     0.000 C 
BRANCH  11  12
ATOM     12  C   UNL     1    -102.913  22.070  18.236  1.00  0.00     0.000 C 
BRANCH  12  13
ATOM     13  C   UNL     1    -104.402  22.408  18.027  1.00  0.00     0.006 C 
BRANCH  13  14
ATOM     14  C   UNL     1    -104.656  23.715  17.263  1.00  0.00     0.053 C 
BRANCH  14  15
ATOM     15  C   UNL     1    -106.069  23.819  16.771  1.00  0.00     0.041 C 
ATOM     16  O   UNL     1    -106.472  24.876  16.214  1.00  0.00    -0.550 OA
ATOM     17  O   UNL     1    -106.948  22.759  16.947  1.00  0.00    -0.550 OA
ENDBRANCH  14  15
ENDBRANCH  13  14
ENDBRANCH  12  13
ENDBRANCH  11  12
ENDBRANCH  10  11
ENDBRANCH   9  10
ENDBRANCH   8   9
ENDBRANCH   7   8
ENDBRANCH   6   7
ENDBRANCH   5   6
ENDBRANCH   4   5
ENDBRANCH   3   4
ENDBRANCH   2   3
ENDBRANCH   1   2
BRANCH   1  18
ATOM     18  C   UNL     1    -105.702  28.715  20.789  1.00  0.00     0.000 C 
BRANCH  18  19
ATOM     19  C   UNL     1    -105.980  27.269  20.348  1.00  0.00     0.000 C 
BRANCH  19  20
ATOM     20  C   UNL     1    -105.996  27.079  18.817  1.00  0.00     0.000 C 
BRANCH  20  21
ATOM     21  C   UNL     1    -105.776  28.402  18.063  1.00  0.00     0.000 C 
BRANCH  21  22
ATOM     22  C   UNL     1    -106.579  28.471  16.752  1.00  0.00     0.000 C 
BRANCH  22  23
ATOM     23  C   UNL     1    -108.036  28.017  16.937  1.00  0.00     0.000 C 
BRANCH  23  24
ATOM     24  C   UNL     1    -108.893  29.125  17.562  1.00  0.00    -0.000 C 
BRANCH  24  25
ATOM     25  C   UNL     1    -109.595  28.614  18.830  1.00  0.00    -0.000 C 
BRANCH  25  26
ATOM     26  C   UNL     1    -111.071  28.256  18.593  1.00  0.00    -0.000 C 
BRANCH  26  27
ATOM     27  C   UNL     1    -111.271  26.764  18.274  1.00  0.00    -0.000 C 
BRANCH  27  28
ATOM     28  C   UNL     1    -111.916  25.983  19.434  1.00  0.00    -0.000 C 
BRANCH  28  29
ATOM     29  C   UNL     1    -112.110  26.788  20.733  1.00  0.00    -0.000 C 
BRANCH  29  30
ATOM     30  C   UNL     1    -111.234  26.280  21.890  1.00  0.00    -0.000 C 
BRANCH  30  31
ATOM     31  C   UNL     1    -110.511  27.418  22.626  1.00  0.00    -0.003 C 
ATOM     32  C   UNL     1    -109.032  27.510  22.260  1.00  0.00     0.004 C 
ENDBRANCH  30  31
ENDBRANCH  29  30
ENDBRANCH  28  29
ENDBRANCH  27  28
ENDBRANCH  26  27
ENDBRANCH  25  26
ENDBRANCH  24  25
ENDBRANCH  23  24
ENDBRANCH  22  23
ENDBRANCH  21  22
ENDBRANCH  20  21
ENDBRANCH  19  20
ENDBRANCH  18  19
ENDBRANCH   1  18
TORSDOF 28
ENDMDL
MODEL 7
REMARK VINA RESULT:    -3.278      2.171      3.843
REMARK INTER + INTRA:         -12.275
REMARK INTER:                  -8.478
REMARK INTRA:                  -3.798
REMARK UNBOUND:                -3.631
REMARK SMILES CCCCCCCCCCCCCCCCCCCCCCCCCCCCCC(=O)[O-]
REMARK SMILES IDX 16 1 17 2 18 3 19 4 20 5 21 6 22 7 23 8 24 9 25 10 26 11
REMARK SMILES IDX 27 12 28 13 29 14 30 15 31 16 32 17 15 18 14 19 13 20 12 21
REMARK SMILES IDX 11 22 10 23 9 24 8 25 7 26 6 27 5 28 4 29 3 30 2 31 1 32
REMARK H PARENT
REMARK Flexibility Score: inf
ROOT
ATOM      1  C   UNL     1    -104.812  28.244  22.249  1.00  0.00     0.000 C 
ENDROOT
BRANCH   1   2
ATOM      2  C   UNL     1    -106.110  28.842  21.690  1.00  0.00     0.000 C 
BRANCH   2   3
ATOM      3  C   UNL     1    -107.156  27.750  21.418  1.00  0.00     0.000 C 
BRANCH   3   4
ATOM      4  C   UNL     1    -108.550  28.099  21.972  1.00  0.00     0.000 C 
BRANCH   4   5
ATOM      5  C   UNL     1    -109.357  26.905  22.523  1.00  0.00     0.000 C 
BRANCH   5   6
ATOM      6  C   UNL     1    -110.883  27.119  22.574  1.00  0.00     0.000 C 
BRANCH   6   7
ATOM      7  C   UNL     1    -111.442  28.036  21.469  1.00  0.00     0.000 C 
BRANCH   7   8
ATOM      8  C   UNL     1    -111.959  27.297  20.221  1.00  0.00     0.000 C 
BRANCH   8   9
ATOM      9  C   UNL     1    -112.329  25.831  20.510  1.00  0.00     0.000 C 
BRANCH   9  10
ATOM     10  C   UNL     1    -112.696  25.045  19.241  1.00  0.00     0.000 C 
BRANCH  10  11
ATOM     11  C   UNL     1    -111.892  25.506  18.011  1.00  0.00     0.000 C 
BRANCH  11  12
ATOM     12  C   UNL     1    -112.786  25.772  16.780  1.00  0.00     0.000 C 
BRANCH  12  13
ATOM     13  C   UNL     1    -114.288  25.541  17.036  1.00  0.00     0.006 C 
BRANCH  13  14
ATOM     14  C   UNL     1    -115.141  26.818  17.011  1.00  0.00     0.053 C 
BRANCH  14  15
ATOM     15  C   UNL     1    -115.390  27.360  18.386  1.00  0.00     0.041 C 
ATOM     16  O   UNL     1    -115.837  26.609  19.295  1.00  0.00    -0.550 OA
ATOM     17  O   UNL     1    -115.149  28.700  18.661  1.00  0.00    -0.550 OA
ENDBRANCH  14  15
ENDBRANCH  13  14
ENDBRANCH  12  13
ENDBRANCH  11  12
ENDBRANCH  10  11
ENDBRANCH   9  10
ENDBRANCH   8   9
ENDBRANCH   7   8
ENDBRANCH   6   7
ENDBRANCH   5   6
ENDBRANCH   4   5
ENDBRANCH   3   4
ENDBRANCH   2   3
ENDBRANCH   1   2
BRANCH   1  18
ATOM     18  C   UNL     1    -103.686  28.326  21.211  1.00  0.00     0.000 C 
BRANCH  18  19
ATOM     19  C   UNL     1    -103.752  27.205  20.162  1.00  0.00     0.000 C 
BRANCH  19  20
ATOM     20  C   UNL     1    -104.115  27.699  18.747  1.00  0.00     0.000 C 
BRANCH  20  21
ATOM     21  C   UNL     1    -104.937  26.663  17.960  1.00  0.00     0.000 C 
BRANCH  21  22
ATOM     22  C   UNL     1    -104.406  25.231  18.142  1.00  0.00     0.000 C 
BRANCH  22  23
ATOM     23  C   UNL     1    -105.275  24.190  17.418  1.00  0.00     0.000 C 
BRANCH  23  24
ATOM     24  C   UNL     1    -104.415  23.153  16.685  1.00  0.00    -0.000 C 
BRANCH  24  25
ATOM     25  C   UNL     1    -103.066  23.763  16.275  1.00  0.00    -0.000 C 
BRANCH  25  26
ATOM     26  C   UNL     1    -101.895  22.776  16.416  1.00  0.00    -0.000 C 
BRANCH  26  27
ATOM     27  C   UNL     1    -100.667  23.413  17.089  1.00  0.00    -0.000 C 
BRANCH  27  28
ATOM     28  C   UNL     1    -100.758  24.948  17.177  1.00  0.00    -0.000 C 
BRANCH  28  29
ATOM     29  C   UNL     1    -100.771  25.519  18.607  1.00  0.00    -0.000 C 
BRANCH  29  30
ATOM     30  C   UNL     1    -100.559  24.441  19.684  1.00  0.00    -0.000 C 
BRANCH  30  31
ATOM     31  C   UNL     1    -101.822  24.188  20.521  1.00  0.00    -0.003 C 
ATOM     32  C   UNL     1    -102.511  22.873  20.164  1.00  0.00     0.004 C 
ENDBRANCH  30  31
ENDBRANCH  29  30
ENDBRANCH  28  29
ENDBRANCH  27  28
ENDBRANCH  26  27
ENDBRANCH  25  26
ENDBRANCH  24  25
ENDBRANCH  23  24
ENDBRANCH  22  23
ENDBRANCH  21  22
ENDBRANCH  20  21
ENDBRANCH  19  20
ENDBRANCH  18  19
ENDBRANCH   1  18
TORSDOF 28
ENDMDL
MODEL 8
REMARK VINA RESULT:    -3.275      3.161      8.674
REMARK INTER + INTRA:         -12.268
REMARK INTER:                  -7.973
REMARK INTRA:                  -4.295
REMARK UNBOUND:                -3.631
REMARK SMILES CCCCCCCCCCCCCCCCCCCCCCCCCCCCCC(=O)[O-]
REMARK SMILES IDX 16 1 17 2 18 3 19 4 20 5 21 6 22 7 23 8 24 9 25 10 26 11
REMARK SMILES IDX 27 12 28 13 29 14 30 15 31 16 32 17 15 18 14 19 13 20 12 21
REMARK SMILES IDX 11 22 10 23 9 24 8 25 7 26 6 27 5 28 4 29 3 30 2 31 1 32
REMARK H PARENT
REMARK Flexibility Score: inf
ROOT
ATOM      1  C   UNL     1    -107.442  27.311  19.843  1.00  0.00     0.000 C 
ENDROOT
BRANCH   1   2
ATOM      2  C   UNL     1    -107.338  28.733  20.406  1.00  0.00     0.000 C 
BRANCH   2   3
ATOM      3  C   UNL     1    -106.567  28.753  21.735  1.00  0.00     0.000 C 
BRANCH   3   4
ATOM      4  C   UNL     1    -105.078  29.109  21.562  1.00  0.00     0.000 C 
BRANCH   4   5
ATOM      5  C   UNL     1    -104.084  28.004  21.979  1.00  0.00     0.000 C 
BRANCH   5   6
ATOM      6  C   UNL     1    -103.277  27.383  20.822  1.00  0.00     0.000 C 
BRANCH   6   7
ATOM      7  C   UNL     1    -104.132  26.796  19.682  1.00  0.00     0.000 C 
BRANCH   7   8
ATOM      8  C   UNL     1    -103.751  27.287  18.274  1.00  0.00     0.000 C 
BRANCH   8   9
ATOM      9  C   UNL     1    -102.532  28.227  18.283  1.00  0.00     0.000 C 
BRANCH   9  10
ATOM     10  C   UNL     1    -101.592  28.000  17.088  1.00  0.00     0.000 C 
BRANCH  10  11
ATOM     11  C   UNL     1    -100.907  26.621  17.132  1.00  0.00     0.000 C 
BRANCH  11  12
ATOM     12  C   UNL     1    -100.454  26.226  18.555  1.00  0.00     0.000 C 
BRANCH  12  13
ATOM     13  C   UNL     1    -100.438  24.706  18.807  1.00  0.00     0.006 C 
BRANCH  13  14
ATOM     14  C   UNL     1    -101.596  24.193  19.675  1.00  0.00     0.053 C 
BRANCH  14  15
ATOM     15  C   UNL     1    -102.590  23.397  18.883  1.00  0.00     0.041 C 
ATOM     16  O   UNL     1    -103.024  23.835  17.784  1.00  0.00    -0.550 OA
ATOM     17  O   UNL     1    -103.054  22.181  19.367  1.00  0.00    -0.550 OA
ENDBRANCH  14  15
ENDBRANCH  13  14
ENDBRANCH  12  13
ENDBRANCH  11  12
ENDBRANCH  10  11
ENDBRANCH   9  10
ENDBRANCH   8   9
ENDBRANCH   7   8
ENDBRANCH   6   7
ENDBRANCH   5   6
ENDBRANCH   4   5
ENDBRANCH   3   4
ENDBRANCH   2   3
ENDBRANCH   1   2
BRANCH   1  18
ATOM     18  C   UNL     1    -108.567  27.219  18.803  1.00  0.00     0.000 C 
BRANCH  18  19
ATOM     19  C   UNL     1    -108.078  26.724  17.433  1.00  0.00     0.000 C 
BRANCH  19  20
ATOM     20  C   UNL     1    -109.199  26.606  16.380  1.00  0.00     0.000 C 
BRANCH  20  21
ATOM     21  C   UNL     1    -110.551  26.222  17.006  1.00  0.00     0.000 C 
BRANCH  21  22
ATOM     22  C   UNL     1    -111.725  27.008  16.398  1.00  0.00     0.000 C 
BRANCH  22  23
ATOM     23  C   UNL     1    -112.361  27.979  17.406  1.00  0.00     0.000 C 
BRANCH  23  24
ATOM     24  C   UNL     1    -113.879  27.780  17.494  1.00  0.00    -0.000 C 
BRANCH  24  25
ATOM     25  C   UNL     1    -114.211  26.383  18.043  1.00  0.00    -0.000 C 
BRANCH  25  26
ATOM     26  C   UNL     1    -114.060  26.291  19.571  1.00  0.00    -0.000 C 
BRANCH  26  27
ATOM     27  C   UNL     1    -112.932  25.334  19.994  1.00  0.00    -0.000 C 
BRANCH  27  28
ATOM     28  C   UNL     1    -111.653  26.070  20.436  1.00  0.00    -0.000 C 
BRANCH  28  29
ATOM     29  C   UNL     1    -111.887  27.298  21.336  1.00  0.00    -0.000 C 
BRANCH  29  30
ATOM     30  C   UNL     1    -110.584  27.872  21.917  1.00  0.00    -0.000 C 
BRANCH  30  31
ATOM     31  C   UNL     1    -109.731  26.806  22.619  1.00  0.00    -0.003 C 
ATOM     32  C   UNL     1    -110.447  26.168  23.808  1.00  0.00     0.004 C 
ENDBRANCH  30  31
ENDBRANCH  29  30
ENDBRANCH  28  29
ENDBRANCH  27  28
ENDBRANCH  26  27
ENDBRANCH  25  26
ENDBRANCH  24  25
ENDBRANCH  23  24
ENDBRANCH  22  23
ENDBRANCH  21  22
ENDBRANCH  20  21
ENDBRANCH  19  20
ENDBRANCH  18  19
ENDBRANCH   1  18
TORSDOF 28
ENDMDL
MODEL 9
REMARK VINA RESULT:    -2.875      1.813      3.768
REMARK INTER + INTRA:         -11.212
REMARK INTER:                  -7.080
REMARK INTRA:                  -4.132
REMARK UNBOUND:                -3.631
REMARK SMILES CCCCCCCCCCCCCCCCCCCCCCCCCCCCCC(=O)[O-]
REMARK SMILES IDX 16 1 17 2 18 3 19 4 20 5 21 6 22 7 23 8 24 9 25 10 26 11
REMARK SMILES IDX 27 12 28 13 29 14 30 15 31 16 32 17 15 18 14 19 13 20 12 21
REMARK SMILES IDX 11 22 10 23 9 24 8 25 7 26 6 27 5 28 4 29 3 30 2 31 1 32
REMARK H PARENT
REMARK Flexibility Score: inf
ROOT
ATOM      1  C   UNL     1    -104.604  28.352  22.255  1.00  0.00     0.000 C 
ENDROOT
BRANCH   1   2
ATOM      2  C   UNL     1    -106.023  28.785  21.866  1.00  0.00     0.000 C 
BRANCH   2   3
ATOM      3  C   UNL     1    -106.986  27.588  21.843  1.00  0.00     0.000 C 
BRANCH   3   4
ATOM      4  C   UNL     1    -108.462  28.000  21.997  1.00  0.00     0.000 C 
BRANCH   4   5
ATOM      5  C   UNL     1    -109.319  27.061  22.872  1.00  0.00     0.000 C 
BRANCH   5   6
ATOM      6  C   UNL     1    -110.741  27.571  23.177  1.00  0.00     0.000 C 
BRANCH   6   7
ATOM      7  C   UNL     1    -111.261  28.648  22.203  1.00  0.00     0.000 C 
BRANCH   7   8
ATOM      8  C   UNL     1    -112.143  28.110  21.061  1.00  0.00     0.000 C 
BRANCH   8   9
ATOM      9  C   UNL     1    -111.843  26.639  20.722  1.00  0.00     0.000 C 
BRANCH   9  10
ATOM     10  C   UNL     1    -110.893  26.484  19.523  1.00  0.00     0.000 C 
BRANCH  10  11
ATOM     11  C   UNL     1    -110.686  27.806  18.762  1.00  0.00     0.000 C 
BRANCH  11  12
ATOM     12  C   UNL     1    -111.073  27.703  17.270  1.00  0.00     0.000 C 
BRANCH  12  13
ATOM     13  C   UNL     1    -112.346  26.875  17.009  1.00  0.00     0.006 C 
BRANCH  13  14
ATOM     14  C   UNL     1    -113.655  27.594  17.364  1.00  0.00     0.053 C 
BRANCH  14  15
ATOM     15  C   UNL     1    -114.700  26.649  17.877  1.00  0.00     0.041 C 
ATOM     16  O   UNL     1    -114.376  25.689  18.627  1.00  0.00    -0.550 OA
ATOM     17  O   UNL     1    -116.030  26.814  17.512  1.00  0.00    -0.550 OA
ENDBRANCH  14  15
ENDBRANCH  13  14
ENDBRANCH  12  13
ENDBRANCH  11  12
ENDBRANCH  10  11
ENDBRANCH   9  10
ENDBRANCH   8   9
ENDBRANCH   7   8
ENDBRANCH   6   7
ENDBRANCH   5   6
ENDBRANCH   4   5
ENDBRANCH   3   4
ENDBRANCH   2   3
ENDBRANCH   1   2
BRANCH   1  18
ATOM     18  C   UNL     1    -103.644  28.512  21.069  1.00  0.00     0.000 C 
BRANCH  18  19
ATOM     19  C   UNL     1    -103.990  27.592  19.887  1.00  0.00     0.000 C 
BRANCH  19  20
ATOM     20  C   UNL     1    -103.913  28.290  18.514  1.00  0.00     0.000 C 
BRANCH  20  21
ATOM     21  C   UNL     1    -105.280  28.831  18.056  1.00  0.00     0.000 C 
BRANCH  21  22
ATOM     22  C   UNL     1    -106.415  27.816  18.273  1.00  0.00     0.000 C 
BRANCH  22  23
ATOM     23  C   UNL     1    -107.373  27.749  17.073  1.00  0.00     0.000 C 
BRANCH  23  24
ATOM     24  C   UNL     1    -107.254  26.409  16.335  1.00  0.00    -0.000 C 
BRANCH  24  25
ATOM     25  C   UNL     1    -106.560  25.363  17.223  1.00  0.00    -0.000 C 
BRANCH  25  26
ATOM     26  C   UNL     1    -106.148  24.101  16.448  1.00  0.00    -0.000 C 
BRANCH  26  27
ATOM     27  C   UNL     1    -105.546  23.020  17.362  1.00  0.00    -0.000 C 
BRANCH  27  28
ATOM     28  C   UNL     1    -104.007  23.067  17.415  1.00  0.00    -0.000 C 
BRANCH  28  29
ATOM     29  C   UNL     1    -103.420  24.141  18.350  1.00  0.00    -0.000 C 
BRANCH  29  30
ATOM     30  C   UNL     1    -102.338  24.999  17.673  1.00  0.00    -0.000 C 
BRANCH  30  31
ATOM     31  C   UNL     1    -101.245  25.451  18.654  1.00  0.00    -0.003 C 
ATOM     32  C   UNL     1    -101.142  24.546  19.879  1.00  0.00     0.004 C 
ENDBRANCH  30  31
ENDBRANCH  29  30
ENDBRANCH  28  29
ENDBRANCH  27  28
ENDBRANCH  26  27
ENDBRANCH  25  26
ENDBRANCH  24  25
ENDBRANCH  23  24
ENDBRANCH  22  23
ENDBRANCH  21  22
ENDBRANCH  20  21
ENDBRANCH  19  20
ENDBRANCH  18  19
ENDBRANCH   1  18
TORSDOF 28
ENDMDL
