MODEL 1
REMARK VINA RESULT:    -3.161      0.000      0.000
REMARK INTER + INTRA:          -3.150
REMARK INTER:                  -4.640
REMARK INTRA:                   1.490
REMARK UNBOUND:                 1.490
REMARK SMILES C=C1C=C[C@@H](C(C)C)CCC(C)=CCC1
REMARK SMILES IDX 3 1 4 2 5 3 9 4 10 5 11 6 12 7 13 8 6 10 7 11 8 12 2 13 1 14
REMARK SMILES IDX 15 15 14 16
REMARK H PARENT
REMARK Flexibility Score: 70.00
ROOT
ATOM      1  C   UNL     1       4.448   7.047  11.282  1.00  0.00    -0.001 C 
ATOM      2  C   UNL     1       4.536   8.373  11.489  1.00  0.00    -0.023 C 
ENDROOT
BRANCH   2   3
ATOM      3  C   UNL     1       4.727   9.084  12.823  1.00  0.00     0.014 C 
BRANCH   3   4
ATOM      4  C   UNL     1       4.757   8.058  13.998  1.00  0.00     0.012 C 
BRANCH   4   5
ATOM      5  C   UNL     1       6.027   8.040  14.883  1.00  0.00     0.031 C 
BRANCH   5   6
ATOM      6  C   UNL     1       7.296   7.468  14.261  1.00  0.00    -0.077 C 
ATOM      7  C   UNL     1       8.529   8.335  14.190  1.00  0.00     0.039 C 
ATOM      8  C   UNL     1       7.420   6.185  13.846  1.00  0.00    -0.028 CG0
ATOM      9  G   UNL     1       6.325   5.153  13.849  1.00  0.00     0.000 G0
ENDBRANCH   5   6
ENDBRANCH   4   5
ENDBRANCH   3   4
BRANCH   3  10
ATOM     10  C   UNL     1       3.641  10.207  12.973  1.00  0.00    -0.010 C 
ATOM     11  C   UNL     1       3.141  10.789  11.637  1.00  0.00     0.008 C 
ATOM     12  C   UNL     1       2.451   9.780  13.839  1.00  0.00     0.008 C 
ENDBRANCH   3  10
ENDBRANCH   2   3
BRANCH   1  13
ATOM     13  C   UNL     1       4.500   5.974  12.307  1.00  0.00    -0.055 C 
ATOM     14  C   UNL     1       3.397   5.725  13.019  1.00  0.00     0.012 C 
BRANCH  13  15
ATOM     15  C   UNL     1       5.690   5.057  12.456  1.00  0.00     0.039 C 
BRANCH  15  16
ATOM     16  C   UNL     1       6.343   5.157  13.853  1.00  0.00     0.032 CG0
ATOM     17  G   UNL     1       7.438   6.189  13.875  1.00  0.00     0.000 G0
ENDBRANCH  15  16
ENDBRANCH  13  15
ENDBRANCH   1  13
TORSDOF 1
ENDMDL
MODEL 2
REMARK VINA RESULT:    -2.227      0.743      3.155
REMARK INTER + INTRA:          -1.778
REMARK INTER:                  -4.847
REMARK INTRA:                   3.069
REMARK UNBOUND:                 1.490
REMARK SMILES C=C1C=C[C@@H](C(C)C)CCC(C)=CCC1
REMARK SMILES IDX 3 1 4 2 5 3 9 4 10 5 11 6 12 7 13 8 6 10 7 11 8 12 2 13 1 14
REMARK SMILES IDX 15 15 14 16
REMARK H PARENT
REMARK Flexibility Score: 70.00
ROOT
ATOM      1  C   UNL     1       6.005   8.043  14.974  1.00  0.00    -0.001 C 
ATOM      2  C   UNL     1       4.744   8.324  14.598  1.00  0.00    -0.023 C 
ENDROOT
BRANCH   2   3
ATOM      3  C   UNL     1       4.213   8.430  13.174  1.00  0.00     0.014 C 
BRANCH   3   4
ATOM      4  C   UNL     1       5.293   7.972  12.144  1.00  0.00     0.012 C 
BRANCH   4   5
ATOM      5  C   UNL     1       5.116   6.567  11.519  1.00  0.00     0.031 C 
BRANCH   5   6
ATOM      6  C   UNL     1       4.624   5.455  12.441  1.00  0.00    -0.077 C 
ATOM      7  C   UNL     1       3.250   4.875  12.215  1.00  0.00     0.039 C 
ATOM      8  C   UNL     1       5.385   4.883  13.404  1.00  0.00    -0.028 CG0
ATOM      9  G   UNL     1       6.783   5.295  13.777  1.00  0.00     0.000 G0
ENDBRANCH   5   6
ENDBRANCH   4   5
ENDBRANCH   3   4
BRANCH   3  10
ATOM     10  C   UNL     1       3.664   9.880  12.931  1.00  0.00    -0.010 C 
ATOM     11  C   UNL     1       3.626  10.305  11.451  1.00  0.00     0.008 C 
ATOM     12  C   UNL     1       2.297  10.120  13.582  1.00  0.00     0.008 C 
ENDBRANCH   3  10
ENDBRANCH   2   3
BRANCH   1  13
ATOM     13  C   UNL     1       7.170   7.790  14.089  1.00  0.00    -0.055 C 
ATOM     14  C   UNL     1       8.263   8.541  14.252  1.00  0.00     0.012 C 
BRANCH  13  15
ATOM     15  C   UNL     1       7.221   6.619  13.138  1.00  0.00     0.039 C 
BRANCH  15  16
ATOM     16  C   UNL     1       6.802   5.291  13.810  1.00  0.00     0.032 CG0
ATOM     17  G   UNL     1       5.410   4.886  13.406  1.00  0.00     0.000 G0
ENDBRANCH  15  16
ENDBRANCH  13  15
ENDBRANCH   1  13
TORSDOF 1
ENDMDL
