MODEL 1
REMARK VINA RESULT:    -3.159      0.000      0.000
REMARK INTER + INTRA:          -8.895
REMARK INTER:                  -6.115
REMARK INTRA:                  -2.780
REMARK UNBOUND:                -2.780
REMARK SMILES CCCCCCCCCCCCCCCCCC(=O)[O-]
REMARK SMILES IDX 10 1 11 2 12 3 13 4 14 5 15 6 16 7 17 8 18 9 19 10 20 11
REMARK SMILES IDX 9 12 8 13 7 14 6 15 5 16 4 17 3 18 2 19 1 20
REMARK H PARENT
REMARK Flexibility Score: inf
ROOT
ATOM      1  C   UNL     1      -3.128   8.026  39.835  1.00  0.00     0.000 C 
ENDROOT
BRANCH   1   2
ATOM      2  C   UNL     1      -3.458   6.814  40.727  1.00  0.00     0.000 C 
BRANCH   2   3
ATOM      3  C   UNL     1      -3.507   5.465  39.987  1.00  0.00     0.000 C 
BRANCH   3   4
ATOM      4  C   UNL     1      -2.303   5.181  39.064  1.00  0.00     0.000 C 
BRANCH   4   5
ATOM      5  C   UNL     1      -2.649   4.984  37.576  1.00  0.00     0.000 C 
BRANCH   5   6
ATOM      6  C   UNL     1      -1.422   5.068  36.659  1.00  0.00     0.000 C 
BRANCH   6   7
ATOM      7  C   UNL     1      -1.812   5.567  35.263  1.00  0.00     0.006 C 
BRANCH   7   8
ATOM      8  C   UNL     1      -0.865   5.010  34.196  1.00  0.00     0.053 C 
BRANCH   8   9
ATOM      9  C   UNL     1       0.448   5.727  34.231  1.00  0.00     0.041 C 
ATOM     10  O   UNL     1       1.512   5.091  34.457  1.00  0.00    -0.550 OA
ATOM     11  O   UNL     1       0.504   7.089  33.966  1.00  0.00    -0.550 OA
ENDBRANCH   8   9
ENDBRANCH   7   8
ENDBRANCH   6   7
ENDBRANCH   5   6
ENDBRANCH   4   5
ENDBRANCH   3   4
ENDBRANCH   2   3
ENDBRANCH   1   2
BRANCH   1  12
ATOM     12  C   UNL     1      -1.740   8.639  40.119  1.00  0.00     0.000 C 
BRANCH  12  13
ATOM     13  C   UNL     1      -1.175   8.204  41.482  1.00  0.00    -0.000 C 
BRANCH  13  14
ATOM     14  C   UNL     1       0.283   7.726  41.396  1.00  0.00    -0.000 C 
BRANCH  14  15
ATOM     15  C   UNL     1       0.401   6.244  41.006  1.00  0.00    -0.000 C 
BRANCH  15  16
ATOM     16  C   UNL     1       1.319   6.069  39.789  1.00  0.00    -0.000 C 
BRANCH  16  17
ATOM     17  C   UNL     1       1.537   7.407  39.067  1.00  0.00    -0.000 C 
BRANCH  17  18
ATOM     18  C   UNL     1       0.989   7.400  37.631  1.00  0.00    -0.000 C 
BRANCH  18  19
ATOM     19  C   UNL     1       0.580   8.799  37.146  1.00  0.00    -0.003 C 
ATOM     20  C   UNL     1      -0.880   8.821  36.701  1.00  0.00     0.004 C 
ENDBRANCH  18  19
ENDBRANCH  17  18
ENDBRANCH  16  17
ENDBRANCH  15  16
ENDBRANCH  14  15
ENDBRANCH  13  14
ENDBRANCH  12  13
ENDBRANCH   1  12
TORSDOF 16
ENDMDL
MODEL 2
REMARK VINA RESULT:    -3.082      1.617      3.919
REMARK INTER + INTRA:          -8.745
REMARK INTER:                  -5.957
REMARK INTRA:                  -2.789
REMARK UNBOUND:                -2.780
REMARK SMILES CCCCCCCCCCCCCCCCCC(=O)[O-]
REMARK SMILES IDX 10 1 11 2 12 3 13 4 14 5 15 6 16 7 17 8 18 9 19 10 20 11
REMARK SMILES IDX 9 12 8 13 7 14 6 15 5 16 4 17 3 18 2 19 1 20
REMARK H PARENT
REMARK Flexibility Score: inf
ROOT
ATOM      1  C   UNL     1       0.414   7.904  41.004  1.00  0.00     0.000 C 
ENDROOT
BRANCH   1   2
ATOM      2  C   UNL     1      -0.539   8.764  40.152  1.00  0.00     0.000 C 
BRANCH   2   3
ATOM      3  C   UNL     1      -0.419   8.543  38.633  1.00  0.00     0.000 C 
BRANCH   3   4
ATOM      4  C   UNL     1       0.952   8.023  38.154  1.00  0.00     0.000 C 
BRANCH   4   5
ATOM      5  C   UNL     1       0.970   7.438  36.729  1.00  0.00     0.000 C 
BRANCH   5   6
ATOM      6  C   UNL     1       1.200   5.920  36.708  1.00  0.00     0.000 C 
BRANCH   6   7
ATOM      7  C   UNL     1       1.075   5.365  35.284  1.00  0.00     0.006 C 
BRANCH   7   8
ATOM      8  C   UNL     1      -0.137   5.965  34.565  1.00  0.00     0.053 C 
BRANCH   8   9
ATOM      9  C   UNL     1      -1.403   5.330  35.047  1.00  0.00     0.041 C 
ATOM     10  O   UNL     1      -1.519   4.075  35.055  1.00  0.00    -0.550 OA
ATOM     11  O   UNL     1      -2.435   6.119  35.536  1.00  0.00    -0.550 OA
ENDBRANCH   8   9
ENDBRANCH   7   8
ENDBRANCH   6   7
ENDBRANCH   5   6
ENDBRANCH   4   5
ENDBRANCH   3   4
ENDBRANCH   2   3
ENDBRANCH   1   2
BRANCH   1  12
ATOM     12  C   UNL     1      -0.140   7.577  42.407  1.00  0.00     0.000 C 
BRANCH  12  13
ATOM     13  C   UNL     1      -1.559   8.131  42.620  1.00  0.00    -0.000 C 
BRANCH  13  14
ATOM     14  C   UNL     1      -2.588   7.030  42.924  1.00  0.00    -0.000 C 
BRANCH  14  15
ATOM     15  C   UNL     1      -3.950   7.290  42.264  1.00  0.00    -0.000 C 
BRANCH  15  16
ATOM     16  C   UNL     1      -3.847   7.196  40.736  1.00  0.00    -0.000 C 
BRANCH  16  17
ATOM     17  C   UNL     1      -3.477   5.770  40.296  1.00  0.00    -0.000 C 
BRANCH  17  18
ATOM     18  C   UNL     1      -2.641   5.748  39.007  1.00  0.00    -0.000 C 
BRANCH  18  19
ATOM     19  C   UNL     1      -1.392   4.862  39.126  1.00  0.00    -0.003 C 
ATOM     20  C   UNL     1      -1.099   4.520  40.585  1.00  0.00     0.004 C 
ENDBRANCH  18  19
ENDBRANCH  17  18
ENDBRANCH  16  17
ENDBRANCH  15  16
ENDBRANCH  14  15
ENDBRANCH  13  14
ENDBRANCH  12  13
ENDBRANCH   1  12
TORSDOF 16
ENDMDL
MODEL 3
REMARK VINA RESULT:    -3.059      1.053      2.640
REMARK INTER + INTRA:          -8.699
REMARK INTER:                  -6.015
REMARK INTRA:                  -2.684
REMARK UNBOUND:                -2.780
REMARK SMILES CCCCCCCCCCCCCCCCCC(=O)[O-]
REMARK SMILES IDX 10 1 11 2 12 3 13 4 14 5 15 6 16 7 17 8 18 9 19 10 20 11
REMARK SMILES IDX 9 12 8 13 7 14 6 15 5 16 4 17 3 18 2 19 1 20
REMARK H PARENT
REMARK Flexibility Score: inf
ROOT
ATOM      1  C   UNL     1      -3.355   6.879  40.785  1.00  0.00     0.000 C 
ENDROOT
BRANCH   1   2
ATOM      2  C   UNL     1      -3.310   5.683  39.815  1.00  0.00     0.000 C 
BRANCH   2   3
ATOM      3  C   UNL     1      -1.951   4.962  39.747  1.00  0.00     0.000 C 
BRANCH   3   4
ATOM      4  C   UNL     1      -1.458   4.627  38.323  1.00  0.00     0.000 C 
BRANCH   4   5
ATOM      5  C   UNL     1      -2.334   5.174  37.181  1.00  0.00     0.000 C 
BRANCH   5   6
ATOM      6  C   UNL     1      -1.835   4.758  35.791  1.00  0.00     0.000 C 
BRANCH   6   7
ATOM      7  C   UNL     1      -1.336   5.973  34.999  1.00  0.00     0.006 C 
BRANCH   7   8
ATOM      8  C   UNL     1       0.143   5.821  34.634  1.00  0.00     0.053 C 
BRANCH   8   9
ATOM      9  C   UNL     1       0.338   5.960  33.157  1.00  0.00     0.041 C 
ATOM     10  O   UNL     1       1.248   6.704  32.705  1.00  0.00    -0.550 OA
ATOM     11  O   UNL     1      -0.452   5.229  32.280  1.00  0.00    -0.550 OA
ENDBRANCH   8   9
ENDBRANCH   7   8
ENDBRANCH   6   7
ENDBRANCH   5   6
ENDBRANCH   4   5
ENDBRANCH   3   4
ENDBRANCH   2   3
ENDBRANCH   1   2
BRANCH   1  12
ATOM     12  C   UNL     1      -3.538   8.239  40.078  1.00  0.00     0.000 C 
BRANCH  12  13
ATOM     13  C   UNL     1      -2.247   8.723  39.396  1.00  0.00    -0.000 C 
BRANCH  13  14
ATOM     14  C   UNL     1      -2.447   9.047  37.907  1.00  0.00    -0.000 C 
BRANCH  14  15
ATOM     15  C   UNL     1      -1.181   8.802  37.070  1.00  0.00    -0.000 C 
BRANCH  15  16
ATOM     16  C   UNL     1       0.075   8.848  37.949  1.00  0.00    -0.000 C 
BRANCH  16  17
ATOM     17  C   UNL     1       0.803   7.495  37.938  1.00  0.00    -0.000 C 
BRANCH  17  18
ATOM     18  C   UNL     1       1.632   7.259  39.211  1.00  0.00    -0.000 C 
BRANCH  18  19
ATOM     19  C   UNL     1       0.800   6.665  40.358  1.00  0.00    -0.003 C 
ATOM     20  C   UNL     1       0.503   7.716  41.423  1.00  0.00     0.004 C 
ENDBRANCH  18  19
ENDBRANCH  17  18
ENDBRANCH  16  17
ENDBRANCH  15  16
ENDBRANCH  14  15
ENDBRANCH  13  14
ENDBRANCH  12  13
ENDBRANCH   1  12
TORSDOF 16
ENDMDL
MODEL 4
REMARK VINA RESULT:    -3.032      1.809      4.012
REMARK INTER + INTRA:          -8.647
REMARK INTER:                  -6.237
REMARK INTRA:                  -2.410
REMARK UNBOUND:                -2.780
REMARK SMILES CCCCCCCCCCCCCCCCCC(=O)[O-]
REMARK SMILES IDX 10 1 11 2 12 3 13 4 14 5 15 6 16 7 17 8 18 9 19 10 20 11
REMARK SMILES IDX 9 12 8 13 7 14 6 15 5 16 4 17 3 18 2 19 1 20
REMARK H PARENT
REMARK Flexibility Score: inf
ROOT
ATOM      1  C   UNL     1      -0.212   8.312  37.949  1.00  0.00     0.000 C 
ENDROOT
BRANCH   1   2
ATOM      2  C   UNL     1       0.445   7.387  36.906  1.00  0.00     0.000 C 
BRANCH   2   3
ATOM      3  C   UNL     1       1.352   6.293  37.499  1.00  0.00     0.000 C 
BRANCH   3   4
ATOM      4  C   UNL     1       2.035   5.377  36.462  1.00  0.00     0.000 C 
BRANCH   4   5
ATOM      5  C   UNL     1       1.148   4.255  35.892  1.00  0.00     0.000 C 
BRANCH   5   6
ATOM      6  C   UNL     1       1.136   4.219  34.358  1.00  0.00     0.000 C 
BRANCH   6   7
ATOM      7  C   UNL     1       0.849   5.609  33.778  1.00  0.00     0.006 C 
BRANCH   7   8
ATOM      8  C   UNL     1       1.871   5.976  32.699  1.00  0.00     0.053 C 
BRANCH   8   9
ATOM      9  C   UNL     1       1.216   6.739  31.591  1.00  0.00     0.041 C 
ATOM     10  O   UNL     1       0.982   6.177  30.487  1.00  0.00    -0.550 OA
ATOM     11  O   UNL     1       0.818   8.054  31.792  1.00  0.00    -0.550 OA
ENDBRANCH   8   9
ENDBRANCH   7   8
ENDBRANCH   6   7
ENDBRANCH   5   6
ENDBRANCH   4   5
ENDBRANCH   3   4
ENDBRANCH   2   3
ENDBRANCH   1   2
BRANCH   1  12
ATOM     12  C   UNL     1      -1.629   8.778  37.552  1.00  0.00     0.000 C 
BRANCH  12  13
ATOM     13  C   UNL     1      -2.512   9.074  38.777  1.00  0.00    -0.000 C 
BRANCH  13  14
ATOM     14  C   UNL     1      -1.991   8.408  40.060  1.00  0.00    -0.000 C 
BRANCH  14  15
ATOM     15  C   UNL     1      -3.086   7.644  40.821  1.00  0.00    -0.000 C 
BRANCH  15  16
ATOM     16  C   UNL     1      -3.402   6.309  40.135  1.00  0.00    -0.000 C 
BRANCH  16  17
ATOM     17  C   UNL     1      -2.199   5.356  40.207  1.00  0.00    -0.000 C 
BRANCH  17  18
ATOM     18  C   UNL     1      -1.690   4.941  38.817  1.00  0.00    -0.000 C 
BRANCH  18  19
ATOM     19  C   UNL     1      -2.716   5.210  37.706  1.00  0.00    -0.003 C 
ATOM     20  C   UNL     1      -2.480   4.295  36.508  1.00  0.00     0.004 C 
ENDBRANCH  18  19
ENDBRANCH  17  18
ENDBRANCH  16  17
ENDBRANCH  15  16
ENDBRANCH  14  15
ENDBRANCH  13  14
ENDBRANCH  12  13
ENDBRANCH   1  12
TORSDOF 16
ENDMDL
MODEL 5
REMARK VINA RESULT:    -3.024      8.337     11.815
REMARK INTER + INTRA:          -8.633
REMARK INTER:                  -6.128
REMARK INTRA:                  -2.505
REMARK UNBOUND:                -2.780
REMARK SMILES CCCCCCCCCCCCCCCCCC(=O)[O-]
REMARK SMILES IDX 10 1 11 2 12 3 13 4 14 5 15 6 16 7 17 8 18 9 19 10 20 11
REMARK SMILES IDX 9 12 8 13 7 14 6 15 5 16 4 17 3 18 2 19 1 20
REMARK H PARENT
REMARK Flexibility Score: inf
ROOT
ATOM      1  C   UNL     1      -0.189   7.533  25.891  1.00  0.00     0.000 C 
ENDROOT
BRANCH   1   2
ATOM      2  C   UNL     1      -0.801   6.216  25.375  1.00  0.00     0.000 C 
BRANCH   2   3
ATOM      3  C   UNL     1      -0.408   4.966  26.183  1.00  0.00     0.000 C 
BRANCH   3   4
ATOM      4  C   UNL     1      -1.527   4.382  27.071  1.00  0.00     0.000 C 
BRANCH   4   5
ATOM      5  C   UNL     1      -1.120   4.079  28.525  1.00  0.00     0.000 C 
BRANCH   5   6
ATOM      6  C   UNL     1       0.401   4.061  28.731  1.00  0.00     0.000 C 
BRANCH   6   7
ATOM      7  C   UNL     1       0.809   4.963  29.902  1.00  0.00     0.006 C 
BRANCH   7   8
ATOM      8  C   UNL     1       0.939   6.421  29.453  1.00  0.00     0.053 C 
BRANCH   8   9
ATOM      9  C   UNL     1       1.287   7.300  30.614  1.00  0.00     0.041 C 
ATOM     10  O   UNL     1       1.710   6.793  31.687  1.00  0.00    -0.550 OA
ATOM     11  O   UNL     1       1.193   8.680  30.494  1.00  0.00    -0.550 OA
ENDBRANCH   8   9
ENDBRANCH   7   8
ENDBRANCH   6   7
ENDBRANCH   5   6
ENDBRANCH   4   5
ENDBRANCH   3   4
ENDBRANCH   2   3
ENDBRANCH   1   2
BRANCH   1  12
ATOM     12  C   UNL     1       0.581   8.319  24.808  1.00  0.00     0.000 C 
BRANCH  12  13
ATOM     13  C   UNL     1       1.803   9.059  25.380  1.00  0.00    -0.000 C 
BRANCH  13  14
ATOM     14  C   UNL     1       1.985   8.828  26.889  1.00  0.00    -0.000 C 
BRANCH  14  15
ATOM     15  C   UNL     1       3.460   8.702  27.298  1.00  0.00    -0.000 C 
BRANCH  15  16
ATOM     16  C   UNL     1       4.086   7.431  26.710  1.00  0.00    -0.000 C 
BRANCH  16  17
ATOM     17  C   UNL     1       3.116   6.243  26.811  1.00  0.00    -0.000 C 
BRANCH  17  18
ATOM     18  C   UNL     1       3.832   4.887  26.713  1.00  0.00    -0.000 C 
BRANCH  18  19
ATOM     19  C   UNL     1       3.586   4.183  25.370  1.00  0.00    -0.003 C 
ATOM     20  C   UNL     1       2.776   5.069  24.427  1.00  0.00     0.004 C 
ENDBRANCH  18  19
ENDBRANCH  17  18
ENDBRANCH  16  17
ENDBRANCH  15  16
ENDBRANCH  14  15
ENDBRANCH  13  14
ENDBRANCH  12  13
ENDBRANCH   1  12
TORSDOF 16
ENDMDL
MODEL 6
REMARK VINA RESULT:    -3.012      1.905      3.968
REMARK INTER + INTRA:          -8.610
REMARK INTER:                  -5.657
REMARK INTRA:                  -2.953
REMARK UNBOUND:                -2.780
REMARK SMILES CCCCCCCCCCCCCCCCCC(=O)[O-]
REMARK SMILES IDX 10 1 11 2 12 3 13 4 14 5 15 6 16 7 17 8 18 9 19 10 20 11
REMARK SMILES IDX 9 12 8 13 7 14 6 15 5 16 4 17 3 18 2 19 1 20
REMARK H PARENT
REMARK Flexibility Score: inf
ROOT
ATOM      1  C   UNL     1      -2.400   8.190  39.923  1.00  0.00     0.000 C 
ENDROOT
BRANCH   1   2
ATOM      2  C   UNL     1      -1.257   8.419  40.932  1.00  0.00     0.000 C 
BRANCH   2   3
ATOM      3  C   UNL     1       0.056   8.929  40.310  1.00  0.00     0.000 C 
BRANCH   3   4
ATOM      4  C   UNL     1       0.775   7.924  39.386  1.00  0.00     0.000 C 
BRANCH   4   5
ATOM      5  C   UNL     1       0.912   8.366  37.917  1.00  0.00     0.000 C 
BRANCH   5   6
ATOM      6  C   UNL     1       0.517   7.266  36.921  1.00  0.00     0.000 C 
BRANCH   6   7
ATOM      7  C   UNL     1      -0.899   7.496  36.380  1.00  0.00     0.006 C 
BRANCH   7   8
ATOM      8  C   UNL     1      -1.831   6.347  36.775  1.00  0.00     0.053 C 
BRANCH   8   9
ATOM      9  C   UNL     1      -1.799   5.265  35.743  1.00  0.00     0.041 C 
ATOM     10  O   UNL     1      -2.210   4.108  36.026  1.00  0.00    -0.550 OA
ATOM     11  O   UNL     1      -1.363   5.544  34.455  1.00  0.00    -0.550 OA
ENDBRANCH   8   9
ENDBRANCH   7   8
ENDBRANCH   6   7
ENDBRANCH   5   6
ENDBRANCH   4   5
ENDBRANCH   3   4
ENDBRANCH   2   3
ENDBRANCH   1   2
BRANCH   1  12
ATOM     12  C   UNL     1      -3.587   7.397  40.508  1.00  0.00     0.000 C 
BRANCH  12  13
ATOM     13  C   UNL     1      -3.798   7.677  42.006  1.00  0.00    -0.000 C 
BRANCH  13  14
ATOM     14  C   UNL     1      -3.591   6.429  42.880  1.00  0.00    -0.000 C 
BRANCH  14  15
ATOM     15  C   UNL     1      -3.895   5.122  42.132  1.00  0.00    -0.000 C 
BRANCH  15  16
ATOM     16  C   UNL     1      -2.702   4.160  42.200  1.00  0.00    -0.000 C 
BRANCH  16  17
ATOM     17  C   UNL     1      -1.418   4.904  42.597  1.00  0.00    -0.000 C 
BRANCH  17  18
ATOM     18  C   UNL     1      -0.425   5.033  41.430  1.00  0.00    -0.000 C 
BRANCH  18  19
ATOM     19  C   UNL     1      -1.043   4.634  40.081  1.00  0.00    -0.003 C 
ATOM     20  C   UNL     1       0.007   4.027  39.155  1.00  0.00     0.004 C 
ENDBRANCH  18  19
ENDBRANCH  17  18
ENDBRANCH  16  17
ENDBRANCH  15  16
ENDBRANCH  14  15
ENDBRANCH  13  14
ENDBRANCH  12  13
ENDBRANCH   1  12
TORSDOF 16
ENDMDL
MODEL 7
REMARK VINA RESULT:    -2.983      1.723      3.515
REMARK INTER + INTRA:          -8.553
REMARK INTER:                  -6.564
REMARK INTRA:                  -1.989
REMARK UNBOUND:                -2.780
REMARK SMILES CCCCCCCCCCCCCCCCCC(=O)[O-]
REMARK SMILES IDX 10 1 11 2 12 3 13 4 14 5 15 6 16 7 17 8 18 9 19 10 20 11
REMARK SMILES IDX 9 12 8 13 7 14 6 15 5 16 4 17 3 18 2 19 1 20
REMARK H PARENT
REMARK Flexibility Score: inf
ROOT
ATOM      1  C   UNL     1      -2.348   5.507  39.317  1.00  0.00     0.000 C 
ENDROOT
BRANCH   1   2
ATOM      2  C   UNL     1      -2.552   4.979  37.884  1.00  0.00     0.000 C 
BRANCH   2   3
ATOM      3  C   UNL     1      -1.876   5.821  36.786  1.00  0.00     0.000 C 
BRANCH   3   4
ATOM      4  C   UNL     1      -1.477   5.042  35.516  1.00  0.00     0.000 C 
BRANCH   4   5
ATOM      5  C   UNL     1      -0.663   5.844  34.483  1.00  0.00     0.000 C 
BRANCH   5   6
ATOM      6  C   UNL     1       0.815   5.435  34.438  1.00  0.00     0.000 C 
BRANCH   6   7
ATOM      7  C   UNL     1       1.272   5.183  32.996  1.00  0.00     0.006 C 
BRANCH   7   8
ATOM      8  C   UNL     1       1.668   6.492  32.308  1.00  0.00     0.053 C 
BRANCH   8   9
ATOM      9  C   UNL     1       0.761   6.774  31.152  1.00  0.00     0.041 C 
ATOM     10  O   UNL     1       0.607   7.955  30.740  1.00  0.00    -0.550 OA
ATOM     11  O   UNL     1       0.123   5.729  30.497  1.00  0.00    -0.550 OA
ENDBRANCH   8   9
ENDBRANCH   7   8
ENDBRANCH   6   7
ENDBRANCH   5   6
ENDBRANCH   4   5
ENDBRANCH   3   4
ENDBRANCH   2   3
ENDBRANCH   1   2
BRANCH   1  12
ATOM     12  C   UNL     1      -3.669   5.750  40.078  1.00  0.00     0.000 C 
BRANCH  12  13
ATOM     13  C   UNL     1      -3.793   7.196  40.587  1.00  0.00    -0.000 C 
BRANCH  13  14
ATOM     14  C   UNL     1      -2.556   8.049  40.263  1.00  0.00    -0.000 C 
BRANCH  14  15
ATOM     15  C   UNL     1      -2.766   8.963  39.046  1.00  0.00    -0.000 C 
BRANCH  15  16
ATOM     16  C   UNL     1      -1.464   9.125  38.250  1.00  0.00    -0.000 C 
BRANCH  16  17
ATOM     17  C   UNL     1      -0.240   8.861  39.140  1.00  0.00    -0.000 C 
BRANCH  17  18
ATOM     18  C   UNL     1       0.921   8.211  38.369  1.00  0.00    -0.000 C 
BRANCH  18  19
ATOM     19  C   UNL     1       1.506   6.992  39.098  1.00  0.00    -0.003 C 
ATOM     20  C   UNL     1       1.456   5.747  38.216  1.00  0.00     0.004 C 
ENDBRANCH  18  19
ENDBRANCH  17  18
ENDBRANCH  16  17
ENDBRANCH  15  16
ENDBRANCH  14  15
ENDBRANCH  13  14
ENDBRANCH  12  13
ENDBRANCH   1  12
TORSDOF 16
ENDMDL
MODEL 8
REMARK VINA RESULT:    -2.969      2.197      4.768
REMARK INTER + INTRA:          -8.525
REMARK INTER:                  -5.422
REMARK INTRA:                  -3.103
REMARK UNBOUND:                -2.780
REMARK SMILES CCCCCCCCCCCCCCCCCC(=O)[O-]
REMARK SMILES IDX 10 1 11 2 12 3 13 4 14 5 15 6 16 7 17 8 18 9 19 10 20 11
REMARK SMILES IDX 9 12 8 13 7 14 6 15 5 16 4 17 3 18 2 19 1 20
REMARK H PARENT
REMARK Flexibility Score: inf
ROOT
ATOM      1  C   UNL     1      -2.222   5.546  40.790  1.00  0.00     0.000 C 
ENDROOT
BRANCH   1   2
ATOM      2  C   UNL     1      -1.841   7.009  41.086  1.00  0.00     0.000 C 
BRANCH   2   3
ATOM      3  C   UNL     1      -2.792   8.057  40.478  1.00  0.00     0.000 C 
BRANCH   3   4
ATOM      4  C   UNL     1      -2.233   8.816  39.256  1.00  0.00     0.000 C 
BRANCH   4   5
ATOM      5  C   UNL     1      -0.700   8.788  39.112  1.00  0.00     0.000 C 
BRANCH   5   6
ATOM      6  C   UNL     1      -0.235   8.249  37.753  1.00  0.00     0.000 C 
BRANCH   6   7
ATOM      7  C   UNL     1       0.926   7.262  37.920  1.00  0.00     0.006 C 
BRANCH   7   8
ATOM      8  C   UNL     1       1.458   7.278  39.356  1.00  0.00     0.053 C 
BRANCH   8   9
ATOM      9  C   UNL     1       2.243   6.036  39.640  1.00  0.00     0.041 C 
ATOM     10  O   UNL     1       3.484   6.008  39.425  1.00  0.00    -0.550 OA
ATOM     11  O   UNL     1       1.614   4.926  40.189  1.00  0.00    -0.550 OA
ENDBRANCH   8   9
ENDBRANCH   7   8
ENDBRANCH   6   7
ENDBRANCH   5   6
ENDBRANCH   4   5
ENDBRANCH   3   4
ENDBRANCH   2   3
ENDBRANCH   1   2
BRANCH   1  12
ATOM     12  C   UNL     1      -1.644   5.016  39.460  1.00  0.00     0.000 C 
BRANCH  12  13
ATOM     13  C   UNL     1      -2.606   5.229  38.278  1.00  0.00    -0.000 C 
BRANCH  13  14
ATOM     14  C   UNL     1      -2.014   4.762  36.939  1.00  0.00    -0.000 C 
BRANCH  14  15
ATOM     15  C   UNL     1      -2.308   5.735  35.787  1.00  0.00    -0.000 C 
BRANCH  15  16
ATOM     16  C   UNL     1      -1.075   5.917  34.894  1.00  0.00    -0.000 C 
BRANCH  16  17
ATOM     17  C   UNL     1      -0.148   4.694  34.979  1.00  0.00    -0.000 C 
BRANCH  17  18
ATOM     18  C   UNL     1       1.331   5.058  34.770  1.00  0.00    -0.000 C 
BRANCH  18  19
ATOM     19  C   UNL     1       2.225   4.590  35.929  1.00  0.00    -0.003 C 
ATOM     20  C   UNL     1       1.490   3.593  36.822  1.00  0.00     0.004 C 
ENDBRANCH  18  19
ENDBRANCH  17  18
ENDBRANCH  16  17
ENDBRANCH  15  16
ENDBRANCH  14  15
ENDBRANCH  13  14
ENDBRANCH  12  13
ENDBRANCH   1  12
TORSDOF 16
ENDMDL
MODEL 9
REMARK VINA RESULT:    -2.958      2.100      4.139
REMARK INTER + INTRA:          -8.505
REMARK INTER:                  -5.540
REMARK INTRA:                  -2.964
REMARK UNBOUND:                -2.780
REMARK SMILES CCCCCCCCCCCCCCCCCC(=O)[O-]
REMARK SMILES IDX 10 1 11 2 12 3 13 4 14 5 15 6 16 7 17 8 18 9 19 10 20 11
REMARK SMILES IDX 9 12 8 13 7 14 6 15 5 16 4 17 3 18 2 19 1 20
REMARK H PARENT
REMARK Flexibility Score: inf
ROOT
ATOM      1  C   UNL     1       0.491   7.793  40.493  1.00  0.00     0.000 C 
ENDROOT
BRANCH   1   2
ATOM      2  C   UNL     1      -0.099   9.060  39.843  1.00  0.00     0.000 C 
BRANCH   2   3
ATOM      3  C   UNL     1      -0.702   8.841  38.443  1.00  0.00     0.000 C 
BRANCH   3   4
ATOM      4  C   UNL     1       0.016   7.784  37.579  1.00  0.00     0.000 C 
BRANCH   4   5
ATOM      5  C   UNL     1      -0.885   7.022  36.590  1.00  0.00     0.000 C 
BRANCH   5   6
ATOM      6  C   UNL     1      -0.169   5.851  35.905  1.00  0.00     0.000 C 
BRANCH   6   7
ATOM      7  C   UNL     1       1.349   5.943  36.101  1.00  0.00     0.006 C 
BRANCH   7   8
ATOM      8  C   UNL     1       1.951   4.565  36.388  1.00  0.00     0.053 C 
BRANCH   8   9
ATOM      9  C   UNL     1       2.737   4.589  37.661  1.00  0.00     0.041 C 
ATOM     10  O   UNL     1       3.508   3.635  37.947  1.00  0.00    -0.550 OA
ATOM     11  O   UNL     1       2.656   5.687  38.508  1.00  0.00    -0.550 OA
ENDBRANCH   8   9
ENDBRANCH   7   8
ENDBRANCH   6   7
ENDBRANCH   5   6
ENDBRANCH   4   5
ENDBRANCH   3   4
ENDBRANCH   2   3
ENDBRANCH   1   2
BRANCH   1  12
ATOM     12  C   UNL     1       0.034   7.581  41.952  1.00  0.00     0.000 C 
BRANCH  12  13
ATOM     13  C   UNL     1      -1.336   8.220  42.236  1.00  0.00    -0.000 C 
BRANCH  13  14
ATOM     14  C   UNL     1      -2.275   7.289  43.020  1.00  0.00    -0.000 C 
BRANCH  14  15
ATOM     15  C   UNL     1      -3.732   7.372  42.540  1.00  0.00    -0.000 C 
BRANCH  15  16
ATOM     16  C   UNL     1      -3.800   7.505  41.013  1.00  0.00    -0.000 C 
BRANCH  16  17
ATOM     17  C   UNL     1      -3.918   6.125  40.346  1.00  0.00    -0.000 C 
BRANCH  17  18
ATOM     18  C   UNL     1      -2.691   5.777  39.488  1.00  0.00    -0.000 C 
BRANCH  18  19
ATOM     19  C   UNL     1      -1.701   4.856  40.216  1.00  0.00    -0.003 C 
ATOM     20  C   UNL     1      -0.601   4.377  39.272  1.00  0.00     0.004 C 
ENDBRANCH  18  19
ENDBRANCH  17  18
ENDBRANCH  16  17
ENDBRANCH  15  16
ENDBRANCH  14  15
ENDBRANCH  13  14
ENDBRANCH  12  13
ENDBRANCH   1  12
TORSDOF 16
ENDMDL
