MODEL 1
REMARK VINA RESULT:    -4.964      0.000      0.000
REMARK INTER + INTRA:          -6.135
REMARK INTER:                  -5.835
REMARK INTRA:                  -0.300
REMARK UNBOUND:                -0.300
REMARK SMILES O=c1c(O)c(-c2ccc(O)cc2)oc2cc(O)cc(O)c12
REMARK SMILES IDX 5 1 3 2 2 3 1 4 21 5 19 6 18 7 16 8 15 9 14 10 13 11 6 12
REMARK SMILES IDX 7 13 8 14 9 15 12 16 11 17 10 18 4 20 20 22 17 24
REMARK H PARENT 10 19 4 21 20 23 17 25
REMARK Flexibility Score: inf
ROOT
ATOM      1  C   UNL     1     145.201 151.670 138.179  1.00  0.00     0.180 A 
ATOM      2  C   UNL     1     143.876 152.139 138.146  1.00  0.00     0.208 A 
ATOM      3  C   UNL     1     142.824 151.217 138.263  1.00  0.00     0.238 A 
ATOM      4  O   UNL     1     141.642 151.650 138.288  1.00  0.00    -0.285 OA
ATOM      5  C   UNL     1     143.108 149.837 138.395  1.00  0.00     0.111 A 
ATOM      6  C   UNL     1     142.120 148.811 138.481  1.00  0.00     0.134 A 
ATOM      7  C   UNL     1     142.514 147.492 138.741  1.00  0.00     0.093 A 
ATOM      8  C   UNL     1     143.862 147.152 138.854  1.00  0.00     0.123 A 
ATOM      9  C   UNL     1     144.839 148.138 138.712  1.00  0.00     0.094 A 
ATOM     10  C   UNL     1     144.475 149.469 138.488  1.00  0.00     0.146 A 
ATOM     11  O   UNL     1     145.436 150.378 138.369  1.00  0.00    -0.452 OA
ENDROOT
BRANCH   1  12
ATOM     12  C   UNL     1     146.362 152.578 138.035  1.00  0.00     0.021 A 
ATOM     13  C   UNL     1     146.890 152.899 136.772  1.00  0.00     0.016 A 
ATOM     14  C   UNL     1     148.003 153.740 136.664  1.00  0.00     0.047 A 
ATOM     15  C   UNL     1     148.609 154.258 137.812  1.00  0.00     0.115 A 
ATOM     16  C   UNL     1     146.989 153.086 139.186  1.00  0.00     0.016 A 
ATOM     17  C   UNL     1     148.100 153.927 139.075  1.00  0.00     0.047 A 
BRANCH  15  18
ATOM     18  O   UNL     1     149.715 155.095 137.688  1.00  0.00    -0.508 OA
ATOM     19  H   UNL     1     150.653 154.766 137.887  1.00  0.00     0.293 HD
ENDBRANCH  15  18
ENDBRANCH   1  12
BRANCH   2  20
ATOM     20  O   UNL     1     143.618 153.509 138.037  1.00  0.00    -0.502 OA
ATOM     21  H   UNL     1     143.375 154.083 138.835  1.00  0.00     0.293 HD
ENDBRANCH   2  20
BRANCH   6  22
ATOM     22  O   UNL     1     140.751 149.027 138.293  1.00  0.00    -0.507 OA
ATOM     23  H   UNL     1     140.272 149.890 138.504  1.00  0.00     0.293 HD
ENDBRANCH   6  22
BRANCH   8  24
ATOM     24  O   UNL     1     144.218 145.828 139.097  1.00  0.00    -0.508 OA
ATOM     25  H   UNL     1     143.530 145.084 139.085  1.00  0.00     0.293 HD
ENDBRANCH   8  24
TORSDOF 5
ENDMDL
MODEL 2
REMARK VINA RESULT:    -4.954      5.450      7.883
REMARK INTER + INTRA:          -6.123
REMARK INTER:                  -5.824
REMARK INTRA:                  -0.299
REMARK UNBOUND:                -0.300
REMARK SMILES O=c1c(O)c(-c2ccc(O)cc2)oc2cc(O)cc(O)c12
REMARK SMILES IDX 5 1 3 2 2 3 1 4 21 5 19 6 18 7 16 8 15 9 14 10 13 11 6 12
REMARK SMILES IDX 7 13 8 14 9 15 12 16 11 17 10 18 4 20 20 22 17 24
REMARK H PARENT 10 19 4 21 20 23 17 25
REMARK Flexibility Score: inf
ROOT
ATOM      1  C   UNL     1     143.904 145.213 138.163  1.00  0.00     0.180 A 
ATOM      2  C   UNL     1     143.435 143.889 138.127  1.00  0.00     0.208 A 
ATOM      3  C   UNL     1     144.356 142.837 138.244  1.00  0.00     0.238 A 
ATOM      4  O   UNL     1     143.924 141.654 138.266  1.00  0.00    -0.285 OA
ATOM      5  C   UNL     1     145.736 143.120 138.381  1.00  0.00     0.111 A 
ATOM      6  C   UNL     1     146.762 142.131 138.468  1.00  0.00     0.134 A 
ATOM      7  C   UNL     1     148.080 142.526 138.732  1.00  0.00     0.093 A 
ATOM      8  C   UNL     1     148.420 143.873 138.848  1.00  0.00     0.123 A 
ATOM      9  C   UNL     1     147.434 144.851 138.705  1.00  0.00     0.094 A 
ATOM     10  C   UNL     1     146.105 144.487 138.477  1.00  0.00     0.146 A 
ATOM     11  O   UNL     1     145.196 145.448 138.357  1.00  0.00    -0.452 OA
ENDROOT
BRANCH   1  12
ATOM     12  C   UNL     1     142.997 146.375 138.019  1.00  0.00     0.021 A 
ATOM     13  C   UNL     1     142.668 146.896 136.755  1.00  0.00     0.016 A 
ATOM     14  C   UNL     1     141.828 148.010 136.646  1.00  0.00     0.047 A 
ATOM     15  C   UNL     1     141.318 148.623 137.793  1.00  0.00     0.115 A 
ATOM     16  C   UNL     1     142.497 147.009 139.170  1.00  0.00     0.016 A 
ATOM     17  C   UNL     1     141.657 148.121 139.057  1.00  0.00     0.047 A 
BRANCH  15  18
ATOM     18  O   UNL     1     140.482 149.729 137.669  1.00  0.00    -0.508 OA
ATOM     19  H   UNL     1     140.531 150.506 138.319  1.00  0.00     0.293 HD
ENDBRANCH  15  18
ENDBRANCH   1  12
BRANCH   2  20
ATOM     20  O   UNL     1     142.065 143.631 138.013  1.00  0.00    -0.502 OA
ATOM     21  H   UNL     1     141.365 144.195 138.480  1.00  0.00     0.293 HD
ENDBRANCH   2  20
BRANCH   6  22
ATOM     22  O   UNL     1     146.546 140.764 138.278  1.00  0.00    -0.507 OA
ATOM     23  H   UNL     1     146.027 140.366 137.509  1.00  0.00     0.293 HD
ENDBRANCH   6  22
BRANCH   8  24
ATOM     24  O   UNL     1     149.744 144.229 139.095  1.00  0.00    -0.508 OA
ATOM     25  H   UNL     1     150.137 144.191 140.029  1.00  0.00     0.293 HD
ENDBRANCH   8  24
TORSDOF 5
ENDMDL
MODEL 3
REMARK VINA RESULT:    -4.948      5.530      7.946
REMARK INTER + INTRA:          -6.115
REMARK INTER:                  -5.818
REMARK INTRA:                  -0.297
REMARK UNBOUND:                -0.300
REMARK SMILES O=c1c(O)c(-c2ccc(O)cc2)oc2cc(O)cc(O)c12
REMARK SMILES IDX 5 1 3 2 2 3 1 4 21 5 19 6 18 7 16 8 15 9 14 10 13 11 6 12
REMARK SMILES IDX 7 13 8 14 9 15 12 16 11 17 10 18 4 20 20 22 17 24
REMARK H PARENT 10 19 4 21 20 23 17 25
REMARK Flexibility Score: inf
ROOT
ATOM      1  C   UNL     1     151.731 150.303 138.154  1.00  0.00     0.180 A 
ATOM      2  C   UNL     1     152.202 151.627 138.124  1.00  0.00     0.208 A 
ATOM      3  C   UNL     1     151.280 152.680 138.240  1.00  0.00     0.238 A 
ATOM      4  O   UNL     1     151.714 153.862 138.268  1.00  0.00    -0.285 OA
ATOM      5  C   UNL     1     149.899 152.397 138.369  1.00  0.00     0.111 A 
ATOM      6  C   UNL     1     148.874 153.386 138.454  1.00  0.00     0.134 A 
ATOM      7  C   UNL     1     147.554 152.992 138.709  1.00  0.00     0.093 A 
ATOM      8  C   UNL     1     147.213 151.644 138.819  1.00  0.00     0.123 A 
ATOM      9  C   UNL     1     148.198 150.667 138.678  1.00  0.00     0.094 A 
ATOM     10  C   UNL     1     149.530 151.030 138.458  1.00  0.00     0.146 A 
ATOM     11  O   UNL     1     150.438 150.069 138.341  1.00  0.00    -0.452 OA
ENDROOT
BRANCH   1  12
ATOM     12  C   UNL     1     152.638 149.141 138.011  1.00  0.00     0.021 A 
ATOM     13  C   UNL     1     152.997 148.642 136.746  1.00  0.00     0.016 A 
ATOM     14  C   UNL     1     153.837 147.528 136.637  1.00  0.00     0.047 A 
ATOM     15  C   UNL     1     154.315 146.892 137.786  1.00  0.00     0.115 A 
ATOM     16  C   UNL     1     153.107 148.484 139.162  1.00  0.00     0.016 A 
ATOM     17  C   UNL     1     153.946 147.371 139.049  1.00  0.00     0.047 A 
BRANCH  15  18
ATOM     18  O   UNL     1     155.151 145.785 137.662  1.00  0.00    -0.508 OA
ATOM     19  H   UNL     1     155.215 145.085 138.392  1.00  0.00     0.293 HD
ENDBRANCH  15  18
ENDBRANCH   1  12
BRANCH   2  20
ATOM     20  O   UNL     1     153.572 151.884 138.019  1.00  0.00    -0.502 OA
ATOM     21  H   UNL     1     154.131 152.187 138.807  1.00  0.00     0.293 HD
ENDBRANCH   2  20
BRANCH   6  22
ATOM     22  O   UNL     1     149.092 154.754 138.268  1.00  0.00    -0.507 OA
ATOM     23  H   UNL     1     149.879 155.265 138.638  1.00  0.00     0.293 HD
ENDBRANCH   6  22
BRANCH   8  24
ATOM     24  O   UNL     1     145.887 151.289 139.058  1.00  0.00    -0.508 OA
ATOM     25  H   UNL     1     145.636 150.354 139.358  1.00  0.00     0.293 HD
ENDBRANCH   8  24
TORSDOF 5
ENDMDL
MODEL 4
REMARK VINA RESULT:    -4.935      7.413     11.136
REMARK INTER + INTRA:          -6.101
REMARK INTER:                  -5.801
REMARK INTRA:                  -0.300
REMARK UNBOUND:                -0.300
REMARK SMILES O=c1c(O)c(-c2ccc(O)cc2)oc2cc(O)cc(O)c12
REMARK SMILES IDX 5 1 3 2 2 3 1 4 21 5 19 6 18 7 16 8 15 9 14 10 13 11 6 12
REMARK SMILES IDX 7 13 8 14 9 15 12 16 11 17 10 18 4 20 20 22 17 24
REMARK H PARENT 10 19 4 21 20 23 17 25
REMARK Flexibility Score: inf
ROOT
ATOM      1  C   UNL     1     150.300 143.880 138.147  1.00  0.00     0.180 A 
ATOM      2  C   UNL     1     151.626 143.416 138.103  1.00  0.00     0.208 A 
ATOM      3  C   UNL     1     152.675 144.339 138.237  1.00  0.00     0.238 A 
ATOM      4  O   UNL     1     153.859 143.911 138.252  1.00  0.00    -0.285 OA
ATOM      5  C   UNL     1     152.386 145.716 138.396  1.00  0.00     0.111 A 
ATOM      6  C   UNL     1     153.371 146.744 138.500  1.00  0.00     0.134 A 
ATOM      7  C   UNL     1     152.972 148.056 138.786  1.00  0.00     0.093 A 
ATOM      8  C   UNL     1     151.623 148.389 138.907  1.00  0.00     0.123 A 
ATOM      9  C   UNL     1     150.649 147.402 138.747  1.00  0.00     0.094 A 
ATOM     10  C   UNL     1     151.018 146.078 138.497  1.00  0.00     0.146 A 
ATOM     11  O   UNL     1     150.060 145.168 138.362  1.00  0.00    -0.452 OA
ENDROOT
BRANCH   1  12
ATOM     12  C   UNL     1     149.141 142.971 137.987  1.00  0.00     0.021 A 
ATOM     13  C   UNL     1     148.609 142.677 136.719  1.00  0.00     0.016 A 
ATOM     14  C   UNL     1     147.500 141.834 136.596  1.00  0.00     0.047 A 
ATOM     15  C   UNL     1     146.901 141.288 137.734  1.00  0.00     0.115 A 
ATOM     16  C   UNL     1     148.521 142.434 139.129  1.00  0.00     0.016 A 
ATOM     17  C   UNL     1     147.412 141.592 139.002  1.00  0.00     0.047 A 
BRANCH  15  18
ATOM     18  O   UNL     1     145.797 140.449 137.596  1.00  0.00    -0.508 OA
ATOM     19  H   UNL     1     145.101 140.604 136.876  1.00  0.00     0.293 HD
ENDBRANCH  15  18
ENDBRANCH   1  12
BRANCH   2  20
ATOM     20  O   UNL     1     151.888 142.050 137.967  1.00  0.00    -0.502 OA
ATOM     21  H   UNL     1     151.663 141.377 138.691  1.00  0.00     0.293 HD
ENDBRANCH   2  20
BRANCH   6  22
ATOM     22  O   UNL     1     154.740 146.536 138.307  1.00  0.00    -0.507 OA
ATOM     23  H   UNL     1     155.467 146.920 138.892  1.00  0.00     0.293 HD
ENDBRANCH   6  22
BRANCH   8  24
ATOM     24  O   UNL     1     151.263 149.707 139.176  1.00  0.00    -0.508 OA
ATOM     25  H   UNL     1     151.958 150.413 139.390  1.00  0.00     0.293 HD
ENDBRANCH   8  24
TORSDOF 5
ENDMDL
MODEL 5
REMARK VINA RESULT:    -4.858      5.095      8.447
REMARK INTER + INTRA:          -6.010
REMARK INTER:                  -5.724
REMARK INTRA:                  -0.286
REMARK UNBOUND:                -0.300
REMARK SMILES O=c1c(O)c(-c2ccc(O)cc2)oc2cc(O)cc(O)c12
REMARK SMILES IDX 5 1 3 2 2 3 1 4 21 5 19 6 18 7 16 8 15 9 14 10 13 11 6 12
REMARK SMILES IDX 7 13 8 14 9 15 12 16 11 17 10 18 4 20 20 22 17 24
REMARK H PARENT 10 19 4 21 20 23 17 25
REMARK Flexibility Score: inf
ROOT
ATOM      1  C   UNL     1     146.670 143.570 138.598  1.00  0.00     0.180 A 
ATOM      2  C   UNL     1     145.623 142.636 138.528  1.00  0.00     0.208 A 
ATOM      3  C   UNL     1     144.298 143.091 138.601  1.00  0.00     0.238 A 
ATOM      4  O   UNL     1     143.364 142.255 138.483  1.00  0.00    -0.285 OA
ATOM      5  C   UNL     1     144.035 144.473 138.760  1.00  0.00     0.111 A 
ATOM      6  C   UNL     1     142.732 145.041 138.885  1.00  0.00     0.134 A 
ATOM      7  C   UNL     1     142.585 146.434 138.907  1.00  0.00     0.093 A 
ATOM      8  C   UNL     1     143.696 147.276 138.872  1.00  0.00     0.123 A 
ATOM      9  C   UNL     1     144.978 146.729 138.810  1.00  0.00     0.094 A 
ATOM     10  C   UNL     1     145.155 145.345 138.751  1.00  0.00     0.146 A 
ATOM     11  O   UNL     1     146.391 144.865 138.681  1.00  0.00    -0.452 OA
ENDROOT
BRANCH   1  12
ATOM     12  C   UNL     1     148.094 143.164 138.554  1.00  0.00     0.021 A 
ATOM     13  C   UNL     1     148.772 142.999 137.334  1.00  0.00     0.016 A 
ATOM     14  C   UNL     1     150.110 142.590 137.318  1.00  0.00     0.047 A 
ATOM     15  C   UNL     1     150.781 142.330 138.515  1.00  0.00     0.115 A 
ATOM     16  C   UNL     1     148.769 142.880 139.754  1.00  0.00     0.016 A 
ATOM     17  C   UNL     1     150.107 142.473 139.735  1.00  0.00     0.047 A 
BRANCH  15  18
ATOM     18  O   UNL     1     152.114 141.925 138.484  1.00  0.00    -0.508 OA
ATOM     19  H   UNL     1     152.817 142.373 139.060  1.00  0.00     0.293 HD
ENDBRANCH  15  18
ENDBRANCH   1  12
BRANCH   2  20
ATOM     20  O   UNL     1     145.904 141.278 138.349  1.00  0.00    -0.502 OA
ATOM     21  H   UNL     1     146.287 140.910 137.486  1.00  0.00     0.293 HD
ENDBRANCH   2  20
BRANCH   6  22
ATOM     22  O   UNL     1     141.561 144.288 139.019  1.00  0.00    -0.507 OA
ATOM     23  H   UNL     1     141.259 143.845 139.873  1.00  0.00     0.293 HD
ENDBRANCH   6  22
BRANCH   8  24
ATOM     24  O   UNL     1     143.512 148.657 138.912  1.00  0.00    -0.508 OA
ATOM     25  H   UNL     1     143.254 149.180 138.082  1.00  0.00     0.293 HD
ENDBRANCH   8  24
TORSDOF 5
ENDMDL
MODEL 6
REMARK VINA RESULT:    -4.854      3.970      7.045
REMARK INTER + INTRA:          -6.005
REMARK INTER:                  -5.721
REMARK INTRA:                  -0.284
REMARK UNBOUND:                -0.300
REMARK SMILES O=c1c(O)c(-c2ccc(O)cc2)oc2cc(O)cc(O)c12
REMARK SMILES IDX 5 1 3 2 2 3 1 4 21 5 19 6 18 7 16 8 15 9 14 10 13 11 6 12
REMARK SMILES IDX 7 13 8 14 9 15 12 16 11 17 10 18 4 20 20 22 17 24
REMARK H PARENT 10 19 4 21 20 23 17 25
REMARK Flexibility Score: inf
ROOT
ATOM      1  C   UNL     1     148.851 152.048 138.587  1.00  0.00     0.180 A 
ATOM      2  C   UNL     1     149.894 152.984 138.482  1.00  0.00     0.208 A 
ATOM      3  C   UNL     1     151.222 152.530 138.523  1.00  0.00     0.238 A 
ATOM      4  O   UNL     1     152.151 153.367 138.373  1.00  0.00    -0.285 OA
ATOM      5  C   UNL     1     151.491 151.150 138.685  1.00  0.00     0.111 A 
ATOM      6  C   UNL     1     152.798 150.585 138.779  1.00  0.00     0.134 A 
ATOM      7  C   UNL     1     152.948 149.193 138.807  1.00  0.00     0.093 A 
ATOM      8  C   UNL     1     151.838 148.348 138.809  1.00  0.00     0.123 A 
ATOM      9  C   UNL     1     150.554 148.893 138.777  1.00  0.00     0.094 A 
ATOM     10  C   UNL     1     150.373 150.277 138.713  1.00  0.00     0.146 A 
ATOM     11  O   UNL     1     149.134 150.754 138.673  1.00  0.00    -0.452 OA
ENDROOT
BRANCH   1  12
ATOM     12  C   UNL     1     147.426 152.452 138.579  1.00  0.00     0.021 A 
ATOM     13  C   UNL     1     146.722 152.630 137.375  1.00  0.00     0.016 A 
ATOM     14  C   UNL     1     145.383 153.036 137.392  1.00  0.00     0.047 A 
ATOM     15  C   UNL     1     144.737 153.281 138.607  1.00  0.00     0.115 A 
ATOM     16  C   UNL     1     146.776 152.720 139.796  1.00  0.00     0.016 A 
ATOM     17  C   UNL     1     145.438 153.125 139.810  1.00  0.00     0.047 A 
BRANCH  15  18
ATOM     18  O   UNL     1     143.403 153.683 138.608  1.00  0.00    -0.508 OA
ATOM     19  H   UNL     1     143.110 154.547 138.167  1.00  0.00     0.293 HD
ENDBRANCH  15  18
ENDBRANCH   1  12
BRANCH   2  20
ATOM     20  O   UNL     1     149.606 154.340 138.301  1.00  0.00    -0.502 OA
ATOM     21  H   UNL     1     150.113 155.073 138.783  1.00  0.00     0.293 HD
ENDBRANCH   2  20
BRANCH   6  22
ATOM     22  O   UNL     1     153.971 151.340 138.876  1.00  0.00    -0.507 OA
ATOM     23  H   UNL     1     154.865 151.062 138.500  1.00  0.00     0.293 HD
ENDBRANCH   6  22
BRANCH   8  24
ATOM     24  O   UNL     1     152.024 146.969 138.854  1.00  0.00    -0.508 OA
ATOM     25  H   UNL     1     151.260 146.338 139.068  1.00  0.00     0.293 HD
ENDBRANCH   8  24
TORSDOF 5
ENDMDL
MODEL 7
REMARK VINA RESULT:    -4.853      1.710      6.624
REMARK INTER + INTRA:          -6.005
REMARK INTER:                  -5.718
REMARK INTRA:                  -0.287
REMARK UNBOUND:                -0.300
REMARK SMILES O=c1c(O)c(-c2ccc(O)cc2)oc2cc(O)cc(O)c12
REMARK SMILES IDX 5 1 3 2 2 3 1 4 21 5 19 6 18 7 16 8 15 9 14 10 13 11 6 12
REMARK SMILES IDX 7 13 8 14 9 15 12 16 11 17 10 18 4 20 20 22 17 24
REMARK H PARENT 10 19 4 21 20 23 17 25
REMARK Flexibility Score: inf
ROOT
ATOM      1  C   UNL     1     143.586 148.938 138.586  1.00  0.00     0.180 A 
ATOM      2  C   UNL     1     142.597 149.933 138.501  1.00  0.00     0.208 A 
ATOM      3  C   UNL     1     142.978 151.281 138.585  1.00  0.00     0.238 A 
ATOM      4  O   UNL     1     142.095 152.168 138.453  1.00  0.00    -0.285 OA
ATOM      5  C   UNL     1     144.341 151.618 138.770  1.00  0.00     0.111 A 
ATOM      6  C   UNL     1     144.834 152.950 138.909  1.00  0.00     0.134 A 
ATOM      7  C   UNL     1     146.217 153.172 138.957  1.00  0.00     0.093 A 
ATOM      8  C   UNL     1     147.119 152.109 138.936  1.00  0.00     0.123 A 
ATOM      9  C   UNL     1     146.644 150.799 138.861  1.00  0.00     0.094 A 
ATOM     10  C   UNL     1     145.272 150.547 138.776  1.00  0.00     0.146 A 
ATOM     11  O   UNL     1     144.862 149.287 138.695  1.00  0.00    -0.452 OA
ENDROOT
BRANCH   1  12
ATOM     12  C   UNL     1     143.259 147.494 138.532  1.00  0.00     0.021 A 
ATOM     13  C   UNL     1     143.158 146.811 137.307  1.00  0.00     0.016 A 
ATOM     14  C   UNL     1     142.824 145.453 137.281  1.00  0.00     0.047 A 
ATOM     15  C   UNL     1     142.573 144.766 138.471  1.00  0.00     0.115 A 
ATOM     16  C   UNL     1     142.985 146.802 139.724  1.00  0.00     0.016 A 
ATOM     17  C   UNL     1     142.651 145.445 139.694  1.00  0.00     0.047 A 
BRANCH  15  18
ATOM     18  O   UNL     1     142.242 143.413 138.429  1.00  0.00    -0.508 OA
ATOM     19  H   UNL     1     141.442 143.080 137.904  1.00  0.00     0.293 HD
ENDBRANCH  15  18
ENDBRANCH   1  12
BRANCH   2  20
ATOM     20  O   UNL     1     141.260 149.579 138.296  1.00  0.00    -0.502 OA
ATOM     21  H   UNL     1     140.974 148.629 138.092  1.00  0.00     0.293 HD
ENDBRANCH   2  20
BRANCH   6  22
ATOM     22  O   UNL     1     144.017 154.077 139.031  1.00  0.00    -0.507 OA
ATOM     23  H   UNL     1     143.900 154.612 139.879  1.00  0.00     0.293 HD
ENDBRANCH   6  22
BRANCH   8  24
ATOM     24  O   UNL     1     148.486 152.367 139.002  1.00  0.00    -0.508 OA
ATOM     25  H   UNL     1     148.940 152.598 139.879  1.00  0.00     0.293 HD
ENDBRANCH   8  24
TORSDOF 5
ENDMDL
MODEL 8
REMARK VINA RESULT:    -4.850      7.138      8.797
REMARK INTER + INTRA:          -6.001
REMARK INTER:                  -5.716
REMARK INTRA:                  -0.285
REMARK UNBOUND:                -0.300
REMARK SMILES O=c1c(O)c(-c2ccc(O)cc2)oc2cc(O)cc(O)c12
REMARK SMILES IDX 5 1 3 2 2 3 1 4 21 5 19 6 18 7 16 8 15 9 14 10 13 11 6 12
REMARK SMILES IDX 7 13 8 14 9 15 12 16 11 17 10 18 4 20 20 22 17 24
REMARK H PARENT 10 19 4 21 20 23 17 25
REMARK Flexibility Score: inf
ROOT
ATOM      1  C   UNL     1     152.074 146.706 138.560  1.00  0.00     0.180 A 
ATOM      2  C   UNL     1     152.998 145.649 138.490  1.00  0.00     0.208 A 
ATOM      3  C   UNL     1     152.527 144.328 138.554  1.00  0.00     0.238 A 
ATOM      4  O   UNL     1     153.353 143.385 138.436  1.00  0.00    -0.285 OA
ATOM      5  C   UNL     1     151.141 144.080 138.702  1.00  0.00     0.111 A 
ATOM      6  C   UNL     1     150.557 142.783 138.817  1.00  0.00     0.134 A 
ATOM      7  C   UNL     1     149.163 142.652 138.829  1.00  0.00     0.093 A 
ATOM      8  C   UNL     1     148.333 143.772 138.795  1.00  0.00     0.123 A 
ATOM      9  C   UNL     1     148.895 145.048 138.742  1.00  0.00     0.094 A 
ATOM     10  C   UNL     1     150.282 145.210 138.694  1.00  0.00     0.146 A 
ATOM     11  O   UNL     1     150.776 146.441 138.633  1.00  0.00    -0.452 OA
ENDROOT
BRANCH   1  12
ATOM     12  C   UNL     1     152.497 148.125 138.526  1.00  0.00     0.021 A 
ATOM     13  C   UNL     1     152.695 148.803 137.310  1.00  0.00     0.016 A 
ATOM     14  C   UNL     1     153.118 150.136 137.304  1.00  0.00     0.047 A 
ATOM     15  C   UNL     1     153.361 150.803 138.508  1.00  0.00     0.115 A 
ATOM     16  C   UNL     1     152.763 148.796 139.733  1.00  0.00     0.016 A 
ATOM     17  C   UNL     1     153.185 150.129 139.723  1.00  0.00     0.047 A 
BRANCH  15  18
ATOM     18  O   UNL     1     153.781 152.131 138.486  1.00  0.00    -0.508 OA
ATOM     19  H   UNL     1     153.246 152.863 138.941  1.00  0.00     0.293 HD
ENDBRANCH  15  18
ENDBRANCH   1  12
BRANCH   2  20
ATOM     20  O   UNL     1     154.360 145.915 138.322  1.00  0.00    -0.502 OA
ATOM     21  H   UNL     1     154.951 145.364 137.711  1.00  0.00     0.293 HD
ENDBRANCH   2  20
BRANCH   6  22
ATOM     22  O   UNL     1     151.296 141.603 138.950  1.00  0.00    -0.507 OA
ATOM     23  H   UNL     1     152.166 141.525 139.455  1.00  0.00     0.293 HD
ENDBRANCH   6  22
BRANCH   8  24
ATOM     24  O   UNL     1     146.951 143.604 138.824  1.00  0.00    -0.508 OA
ATOM     25  H   UNL     1     146.382 144.024 139.550  1.00  0.00     0.293 HD
ENDBRANCH   8  24
TORSDOF 5
ENDMDL
MODEL 9
REMARK VINA RESULT:    -4.769      4.859      7.439
REMARK INTER + INTRA:          -5.905
REMARK INTER:                  -5.637
REMARK INTRA:                  -0.269
REMARK UNBOUND:                -0.300
REMARK SMILES O=c1c(O)c(-c2ccc(O)cc2)oc2cc(O)cc(O)c12
REMARK SMILES IDX 5 1 3 2 2 3 1 4 21 5 19 6 18 7 16 8 15 9 14 10 13 11 6 12
REMARK SMILES IDX 7 13 8 14 9 15 12 16 11 17 10 18 4 20 20 22 17 24
REMARK H PARENT 10 19 4 21 20 23 17 25
REMARK Flexibility Score: inf
ROOT
ATOM      1  C   UNL     1     144.672 145.967 138.113  1.00  0.00     0.180 A 
ATOM      2  C   UNL     1     145.976 146.453 138.310  1.00  0.00     0.208 A 
ATOM      3  C   UNL     1     147.031 145.537 138.439  1.00  0.00     0.238 A 
ATOM      4  O   UNL     1     148.204 145.979 138.560  1.00  0.00    -0.285 OA
ATOM      5  C   UNL     1     146.770 144.147 138.384  1.00  0.00     0.111 A 
ATOM      6  C   UNL     1     147.757 143.129 138.542  1.00  0.00     0.134 A 
ATOM      7  C   UNL     1     147.405 141.789 138.339  1.00  0.00     0.093 A 
ATOM      8  C   UNL     1     146.091 141.424 138.048  1.00  0.00     0.123 A 
ATOM      9  C   UNL     1     145.105 142.407 137.950  1.00  0.00     0.094 A 
ATOM     10  C   UNL     1     145.432 143.756 138.112  1.00  0.00     0.146 A 
ATOM     11  O   UNL     1     144.467 144.661 138.001  1.00  0.00    -0.452 OA
ENDROOT
BRANCH   1  12
ATOM     12  C   UNL     1     143.504 146.871 137.995  1.00  0.00     0.021 A 
ATOM     13  C   UNL     1     143.184 147.501 136.780  1.00  0.00     0.016 A 
ATOM     14  C   UNL     1     142.090 148.369 136.699  1.00  0.00     0.047 A 
ATOM     15  C   UNL     1     141.313 148.629 137.831  1.00  0.00     0.115 A 
ATOM     16  C   UNL     1     142.730 147.152 139.134  1.00  0.00     0.016 A 
ATOM     17  C   UNL     1     141.637 148.020 139.051  1.00  0.00     0.047 A 
BRANCH  15  18
ATOM     18  O   UNL     1     140.225 149.494 137.736  1.00  0.00    -0.508 OA
ATOM     19  H   UNL     1     140.149 150.169 136.983  1.00  0.00     0.293 HD
ENDBRANCH  15  18
ENDBRANCH   1  12
BRANCH   2  20
ATOM     20  O   UNL     1     146.216 147.830 138.340  1.00  0.00    -0.502 OA
ATOM     21  H   UNL     1     146.384 148.335 139.202  1.00  0.00     0.293 HD
ENDBRANCH   2  20
BRANCH   6  22
ATOM     22  O   UNL     1     149.080 143.376 138.921  1.00  0.00    -0.507 OA
ATOM     23  H   UNL     1     149.783 143.781 138.320  1.00  0.00     0.293 HD
ENDBRANCH   6  22
BRANCH   8  24
ATOM     24  O   UNL     1     145.774 140.080 137.868  1.00  0.00    -0.508 OA
ATOM     25  H   UNL     1     146.467 139.411 137.550  1.00  0.00     0.293 HD
ENDBRANCH   8  24
TORSDOF 5
ENDMDL
