MODEL 1
REMARK VINA RESULT:    -6.037      0.000      0.000
REMARK INTER + INTRA:          -7.171
REMARK INTER:                  -6.919
REMARK INTRA:                  -0.252
REMARK UNBOUND:                -0.252
REMARK SMILES O=c1c(-c2ccc(O)cc2)coc2c(O)c(O)ccc12
REMARK SMILES IDX 3 1 11 2 12 3 13 4 20 5 2 6 1 7 19 8 18 9 16 10 14 11 4 12
REMARK SMILES IDX 5 13 6 14 7 15 10 16 9 17 8 18 15 20 17 22
REMARK H PARENT 8 19 15 21 17 23
REMARK Flexibility Score: inf
ROOT
ATOM      1  C   UNL     1     -28.627 -24.402  -2.423  1.00  0.00     0.065 A 
ATOM      2  C   UNL     1     -28.881 -23.183  -1.776  1.00  0.00     0.208 A 
ATOM      3  O   UNL     1     -28.598 -22.027  -2.363  1.00  0.00    -0.459 OA
ATOM      4  C   UNL     1     -28.063 -21.945  -3.578  1.00  0.00     0.183 A 
ATOM      5  C   UNL     1     -27.777 -23.122  -4.306  1.00  0.00     0.069 A 
ATOM      6  C   UNL     1     -28.071 -24.365  -3.716  1.00  0.00     0.200 A 
ATOM      7  O   UNL     1     -27.859 -25.436  -4.349  1.00  0.00    -0.288 OA
ATOM      8  C   UNL     1     -27.217 -23.022  -5.591  1.00  0.00     0.020 A 
ATOM      9  C   UNL     1     -26.943 -21.769  -6.141  1.00  0.00     0.051 A 
ATOM     10  C   UNL     1     -27.222 -20.601  -5.425  1.00  0.00     0.161 A 
ATOM     11  C   UNL     1     -27.784 -20.685  -4.139  1.00  0.00     0.201 A 
ENDROOT
BRANCH   1  12
ATOM     12  C   UNL     1     -28.948 -25.683  -1.743  1.00  0.00    -0.011 A 
ATOM     13  C   UNL     1     -30.264 -26.179  -1.732  1.00  0.00     0.013 A 
ATOM     14  C   UNL     1     -30.557 -27.391  -1.098  1.00  0.00     0.047 A 
ATOM     15  C   UNL     1     -29.543 -28.122  -0.473  1.00  0.00     0.115 A 
ATOM     16  C   UNL     1     -27.931 -26.427  -1.119  1.00  0.00     0.013 A 
ATOM     17  C   UNL     1     -28.228 -27.638  -0.485  1.00  0.00     0.047 A 
BRANCH  15  18
ATOM     18  O   UNL     1     -29.850 -29.327   0.154  1.00  0.00    -0.508 OA
ATOM     19  H   UNL     1     -30.485 -29.365   0.944  1.00  0.00     0.293 HD
ENDBRANCH  15  18
ENDBRANCH   1  12
BRANCH  11  20
ATOM     20  O   UNL     1     -28.061 -19.513  -3.432  1.00  0.00    -0.502 OA
ATOM     21  H   UNL     1     -28.026 -19.471  -2.420  1.00  0.00     0.293 HD
ENDBRANCH  11  20
BRANCH  10  22
ATOM     22  O   UNL     1     -26.935 -19.367  -6.007  1.00  0.00    -0.504 OA
ATOM     23  H   UNL     1     -27.590 -18.893  -6.616  1.00  0.00     0.293 HD
ENDBRANCH  10  22
TORSDOF 4
ENDMDL
MODEL 2
REMARK VINA RESULT:    -5.980      9.934     10.856
REMARK INTER + INTRA:          -7.106
REMARK INTER:                  -7.447
REMARK INTRA:                   0.341
REMARK UNBOUND:                -0.252
REMARK SMILES O=c1c(-c2ccc(O)cc2)coc2c(O)c(O)ccc12
REMARK SMILES IDX 3 1 11 2 12 3 13 4 20 5 2 6 1 7 19 8 18 9 16 10 14 11 4 12
REMARK SMILES IDX 5 13 6 14 7 15 10 16 9 17 8 18 15 20 17 22
REMARK H PARENT 8 19 15 21 17 23
REMARK Flexibility Score: inf
ROOT
ATOM      1  C   UNL     1     -31.024 -33.258  -3.675  1.00  0.00     0.065 A 
ATOM      2  C   UNL     1     -31.233 -33.413  -5.054  1.00  0.00     0.208 A 
ATOM      3  O   UNL     1     -30.266 -33.862  -5.845  1.00  0.00    -0.459 OA
ATOM      4  C   UNL     1     -29.058 -34.188  -5.395  1.00  0.00     0.183 A 
ATOM      5  C   UNL     1     -28.759 -34.069  -4.019  1.00  0.00     0.069 A 
ATOM      6  C   UNL     1     -29.763 -33.601  -3.152  1.00  0.00     0.200 A 
ATOM      7  O   UNL     1     -29.542 -33.511  -1.912  1.00  0.00    -0.288 OA
ATOM      8  C   UNL     1     -27.480 -34.422  -3.555  1.00  0.00     0.020 A 
ATOM      9  C   UNL     1     -26.513 -34.884  -4.450  1.00  0.00     0.051 A 
ATOM     10  C   UNL     1     -26.802 -35.003  -5.812  1.00  0.00     0.161 A 
ATOM     11  C   UNL     1     -28.078 -34.655  -6.291  1.00  0.00     0.201 A 
ENDROOT
BRANCH   1  12
ATOM     12  C   UNL     1     -32.119 -32.747  -2.812  1.00  0.00    -0.011 A 
ATOM     13  C   UNL     1     -32.224 -33.156  -1.471  1.00  0.00     0.013 A 
ATOM     14  C   UNL     1     -33.253 -32.664  -0.660  1.00  0.00     0.047 A 
ATOM     15  C   UNL     1     -34.184 -31.757  -1.177  1.00  0.00     0.115 A 
ATOM     16  C   UNL     1     -33.054 -31.830  -3.323  1.00  0.00     0.013 A 
ATOM     17  C   UNL     1     -34.081 -31.341  -2.511  1.00  0.00     0.047 A 
BRANCH  15  18
ATOM     18  O   UNL     1     -35.203 -31.276  -0.358  1.00  0.00    -0.508 OA
ATOM     19  H   UNL     1     -35.378 -31.675   0.558  1.00  0.00     0.293 HD
ENDBRANCH  15  18
ENDBRANCH   1  12
BRANCH  11  20
ATOM     20  O   UNL     1     -28.358 -34.778  -7.653  1.00  0.00    -0.502 OA
ATOM     21  H   UNL     1     -29.275 -34.582  -8.036  1.00  0.00     0.293 HD
ENDBRANCH  11  20
BRANCH  10  22
ATOM     22  O   UNL     1     -25.811 -35.468  -6.675  1.00  0.00    -0.504 OA
ATOM     23  H   UNL     1     -24.827 -35.427  -6.438  1.00  0.00     0.293 HD
ENDBRANCH  10  22
TORSDOF 4
ENDMDL
MODEL 3
REMARK VINA RESULT:    -5.862      1.124      2.189
REMARK INTER + INTRA:          -6.970
REMARK INTER:                  -6.686
REMARK INTRA:                  -0.284
REMARK UNBOUND:                -0.252
REMARK SMILES O=c1c(-c2ccc(O)cc2)coc2c(O)c(O)ccc12
REMARK SMILES IDX 3 1 11 2 12 3 13 4 20 5 2 6 1 7 19 8 18 9 16 10 14 11 4 12
REMARK SMILES IDX 5 13 6 14 7 15 10 16 9 17 8 18 15 20 17 22
REMARK H PARENT 8 19 15 21 17 23
REMARK Flexibility Score: inf
ROOT
ATOM      1  C   UNL     1     -28.407 -24.279  -2.643  1.00  0.00     0.065 A 
ATOM      2  C   UNL     1     -28.009 -24.350  -3.986  1.00  0.00     0.208 A 
ATOM      3  O   UNL     1     -27.790 -23.247  -4.692  1.00  0.00    -0.459 OA
ATOM      4  C   UNL     1     -27.929 -22.026  -4.186  1.00  0.00     0.183 A 
ATOM      5  C   UNL     1     -28.323 -21.859  -2.839  1.00  0.00     0.069 A 
ATOM      6  C   UNL     1     -28.557 -23.007  -2.061  1.00  0.00     0.200 A 
ATOM      7  O   UNL     1     -28.880 -22.897  -0.845  1.00  0.00    -0.288 OA
ATOM      8  C   UNL     1     -28.462 -20.562  -2.314  1.00  0.00     0.020 A 
ATOM      9  C   UNL     1     -28.217 -19.449  -3.121  1.00  0.00     0.051 A 
ATOM     10  C   UNL     1     -27.829 -19.609  -4.454  1.00  0.00     0.161 A 
ATOM     11  C   UNL     1     -27.684 -20.899  -4.993  1.00  0.00     0.201 A 
ENDROOT
BRANCH   1  12
ATOM     12  C   UNL     1     -28.652 -25.527  -1.876  1.00  0.00    -0.011 A 
ATOM     13  C   UNL     1     -29.939 -26.092  -1.819  1.00  0.00     0.013 A 
ATOM     14  C   UNL     1     -30.162 -27.272  -1.102  1.00  0.00     0.047 A 
ATOM     15  C   UNL     1     -29.105 -27.904  -0.441  1.00  0.00     0.115 A 
ATOM     16  C   UNL     1     -27.593 -26.172  -1.214  1.00  0.00     0.013 A 
ATOM     17  C   UNL     1     -27.819 -27.352  -0.499  1.00  0.00     0.047 A 
BRANCH  15  18
ATOM     18  O   UNL     1     -29.343 -29.080   0.269  1.00  0.00    -0.508 OA
ATOM     19  H   UNL     1     -28.670 -29.838   0.276  1.00  0.00     0.293 HD
ENDBRANCH  15  18
ENDBRANCH   1  12
BRANCH  11  20
ATOM     20  O   UNL     1     -27.295 -21.048  -6.326  1.00  0.00    -0.502 OA
ATOM     21  H   UNL     1     -27.909 -21.445  -7.027  1.00  0.00     0.293 HD
ENDBRANCH  11  20
BRANCH  10  22
ATOM     22  O   UNL     1     -27.593 -18.473  -5.229  1.00  0.00    -0.504 OA
ATOM     23  H   UNL     1     -28.207 -17.669  -5.207  1.00  0.00     0.293 HD
ENDBRANCH  10  22
TORSDOF 4
ENDMDL
MODEL 4
REMARK VINA RESULT:    -5.768      7.200     10.945
REMARK INTER + INTRA:          -6.863
REMARK INTER:                  -6.580
REMARK INTRA:                  -0.282
REMARK UNBOUND:                -0.252
REMARK SMILES O=c1c(-c2ccc(O)cc2)coc2c(O)c(O)ccc12
REMARK SMILES IDX 3 1 11 2 12 3 13 4 20 5 2 6 1 7 19 8 18 9 16 10 14 11 4 12
REMARK SMILES IDX 5 13 6 14 7 15 10 16 9 17 8 18 15 20 17 22
REMARK H PARENT 8 19 15 21 17 23
REMARK Flexibility Score: inf
ROOT
ATOM      1  C   UNL     1     -32.673 -31.323  -1.706  1.00  0.00     0.065 A 
ATOM      2  C   UNL     1     -33.031 -31.568  -3.040  1.00  0.00     0.208 A 
ATOM      3  O   UNL     1     -32.725 -32.717  -3.630  1.00  0.00    -0.459 OA
ATOM      4  C   UNL     1     -32.070 -33.694  -3.010  1.00  0.00     0.183 A 
ATOM      5  C   UNL     1     -31.673 -33.537  -1.663  1.00  0.00     0.069 A 
ATOM      6  C   UNL     1     -31.987 -32.334  -1.006  1.00  0.00     0.200 A 
ATOM      7  O   UNL     1     -31.676 -32.170   0.206  1.00  0.00    -0.288 OA
ATOM      8  C   UNL     1     -30.985 -34.580  -1.018  1.00  0.00     0.020 A 
ATOM      9  C   UNL     1     -30.695 -35.760  -1.706  1.00  0.00     0.051 A 
ATOM     10  C   UNL     1     -31.084 -35.920  -3.038  1.00  0.00     0.161 A 
ATOM     11  C   UNL     1     -31.774 -34.887  -3.697  1.00  0.00     0.201 A 
ENDROOT
BRANCH   1  12
ATOM     12  C   UNL     1     -33.022 -30.027  -1.071  1.00  0.00    -0.011 A 
ATOM     13  C   UNL     1     -32.154 -28.924  -1.168  1.00  0.00     0.013 A 
ATOM     14  C   UNL     1     -32.493 -27.703  -0.576  1.00  0.00     0.047 A 
ATOM     15  C   UNL     1     -33.700 -27.568   0.116  1.00  0.00     0.115 A 
ATOM     16  C   UNL     1     -34.238 -29.881  -0.380  1.00  0.00     0.013 A 
ATOM     17  C   UNL     1     -34.573 -28.659   0.211  1.00  0.00     0.047 A 
BRANCH  15  18
ATOM     18  O   UNL     1     -34.024 -26.345   0.701  1.00  0.00    -0.508 OA
ATOM     19  H   UNL     1     -34.789 -25.779   0.354  1.00  0.00     0.293 HD
ENDBRANCH  15  18
ENDBRANCH   1  12
BRANCH  11  20
ATOM     20  O   UNL     1     -32.160 -35.056  -5.028  1.00  0.00    -0.502 OA
ATOM     21  H   UNL     1     -31.491 -35.057  -5.789  1.00  0.00     0.293 HD
ENDBRANCH  11  20
BRANCH  10  22
ATOM     22  O   UNL     1     -30.777 -37.112  -3.693  1.00  0.00    -0.504 OA
ATOM     23  H   UNL     1     -31.483 -37.669  -4.158  1.00  0.00     0.293 HD
ENDBRANCH  10  22
TORSDOF 4
ENDMDL
MODEL 5
REMARK VINA RESULT:    -5.604      9.138     10.671
REMARK INTER + INTRA:          -6.675
REMARK INTER:                  -6.395
REMARK INTRA:                  -0.279
REMARK UNBOUND:                -0.252
REMARK SMILES O=c1c(-c2ccc(O)cc2)coc2c(O)c(O)ccc12
REMARK SMILES IDX 3 1 11 2 12 3 13 4 20 5 2 6 1 7 19 8 18 9 16 10 14 11 4 12
REMARK SMILES IDX 5 13 6 14 7 15 10 16 9 17 8 18 15 20 17 22
REMARK H PARENT 8 19 15 21 17 23
REMARK Flexibility Score: inf
ROOT
ATOM      1  C   UNL     1     -32.274 -32.406  -2.366  1.00  0.00     0.065 A 
ATOM      2  C   UNL     1     -32.559 -32.517  -3.735  1.00  0.00     0.208 A 
ATOM      3  O   UNL     1     -31.735 -33.157  -4.555  1.00  0.00    -0.459 OA
ATOM      4  C   UNL     1     -30.605 -33.725  -4.144  1.00  0.00     0.183 A 
ATOM      5  C   UNL     1     -30.239 -33.667  -2.780  1.00  0.00     0.069 A 
ATOM      6  C   UNL     1     -31.093 -33.001  -1.884  1.00  0.00     0.200 A 
ATOM      7  O   UNL     1     -30.814 -32.956  -0.653  1.00  0.00    -0.288 OA
ATOM      8  C   UNL     1     -29.044 -34.276  -2.359  1.00  0.00     0.020 A 
ATOM      9  C   UNL     1     -28.226 -34.930  -3.282  1.00  0.00     0.051 A 
ATOM     10  C   UNL     1     -28.583 -34.989  -4.632  1.00  0.00     0.161 A 
ATOM     11  C   UNL     1     -29.775 -34.386  -5.069  1.00  0.00     0.201 A 
ENDROOT
BRANCH   1  12
ATOM     12  C   UNL     1     -33.208 -31.678  -1.470  1.00  0.00    -0.011 A 
ATOM     13  C   UNL     1     -34.287 -32.347  -0.864  1.00  0.00     0.013 A 
ATOM     14  C   UNL     1     -35.159 -31.658  -0.014  1.00  0.00     0.047 A 
ATOM     15  C   UNL     1     -34.961 -30.298   0.245  1.00  0.00     0.115 A 
ATOM     16  C   UNL     1     -33.012 -30.312  -1.199  1.00  0.00     0.013 A 
ATOM     17  C   UNL     1     -33.885 -29.627  -0.350  1.00  0.00     0.047 A 
BRANCH  15  18
ATOM     18  O   UNL     1     -35.837 -29.626   1.094  1.00  0.00    -0.508 OA
ATOM     19  H   UNL     1     -36.082 -29.998   2.004  1.00  0.00     0.293 HD
ENDBRANCH  15  18
ENDBRANCH   1  12
BRANCH  11  20
ATOM     20  O   UNL     1     -30.124 -34.452  -6.419  1.00  0.00    -0.502 OA
ATOM     21  H   UNL     1     -30.267 -33.621  -6.982  1.00  0.00     0.293 HD
ENDBRANCH  11  20
BRANCH  10  22
ATOM     22  O   UNL     1     -27.740 -35.650  -5.525  1.00  0.00    -0.504 OA
ATOM     23  H   UNL     1     -27.587 -35.317  -6.469  1.00  0.00     0.293 HD
ENDBRANCH  10  22
TORSDOF 4
ENDMDL
MODEL 6
REMARK VINA RESULT:    -5.443      1.575      7.243
REMARK INTER + INTRA:          -6.491
REMARK INTER:                  -6.873
REMARK INTRA:                   0.382
REMARK UNBOUND:                -0.252
REMARK SMILES O=c1c(-c2ccc(O)cc2)coc2c(O)c(O)ccc12
REMARK SMILES IDX 3 1 11 2 12 3 13 4 20 5 2 6 1 7 19 8 18 9 16 10 14 11 4 12
REMARK SMILES IDX 5 13 6 14 7 15 10 16 9 17 8 18 15 20 17 22
REMARK H PARENT 8 19 15 21 17 23
REMARK Flexibility Score: inf
ROOT
ATOM      1  C   UNL     1     -28.130 -22.548  -3.248  1.00  0.00     0.065 A 
ATOM      2  C   UNL     1     -28.044 -23.820  -3.835  1.00  0.00     0.208 A 
ATOM      3  O   UNL     1     -28.172 -24.920  -3.102  1.00  0.00    -0.459 OA
ATOM      4  C   UNL     1     -28.385 -24.893  -1.791  1.00  0.00     0.183 A 
ATOM      5  C   UNL     1     -28.490 -23.656  -1.115  1.00  0.00     0.069 A 
ATOM      6  C   UNL     1     -28.365 -22.471  -1.862  1.00  0.00     0.200 A 
ATOM      7  O   UNL     1     -28.484 -21.347  -1.299  1.00  0.00    -0.288 OA
ATOM      8  C   UNL     1     -28.719 -23.642   0.272  1.00  0.00     0.020 A 
ATOM      9  C   UNL     1     -28.840 -24.842   0.975  1.00  0.00     0.051 A 
ATOM     10  C   UNL     1     -28.736 -26.068   0.312  1.00  0.00     0.161 A 
ATOM     11  C   UNL     1     -28.507 -26.099  -1.075  1.00  0.00     0.201 A 
ENDROOT
BRANCH   1  12
ATOM     12  C   UNL     1     -27.977 -21.333  -4.087  1.00  0.00    -0.011 A 
ATOM     13  C   UNL     1     -27.215 -21.369  -5.269  1.00  0.00     0.013 A 
ATOM     14  C   UNL     1     -27.083 -20.223  -6.060  1.00  0.00     0.047 A 
ATOM     15  C   UNL     1     -27.711 -19.032  -5.684  1.00  0.00     0.115 A 
ATOM     16  C   UNL     1     -28.611 -20.133  -3.719  1.00  0.00     0.013 A 
ATOM     17  C   UNL     1     -28.476 -18.990  -4.512  1.00  0.00     0.047 A 
BRANCH  15  18
ATOM     18  O   UNL     1     -27.569 -17.899  -6.482  1.00  0.00    -0.508 OA
ATOM     19  H   UNL     1     -28.364 -17.481  -6.954  1.00  0.00     0.293 HD
ENDBRANCH  15  18
ENDBRANCH   1  12
BRANCH  11  20
ATOM     20  O   UNL     1     -28.406 -27.328  -1.728  1.00  0.00    -0.502 OA
ATOM     21  H   UNL     1     -29.155 -28.011  -1.716  1.00  0.00     0.293 HD
ENDBRANCH  11  20
BRANCH  10  22
ATOM     22  O   UNL     1     -28.861 -27.246   1.048  1.00  0.00    -0.504 OA
ATOM     23  H   UNL     1     -28.902 -28.156   0.606  1.00  0.00     0.293 HD
ENDBRANCH  10  22
TORSDOF 4
ENDMDL
MODEL 7
REMARK VINA RESULT:    -5.361      2.429      7.538
REMARK INTER + INTRA:          -6.396
REMARK INTER:                  -6.112
REMARK INTRA:                  -0.284
REMARK UNBOUND:                -0.252
REMARK SMILES O=c1c(-c2ccc(O)cc2)coc2c(O)c(O)ccc12
REMARK SMILES IDX 3 1 11 2 12 3 13 4 20 5 2 6 1 7 19 8 18 9 16 10 14 11 4 12
REMARK SMILES IDX 5 13 6 14 7 15 10 16 9 17 8 18 15 20 17 22
REMARK H PARENT 8 19 15 21 17 23
REMARK Flexibility Score: inf
ROOT
ATOM      1  C   UNL     1     -29.449 -23.040  -1.503  1.00  0.00     0.065 A 
ATOM      2  C   UNL     1     -28.884 -24.179  -2.095  1.00  0.00     0.208 A 
ATOM      3  O   UNL     1     -29.303 -25.397  -1.772  1.00  0.00    -0.459 OA
ATOM      4  C   UNL     1     -30.265 -25.616  -0.882  1.00  0.00     0.183 A 
ATOM      5  C   UNL     1     -30.896 -24.527  -0.238  1.00  0.00     0.069 A 
ATOM      6  C   UNL     1     -30.480 -23.223  -0.562  1.00  0.00     0.200 A 
ATOM      7  O   UNL     1     -31.041 -22.225  -0.030  1.00  0.00    -0.288 OA
ATOM      8  C   UNL     1     -31.916 -24.773   0.698  1.00  0.00     0.020 A 
ATOM      9  C   UNL     1     -32.300 -26.083   0.989  1.00  0.00     0.051 A 
ATOM     10  C   UNL     1     -31.679 -27.163   0.356  1.00  0.00     0.161 A 
ATOM     11  C   UNL     1     -30.658 -26.934  -0.583  1.00  0.00     0.201 A 
ENDROOT
BRANCH   1  12
ATOM     12  C   UNL     1     -28.959 -21.689  -1.877  1.00  0.00    -0.011 A 
ATOM     13  C   UNL     1     -27.883 -21.101  -1.188  1.00  0.00     0.013 A 
ATOM     14  C   UNL     1     -27.420 -19.832  -1.551  1.00  0.00     0.047 A 
ATOM     15  C   UNL     1     -28.021 -19.139  -2.607  1.00  0.00     0.115 A 
ATOM     16  C   UNL     1     -29.553 -20.989  -2.942  1.00  0.00     0.013 A 
ATOM     17  C   UNL     1     -29.088 -19.721  -3.302  1.00  0.00     0.047 A 
BRANCH  15  18
ATOM     18  O   UNL     1     -27.548 -17.876  -2.957  1.00  0.00    -0.508 OA
ATOM     19  H   UNL     1     -27.460 -17.594  -3.926  1.00  0.00     0.293 HD
ENDBRANCH  15  18
ENDBRANCH   1  12
BRANCH  11  20
ATOM     20  O   UNL     1     -30.045 -28.020  -1.211  1.00  0.00    -0.502 OA
ATOM     21  H   UNL     1     -29.548 -27.927  -2.089  1.00  0.00     0.293 HD
ENDBRANCH  11  20
BRANCH  10  22
ATOM     22  O   UNL     1     -32.090 -28.458   0.673  1.00  0.00    -0.504 OA
ATOM     23  H   UNL     1     -33.051 -28.759   0.569  1.00  0.00     0.293 HD
ENDBRANCH  10  22
TORSDOF 4
ENDMDL
MODEL 8
REMARK VINA RESULT:    -5.334     10.051     11.817
REMARK INTER + INTRA:          -6.366
REMARK INTER:                  -6.153
REMARK INTRA:                  -0.213
REMARK UNBOUND:                -0.252
REMARK SMILES O=c1c(-c2ccc(O)cc2)coc2c(O)c(O)ccc12
REMARK SMILES IDX 3 1 11 2 12 3 13 4 20 5 2 6 1 7 19 8 18 9 16 10 14 11 4 12
REMARK SMILES IDX 5 13 6 14 7 15 10 16 9 17 8 18 15 20 17 22
REMARK H PARENT 8 19 15 21 17 23
REMARK Flexibility Score: inf
ROOT
ATOM      1  C   UNL     1     -27.838 -35.001  -4.368  1.00  0.00     0.065 A 
ATOM      2  C   UNL     1     -28.447 -34.647  -5.582  1.00  0.00     0.208 A 
ATOM      3  O   UNL     1     -29.617 -34.020  -5.601  1.00  0.00    -0.459 OA
ATOM      4  C   UNL     1     -30.278 -33.690  -4.496  1.00  0.00     0.183 A 
ATOM      5  C   UNL     1     -29.737 -34.003  -3.228  1.00  0.00     0.069 A 
ATOM      6  C   UNL     1     -28.497 -34.663  -3.171  1.00  0.00     0.200 A 
ATOM      7  O   UNL     1     -27.968 -34.930  -2.056  1.00  0.00    -0.288 OA
ATOM      8  C   UNL     1     -30.444 -33.645  -2.066  1.00  0.00     0.020 A 
ATOM      9  C   UNL     1     -31.672 -32.988  -2.167  1.00  0.00     0.051 A 
ATOM     10  C   UNL     1     -32.212 -32.678  -3.418  1.00  0.00     0.161 A 
ATOM     11  C   UNL     1     -31.517 -33.028  -4.589  1.00  0.00     0.201 A 
ENDROOT
BRANCH   1  12
ATOM     12  C   UNL     1     -26.533 -35.708  -4.373  1.00  0.00    -0.011 A 
ATOM     13  C   UNL     1     -25.343 -35.017  -4.666  1.00  0.00     0.013 A 
ATOM     14  C   UNL     1     -24.115 -35.687  -4.660  1.00  0.00     0.047 A 
ATOM     15  C   UNL     1     -24.060 -37.051  -4.357  1.00  0.00     0.115 A 
ATOM     16  C   UNL     1     -26.468 -37.078  -4.062  1.00  0.00     0.013 A 
ATOM     17  C   UNL     1     -25.239 -37.745  -4.057  1.00  0.00     0.047 A 
BRANCH  15  18
ATOM     18  O   UNL     1     -22.830 -37.705  -4.355  1.00  0.00    -0.508 OA
ATOM     19  H   UNL     1     -22.759 -38.700  -4.535  1.00  0.00     0.293 HD
ENDBRANCH  15  18
ENDBRANCH   1  12
BRANCH  11  20
ATOM     20  O   UNL     1     -32.063 -32.713  -5.835  1.00  0.00    -0.502 OA
ATOM     21  H   UNL     1     -31.613 -32.072  -6.476  1.00  0.00     0.293 HD
ENDBRANCH  11  20
BRANCH  10  22
ATOM     22  O   UNL     1     -33.441 -32.022  -3.480  1.00  0.00    -0.504 OA
ATOM     23  H   UNL     1     -33.791 -31.612  -4.337  1.00  0.00     0.293 HD
ENDBRANCH  10  22
TORSDOF 4
ENDMDL
MODEL 9
REMARK VINA RESULT:    -5.316      7.260     10.904
REMARK INTER + INTRA:          -6.345
REMARK INTER:                  -6.059
REMARK INTRA:                  -0.286
REMARK UNBOUND:                -0.252
REMARK SMILES O=c1c(-c2ccc(O)cc2)coc2c(O)c(O)ccc12
REMARK SMILES IDX 3 1 11 2 12 3 13 4 20 5 2 6 1 7 19 8 18 9 16 10 14 11 4 12
REMARK SMILES IDX 5 13 6 14 7 15 10 16 9 17 8 18 15 20 17 22
REMARK H PARENT 8 19 15 21 17 23
REMARK Flexibility Score: inf
ROOT
ATOM      1  C   UNL     1     -32.285 -31.608  -1.121  1.00  0.00     0.065 A 
ATOM      2  C   UNL     1     -31.647 -32.442  -0.190  1.00  0.00     0.208 A 
ATOM      3  O   UNL     1     -31.228 -33.654  -0.534  1.00  0.00    -0.459 OA
ATOM      4  C   UNL     1     -31.380 -34.150  -1.758  1.00  0.00     0.183 A 
ATOM      5  C   UNL     1     -32.008 -33.378  -2.762  1.00  0.00     0.069 A 
ATOM      6  C   UNL     1     -32.459 -32.087  -2.432  1.00  0.00     0.200 A 
ATOM      7  O   UNL     1     -32.996 -31.357  -3.311  1.00  0.00    -0.288 OA
ATOM      8  C   UNL     1     -32.159 -33.913  -4.053  1.00  0.00     0.020 A 
ATOM      9  C   UNL     1     -31.695 -35.198  -4.338  1.00  0.00     0.051 A 
ATOM     10  C   UNL     1     -31.074 -35.967  -3.349  1.00  0.00     0.161 A 
ATOM     11  C   UNL     1     -30.915 -35.445  -2.053  1.00  0.00     0.201 A 
ENDROOT
BRANCH   1  12
ATOM     12  C   UNL     1     -32.751 -30.259  -0.710  1.00  0.00    -0.011 A 
ATOM     13  C   UNL     1     -34.053 -30.071  -0.212  1.00  0.00     0.013 A 
ATOM     14  C   UNL     1     -34.482 -28.800   0.182  1.00  0.00     0.047 A 
ATOM     15  C   UNL     1     -33.618 -27.704   0.089  1.00  0.00     0.115 A 
ATOM     16  C   UNL     1     -31.885 -29.154  -0.794  1.00  0.00     0.013 A 
ATOM     17  C   UNL     1     -32.318 -27.885  -0.400  1.00  0.00     0.047 A 
BRANCH  15  18
ATOM     18  O   UNL     1     -34.061 -26.444   0.485  1.00  0.00    -0.508 OA
ATOM     19  H   UNL     1     -34.862 -26.003   0.048  1.00  0.00     0.293 HD
ENDBRANCH  15  18
ENDBRANCH   1  12
BRANCH  11  20
ATOM     20  O   UNL     1     -30.293 -36.219  -1.072  1.00  0.00    -0.502 OA
ATOM     21  H   UNL     1     -30.635 -36.263  -0.119  1.00  0.00     0.293 HD
ENDBRANCH  11  20
BRANCH  10  22
ATOM     22  O   UNL     1     -30.624 -37.246  -3.671  1.00  0.00    -0.504 OA
ATOM     23  H   UNL     1     -30.342 -37.912  -2.963  1.00  0.00     0.293 HD
ENDBRANCH  10  22
TORSDOF 4
ENDMDL
