MODEL 1
REMARK VINA RESULT:    -6.643      0.000      0.000
REMARK INTER + INTRA:          -6.643
REMARK INTER:                  -6.643
REMARK INTRA:                   0.000
REMARK UNBOUND:                 0.000
REMARK SMILES Cc1cc2cc3c(C)cc(=O)oc3c(C)c2o1
REMARK SMILES IDX 8 1 7 2 9 3 10 4 11 5 12 6 13 7 6 8 5 9 4 10 3 11 2 12 17 13
REMARK SMILES IDX 16 14 14 15 15 16 1 17
REMARK H PARENT
REMARK Flexibility Score: inf
ROOT
ATOM      1  C   UNL     1     109.640 118.503 118.401  1.00  0.00     0.045 C 
ATOM      2  C   UNL     1     110.109 119.375 119.538  1.00  0.00    -0.033 A 
ATOM      3  C   UNL     1     111.483 119.508 119.776  1.00  0.00     0.098 A 
ATOM      4  C   UNL     1     111.926 120.312 120.828  1.00  0.00     0.336 A 
ATOM      5  O   UNL     1     113.160 120.435 121.046  1.00  0.00    -0.246 OA
ATOM      6  O   UNL     1     111.057 120.949 121.602  1.00  0.00    -0.422 OA
ATOM      7  C   UNL     1     109.740 120.866 121.433  1.00  0.00     0.145 A 
ATOM      8  C   UNL     1     109.204 120.060 120.378  1.00  0.00     0.022 A 
ATOM      9  C   UNL     1     107.800 119.971 120.211  1.00  0.00     0.024 A 
ATOM     10  C   UNL     1     106.990 120.676 121.093  1.00  0.00     0.022 A 
ATOM     11  C   UNL     1     105.619 120.763 121.171  1.00  0.00     0.054 A 
ATOM     12  C   UNL     1     105.392 121.603 122.255  1.00  0.00     0.102 A 
ATOM     13  O   UNL     1     106.532 121.999 122.790  1.00  0.00    -0.461 OA
ATOM     14  C   UNL     1     107.503 121.447 122.100  1.00  0.00     0.140 A 
ATOM     15  C   UNL     1     108.879 121.580 122.302  1.00  0.00     0.036 A 
ATOM     16  C   UNL     1     109.423 122.407 123.430  1.00  0.00     0.052 C 
ATOM     17  C   UNL     1     104.051 122.026 122.750  1.00  0.00     0.087 C 
ENDROOT
TORSDOF 0
ENDMDL
MODEL 2
REMARK VINA RESULT:    -6.406      2.500      3.572
REMARK INTER + INTRA:          -6.406
REMARK INTER:                  -6.406
REMARK INTRA:                   0.000
REMARK UNBOUND:                 0.000
REMARK SMILES Cc1cc2cc3c(C)cc(=O)oc3c(C)c2o1
REMARK SMILES IDX 8 1 7 2 9 3 10 4 11 5 12 6 13 7 6 8 5 9 4 10 3 11 2 12 17 13
REMARK SMILES IDX 16 14 14 15 15 16 1 17
REMARK H PARENT
REMARK Flexibility Score: inf
ROOT
ATOM      1  C   UNL     1     111.463 120.875 121.015  1.00  0.00     0.045 C 
ATOM      2  C   UNL     1     110.158 120.405 121.605  1.00  0.00    -0.033 A 
ATOM      3  C   UNL     1     110.177 119.532 122.699  1.00  0.00     0.098 A 
ATOM      4  C   UNL     1     108.973 119.089 123.251  1.00  0.00     0.336 A 
ATOM      5  O   UNL     1     108.986 118.304 124.235  1.00  0.00    -0.246 OA
ATOM      6  O   UNL     1     107.813 119.490 122.747  1.00  0.00    -0.422 OA
ATOM      7  C   UNL     1     107.722 120.318 121.710  1.00  0.00     0.145 A 
ATOM      8  C   UNL     1     108.910 120.815 121.085  1.00  0.00     0.022 A 
ATOM      9  C   UNL     1     108.803 121.689 119.975  1.00  0.00     0.024 A 
ATOM     10  C   UNL     1     107.530 122.029 119.530  1.00  0.00     0.022 A 
ATOM     11  C   UNL     1     107.135 122.835 118.488  1.00  0.00     0.054 A 
ATOM     12  C   UNL     1     105.746 122.787 118.527  1.00  0.00     0.102 A 
ATOM     13  O   UNL     1     105.331 122.018 119.517  1.00  0.00    -0.461 OA
ATOM     14  C   UNL     1     106.396 121.554 120.129  1.00  0.00     0.140 A 
ATOM     15  C   UNL     1     106.444 120.700 121.234  1.00  0.00     0.036 A 
ATOM     16  C   UNL     1     105.188 120.166 121.859  1.00  0.00     0.052 C 
ATOM     17  C   UNL     1     104.833 123.513 117.600  1.00  0.00     0.087 C 
ENDROOT
TORSDOF 0
ENDMDL
MODEL 3
REMARK VINA RESULT:    -6.341      2.232      5.708
REMARK INTER + INTRA:          -6.341
REMARK INTER:                  -6.341
REMARK INTRA:                   0.000
REMARK UNBOUND:                 0.000
REMARK SMILES Cc1cc2cc3c(C)cc(=O)oc3c(C)c2o1
REMARK SMILES IDX 8 1 7 2 9 3 10 4 11 5 12 6 13 7 6 8 5 9 4 10 3 11 2 12 17 13
REMARK SMILES IDX 16 14 14 15 15 16 1 17
REMARK H PARENT
REMARK Flexibility Score: inf
ROOT
ATOM      1  C   UNL     1     105.608 123.628 117.977  1.00  0.00     0.045 C 
ATOM      2  C   UNL     1     105.379 122.749 119.181  1.00  0.00    -0.033 A 
ATOM      3  C   UNL     1     104.098 122.677 119.741  1.00  0.00     0.098 A 
ATOM      4  C   UNL     1     103.877 121.867 120.857  1.00  0.00     0.336 A 
ATOM      5  O   UNL     1     102.727 121.799 121.364  1.00  0.00    -0.246 OA
ATOM      6  O   UNL     1     104.871 121.167 121.389  1.00  0.00    -0.422 OA
ATOM      7  C   UNL     1     106.111 121.190 120.908  1.00  0.00     0.145 A 
ATOM      8  C   UNL     1     106.422 121.997 119.767  1.00  0.00     0.022 A 
ATOM      9  C   UNL     1     107.746 122.022 119.268  1.00  0.00     0.024 A 
ATOM     10  C   UNL     1     108.706 121.254 119.918  1.00  0.00     0.022 A 
ATOM     11  C   UNL     1     110.048 121.098 119.661  1.00  0.00     0.054 A 
ATOM     12  C   UNL     1     110.483 120.218 120.646  1.00  0.00     0.102 A 
ATOM     13  O   UNL     1     109.484 119.864 121.434  1.00  0.00    -0.461 OA
ATOM     14  C   UNL     1     108.408 120.482 121.007  1.00  0.00     0.140 A 
ATOM     15  C   UNL     1     107.115 120.411 121.533  1.00  0.00     0.036 A 
ATOM     16  C   UNL     1     106.814 119.581 122.747  1.00  0.00     0.052 C 
ATOM     17  C   UNL     1     111.879 119.716 120.796  1.00  0.00     0.087 C 
ENDROOT
TORSDOF 0
ENDMDL
MODEL 4
REMARK VINA RESULT:    -6.265      2.745      3.439
REMARK INTER + INTRA:          -6.265
REMARK INTER:                  -6.265
REMARK INTRA:                   0.000
REMARK UNBOUND:                 0.000
REMARK SMILES Cc1cc2cc3c(C)cc(=O)oc3c(C)c2o1
REMARK SMILES IDX 8 1 7 2 9 3 10 4 11 5 12 6 13 7 6 8 5 9 4 10 3 11 2 12 17 13
REMARK SMILES IDX 16 14 14 15 15 16 1 17
REMARK H PARENT
REMARK Flexibility Score: inf
ROOT
ATOM      1  C   UNL     1     107.595 119.497 122.883  1.00  0.00     0.045 C 
ATOM      2  C   UNL     1     108.426 120.242 121.870  1.00  0.00    -0.033 A 
ATOM      3  C   UNL     1     109.821 120.131 121.915  1.00  0.00     0.098 A 
ATOM      4  C   UNL     1     110.599 120.820 120.982  1.00  0.00     0.336 A 
ATOM      5  O   UNL     1     111.854 120.723 121.019  1.00  0.00    -0.246 OA
ATOM      6  O   UNL     1     110.027 121.577 120.055  1.00  0.00    -0.422 OA
ATOM      7  C   UNL     1     108.709 121.727 119.955  1.00  0.00     0.145 A 
ATOM      8  C   UNL     1     107.841 121.057 120.876  1.00  0.00     0.022 A 
ATOM      9  C   UNL     1     106.439 121.230 120.767  1.00  0.00     0.024 A 
ATOM     10  C   UNL     1     105.958 122.059 119.760  1.00  0.00     0.022 A 
ATOM     11  C   UNL     1     104.669 122.411 119.434  1.00  0.00     0.054 A 
ATOM     12  C   UNL     1     104.814 123.268 118.348  1.00  0.00     0.102 A 
ATOM     13  O   UNL     1     106.088 123.420 118.037  1.00  0.00    -0.461 OA
ATOM     14  C   UNL     1     106.788 122.698 118.880  1.00  0.00     0.140 A 
ATOM     15  C   UNL     1     108.177 122.552 118.935  1.00  0.00     0.036 A 
ATOM     16  C   UNL     1     109.074 123.285 117.979  1.00  0.00     0.052 C 
ATOM     17  C   UNL     1     103.694 123.919 117.611  1.00  0.00     0.087 C 
ENDROOT
TORSDOF 0
ENDMDL
MODEL 5
REMARK VINA RESULT:    -6.255      1.905      5.708
REMARK INTER + INTRA:          -6.255
REMARK INTER:                  -6.255
REMARK INTRA:                   0.000
REMARK UNBOUND:                 0.000
REMARK SMILES Cc1cc2cc3c(C)cc(=O)oc3c(C)c2o1
REMARK SMILES IDX 8 1 7 2 9 3 10 4 11 5 12 6 13 7 6 8 5 9 4 10 3 11 2 12 17 13
REMARK SMILES IDX 16 14 14 15 15 16 1 17
REMARK H PARENT
REMARK Flexibility Score: inf
ROOT
ATOM      1  C   UNL     1     105.133 119.540 123.658  1.00  0.00     0.045 C 
ATOM      2  C   UNL     1     105.312 120.364 122.409  1.00  0.00    -0.033 A 
ATOM      3  C   UNL     1     104.185 120.917 121.788  1.00  0.00     0.098 A 
ATOM      4  C   UNL     1     104.340 121.679 120.628  1.00  0.00     0.336 A 
ATOM      5  O   UNL     1     103.331 122.179 120.066  1.00  0.00    -0.246 OA
ATOM      6  O   UNL     1     105.546 121.884 120.112  1.00  0.00    -0.422 OA
ATOM      7  C   UNL     1     106.657 121.388 120.650  1.00  0.00     0.145 A 
ATOM      8  C   UNL     1     106.584 120.593 121.838  1.00  0.00     0.022 A 
ATOM      9  C   UNL     1     107.771 120.062 122.399  1.00  0.00     0.024 A 
ATOM     10  C   UNL     1     108.975 120.336 121.760  1.00  0.00     0.022 A 
ATOM     11  C   UNL     1     110.258 119.949 122.071  1.00  0.00     0.054 A 
ATOM     12  C   UNL     1     111.038 120.517 121.070  1.00  0.00     0.102 A 
ATOM     13  O   UNL     1     110.289 121.199 120.222  1.00  0.00    -0.461 OA
ATOM     14  C   UNL     1     109.045 121.097 120.626  1.00  0.00     0.140 A 
ATOM     15  C   UNL     1     107.906 121.655 120.039  1.00  0.00     0.036 A 
ATOM     16  C   UNL     1     107.999 122.463 118.777  1.00  0.00     0.052 C 
ATOM     17  C   UNL     1     112.520 120.400 120.963  1.00  0.00     0.087 C 
ENDROOT
TORSDOF 0
ENDMDL
MODEL 6
REMARK VINA RESULT:    -6.159      3.498      6.388
REMARK INTER + INTRA:          -6.159
REMARK INTER:                  -6.159
REMARK INTRA:                   0.000
REMARK UNBOUND:                 0.000
REMARK SMILES Cc1cc2cc3c(C)cc(=O)oc3c(C)c2o1
REMARK SMILES IDX 8 1 7 2 9 3 10 4 11 5 12 6 13 7 6 8 5 9 4 10 3 11 2 12 17 13
REMARK SMILES IDX 16 14 14 15 15 16 1 17
REMARK H PARENT
REMARK Flexibility Score: inf
ROOT
ATOM      1  C   UNL     1     103.071 121.671 120.572  1.00  0.00     0.045 C 
ATOM      2  C   UNL     1     103.908 122.583 119.711  1.00  0.00    -0.033 A 
ATOM      3  C   UNL     1     103.292 123.645 119.039  1.00  0.00     0.098 A 
ATOM      4  C   UNL     1     104.059 124.493 118.237  1.00  0.00     0.336 A 
ATOM      5  O   UNL     1     103.510 125.450 117.631  1.00  0.00    -0.246 OA
ATOM      6  O   UNL     1     105.366 124.299 118.109  1.00  0.00    -0.422 OA
ATOM      7  C   UNL     1     106.014 123.311 118.719  1.00  0.00     0.145 A 
ATOM      8  C   UNL     1     105.299 122.395 119.556  1.00  0.00     0.022 A 
ATOM      9  C   UNL     1     105.997 121.341 120.193  1.00  0.00     0.024 A 
ATOM     10  C   UNL     1     107.365 121.233 119.973  1.00  0.00     0.022 A 
ATOM     11  C   UNL     1     108.277 120.318 120.446  1.00  0.00     0.054 A 
ATOM     12  C   UNL     1     109.483 120.714 119.879  1.00  0.00     0.102 A 
ATOM     13  O   UNL     1     109.319 121.786 119.127  1.00  0.00    -0.461 OA
ATOM     14  C   UNL     1     108.048 122.109 119.173  1.00  0.00     0.140 A 
ATOM     15  C   UNL     1     107.411 123.174 118.531  1.00  0.00     0.036 A 
ATOM     16  C   UNL     1     108.172 124.108 117.634  1.00  0.00     0.052 C 
ATOM     17  C   UNL     1     110.797 120.043 120.096  1.00  0.00     0.087 C 
ENDROOT
TORSDOF 0
ENDMDL
MODEL 7
REMARK VINA RESULT:    -6.095      3.598      4.426
REMARK INTER + INTRA:          -6.095
REMARK INTER:                  -6.095
REMARK INTRA:                   0.000
REMARK UNBOUND:                 0.000
REMARK SMILES Cc1cc2cc3c(C)cc(=O)oc3c(C)c2o1
REMARK SMILES IDX 8 1 7 2 9 3 10 4 11 5 12 6 13 7 6 8 5 9 4 10 3 11 2 12 17 13
REMARK SMILES IDX 16 14 14 15 15 16 1 17
REMARK H PARENT
REMARK Flexibility Score: inf
ROOT
ATOM      1  C   UNL     1     106.138 119.507 121.448  1.00  0.00     0.045 C 
ATOM      2  C   UNL     1     107.007 120.446 120.650  1.00  0.00    -0.033 A 
ATOM      3  C   UNL     1     108.397 120.277 120.673  1.00  0.00     0.098 A 
ATOM      4  C   UNL     1     109.210 121.143 119.940  1.00  0.00     0.336 A 
ATOM      5  O   UNL     1     110.460 120.995 119.957  1.00  0.00    -0.246 OA
ATOM      6  O   UNL     1     108.675 122.123 119.222  1.00  0.00    -0.422 OA
ATOM      7  C   UNL     1     107.365 122.340 119.155  1.00  0.00     0.145 A 
ATOM      8  C   UNL     1     106.462 121.498 119.881  1.00  0.00     0.022 A 
ATOM      9  C   UNL     1     105.069 121.742 119.811  1.00  0.00     0.024 A 
ATOM     10  C   UNL     1     104.629 122.807 119.033  1.00  0.00     0.022 A 
ATOM     11  C   UNL     1     103.357 123.274 118.796  1.00  0.00     0.054 A 
ATOM     12  C   UNL     1     103.545 124.362 117.952  1.00  0.00     0.102 A 
ATOM     13  O   UNL     1     104.828 124.540 117.693  1.00  0.00    -0.461 OA
ATOM     14  C   UNL     1     105.492 123.611 118.339  1.00  0.00     0.140 A 
ATOM     15  C   UNL     1     106.874 123.406 118.363  1.00  0.00     0.036 A 
ATOM     16  C   UNL     1     107.808 124.316 117.618  1.00  0.00     0.052 C 
ATOM     17  C   UNL     1     102.458 125.213 117.389  1.00  0.00     0.087 C 
ENDROOT
TORSDOF 0
ENDMDL
MODEL 8
REMARK VINA RESULT:    -6.012      1.993      2.385
REMARK INTER + INTRA:          -6.012
REMARK INTER:                  -6.012
REMARK INTRA:                   0.000
REMARK UNBOUND:                 0.000
REMARK SMILES Cc1cc2cc3c(C)cc(=O)oc3c(C)c2o1
REMARK SMILES IDX 8 1 7 2 9 3 10 4 11 5 12 6 13 7 6 8 5 9 4 10 3 11 2 12 17 13
REMARK SMILES IDX 16 14 14 15 15 16 1 17
REMARK H PARENT
REMARK Flexibility Score: inf
ROOT
ATOM      1  C   UNL     1     108.176 122.584 118.742  1.00  0.00     0.045 C 
ATOM      2  C   UNL     1     108.748 121.641 119.770  1.00  0.00    -0.033 A 
ATOM      3  C   UNL     1     110.112 121.327 119.727  1.00  0.00     0.098 A 
ATOM      4  C   UNL     1     110.649 120.453 120.673  1.00  0.00     0.336 A 
ATOM      5  O   UNL     1     111.875 120.168 120.639  1.00  0.00    -0.246 OA
ATOM      6  O   UNL     1     109.878 119.919 121.612  1.00  0.00    -0.422 OA
ATOM      7  C   UNL     1     108.576 120.174 121.711  1.00  0.00     0.145 A 
ATOM      8  C   UNL     1     107.947 121.058 120.776  1.00  0.00     0.022 A 
ATOM      9  C   UNL     1     106.559 121.316 120.884  1.00  0.00     0.024 A 
ATOM     10  C   UNL     1     105.853 120.687 121.904  1.00  0.00     0.022 A 
ATOM     11  C   UNL     1     104.519 120.745 122.233  1.00  0.00     0.054 A 
ATOM     12  C   UNL     1     104.402 119.903 123.333  1.00  0.00     0.102 A 
ATOM     13  O   UNL     1     105.573 119.381 123.651  1.00  0.00    -0.461 OA
ATOM     14  C   UNL     1     106.455 119.844 122.797  1.00  0.00     0.140 A 
ATOM     15  C   UNL     1     107.824 119.565 122.744  1.00  0.00     0.036 A 
ATOM     16  C   UNL     1     108.461 118.613 123.715  1.00  0.00     0.052 C 
ATOM     17  C   UNL     1     103.141 119.631 124.079  1.00  0.00     0.087 C 
ENDROOT
TORSDOF 0
ENDMDL
MODEL 9
REMARK VINA RESULT:    -5.606      2.437      3.600
REMARK INTER + INTRA:          -5.606
REMARK INTER:                  -5.606
REMARK INTRA:                   0.000
REMARK UNBOUND:                 0.000
REMARK SMILES Cc1cc2cc3c(C)cc(=O)oc3c(C)c2o1
REMARK SMILES IDX 8 1 7 2 9 3 10 4 11 5 12 6 13 7 6 8 5 9 4 10 3 11 2 12 17 13
REMARK SMILES IDX 16 14 14 15 15 16 1 17
REMARK H PARENT
REMARK Flexibility Score: inf
ROOT
ATOM      1  C   UNL     1     110.009 119.937 122.862  1.00  0.00     0.045 C 
ATOM      2  C   UNL     1     109.191 120.487 121.721  1.00  0.00    -0.033 A 
ATOM      3  C   UNL     1     109.827 121.238 120.725  1.00  0.00     0.098 A 
ATOM      4  C   UNL     1     109.077 121.754 119.666  1.00  0.00     0.336 A 
ATOM      5  O   UNL     1     109.643 122.430 118.768  1.00  0.00    -0.246 OA
ATOM      6  O   UNL     1     107.769 121.538 119.597  1.00  0.00    -0.422 OA
ATOM      7  C   UNL     1     107.103 120.834 120.509  1.00  0.00     0.145 A 
ATOM      8  C   UNL     1     107.798 120.273 121.628  1.00  0.00     0.022 A 
ATOM      9  C   UNL     1     107.079 119.534 122.598  1.00  0.00     0.024 A 
ATOM     10  C   UNL     1     105.708 119.384 122.424  1.00  0.00     0.022 A 
ATOM     11  C   UNL     1     104.775 118.737 123.199  1.00  0.00     0.054 A 
ATOM     12  C   UNL     1     103.575 118.935 122.526  1.00  0.00     0.102 A 
ATOM     13  O   UNL     1     103.764 119.641 121.426  1.00  0.00    -0.461 OA
ATOM     14  C   UNL     1     105.045 119.920 121.353  1.00  0.00     0.140 A 
ATOM     15  C   UNL     1     105.708 120.647 120.361  1.00  0.00     0.036 A 
ATOM     16  C   UNL     1     104.958 121.252 119.209  1.00  0.00     0.052 C 
ATOM     17  C   UNL     1     102.248 118.412 122.960  1.00  0.00     0.087 C 
ENDROOT
TORSDOF 0
ENDMDL
