MODEL 1
REMARK VINA RESULT:    14.796      0.000      0.000
REMARK INTER + INTRA:          21.488
REMARK INTER:                  19.985
REMARK INTRA:                   1.503
REMARK UNBOUND:                 1.503
REMARK SMILES CC[C@H](CC[C@@H](C)[C@@H]1CC[C@@H]2[C@H]3CC(=O)C4=CC(=O)CC[C@]4(C)[C@H]3CC[C@]21C)C(C)C
REMARK SMILES IDX 4 1 3 2 2 3 1 4 29 5 30 6 31 7 5 8 6 9 7 10 8 11 9 12 27 13
REMARK SMILES IDX 10 14 11 15 26 16 28 17 12 18 25 19 24 20 13 21 22 22 14 23
REMARK SMILES IDX 16 24 21 25 23 26 15 27 17 28 20 29 18 30 19 31
REMARK H PARENT
REMARK Flexibility Score: inf
ROOT
ATOM      1  C   UNL     1      80.115  16.651   0.970  1.00  0.00     0.004 C 
ENDROOT
BRANCH   1   2
ATOM      2  C   UNL     1      79.596  18.122   0.951  1.00  0.00    -0.009 C 
BRANCH   2   3
ATOM      3  C   UNL     1      78.046  18.196   0.856  1.00  0.00     0.000 C 
ATOM      4  C   UNL     1      77.493  19.622   0.901  1.00  0.00     0.004 C 
ENDBRANCH   2   3
BRANCH   2   5
ATOM      5  C   UNL     1      80.207  19.040   2.066  1.00  0.00    -0.014 C 
ATOM      6  C   UNL     1      81.524  19.701   1.620  1.00  0.00     0.007 C 
ATOM      7  C   UNL     1      80.401  18.343   3.419  1.00  0.00     0.007 C 
ENDBRANCH   2   5
ENDBRANCH   1   2
BRANCH   1   8
ATOM      8  C   UNL     1      79.027  15.553   1.027  1.00  0.00     0.004 C 
BRANCH   8   9
ATOM      9  C   UNL     1      79.320  14.413   2.040  1.00  0.00    -0.011 C 
ATOM     10  C   UNL     1      80.805  13.997   2.009  1.00  0.00     0.008 C 
BRANCH   9  11
ATOM     11  C   UNL     1      78.736  14.715   3.469  1.00  0.00    -0.002 C 
ATOM     12  C   UNL     1      77.601  15.763   3.591  1.00  0.00     0.005 C 
ATOM     13  C   UNL     1      79.760  15.130   4.556  1.00  0.00    -0.026 C 
ATOM     14  C   UNL     1      77.689  16.318   5.027  1.00  0.00     0.005 C 
ATOM     15  C   UNL     1      78.795  15.500   5.695  1.00  0.00    -0.001 C 
ATOM     16  C   UNL     1      80.705  13.980   5.023  1.00  0.00     0.007 C 
ATOM     17  C   UNL     1      80.615  16.349   4.080  1.00  0.00     0.012 C 
ATOM     18  C   UNL     1      79.515  16.108   6.920  1.00  0.00     0.004 C 
ATOM     19  C   UNL     1      80.847  13.881   6.564  1.00  0.00     0.005 C 
ATOM     20  C   UNL     1      80.801  15.261   7.296  1.00  0.00     0.003 C 
ATOM     21  C   UNL     1      78.530  16.277   8.087  1.00  0.00     0.085 C 
ATOM     22  C   UNL     1      81.139  15.154   8.849  1.00  0.00    -0.000 C 
ATOM     23  C   UNL     1      79.238  16.859   9.263  1.00  0.00     0.159 C 
ATOM     24  C   UNL     1      80.583  16.360   9.617  1.00  0.00     0.005 C 
ATOM     25  C   UNL     1      82.695  15.099   9.008  1.00  0.00     0.020 C 
ATOM     26  C   UNL     1      80.524  13.878   9.490  1.00  0.00     0.017 C 
ATOM     27  O   UNL     1      78.660  17.737   9.962  1.00  0.00    -0.295 OA
ATOM     28  C   UNL     1      81.218  16.867  10.693  1.00  0.00     0.055 C 
ATOM     29  C   UNL     1      83.156  15.180  10.467  1.00  0.00     0.081 C 
ATOM     30  C   UNL     1      82.513  16.343  11.153  1.00  0.00     0.156 C 
ATOM     31  O   UNL     1      83.061  16.847  12.167  1.00  0.00    -0.295 OA
ENDBRANCH   9  11
ENDBRANCH   8   9
ENDBRANCH   1   8
TORSDOF 6
ENDMDL
MODEL 2
REMARK VINA RESULT:    16.160      0.829      1.722
REMARK INTER + INTRA:          23.331
REMARK INTER:                  23.252
REMARK INTRA:                   0.079
REMARK UNBOUND:                 1.503
REMARK SMILES CC[C@H](CC[C@@H](C)[C@@H]1CC[C@@H]2[C@H]3CC(=O)C4=CC(=O)CC[C@]4(C)[C@H]3CC[C@]21C)C(C)C
REMARK SMILES IDX 4 1 3 2 2 3 1 4 29 5 30 6 31 7 5 8 6 9 7 10 8 11 9 12 27 13
REMARK SMILES IDX 10 14 11 15 26 16 28 17 12 18 25 19 24 20 13 21 22 22 14 23
REMARK SMILES IDX 16 24 21 25 23 26 15 27 17 28 20 29 18 30 19 31
REMARK H PARENT
REMARK Flexibility Score: inf
ROOT
ATOM      1  C   UNL     1      79.050  17.033   0.495  1.00  0.00     0.004 C 
ENDROOT
BRANCH   1   2
ATOM      2  C   UNL     1      78.786  18.429   1.139  1.00  0.00    -0.009 C 
BRANCH   2   3
ATOM      3  C   UNL     1      80.088  19.266   1.279  1.00  0.00     0.000 C 
ATOM      4  C   UNL     1      81.275  18.471   1.825  1.00  0.00     0.004 C 
ENDBRANCH   2   3
BRANCH   2   5
ATOM      5  C   UNL     1      77.588  19.219   0.506  1.00  0.00    -0.014 C 
ATOM      6  C   UNL     1      77.191  20.447   1.345  1.00  0.00     0.007 C 
ATOM      7  C   UNL     1      76.352  18.361   0.211  1.00  0.00     0.007 C 
ENDBRANCH   2   5
ENDBRANCH   1   2
BRANCH   1   8
ATOM      8  C   UNL     1      78.174  15.872   1.020  1.00  0.00     0.004 C 
BRANCH   8   9
ATOM      9  C   UNL     1      78.853  15.001   2.113  1.00  0.00    -0.011 C 
ATOM     10  C   UNL     1      80.371  14.876   1.874  1.00  0.00     0.008 C 
BRANCH   9  11
ATOM     11  C   UNL     1      78.435  15.432   3.567  1.00  0.00    -0.002 C 
ATOM     12  C   UNL     1      77.697  16.782   3.750  1.00  0.00     0.005 C 
ATOM     13  C   UNL     1      79.569  15.467   4.625  1.00  0.00    -0.026 C 
ATOM     14  C   UNL     1      77.998  17.238   5.192  1.00  0.00     0.005 C 
ATOM     15  C   UNL     1      78.803  16.092   5.805  1.00  0.00    -0.001 C 
ATOM     16  C   UNL     1      80.110  14.064   5.036  1.00  0.00     0.007 C 
ATOM     17  C   UNL     1      80.753  16.365   4.142  1.00  0.00     0.012 C 
ATOM     18  C   UNL     1      79.714  16.403   7.015  1.00  0.00     0.004 C 
ATOM     19  C   UNL     1      80.257  13.880   6.569  1.00  0.00     0.005 C 
ATOM     20  C   UNL     1      80.673  15.181   7.329  1.00  0.00     0.003 C 
ATOM     21  C   UNL     1      78.866  16.843   8.218  1.00  0.00     0.085 C 
ATOM     22  C   UNL     1      81.002  14.926   8.866  1.00  0.00    -0.000 C 
ATOM     23  C   UNL     1      79.756  17.135   9.379  1.00  0.00     0.159 C 
ATOM     24  C   UNL     1      80.881  16.224   9.676  1.00  0.00     0.005 C 
ATOM     25  C   UNL     1      82.463  14.375   8.969  1.00  0.00     0.020 C 
ATOM     26  C   UNL     1      80.031  13.894   9.504  1.00  0.00     0.017 C 
ATOM     27  O   UNL     1      79.507  18.130  10.115  1.00  0.00    -0.295 OA
ATOM     28  C   UNL     1      81.674  16.471  10.738  1.00  0.00     0.055 C 
ATOM     29  C   UNL     1      82.966  14.263  10.411  1.00  0.00     0.081 C 
ATOM     30  C   UNL     1      82.747  15.549  11.141  1.00  0.00     0.156 C 
ATOM     31  O   UNL     1      83.455  15.823  12.145  1.00  0.00    -0.295 OA
ENDBRANCH   9  11
ENDBRANCH   8   9
ENDBRANCH   1   8
TORSDOF 6
ENDMDL
