MODEL 1
REMARK VINA RESULT:    -3.667      0.000      0.000
REMARK INTER + INTRA:          -9.166
REMARK INTER:                  -6.668
REMARK INTRA:                  -2.498
REMARK UNBOUND:                -2.498
REMARK SMILES CCCCCCCCCCCCCCCC(=O)[O-]
REMARK SMILES IDX 9 1 10 2 11 3 12 4 13 5 14 6 15 7 16 8 17 9 18 10 8 11 7 12
REMARK SMILES IDX 6 13 5 14 4 15 3 16 2 17 1 18
REMARK H PARENT
REMARK Flexibility Score: inf
ROOT
ATOM      1  C   UNL     1      -6.886  15.023  -2.309  1.00  0.00     0.000 C 
ENDROOT
BRANCH   1   2
ATOM      2  C   UNL     1      -7.155  13.879  -1.324  1.00  0.00     0.000 C 
BRANCH   2   3
ATOM      3  C   UNL     1      -6.562  14.194   0.058  1.00  0.00     0.000 C 
BRANCH   3   4
ATOM      4  C   UNL     1      -6.117  15.659   0.189  1.00  0.00     0.000 C 
BRANCH   4   5
ATOM      5  C   UNL     1      -5.873  16.073   1.649  1.00  0.00     0.000 C 
BRANCH   5   6
ATOM      6  C   UNL     1      -6.468  17.457   1.935  1.00  0.00     0.006 C 
BRANCH   6   7
ATOM      7  C   UNL     1      -6.509  17.736   3.440  1.00  0.00     0.053 C 
BRANCH   7   8
ATOM      8  C   UNL     1      -7.507  18.808   3.747  1.00  0.00     0.041 C 
ATOM      9  O   UNL     1      -7.125  19.911   4.219  1.00  0.00    -0.550 OA
ATOM     10  O   UNL     1      -8.853  18.604   3.474  1.00  0.00    -0.550 OA
ENDBRANCH   7   8
ENDBRANCH   6   7
ENDBRANCH   5   6
ENDBRANCH   4   5
ENDBRANCH   3   4
ENDBRANCH   2   3
ENDBRANCH   1   2
BRANCH   1  11
ATOM     11  C   UNL     1      -8.186  15.494  -2.976  1.00  0.00     0.000 C 
BRANCH  11  12
ATOM     12  C   UNL     1      -8.691  16.840  -2.426  1.00  0.00    -0.000 C 
BRANCH  12  13
ATOM     13  C   UNL     1      -9.908  16.749  -1.486  1.00  0.00    -0.000 C 
BRANCH  13  14
ATOM     14  C   UNL     1      -9.520  16.773   0.002  1.00  0.00    -0.000 C 
BRANCH  14  15
ATOM     15  C   UNL     1      -9.949  15.497   0.745  1.00  0.00    -0.000 C 
BRANCH  15  16
ATOM     16  C   UNL     1      -9.897  15.654   2.276  1.00  0.00    -0.000 C 
BRANCH  16  17
ATOM     17  C   UNL     1      -8.952  14.641   2.939  1.00  0.00    -0.003 C 
ATOM     18  C   UNL     1      -8.753  14.907   4.432  1.00  0.00     0.004 C 
ENDBRANCH  16  17
ENDBRANCH  15  16
ENDBRANCH  14  15
ENDBRANCH  13  14
ENDBRANCH  12  13
ENDBRANCH  11  12
ENDBRANCH   1  11
TORSDOF 14
ENDMDL
MODEL 2
REMARK VINA RESULT:    -3.640      3.833      6.407
REMARK INTER + INTRA:          -9.118
REMARK INTER:                  -6.699
REMARK INTRA:                  -2.418
REMARK UNBOUND:                -2.498
REMARK SMILES CCCCCCCCCCCCCCCC(=O)[O-]
REMARK SMILES IDX 9 1 10 2 11 3 12 4 13 5 14 6 15 7 16 8 17 9 18 10 8 11 7 12
REMARK SMILES IDX 6 13 5 14 4 15 3 16 2 17 1 18
REMARK H PARENT
REMARK Flexibility Score: inf
ROOT
ATOM      1  C   UNL     1      -9.515  15.598   1.604  1.00  0.00     0.000 C 
ENDROOT
BRANCH   1   2
ATOM      2  C   UNL     1      -9.756  15.542   0.090  1.00  0.00     0.000 C 
BRANCH   2   3
ATOM      3  C   UNL     1      -9.541  16.922  -0.550  1.00  0.00     0.000 C 
BRANCH   3   4
ATOM      4  C   UNL     1      -9.032  16.830  -1.997  1.00  0.00     0.000 C 
BRANCH   4   5
ATOM      5  C   UNL     1      -9.265  15.443  -2.617  1.00  0.00     0.000 C 
BRANCH   5   6
ATOM      6  C   UNL     1      -8.138  15.079  -3.591  1.00  0.00     0.006 C 
BRANCH   6   7
ATOM      7  C   UNL     1      -8.385  15.694  -4.971  1.00  0.00     0.053 C 
BRANCH   7   8
ATOM      8  C   UNL     1      -7.426  15.134  -5.973  1.00  0.00     0.041 C 
ATOM      9  O   UNL     1      -6.266  14.796  -5.619  1.00  0.00    -0.550 OA
ATOM     10  O   UNL     1      -7.827  14.946  -7.290  1.00  0.00    -0.550 OA
ENDBRANCH   7   8
ENDBRANCH   6   7
ENDBRANCH   5   6
ENDBRANCH   4   5
ENDBRANCH   3   4
ENDBRANCH   2   3
ENDBRANCH   1   2
BRANCH   1  11
ATOM     11  C   UNL     1      -9.004  16.982   2.030  1.00  0.00     0.000 C 
BRANCH  11  12
ATOM     12  C   UNL     1      -7.579  16.945   2.611  1.00  0.00    -0.000 C 
BRANCH  12  13
ATOM     13  C   UNL     1      -6.447  17.129   1.583  1.00  0.00    -0.000 C 
BRANCH  13  14
ATOM     14  C   UNL     1      -5.783  15.802   1.178  1.00  0.00    -0.000 C 
BRANCH  14  15
ATOM     15  C   UNL     1      -6.012  15.454  -0.302  1.00  0.00    -0.000 C 
BRANCH  15  16
ATOM     16  C   UNL     1      -6.406  13.980  -0.512  1.00  0.00    -0.000 C 
BRANCH  16  17
ATOM     17  C   UNL     1      -6.686  13.253   0.812  1.00  0.00    -0.003 C 
ATOM     18  C   UNL     1      -7.926  12.360   0.746  1.00  0.00     0.004 C 
ENDBRANCH  16  17
ENDBRANCH  15  16
ENDBRANCH  14  15
ENDBRANCH  13  14
ENDBRANCH  12  13
ENDBRANCH  11  12
ENDBRANCH   1  11
TORSDOF 14
ENDMDL
MODEL 3
REMARK VINA RESULT:    -3.598      3.454      6.431
REMARK INTER + INTRA:          -9.040
REMARK INTER:                  -6.952
REMARK INTRA:                  -2.089
REMARK UNBOUND:                -2.498
REMARK SMILES CCCCCCCCCCCCCCCC(=O)[O-]
REMARK SMILES IDX 9 1 10 2 11 3 12 4 13 5 14 6 15 7 16 8 17 9 18 10 8 11 7 12
REMARK SMILES IDX 6 13 5 14 4 15 3 16 2 17 1 18
REMARK H PARENT
REMARK Flexibility Score: inf
ROOT
ATOM      1  C   UNL     1      -8.682  16.486  -3.381  1.00  0.00     0.000 C 
ENDROOT
BRANCH   1   2
ATOM      2  C   UNL     1      -8.934  17.338  -2.130  1.00  0.00     0.000 C 
BRANCH   2   3
ATOM      3  C   UNL     1      -9.858  16.605  -1.146  1.00  0.00     0.000 C 
BRANCH   3   4
ATOM      4  C   UNL     1      -9.308  16.603   0.290  1.00  0.00     0.000 C 
BRANCH   4   5
ATOM      5  C   UNL     1      -8.369  15.417   0.559  1.00  0.00     0.000 C 
BRANCH   5   6
ATOM      6  C   UNL     1      -6.900  15.839   0.435  1.00  0.00     0.006 C 
BRANCH   6   7
ATOM      7  C   UNL     1      -6.163  14.968  -0.586  1.00  0.00     0.053 C 
BRANCH   7   8
ATOM      8  C   UNL     1      -6.144  13.541  -0.140  1.00  0.00     0.041 C 
ATOM      9  O   UNL     1      -6.592  12.637  -0.892  1.00  0.00    -0.550 OA
ATOM     10  O   UNL     1      -5.594  13.204   1.091  1.00  0.00    -0.550 OA
ENDBRANCH   7   8
ENDBRANCH   6   7
ENDBRANCH   5   6
ENDBRANCH   4   5
ENDBRANCH   3   4
ENDBRANCH   2   3
ENDBRANCH   1   2
BRANCH   1  11
ATOM     11  C   UNL     1      -9.207  15.056  -3.189  1.00  0.00     0.000 C 
BRANCH  11  12
ATOM     12  C   UNL     1      -8.179  13.980  -3.585  1.00  0.00    -0.000 C 
BRANCH  12  13
ATOM     13  C   UNL     1      -6.866  14.516  -4.184  1.00  0.00    -0.000 C 
BRANCH  13  14
ATOM     14  C   UNL     1      -6.695  14.162  -5.671  1.00  0.00    -0.000 C 
BRANCH  14  15
ATOM     15  C   UNL     1      -7.349  15.194  -6.604  1.00  0.00    -0.000 C 
BRANCH  15  16
ATOM     16  C   UNL     1      -8.102  14.541  -7.778  1.00  0.00    -0.000 C 
BRANCH  16  17
ATOM     17  C   UNL     1      -9.622  14.739  -7.685  1.00  0.00    -0.003 C 
ATOM     18  C   UNL     1     -10.283  13.783  -6.691  1.00  0.00     0.004 C 
ENDBRANCH  16  17
ENDBRANCH  15  16
ENDBRANCH  14  15
ENDBRANCH  13  14
ENDBRANCH  12  13
ENDBRANCH  11  12
ENDBRANCH   1  11
TORSDOF 14
ENDMDL
MODEL 4
REMARK VINA RESULT:    -3.591      4.604      7.068
REMARK INTER + INTRA:          -9.028
REMARK INTER:                  -7.887
REMARK INTRA:                  -1.141
REMARK UNBOUND:                -2.498
REMARK SMILES CCCCCCCCCCCCCCCC(=O)[O-]
REMARK SMILES IDX 9 1 10 2 11 3 12 4 13 5 14 6 15 7 16 8 17 9 18 10 8 11 7 12
REMARK SMILES IDX 6 13 5 14 4 15 3 16 2 17 1 18
REMARK H PARENT
REMARK Flexibility Score: inf
ROOT
ATOM      1  C   UNL     1      -8.535  15.804   0.044  1.00  0.00     0.000 C 
ENDROOT
BRANCH   1   2
ATOM      2  C   UNL     1      -9.233  16.889  -0.786  1.00  0.00     0.000 C 
BRANCH   2   3
ATOM      3  C   UNL     1      -8.695  16.908  -2.225  1.00  0.00     0.000 C 
BRANCH   3   4
ATOM      4  C   UNL     1      -9.102  15.659  -3.025  1.00  0.00     0.000 C 
BRANCH   4   5
ATOM      5  C   UNL     1      -8.637  15.719  -4.488  1.00  0.00     0.000 C 
BRANCH   5   6
ATOM      6  C   UNL     1      -8.931  14.400  -5.213  1.00  0.00     0.006 C 
BRANCH   6   7
ATOM      7  C   UNL     1      -9.378  14.655  -6.655  1.00  0.00     0.053 C 
BRANCH   7   8
ATOM      8  C   UNL     1      -8.228  14.487  -7.597  1.00  0.00     0.041 C 
ATOM      9  O   UNL     1      -8.344  14.830  -8.803  1.00  0.00    -0.550 OA
ATOM     10  O   UNL     1      -7.016  13.990  -7.135  1.00  0.00    -0.550 OA
ENDBRANCH   7   8
ENDBRANCH   6   7
ENDBRANCH   5   6
ENDBRANCH   4   5
ENDBRANCH   3   4
ENDBRANCH   2   3
ENDBRANCH   1   2
BRANCH   1  11
ATOM     11  C   UNL     1      -7.028  15.770  -0.248  1.00  0.00     0.000 C 
BRANCH  11  12
ATOM     12  C   UNL     1      -6.167  16.019   1.004  1.00  0.00    -0.000 C 
BRANCH  12  13
ATOM     13  C   UNL     1      -6.559  17.255   1.834  1.00  0.00    -0.000 C 
BRANCH  13  14
ATOM     14  C   UNL     1      -6.813  16.928   3.315  1.00  0.00    -0.000 C 
BRANCH  14  15
ATOM     15  C   UNL     1      -8.302  17.006   3.691  1.00  0.00    -0.000 C 
BRANCH  15  16
ATOM     16  C   UNL     1      -9.016  18.208   3.044  1.00  0.00    -0.000 C 
BRANCH  16  17
ATOM     17  C   UNL     1     -10.464  17.885   2.646  1.00  0.00    -0.003 C 
ATOM     18  C   UNL     1     -11.483  18.794   3.336  1.00  0.00     0.004 C 
ENDBRANCH  16  17
ENDBRANCH  15  16
ENDBRANCH  14  15
ENDBRANCH  13  14
ENDBRANCH  12  13
ENDBRANCH  11  12
ENDBRANCH   1  11
TORSDOF 14
ENDMDL
MODEL 5
REMARK VINA RESULT:    -3.567      4.709      7.331
REMARK INTER + INTRA:          -8.985
REMARK INTER:                  -6.996
REMARK INTRA:                  -1.990
REMARK UNBOUND:                -2.498
REMARK SMILES CCCCCCCCCCCCCCCC(=O)[O-]
REMARK SMILES IDX 9 1 10 2 11 3 12 4 13 5 14 6 15 7 16 8 17 9 18 10 8 11 7 12
REMARK SMILES IDX 6 13 5 14 4 15 3 16 2 17 1 18
REMARK H PARENT
REMARK Flexibility Score: inf
ROOT
ATOM      1  C   UNL     1      -9.502  14.790  -3.342  1.00  0.00     0.000 C 
ENDROOT
BRANCH   1   2
ATOM      2  C   UNL     1      -8.702  13.545  -3.747  1.00  0.00     0.000 C 
BRANCH   2   3
ATOM      3  C   UNL     1      -9.489  12.690  -4.752  1.00  0.00     0.000 C 
BRANCH   3   4
ATOM      4  C   UNL     1     -10.570  13.494  -5.492  1.00  0.00     0.000 C 
BRANCH   4   5
ATOM      5  C   UNL     1     -10.442  13.385  -7.020  1.00  0.00     0.000 C 
BRANCH   5   6
ATOM      6  C   UNL     1      -9.957  14.707  -7.627  1.00  0.00     0.006 C 
BRANCH   6   7
ATOM      7  C   UNL     1      -8.599  14.530  -8.313  1.00  0.00     0.053 C 
BRANCH   7   8
ATOM      8  C   UNL     1      -7.502  14.481  -7.297  1.00  0.00     0.041 C 
ATOM      9  O   UNL     1      -6.861  13.415  -7.110  1.00  0.00    -0.550 OA
ATOM     10  O   UNL     1      -7.161  15.624  -6.585  1.00  0.00    -0.550 OA
ENDBRANCH   7   8
ENDBRANCH   6   7
ENDBRANCH   5   6
ENDBRANCH   4   5
ENDBRANCH   3   4
ENDBRANCH   2   3
ENDBRANCH   1   2
BRANCH   1  11
ATOM     11  C   UNL     1      -8.625  16.049  -3.390  1.00  0.00     0.000 C 
BRANCH  11  12
ATOM     12  C   UNL     1      -8.919  17.031  -2.240  1.00  0.00    -0.000 C 
BRANCH  12  13
ATOM     13  C   UNL     1      -9.981  16.559  -1.230  1.00  0.00    -0.000 C 
BRANCH  13  14
ATOM     14  C   UNL     1      -9.377  16.117   0.114  1.00  0.00    -0.000 C 
BRANCH  14  15
ATOM     15  C   UNL     1      -7.998  16.743   0.377  1.00  0.00    -0.000 C 
BRANCH  15  16
ATOM     16  C   UNL     1      -6.953  15.708   0.834  1.00  0.00    -0.000 C 
BRANCH  16  17
ATOM     17  C   UNL     1      -7.019  14.408   0.019  1.00  0.00    -0.003 C 
ATOM     18  C   UNL     1      -6.114  14.437  -1.215  1.00  0.00     0.004 C 
ENDBRANCH  16  17
ENDBRANCH  15  16
ENDBRANCH  14  15
ENDBRANCH  13  14
ENDBRANCH  12  13
ENDBRANCH  11  12
ENDBRANCH   1  11
TORSDOF 14
ENDMDL
MODEL 6
REMARK VINA RESULT:    -3.545      3.720      5.820
REMARK INTER + INTRA:          -8.945
REMARK INTER:                  -6.749
REMARK INTRA:                  -2.196
REMARK UNBOUND:                -2.498
REMARK SMILES CCCCCCCCCCCCCCCC(=O)[O-]
REMARK SMILES IDX 9 1 10 2 11 3 12 4 13 5 14 6 15 7 16 8 17 9 18 10 8 11 7 12
REMARK SMILES IDX 6 13 5 14 4 15 3 16 2 17 1 18
REMARK H PARENT
REMARK Flexibility Score: inf
ROOT
ATOM      1  C   UNL     1      -9.424  13.954  -0.100  1.00  0.00     0.000 C 
ENDROOT
BRANCH   1   2
ATOM      2  C   UNL     1     -10.630  14.902  -0.079  1.00  0.00     0.000 C 
BRANCH   2   3
ATOM      3  C   UNL     1     -10.743  15.673  -1.403  1.00  0.00     0.000 C 
BRANCH   3   4
ATOM      4  C   UNL     1      -9.912  16.967  -1.406  1.00  0.00     0.000 C 
BRANCH   4   5
ATOM      5  C   UNL     1      -8.778  16.936  -2.442  1.00  0.00     0.000 C 
BRANCH   5   6
ATOM      6  C   UNL     1      -8.842  15.660  -3.291  1.00  0.00     0.006 C 
BRANCH   6   7
ATOM      7  C   UNL     1      -7.468  14.992  -3.381  1.00  0.00     0.053 C 
BRANCH   7   8
ATOM      8  C   UNL     1      -7.100  14.742  -4.810  1.00  0.00     0.041 C 
ATOM      9  O   UNL     1      -6.323  13.798  -5.107  1.00  0.00    -0.550 OA
ATOM     10  O   UNL     1      -7.648  15.526  -5.817  1.00  0.00    -0.550 OA
ENDBRANCH   7   8
ENDBRANCH   6   7
ENDBRANCH   5   6
ENDBRANCH   4   5
ENDBRANCH   3   4
ENDBRANCH   2   3
ENDBRANCH   1   2
BRANCH   1  11
ATOM     11  C   UNL     1      -8.394  14.349   0.968  1.00  0.00     0.000 C 
BRANCH  11  12
ATOM     12  C   UNL     1      -7.180  15.096   0.386  1.00  0.00    -0.000 C 
BRANCH  12  13
ATOM     13  C   UNL     1      -7.082  16.585   0.766  1.00  0.00    -0.000 C 
BRANCH  13  14
ATOM     14  C   UNL     1      -6.183  16.834   1.990  1.00  0.00    -0.000 C 
BRANCH  14  15
ATOM     15  C   UNL     1      -6.828  17.783   3.013  1.00  0.00    -0.000 C 
BRANCH  15  16
ATOM     16  C   UNL     1      -8.191  17.276   3.519  1.00  0.00    -0.000 C 
BRANCH  16  17
ATOM     17  C   UNL     1      -9.336  18.246   3.194  1.00  0.00    -0.003 C 
ATOM     18  C   UNL     1     -10.460  17.587   2.393  1.00  0.00     0.004 C 
ENDBRANCH  16  17
ENDBRANCH  15  16
ENDBRANCH  14  15
ENDBRANCH  13  14
ENDBRANCH  12  13
ENDBRANCH  11  12
ENDBRANCH   1  11
TORSDOF 14
ENDMDL
MODEL 7
REMARK VINA RESULT:    -3.541      1.362      3.506
REMARK INTER + INTRA:          -8.937
REMARK INTER:                  -6.864
REMARK INTRA:                  -2.073
REMARK UNBOUND:                -2.498
REMARK SMILES CCCCCCCCCCCCCCCC(=O)[O-]
REMARK SMILES IDX 9 1 10 2 11 3 12 4 13 5 14 6 15 7 16 8 17 9 18 10 8 11 7 12
REMARK SMILES IDX 6 13 5 14 4 15 3 16 2 17 1 18
REMARK H PARENT
REMARK Flexibility Score: inf
ROOT
ATOM      1  C   UNL     1     -10.470  15.936  -1.234  1.00  0.00     0.000 C 
ENDROOT
BRANCH   1   2
ATOM      2  C   UNL     1     -10.443  15.340   0.180  1.00  0.00     0.000 C 
BRANCH   2   3
ATOM      3  C   UNL     1      -9.592  16.204   1.123  1.00  0.00     0.000 C 
BRANCH   3   4
ATOM      4  C   UNL     1     -10.430  16.891   2.213  1.00  0.00     0.000 C 
BRANCH   4   5
ATOM      5  C   UNL     1      -9.634  17.953   2.986  1.00  0.00     0.000 C 
BRANCH   5   6
ATOM      6  C   UNL     1      -8.295  17.389   3.477  1.00  0.00     0.006 C 
BRANCH   6   7
ATOM      7  C   UNL     1      -7.141  18.332   3.127  1.00  0.00     0.053 C 
BRANCH   7   8
ATOM      8  C   UNL     1      -7.096  19.482   4.082  1.00  0.00     0.041 C 
ATOM      9  O   UNL     1      -7.626  20.581   3.773  1.00  0.00    -0.550 OA
ATOM     10  O   UNL     1      -6.505  19.328   5.330  1.00  0.00    -0.550 OA
ENDBRANCH   7   8
ENDBRANCH   6   7
ENDBRANCH   5   6
ENDBRANCH   4   5
ENDBRANCH   3   4
ENDBRANCH   2   3
ENDBRANCH   1   2
BRANCH   1  11
ATOM     11  C   UNL     1      -9.297  16.904  -1.445  1.00  0.00     0.000 C 
BRANCH  11  12
ATOM     12  C   UNL     1      -8.746  16.877  -2.883  1.00  0.00    -0.000 C 
BRANCH  12  13
ATOM     13  C   UNL     1      -8.703  15.486  -3.543  1.00  0.00    -0.000 C 
BRANCH  13  14
ATOM     14  C   UNL     1      -7.406  14.718  -3.238  1.00  0.00    -0.000 C 
BRANCH  14  15
ATOM     15  C   UNL     1      -7.626  13.548  -2.265  1.00  0.00    -0.000 C 
BRANCH  15  16
ATOM     16  C   UNL     1      -7.170  13.874  -0.830  1.00  0.00    -0.000 C 
BRANCH  16  17
ATOM     17  C   UNL     1      -6.124  14.998  -0.788  1.00  0.00    -0.003 C 
ATOM     18  C   UNL     1      -6.111  15.743   0.548  1.00  0.00     0.004 C 
ENDBRANCH  16  17
ENDBRANCH  15  16
ENDBRANCH  14  15
ENDBRANCH  13  14
ENDBRANCH  12  13
ENDBRANCH  11  12
ENDBRANCH   1  11
TORSDOF 14
ENDMDL
MODEL 8
REMARK VINA RESULT:    -3.539      3.267      5.932
REMARK INTER + INTRA:          -8.934
REMARK INTER:                  -7.020
REMARK INTRA:                  -1.913
REMARK UNBOUND:                -2.498
REMARK SMILES CCCCCCCCCCCCCCCC(=O)[O-]
REMARK SMILES IDX 9 1 10 2 11 3 12 4 13 5 14 6 15 7 16 8 17 9 18 10 8 11 7 12
REMARK SMILES IDX 6 13 5 14 4 15 3 16 2 17 1 18
REMARK H PARENT
REMARK Flexibility Score: inf
ROOT
ATOM      1  C   UNL     1      -8.960  13.337  -3.422  1.00  0.00     0.000 C 
ENDROOT
BRANCH   1   2
ATOM      2  C   UNL     1      -9.388  14.810  -3.400  1.00  0.00     0.000 C 
BRANCH   2   3
ATOM      3  C   UNL     1      -8.245  15.705  -2.898  1.00  0.00     0.000 C 
BRANCH   3   4
ATOM      4  C   UNL     1      -8.752  17.006  -2.255  1.00  0.00     0.000 C 
BRANCH   4   5
ATOM      5  C   UNL     1      -9.175  16.813  -0.791  1.00  0.00     0.000 C 
BRANCH   5   6
ATOM      6  C   UNL     1      -8.273  15.792  -0.086  1.00  0.00     0.006 C 
BRANCH   6   7
ATOM      7  C   UNL     1      -7.966  16.229   1.348  1.00  0.00     0.053 C 
BRANCH   7   8
ATOM      8  C   UNL     1      -6.554  16.711   1.458  1.00  0.00     0.041 C 
ATOM      9  O   UNL     1      -5.601  15.956   1.132  1.00  0.00    -0.550 OA
ATOM     10  O   UNL     1      -6.292  18.008   1.880  1.00  0.00    -0.550 OA
ENDBRANCH   7   8
ENDBRANCH   6   7
ENDBRANCH   5   6
ENDBRANCH   4   5
ENDBRANCH   3   4
ENDBRANCH   2   3
ENDBRANCH   1   2
BRANCH   1  11
ATOM     11  C   UNL     1      -9.633  12.584  -4.579  1.00  0.00     0.000 C 
BRANCH  11  12
ATOM     12  C   UNL     1     -10.519  13.492  -5.452  1.00  0.00    -0.000 C 
BRANCH  12  13
ATOM     13  C   UNL     1     -10.251  13.407  -6.967  1.00  0.00    -0.000 C 
BRANCH  13  14
ATOM     14  C   UNL     1      -9.539  14.653  -7.521  1.00  0.00    -0.000 C 
BRANCH  14  15
ATOM     15  C   UNL     1      -8.016  14.469  -7.616  1.00  0.00    -0.000 C 
BRANCH  15  16
ATOM     16  C   UNL     1      -7.247  15.343  -6.607  1.00  0.00    -0.000 C 
BRANCH  16  17
ATOM     17  C   UNL     1      -6.325  14.516  -5.698  1.00  0.00    -0.003 C 
ATOM     18  C   UNL     1      -6.244  13.047  -6.118  1.00  0.00     0.004 C 
ENDBRANCH  16  17
ENDBRANCH  15  16
ENDBRANCH  14  15
ENDBRANCH  13  14
ENDBRANCH  12  13
ENDBRANCH  11  12
ENDBRANCH   1  11
TORSDOF 14
ENDMDL
MODEL 9
REMARK VINA RESULT:    -3.518      4.264      6.704
REMARK INTER + INTRA:          -8.896
REMARK INTER:                  -6.671
REMARK INTRA:                  -2.225
REMARK UNBOUND:                -2.498
REMARK SMILES CCCCCCCCCCCCCCCC(=O)[O-]
REMARK SMILES IDX 9 1 10 2 11 3 12 4 13 5 14 6 15 7 16 8 17 9 18 10 8 11 7 12
REMARK SMILES IDX 6 13 5 14 4 15 3 16 2 17 1 18
REMARK H PARENT
REMARK Flexibility Score: inf
ROOT
ATOM      1  C   UNL     1      -9.551  16.881  -0.373  1.00  0.00     0.000 C 
ENDROOT
BRANCH   1   2
ATOM      2  C   UNL     1      -9.454  16.522  -1.861  1.00  0.00     0.000 C 
BRANCH   2   3
ATOM      3  C   UNL     1      -9.982  15.102  -2.118  1.00  0.00     0.000 C 
BRANCH   3   4
ATOM      4  C   UNL     1      -9.287  14.419  -3.307  1.00  0.00     0.000 C 
BRANCH   4   5
ATOM      5  C   UNL     1      -8.217  15.311  -3.955  1.00  0.00     0.000 C 
BRANCH   5   6
ATOM      6  C   UNL     1      -6.862  14.593  -4.009  1.00  0.00     0.006 C 
BRANCH   6   7
ATOM      7  C   UNL     1      -6.965  13.285  -4.798  1.00  0.00     0.053 C 
BRANCH   7   8
ATOM      8  C   UNL     1      -6.292  13.421  -6.127  1.00  0.00     0.041 C 
ATOM      9  O   UNL     1      -5.087  13.084  -6.263  1.00  0.00    -0.550 OA
ATOM     10  O   UNL     1      -7.006  13.882  -7.226  1.00  0.00    -0.550 OA
ENDBRANCH   7   8
ENDBRANCH   6   7
ENDBRANCH   5   6
ENDBRANCH   4   5
ENDBRANCH   3   4
ENDBRANCH   2   3
ENDBRANCH   1   2
BRANCH   1  11
ATOM     11  C   UNL     1     -10.001  15.671   0.458  1.00  0.00     0.000 C 
BRANCH  11  12
ATOM     12  C   UNL     1      -9.719  15.835   1.963  1.00  0.00    -0.000 C 
BRANCH  12  13
ATOM     13  C   UNL     1      -8.903  17.084   2.344  1.00  0.00    -0.000 C 
BRANCH  13  14
ATOM     14  C   UNL     1      -7.440  16.763   2.694  1.00  0.00    -0.000 C 
BRANCH  14  15
ATOM     15  C   UNL     1      -6.486  16.986   1.509  1.00  0.00    -0.000 C 
BRANCH  15  16
ATOM     16  C   UNL     1      -5.764  15.696   1.076  1.00  0.00    -0.000 C 
BRANCH  16  17
ATOM     17  C   UNL     1      -6.172  15.241  -0.333  1.00  0.00    -0.003 C 
ATOM     18  C   UNL     1      -6.885  13.887  -0.334  1.00  0.00     0.004 C 
ENDBRANCH  16  17
ENDBRANCH  15  16
ENDBRANCH  14  15
ENDBRANCH  13  14
ENDBRANCH  12  13
ENDBRANCH  11  12
ENDBRANCH   1  11
TORSDOF 14
ENDMDL
