MODEL 1
REMARK VINA RESULT:    -6.993      0.000      0.000
REMARK INTER + INTRA:          -8.751
REMARK INTER:                  -8.424
REMARK INTRA:                  -0.327
REMARK UNBOUND:                -0.327
REMARK SMILES O=c1c(O)c(-c2ccc(O)c(O)c2)oc2cc(O)cc(O)c12
REMARK SMILES IDX 5 1 3 2 2 3 1 4 22 5 20 6 19 7 17 8 16 9 15 10 14 11 6 12
REMARK SMILES IDX 7 13 8 14 9 15 13 16 11 17 10 18 12 20 4 22 21 24 18 26
REMARK H PARENT 10 19 12 21 4 23 21 25 18 27
REMARK Flexibility Score: inf
ROOT
ATOM      1  C   UNL     1      18.051 -42.108  29.595  1.00  0.00     0.180 A 
ATOM      2  C   UNL     1      19.051 -42.976  30.066  1.00  0.00     0.208 A 
ATOM      3  C   UNL     1      18.746 -43.862  31.112  1.00  0.00     0.238 A 
ATOM      4  O   UNL     1      19.660 -44.599  31.566  1.00  0.00    -0.285 OA
ATOM      5  C   UNL     1      17.442 -43.880  31.662  1.00  0.00     0.111 A 
ATOM      6  C   UNL     1      17.011 -44.763  32.698  1.00  0.00     0.134 A 
ATOM      7  C   UNL     1      15.737 -44.605  33.255  1.00  0.00     0.093 A 
ATOM      8  C   UNL     1      14.855 -43.638  32.773  1.00  0.00     0.123 A 
ATOM      9  C   UNL     1      15.244 -42.808  31.721  1.00  0.00     0.094 A 
ATOM     10  C   UNL     1      16.522 -42.919  31.169  1.00  0.00     0.146 A 
ATOM     11  O   UNL     1      16.857 -42.102  30.177  1.00  0.00    -0.452 OA
ENDROOT
BRANCH   1  12
ATOM     12  C   UNL     1      18.290 -41.164  28.480  1.00  0.00     0.025 A 
ATOM     13  C   UNL     1      18.000 -41.513  27.152  1.00  0.00     0.016 A 
ATOM     14  C   UNL     1      18.210 -40.597  26.119  1.00  0.00     0.051 A 
ATOM     15  C   UNL     1      18.701 -39.314  26.390  1.00  0.00     0.157 A 
ATOM     16  C   UNL     1      18.760 -39.871  28.757  1.00  0.00     0.062 A 
ATOM     17  C   UNL     1      18.975 -38.944  27.729  1.00  0.00     0.158 A 
BRANCH  15  18
ATOM     18  O   UNL     1      18.893 -38.448  25.312  1.00  0.00    -0.504 OA
ATOM     19  H   UNL     1      18.418 -38.536  24.426  1.00  0.00     0.293 HD
ENDBRANCH  15  18
BRANCH  17  20
ATOM     20  O   UNL     1      19.456 -37.682  28.078  1.00  0.00    -0.504 OA
ATOM     21  H   UNL     1      19.556 -37.359  29.031  1.00  0.00     0.293 HD
ENDBRANCH  17  20
ENDBRANCH   1  12
BRANCH   2  22
ATOM     22  O   UNL     1      20.338 -42.927  29.523  1.00  0.00    -0.502 OA
ATOM     23  H   UNL     1      20.793 -42.054  29.281  1.00  0.00     0.293 HD
ENDBRANCH   2  22
BRANCH   6  24
ATOM     24  O   UNL     1      17.780 -45.822  33.189  1.00  0.00    -0.507 OA
ATOM     25  H   UNL     1      18.740 -45.746  33.490  1.00  0.00     0.293 HD
ENDBRANCH   6  24
BRANCH   8  26
ATOM     26  O   UNL     1      13.589 -43.518  33.341  1.00  0.00    -0.508 OA
ATOM     27  H   UNL     1      13.225 -42.621  33.641  1.00  0.00     0.293 HD
ENDBRANCH   8  26
TORSDOF 6
ENDMDL
MODEL 2
REMARK VINA RESULT:    -6.991      1.762      7.058
REMARK INTER + INTRA:          -8.749
REMARK INTER:                  -8.471
REMARK INTRA:                  -0.277
REMARK UNBOUND:                -0.327
REMARK SMILES O=c1c(O)c(-c2ccc(O)c(O)c2)oc2cc(O)cc(O)c12
REMARK SMILES IDX 5 1 3 2 2 3 1 4 22 5 20 6 19 7 17 8 16 9 15 10 14 11 6 12
REMARK SMILES IDX 7 13 8 14 9 15 13 16 11 17 10 18 12 20 4 22 21 24 18 26
REMARK H PARENT 10 19 12 21 4 23 21 25 18 27
REMARK Flexibility Score: inf
ROOT
ATOM      1  C   UNL     1      17.870 -42.461  30.097  1.00  0.00     0.180 A 
ATOM      2  C   UNL     1      17.681 -41.108  30.428  1.00  0.00     0.208 A 
ATOM      3  C   UNL     1      17.728 -40.145  29.406  1.00  0.00     0.238 A 
ATOM      4  O   UNL     1      17.613 -38.930  29.715  1.00  0.00    -0.285 OA
ATOM      5  C   UNL     1      17.947 -40.549  28.067  1.00  0.00     0.111 A 
ATOM      6  C   UNL     1      17.975 -39.663  26.948  1.00  0.00     0.134 A 
ATOM      7  C   UNL     1      18.328 -40.155  25.686  1.00  0.00     0.093 A 
ATOM      8  C   UNL     1      18.593 -41.511  25.490  1.00  0.00     0.123 A 
ATOM      9  C   UNL     1      18.512 -42.395  26.566  1.00  0.00     0.094 A 
ATOM     10  C   UNL     1      18.196 -41.928  27.843  1.00  0.00     0.146 A 
ATOM     11  O   UNL     1      18.139 -42.801  28.842  1.00  0.00    -0.452 OA
ENDROOT
BRANCH   1  12
ATOM     12  C   UNL     1      17.810 -43.535  31.115  1.00  0.00     0.025 A 
ATOM     13  C   UNL     1      16.587 -43.962  31.656  1.00  0.00     0.016 A 
ATOM     14  C   UNL     1      16.553 -44.993  32.596  1.00  0.00     0.051 A 
ATOM     15  C   UNL     1      17.732 -45.627  33.005  1.00  0.00     0.157 A 
ATOM     16  C   UNL     1      18.991 -44.184  31.505  1.00  0.00     0.062 A 
ATOM     17  C   UNL     1      18.968 -45.221  32.448  1.00  0.00     0.158 A 
BRANCH  15  18
ATOM     18  O   UNL     1      17.630 -46.649  33.951  1.00  0.00    -0.504 OA
ATOM     19  H   UNL     1      17.183 -46.542  34.851  1.00  0.00     0.293 HD
ENDBRANCH  15  18
BRANCH  17  20
ATOM     20  O   UNL     1      20.183 -45.811  32.798  1.00  0.00    -0.504 OA
ATOM     21  H   UNL     1      20.289 -46.789  33.031  1.00  0.00     0.293 HD
ENDBRANCH  17  20
ENDBRANCH   1  12
BRANCH   2  22
ATOM     22  O   UNL     1      17.489 -40.730  31.759  1.00  0.00    -0.502 OA
ATOM     23  H   UNL     1      17.739 -41.329  32.537  1.00  0.00     0.293 HD
ENDBRANCH   2  22
BRANCH   6  24
ATOM     24  O   UNL     1      17.637 -38.308  27.018  1.00  0.00    -0.507 OA
ATOM     25  H   UNL     1      18.214 -37.553  26.679  1.00  0.00     0.293 HD
ENDBRANCH   6  24
BRANCH   8  26
ATOM     26  O   UNL     1      18.927 -41.968  24.217  1.00  0.00    -0.508 OA
ATOM     27  H   UNL     1      18.650 -41.462  23.384  1.00  0.00     0.293 HD
ENDBRANCH   8  26
TORSDOF 6
ENDMDL
MODEL 3
REMARK VINA RESULT:    -6.858      2.317      7.062
REMARK INTER + INTRA:          -8.588
REMARK INTER:                  -8.272
REMARK INTRA:                  -0.316
REMARK UNBOUND:                -0.327
REMARK SMILES O=c1c(O)c(-c2ccc(O)c(O)c2)oc2cc(O)cc(O)c12
REMARK SMILES IDX 5 1 3 2 2 3 1 4 22 5 20 6 19 7 17 8 16 9 15 10 14 11 6 12
REMARK SMILES IDX 7 13 8 14 9 15 13 16 11 17 10 18 12 20 4 22 21 24 18 26
REMARK H PARENT 10 19 12 21 4 23 21 25 18 27
REMARK Flexibility Score: inf
ROOT
ATOM      1  C   UNL     1      16.927 -43.751  28.832  1.00  0.00     0.180 A 
ATOM      2  C   UNL     1      17.193 -44.574  27.724  1.00  0.00     0.208 A 
ATOM      3  C   UNL     1      17.701 -43.993  26.550  1.00  0.00     0.238 A 
ATOM      4  O   UNL     1      17.885 -44.726  25.544  1.00  0.00    -0.285 OA
ATOM      5  C   UNL     1      17.951 -42.600  26.505  1.00  0.00     0.111 A 
ATOM      6  C   UNL     1      18.501 -41.911  25.382  1.00  0.00     0.134 A 
ATOM      7  C   UNL     1      18.585 -40.514  25.402  1.00  0.00     0.093 A 
ATOM      8  C   UNL     1      18.197 -39.785  26.527  1.00  0.00     0.123 A 
ATOM      9  C   UNL     1      17.713 -40.453  27.652  1.00  0.00     0.094 A 
ATOM     10  C   UNL     1      17.585 -41.844  27.649  1.00  0.00     0.146 A 
ATOM     11  O   UNL     1      17.110 -42.440  28.736  1.00  0.00    -0.452 OA
ENDROOT
BRANCH   1  12
ATOM     12  C   UNL     1      16.415 -44.295  30.110  1.00  0.00     0.025 A 
ATOM     13  C   UNL     1      15.043 -44.506  30.318  1.00  0.00     0.016 A 
ATOM     14  C   UNL     1      14.586 -45.042  31.523  1.00  0.00     0.051 A 
ATOM     15  C   UNL     1      15.485 -45.390  32.538  1.00  0.00     0.157 A 
ATOM     16  C   UNL     1      17.321 -44.664  31.117  1.00  0.00     0.062 A 
ATOM     17  C   UNL     1      16.873 -45.203  32.330  1.00  0.00     0.158 A 
BRANCH  15  18
ATOM     18  O   UNL     1      14.963 -45.918  33.720  1.00  0.00    -0.504 OA
ATOM     19  H   UNL     1      15.494 -46.027  34.572  1.00  0.00     0.293 HD
ENDBRANCH  15  18
BRANCH  17  20
ATOM     20  O   UNL     1      17.830 -45.535  33.289  1.00  0.00    -0.504 OA
ATOM     21  H   UNL     1      17.702 -46.251  33.991  1.00  0.00     0.293 HD
ENDBRANCH  17  20
ENDBRANCH   1  12
BRANCH   2  22
ATOM     22  O   UNL     1      16.918 -45.943  27.782  1.00  0.00    -0.502 OA
ATOM     23  H   UNL     1      17.076 -46.495  28.618  1.00  0.00     0.293 HD
ENDBRANCH   2  22
BRANCH   6  24
ATOM     24  O   UNL     1      19.003 -42.551  24.245  1.00  0.00    -0.507 OA
ATOM     25  H   UNL     1      19.592 -43.370  24.257  1.00  0.00     0.293 HD
ENDBRANCH   6  24
BRANCH   8  26
ATOM     26  O   UNL     1      18.309 -38.397  26.517  1.00  0.00    -0.508 OA
ATOM     27  H   UNL     1      17.503 -37.800  26.666  1.00  0.00     0.293 HD
ENDBRANCH   8  26
TORSDOF 6
ENDMDL
MODEL 4
REMARK VINA RESULT:    -6.836      5.030      7.553
REMARK INTER + INTRA:          -8.562
REMARK INTER:                  -8.231
REMARK INTRA:                  -0.331
REMARK UNBOUND:                -0.327
REMARK SMILES O=c1c(O)c(-c2ccc(O)c(O)c2)oc2cc(O)cc(O)c12
REMARK SMILES IDX 5 1 3 2 2 3 1 4 22 5 20 6 19 7 17 8 16 9 15 10 14 11 6 12
REMARK SMILES IDX 7 13 8 14 9 15 13 16 11 17 10 18 12 20 4 22 21 24 18 26
REMARK H PARENT 10 19 12 21 4 23 21 25 18 27
REMARK Flexibility Score: inf
ROOT
ATOM      1  C   UNL     1      12.793 -44.727  29.168  1.00  0.00     0.180 A 
ATOM      2  C   UNL     1      12.360 -44.117  30.358  1.00  0.00     0.208 A 
ATOM      3  C   UNL     1      13.316 -43.733  31.313  1.00  0.00     0.238 A 
ATOM      4  O   UNL     1      12.919 -43.237  32.400  1.00  0.00    -0.285 OA
ATOM      5  C   UNL     1      14.692 -43.949  31.058  1.00  0.00     0.111 A 
ATOM      6  C   UNL     1      15.749 -43.563  31.937  1.00  0.00     0.134 A 
ATOM      7  C   UNL     1      17.064 -43.942  31.644  1.00  0.00     0.093 A 
ATOM      8  C   UNL     1      17.369 -44.637  30.474  1.00  0.00     0.123 A 
ATOM      9  C   UNL     1      16.351 -44.968  29.579  1.00  0.00     0.094 A 
ATOM     10  C   UNL     1      15.025 -44.633  29.861  1.00  0.00     0.146 A 
ATOM     11  O   UNL     1      14.085 -44.976  28.988  1.00  0.00    -0.452 OA
ENDROOT
BRANCH   1  12
ATOM     12  C   UNL     1      11.847 -45.137  28.105  1.00  0.00     0.025 A 
ATOM     13  C   UNL     1      11.498 -44.265  27.062  1.00  0.00     0.016 A 
ATOM     14  C   UNL     1      10.623 -44.683  26.057  1.00  0.00     0.051 A 
ATOM     15  C   UNL     1      10.090 -45.977  26.064  1.00  0.00     0.157 A 
ATOM     16  C   UNL     1      11.333 -46.443  28.103  1.00  0.00     0.062 A 
ATOM     17  C   UNL     1      10.455 -46.871  27.100  1.00  0.00     0.158 A 
BRANCH  15  18
ATOM     18  O   UNL     1       9.218 -46.330  25.033  1.00  0.00    -0.504 OA
ATOM     19  H   UNL     1       8.390 -46.893  25.162  1.00  0.00     0.293 HD
ENDBRANCH  15  18
BRANCH  17  20
ATOM     20  O   UNL     1       9.973 -48.180  27.169  1.00  0.00    -0.504 OA
ATOM     21  H   UNL     1       9.031 -48.421  27.443  1.00  0.00     0.293 HD
ENDBRANCH  17  20
ENDBRANCH   1  12
BRANCH   2  22
ATOM     22  O   UNL     1      10.996 -43.933  30.598  1.00  0.00    -0.502 OA
ATOM     23  H   UNL     1      10.649 -43.332  31.336  1.00  0.00     0.293 HD
ENDBRANCH   2  22
BRANCH   6  24
ATOM     24  O   UNL     1      15.564 -42.789  33.086  1.00  0.00    -0.507 OA
ATOM     25  H   UNL     1      15.921 -41.854  33.214  1.00  0.00     0.293 HD
ENDBRANCH   6  24
BRANCH   8  26
ATOM     26  O   UNL     1      18.691 -44.985  30.207  1.00  0.00    -0.508 OA
ATOM     27  H   UNL     1      18.926 -45.663  29.491  1.00  0.00     0.293 HD
ENDBRANCH   8  26
TORSDOF 6
ENDMDL
MODEL 5
REMARK VINA RESULT:    -6.712      3.978      6.538
REMARK INTER + INTRA:          -8.413
REMARK INTER:                  -8.102
REMARK INTRA:                  -0.311
REMARK UNBOUND:                -0.327
REMARK SMILES O=c1c(O)c(-c2ccc(O)c(O)c2)oc2cc(O)cc(O)c12
REMARK SMILES IDX 5 1 3 2 2 3 1 4 22 5 20 6 19 7 17 8 16 9 15 10 14 11 6 12
REMARK SMILES IDX 7 13 8 14 9 15 13 16 11 17 10 18 12 20 4 22 21 24 18 26
REMARK H PARENT 10 19 12 21 4 23 21 25 18 27
REMARK Flexibility Score: inf
ROOT
ATOM      1  C   UNL     1      15.208 -44.332  31.389  1.00  0.00     0.180 A 
ATOM      2  C   UNL     1      14.522 -43.272  32.006  1.00  0.00     0.208 A 
ATOM      3  C   UNL     1      13.207 -42.987  31.604  1.00  0.00     0.238 A 
ATOM      4  O   UNL     1      12.617 -42.003  32.122  1.00  0.00    -0.285 OA
ATOM      5  C   UNL     1      12.590 -43.775  30.603  1.00  0.00     0.111 A 
ATOM      6  C   UNL     1      11.248 -43.601  30.148  1.00  0.00     0.134 A 
ATOM      7  C   UNL     1      10.784 -44.353  29.062  1.00  0.00     0.093 A 
ATOM      8  C   UNL     1      11.591 -45.318  28.457  1.00  0.00     0.123 A 
ATOM      9  C   UNL     1      12.884 -45.537  28.933  1.00  0.00     0.094 A 
ATOM     10  C   UNL     1      13.387 -44.777  29.991  1.00  0.00     0.146 A 
ATOM     11  O   UNL     1      14.626 -45.010  30.407  1.00  0.00    -0.452 OA
ENDROOT
BRANCH   1  12
ATOM     12  C   UNL     1      16.587 -44.708  31.776  1.00  0.00     0.025 A 
ATOM     13  C   UNL     1      16.840 -45.488  32.915  1.00  0.00     0.016 A 
ATOM     14  C   UNL     1      18.147 -45.850  33.246  1.00  0.00     0.051 A 
ATOM     15  C   UNL     1      19.224 -45.455  32.444  1.00  0.00     0.157 A 
ATOM     16  C   UNL     1      17.662 -44.329  30.957  1.00  0.00     0.062 A 
ATOM     17  C   UNL     1      18.978 -44.687  31.280  1.00  0.00     0.158 A 
BRANCH  15  18
ATOM     18  O   UNL     1      20.506 -45.847  32.833  1.00  0.00    -0.504 OA
ATOM     19  H   UNL     1      20.816 -45.892  33.793  1.00  0.00     0.293 HD
ENDBRANCH  15  18
BRANCH  17  20
ATOM     20  O   UNL     1      19.998 -44.265  30.426  1.00  0.00    -0.504 OA
ATOM     21  H   UNL     1      20.100 -43.316  30.094  1.00  0.00     0.293 HD
ENDBRANCH  17  20
ENDBRANCH   1  12
BRANCH   2  22
ATOM     22  O   UNL     1      15.158 -42.493  32.977  1.00  0.00    -0.502 OA
ATOM     23  H   UNL     1      15.010 -41.494  33.055  1.00  0.00     0.293 HD
ENDBRANCH   2  22
BRANCH   6  24
ATOM     24  O   UNL     1      10.330 -42.730  30.741  1.00  0.00    -0.507 OA
ATOM     25  H   UNL     1       9.623 -42.211  30.242  1.00  0.00     0.293 HD
ENDBRANCH   6  24
BRANCH   8  26
ATOM     26  O   UNL     1      11.091 -46.059  27.389  1.00  0.00    -0.508 OA
ATOM     27  H   UNL     1      11.125 -45.708  26.439  1.00  0.00     0.293 HD
ENDBRANCH   8  26
TORSDOF 6
ENDMDL
MODEL 6
REMARK VINA RESULT:    -6.694      3.667      6.325
REMARK INTER + INTRA:          -8.391
REMARK INTER:                  -8.107
REMARK INTRA:                  -0.283
REMARK UNBOUND:                -0.327
REMARK SMILES O=c1c(O)c(-c2ccc(O)c(O)c2)oc2cc(O)cc(O)c12
REMARK SMILES IDX 5 1 3 2 2 3 1 4 22 5 20 6 19 7 17 8 16 9 15 10 14 11 6 12
REMARK SMILES IDX 7 13 8 14 9 15 13 16 11 17 10 18 12 20 4 22 21 24 18 26
REMARK H PARENT 10 19 12 21 4 23 21 25 18 27
REMARK Flexibility Score: inf
ROOT
ATOM      1  C   UNL     1      16.395 -43.708  31.661  1.00  0.00     0.180 A 
ATOM      2  C   UNL     1      15.195 -43.411  32.329  1.00  0.00     0.208 A 
ATOM      3  C   UNL     1      14.036 -43.170  31.573  1.00  0.00     0.238 A 
ATOM      4  O   UNL     1      12.977 -42.851  32.174  1.00  0.00    -0.285 OA
ATOM      5  C   UNL     1      14.089 -43.244  30.160  1.00  0.00     0.111 A 
ATOM      6  C   UNL     1      12.968 -43.057  29.296  1.00  0.00     0.134 A 
ATOM      7  C   UNL     1      13.162 -43.025  27.910  1.00  0.00     0.093 A 
ATOM      8  C   UNL     1      14.424 -43.236  27.354  1.00  0.00     0.123 A 
ATOM      9  C   UNL     1      15.516 -43.478  28.188  1.00  0.00     0.094 A 
ATOM     10  C   UNL     1      15.360 -43.481  29.575  1.00  0.00     0.146 A 
ATOM     11  O   UNL     1      16.427 -43.705  30.333  1.00  0.00    -0.452 OA
ENDROOT
BRANCH   1  12
ATOM     12  C   UNL     1      17.650 -43.998  32.390  1.00  0.00     0.025 A 
ATOM     13  C   UNL     1      18.126 -45.311  32.534  1.00  0.00     0.016 A 
ATOM     14  C   UNL     1      19.325 -45.557  33.205  1.00  0.00     0.051 A 
ATOM     15  C   UNL     1      20.079 -44.503  33.733  1.00  0.00     0.157 A 
ATOM     16  C   UNL     1      18.415 -42.937  32.898  1.00  0.00     0.062 A 
ATOM     17  C   UNL     1      19.620 -43.173  33.573  1.00  0.00     0.158 A 
BRANCH  15  18
ATOM     18  O   UNL     1      21.267 -44.817  34.396  1.00  0.00    -0.504 OA
ATOM     19  H   UNL     1      21.726 -45.715  34.336  1.00  0.00     0.293 HD
ENDBRANCH  15  18
BRANCH  17  20
ATOM     20  O   UNL     1      20.321 -42.070  34.062  1.00  0.00    -0.504 OA
ATOM     21  H   UNL     1      20.934 -41.495  33.500  1.00  0.00     0.293 HD
ENDBRANCH  17  20
ENDBRANCH   1  12
BRANCH   2  22
ATOM     22  O   UNL     1      15.170 -43.321  33.723  1.00  0.00    -0.502 OA
ATOM     23  H   UNL     1      15.450 -44.088  34.323  1.00  0.00     0.293 HD
ENDBRANCH   2  22
BRANCH   6  24
ATOM     24  O   UNL     1      11.650 -42.929  29.745  1.00  0.00    -0.507 OA
ATOM     25  H   UNL     1      11.220 -42.061  30.026  1.00  0.00     0.293 HD
ENDBRANCH   6  24
BRANCH   8  26
ATOM     26  O   UNL     1      14.577 -43.212  25.970  1.00  0.00    -0.508 OA
ATOM     27  H   UNL     1      15.337 -42.706  25.530  1.00  0.00     0.293 HD
ENDBRANCH   8  26
TORSDOF 6
ENDMDL
MODEL 7
REMARK VINA RESULT:    -6.658      1.676      3.077
REMARK INTER + INTRA:          -8.347
REMARK INTER:                  -8.025
REMARK INTRA:                  -0.322
REMARK UNBOUND:                -0.327
REMARK SMILES O=c1c(O)c(-c2ccc(O)c(O)c2)oc2cc(O)cc(O)c12
REMARK SMILES IDX 5 1 3 2 2 3 1 4 22 5 20 6 19 7 17 8 16 9 15 10 14 11 6 12
REMARK SMILES IDX 7 13 8 14 9 15 13 16 11 17 10 18 12 20 4 22 21 24 18 26
REMARK H PARENT 10 19 12 21 4 23 21 25 18 27
REMARK Flexibility Score: inf
ROOT
ATOM      1  C   UNL     1      17.583 -42.832  28.807  1.00  0.00     0.180 A 
ATOM      2  C   UNL     1      16.280 -43.270  29.102  1.00  0.00     0.208 A 
ATOM      3  C   UNL     1      16.067 -44.048  30.252  1.00  0.00     0.238 A 
ATOM      4  O   UNL     1      14.908 -44.482  30.481  1.00  0.00    -0.285 OA
ATOM      5  C   UNL     1      17.155 -44.364  31.100  1.00  0.00     0.111 A 
ATOM      6  C   UNL     1      17.048 -45.112  32.311  1.00  0.00     0.134 A 
ATOM      7  C   UNL     1      18.209 -45.477  33.003  1.00  0.00     0.093 A 
ATOM      8  C   UNL     1      19.468 -45.067  32.563  1.00  0.00     0.123 A 
ATOM      9  C   UNL     1      19.580 -44.286  31.412  1.00  0.00     0.094 A 
ATOM     10  C   UNL     1      18.442 -43.937  30.681  1.00  0.00     0.146 A 
ATOM     11  O   UNL     1      18.593 -43.201  29.586  1.00  0.00    -0.452 OA
ENDROOT
BRANCH   1  12
ATOM     12  C   UNL     1      17.882 -41.989  27.628  1.00  0.00     0.025 A 
ATOM     13  C   UNL     1      18.223 -42.556  26.390  1.00  0.00     0.016 A 
ATOM     14  C   UNL     1      18.476 -41.741  25.286  1.00  0.00     0.051 A 
ATOM     15  C   UNL     1      18.382 -40.348  25.388  1.00  0.00     0.157 A 
ATOM     16  C   UNL     1      17.764 -40.594  27.728  1.00  0.00     0.062 A 
ATOM     17  C   UNL     1      18.016 -39.766  26.626  1.00  0.00     0.158 A 
BRANCH  15  18
ATOM     18  O   UNL     1      18.652 -39.590  24.248  1.00  0.00    -0.504 OA
ATOM     19  H   UNL     1      19.116 -38.693  24.263  1.00  0.00     0.293 HD
ENDBRANCH  15  18
BRANCH  17  20
ATOM     20  O   UNL     1      17.892 -38.388  26.803  1.00  0.00    -0.504 OA
ATOM     21  H   UNL     1      18.381 -37.863  27.515  1.00  0.00     0.293 HD
ENDBRANCH  17  20
ENDBRANCH   1  12
BRANCH   2  22
ATOM     22  O   UNL     1      15.224 -42.964  28.239  1.00  0.00    -0.502 OA
ATOM     23  H   UNL     1      14.253 -43.066  28.511  1.00  0.00     0.293 HD
ENDBRANCH   2  22
BRANCH   6  24
ATOM     24  O   UNL     1      15.833 -45.493  32.887  1.00  0.00    -0.507 OA
ATOM     25  H   UNL     1      15.023 -44.897  32.969  1.00  0.00     0.293 HD
ENDBRANCH   6  24
BRANCH   8  26
ATOM     26  O   UNL     1      20.601 -45.436  33.285  1.00  0.00    -0.508 OA
ATOM     27  H   UNL     1      20.543 -45.702  34.261  1.00  0.00     0.293 HD
ENDBRANCH   8  26
TORSDOF 6
ENDMDL
MODEL 8
REMARK VINA RESULT:    -6.557      4.045      5.783
REMARK INTER + INTRA:          -8.225
REMARK INTER:                  -7.977
REMARK INTRA:                  -0.248
REMARK UNBOUND:                -0.327
REMARK SMILES O=c1c(O)c(-c2ccc(O)c(O)c2)oc2cc(O)cc(O)c12
REMARK SMILES IDX 5 1 3 2 2 3 1 4 22 5 20 6 19 7 17 8 16 9 15 10 14 11 6 12
REMARK SMILES IDX 7 13 8 14 9 15 13 16 11 17 10 18 12 20 4 22 21 24 18 26
REMARK H PARENT 10 19 12 21 4 23 21 25 18 27
REMARK Flexibility Score: inf
ROOT
ATOM      1  C   UNL     1      16.960 -44.454  31.230  1.00  0.00     0.180 A 
ATOM      2  C   UNL     1      17.109 -44.775  29.870  1.00  0.00     0.208 A 
ATOM      3  C   UNL     1      15.994 -44.676  29.021  1.00  0.00     0.238 A 
ATOM      4  O   UNL     1      16.120 -45.017  27.816  1.00  0.00    -0.285 OA
ATOM      5  C   UNL     1      14.751 -44.241  29.540  1.00  0.00     0.111 A 
ATOM      6  C   UNL     1      13.565 -44.065  28.763  1.00  0.00     0.134 A 
ATOM      7  C   UNL     1      12.360 -43.756  29.404  1.00  0.00     0.093 A 
ATOM      8  C   UNL     1      12.308 -43.553  30.783  1.00  0.00     0.123 A 
ATOM      9  C   UNL     1      13.472 -43.664  31.544  1.00  0.00     0.094 A 
ATOM     10  C   UNL     1      14.683 -44.007  30.938  1.00  0.00     0.146 A 
ATOM     11  O   UNL     1      15.766 -44.113  31.699  1.00  0.00    -0.452 OA
ENDROOT
BRANCH   1  12
ATOM     12  C   UNL     1      18.094 -44.511  32.180  1.00  0.00     0.025 A 
ATOM     13  C   UNL     1      18.607 -45.736  32.634  1.00  0.00     0.016 A 
ATOM     14  C   UNL     1      19.693 -45.764  33.511  1.00  0.00     0.051 A 
ATOM     15  C   UNL     1      20.297 -44.577  33.942  1.00  0.00     0.157 A 
ATOM     16  C   UNL     1      18.711 -43.319  32.592  1.00  0.00     0.062 A 
ATOM     17  C   UNL     1      19.802 -43.337  33.472  1.00  0.00     0.158 A 
BRANCH  15  18
ATOM     18  O   UNL     1      21.376 -44.675  34.822  1.00  0.00    -0.504 OA
ATOM     19  H   UNL     1      22.017 -45.455  34.844  1.00  0.00     0.293 HD
ENDBRANCH  15  18
BRANCH  17  20
ATOM     20  O   UNL     1      20.357 -42.113  33.848  1.00  0.00    -0.504 OA
ATOM     21  H   UNL     1      19.939 -41.216  33.642  1.00  0.00     0.293 HD
ENDBRANCH  17  20
ENDBRANCH   1  12
BRANCH   2  22
ATOM     22  O   UNL     1      18.340 -45.224  29.384  1.00  0.00    -0.502 OA
ATOM     23  H   UNL     1      18.821 -44.767  28.617  1.00  0.00     0.293 HD
ENDBRANCH   2  22
BRANCH   6  24
ATOM     24  O   UNL     1      13.527 -44.155  27.369  1.00  0.00    -0.507 OA
ATOM     25  H   UNL     1      14.324 -44.348  26.782  1.00  0.00     0.293 HD
ENDBRANCH   6  24
BRANCH   8  26
ATOM     26  O   UNL     1      11.094 -43.231  31.384  1.00  0.00    -0.508 OA
ATOM     27  H   UNL     1      10.766 -43.720  32.209  1.00  0.00     0.293 HD
ENDBRANCH   8  26
TORSDOF 6
ENDMDL
MODEL 9
REMARK VINA RESULT:    -6.399      3.236      6.016
REMARK INTER + INTRA:          -8.036
REMARK INTER:                  -7.709
REMARK INTRA:                  -0.327
REMARK UNBOUND:                -0.327
REMARK SMILES O=c1c(O)c(-c2ccc(O)c(O)c2)oc2cc(O)cc(O)c12
REMARK SMILES IDX 5 1 3 2 2 3 1 4 22 5 20 6 19 7 17 8 16 9 15 10 14 11 6 12
REMARK SMILES IDX 7 13 8 14 9 15 13 16 11 17 10 18 12 20 4 22 21 24 18 26
REMARK H PARENT 10 19 12 21 4 23 21 25 18 27
REMARK Flexibility Score: inf
ROOT
ATOM      1  C   UNL     1      15.356 -44.186  30.474  1.00  0.00     0.180 A 
ATOM      2  C   UNL     1      16.242 -43.491  29.632  1.00  0.00     0.208 A 
ATOM      3  C   UNL     1      17.622 -43.577  29.878  1.00  0.00     0.238 A 
ATOM      4  O   UNL     1      18.407 -42.909  29.155  1.00  0.00    -0.285 OA
ATOM      5  C   UNL     1      18.099 -44.368  30.951  1.00  0.00     0.111 A 
ATOM      6  C   UNL     1      19.478 -44.558  31.267  1.00  0.00     0.134 A 
ATOM      7  C   UNL     1      19.830 -45.255  32.428  1.00  0.00     0.093 A 
ATOM      8  C   UNL     1      18.858 -45.825  33.250  1.00  0.00     0.123 A 
ATOM      9  C   UNL     1      17.508 -45.695  32.918  1.00  0.00     0.094 A 
ATOM     10  C   UNL     1      17.125 -44.975  31.785  1.00  0.00     0.146 A 
ATOM     11  O   UNL     1      15.830 -44.866  31.511  1.00  0.00    -0.452 OA
ENDROOT
BRANCH   1  12
ATOM     12  C   UNL     1      13.891 -44.165  30.263  1.00  0.00     0.025 A 
ATOM     13  C   UNL     1      13.247 -45.152  29.501  1.00  0.00     0.016 A 
ATOM     14  C   UNL     1      11.861 -45.124  29.337  1.00  0.00     0.051 A 
ATOM     15  C   UNL     1      11.089 -44.122  29.936  1.00  0.00     0.157 A 
ATOM     16  C   UNL     1      13.118 -43.171  30.884  1.00  0.00     0.062 A 
ATOM     17  C   UNL     1      11.726 -43.135  30.725  1.00  0.00     0.158 A 
BRANCH  15  18
ATOM     18  O   UNL     1       9.709 -44.149  29.729  1.00  0.00    -0.504 OA
ATOM     19  H   UNL     1       9.130 -43.324  29.672  1.00  0.00     0.293 HD
ENDBRANCH  15  18
BRANCH  17  20
ATOM     20  O   UNL     1      11.024 -42.111  31.362  1.00  0.00    -0.504 OA
ATOM     21  H   UNL     1      10.022 -42.111  31.496  1.00  0.00     0.293 HD
ENDBRANCH  17  20
ENDBRANCH   1  12
BRANCH   2  22
ATOM     22  O   UNL     1      15.748 -42.698  28.592  1.00  0.00    -0.502 OA
ATOM     23  H   UNL     1      16.103 -42.760  27.645  1.00  0.00     0.293 HD
ENDBRANCH   2  22
BRANCH   6  24
ATOM     24  O   UNL     1      20.531 -44.109  30.464  1.00  0.00    -0.507 OA
ATOM     25  H   UNL     1      20.430 -43.762  29.523  1.00  0.00     0.293 HD
ENDBRANCH   6  24
BRANCH   8  26
ATOM     26  O   UNL     1      19.245 -46.526  34.389  1.00  0.00    -0.508 OA
ATOM     27  H   UNL     1      19.414 -46.053  35.270  1.00  0.00     0.293 HD
ENDBRANCH   8  26
TORSDOF 6
ENDMDL
