MODEL 1
REMARK VINA RESULT:    -4.678      0.000      0.000
REMARK INTER + INTRA:          -5.118
REMARK INTER:                  -5.088
REMARK INTRA:                  -0.030
REMARK UNBOUND:                -0.030
REMARK SMILES O=C([O-])c1ccc(O)cc1
REMARK SMILES IDX 4 1 5 2 10 3 6 4 9 5 7 6 2 7 1 8 3 9 8 10
REMARK H PARENT 8 11
REMARK Flexibility Score: inf
ROOT
ATOM      1  C   UNL     1      -7.469 -10.118  28.318  1.00  0.00    -0.003 A 
ATOM      2  C   UNL     1      -7.099  -9.407  29.474  1.00  0.00     0.014 A 
ATOM      3  C   UNL     1      -8.792 -10.015  27.848  1.00  0.00     0.014 A 
ATOM      4  C   UNL     1      -8.033  -8.611  30.145  1.00  0.00     0.047 A 
ATOM      5  C   UNL     1      -9.722  -9.218  28.522  1.00  0.00     0.047 A 
ATOM      6  C   UNL     1      -9.344  -8.514  29.673  1.00  0.00     0.115 A 
ENDROOT
BRANCH   1   7
ATOM      7  C   UNL     1      -6.479 -10.959  27.609  1.00  0.00     0.071 C 
ATOM      8  O   UNL     1      -6.265 -10.797  26.378  1.00  0.00    -0.545 OA
ATOM      9  O   UNL     1      -5.772 -11.942  28.292  1.00  0.00    -0.545 OA
ENDBRANCH   1   7
BRANCH   6  10
ATOM     10  O   UNL     1     -10.263  -7.716  30.352  1.00  0.00    -0.508 OA
ATOM     11  H   UNL     1     -11.260  -7.878  30.277  1.00  0.00     0.293 HD
ENDBRANCH   6  10
TORSDOF 2
ENDMDL
MODEL 2
REMARK VINA RESULT:    -4.674      0.051      1.533
REMARK INTER + INTRA:          -5.113
REMARK INTER:                  -5.083
REMARK INTRA:                  -0.030
REMARK UNBOUND:                -0.030
REMARK SMILES O=C([O-])c1ccc(O)cc1
REMARK SMILES IDX 4 1 5 2 10 3 6 4 9 5 7 6 2 7 1 8 3 9 8 10
REMARK H PARENT 8 11
REMARK Flexibility Score: inf
ROOT
ATOM      1  C   UNL     1      -7.446 -10.112  28.333  1.00  0.00    -0.003 A 
ATOM      2  C   UNL     1      -8.776 -10.003  27.888  1.00  0.00     0.014 A 
ATOM      3  C   UNL     1      -7.051  -9.401  29.482  1.00  0.00     0.014 A 
ATOM      4  C   UNL     1      -9.689  -9.200  28.578  1.00  0.00     0.047 A 
ATOM      5  C   UNL     1      -7.967  -8.599  30.168  1.00  0.00     0.047 A 
ATOM      6  C   UNL     1      -9.290  -8.497  29.717  1.00  0.00     0.115 A 
ENDROOT
BRANCH   1   7
ATOM      7  C   UNL     1      -6.481 -10.963  27.602  1.00  0.00     0.071 C 
ATOM      8  O   UNL     1      -6.295 -10.805  26.366  1.00  0.00    -0.545 OA
ATOM      9  O   UNL     1      -5.766 -11.950  28.270  1.00  0.00    -0.545 OA
ENDBRANCH   1   7
BRANCH   6  10
ATOM     10  O   UNL     1     -10.212  -7.701  30.394  1.00  0.00    -0.508 OA
ATOM     11  H   UNL     1     -11.011  -8.104  30.869  1.00  0.00     0.293 HD
ENDBRANCH   6  10
TORSDOF 2
ENDMDL
MODEL 3
REMARK VINA RESULT:    -4.584      2.277      3.158
REMARK INTER + INTRA:          -5.016
REMARK INTER:                  -4.980
REMARK INTRA:                  -0.036
REMARK UNBOUND:                -0.030
REMARK SMILES O=C([O-])c1ccc(O)cc1
REMARK SMILES IDX 4 1 5 2 10 3 6 4 9 5 7 6 2 7 1 8 3 9 8 10
REMARK H PARENT 8 11
REMARK Flexibility Score: inf
ROOT
ATOM      1  C   UNL     1      -7.144  -8.844  30.414  1.00  0.00    -0.003 A 
ATOM      2  C   UNL     1      -8.271  -8.127  30.856  1.00  0.00     0.014 A 
ATOM      3  C   UNL     1      -7.270  -9.693  29.299  1.00  0.00     0.014 A 
ATOM      4  C   UNL     1      -9.497  -8.259  30.197  1.00  0.00     0.047 A 
ATOM      5  C   UNL     1      -8.498  -9.822  28.643  1.00  0.00     0.047 A 
ATOM      6  C   UNL     1      -9.615  -9.104  29.090  1.00  0.00     0.115 A 
ENDROOT
BRANCH   1   7
ATOM      7  C   UNL     1      -5.848  -8.702  31.113  1.00  0.00     0.071 C 
ATOM      8  O   UNL     1      -4.847  -9.377  30.749  1.00  0.00    -0.545 OA
ATOM      9  O   UNL     1      -5.716  -7.823  32.181  1.00  0.00    -0.545 OA
ENDBRANCH   1   7
BRANCH   6  10
ATOM     10  O   UNL     1     -10.843  -9.225  28.444  1.00  0.00    -0.508 OA
ATOM     11  H   UNL     1     -10.993  -9.916  27.718  1.00  0.00     0.293 HD
ENDBRANCH   6  10
TORSDOF 2
ENDMDL
MODEL 4
REMARK VINA RESULT:    -4.167      1.559      2.112
REMARK INTER + INTRA:          -4.562
REMARK INTER:                  -4.528
REMARK INTRA:                  -0.034
REMARK UNBOUND:                -0.030
REMARK SMILES O=C([O-])c1ccc(O)cc1
REMARK SMILES IDX 4 1 5 2 10 3 6 4 9 5 7 6 2 7 1 8 3 9 8 10
REMARK H PARENT 8 11
REMARK Flexibility Score: inf
ROOT
ATOM      1  C   UNL     1      -8.247  -9.588  28.849  1.00  0.00    -0.003 A 
ATOM      2  C   UNL     1      -7.102  -9.423  29.650  1.00  0.00     0.014 A 
ATOM      3  C   UNL     1      -9.442  -8.949  29.229  1.00  0.00     0.014 A 
ATOM      4  C   UNL     1      -7.154  -8.637  30.805  1.00  0.00     0.047 A 
ATOM      5  C   UNL     1      -9.489  -8.165  30.385  1.00  0.00     0.047 A 
ATOM      6  C   UNL     1      -8.344  -8.006  31.176  1.00  0.00     0.115 A 
ENDROOT
BRANCH   1   7
ATOM      7  C   UNL     1      -8.190 -10.419  27.627  1.00  0.00     0.071 C 
ATOM      8  O   UNL     1      -7.344 -11.347  27.522  1.00  0.00    -0.545 OA
ATOM      9  O   UNL     1      -9.070 -10.188  26.576  1.00  0.00    -0.545 OA
ENDBRANCH   1   7
BRANCH   6  10
ATOM     10  O   UNL     1      -8.379  -7.227  32.330  1.00  0.00    -0.508 OA
ATOM     11  H   UNL     1      -8.855  -7.542  33.168  1.00  0.00     0.293 HD
ENDBRANCH   6  10
TORSDOF 2
ENDMDL
MODEL 5
REMARK VINA RESULT:    -4.163      1.152      1.668
REMARK INTER + INTRA:          -4.558
REMARK INTER:                  -4.523
REMARK INTRA:                  -0.035
REMARK UNBOUND:                -0.030
REMARK SMILES O=C([O-])c1ccc(O)cc1
REMARK SMILES IDX 4 1 5 2 10 3 6 4 9 5 7 6 2 7 1 8 3 9 8 10
REMARK H PARENT 8 11
REMARK Flexibility Score: inf
ROOT
ATOM      1  C   UNL     1      -6.892 -10.235  29.542  1.00  0.00    -0.003 A 
ATOM      2  C   UNL     1      -6.797  -9.229  30.522  1.00  0.00     0.014 A 
ATOM      3  C   UNL     1      -8.012 -10.252  28.689  1.00  0.00     0.014 A 
ATOM      4  C   UNL     1      -7.802  -8.264  30.644  1.00  0.00     0.047 A 
ATOM      5  C   UNL     1      -9.013  -9.285  28.815  1.00  0.00     0.047 A 
ATOM      6  C   UNL     1      -8.910  -8.287  29.794  1.00  0.00     0.115 A 
ENDROOT
BRANCH   1   7
ATOM      7  C   UNL     1      -5.829 -11.255  29.414  1.00  0.00     0.071 C 
ATOM      8  O   UNL     1      -5.032 -11.473  30.366  1.00  0.00    -0.545 OA
ATOM      9  O   UNL     1      -5.692 -11.987  28.240  1.00  0.00    -0.545 OA
ENDBRANCH   1   7
BRANCH   6  10
ATOM     10  O   UNL     1      -9.902  -7.318  29.928  1.00  0.00    -0.508 OA
ATOM     11  H   UNL     1     -10.737  -7.489  30.477  1.00  0.00     0.293 HD
ENDBRANCH   6  10
TORSDOF 2
ENDMDL
MODEL 6
REMARK VINA RESULT:    -4.078      1.441      4.116
REMARK INTER + INTRA:          -4.465
REMARK INTER:                  -4.436
REMARK INTRA:                  -0.029
REMARK UNBOUND:                -0.030
REMARK SMILES O=C([O-])c1ccc(O)cc1
REMARK SMILES IDX 4 1 5 2 10 3 6 4 9 5 7 6 2 7 1 8 3 9 8 10
REMARK H PARENT 8 11
REMARK Flexibility Score: inf
ROOT
ATOM      1  C   UNL     1      -8.665  -9.219  30.027  1.00  0.00    -0.003 A 
ATOM      2  C   UNL     1      -7.474  -9.937  29.812  1.00  0.00     0.014 A 
ATOM      3  C   UNL     1      -9.597  -9.115  28.977  1.00  0.00     0.014 A 
ATOM      4  C   UNL     1      -7.222 -10.535  28.573  1.00  0.00     0.047 A 
ATOM      5  C   UNL     1      -9.341  -9.714  27.741  1.00  0.00     0.047 A 
ATOM      6  C   UNL     1      -8.152 -10.427  27.536  1.00  0.00     0.115 A 
ENDROOT
BRANCH   1   7
ATOM      7  C   UNL     1      -8.930  -8.587  31.338  1.00  0.00     0.071 C 
ATOM      8  O   UNL     1      -9.982  -8.856  31.978  1.00  0.00    -0.545 OA
ATOM      9  O   UNL     1      -8.021  -7.687  31.883  1.00  0.00    -0.545 OA
ENDBRANCH   1   7
BRANCH   6  10
ATOM     10  O   UNL     1      -7.886 -11.029  26.308  1.00  0.00    -0.508 OA
ATOM     11  H   UNL     1      -7.008 -11.503  26.130  1.00  0.00     0.293 HD
ENDBRANCH   6  10
TORSDOF 2
ENDMDL
MODEL 7
REMARK VINA RESULT:    -3.968     13.853     14.626
REMARK INTER + INTRA:          -4.345
REMARK INTER:                  -4.312
REMARK INTRA:                  -0.033
REMARK UNBOUND:                -0.030
REMARK SMILES O=C([O-])c1ccc(O)cc1
REMARK SMILES IDX 4 1 5 2 10 3 6 4 9 5 7 6 2 7 1 8 3 9 8 10
REMARK H PARENT 8 11
REMARK Flexibility Score: inf
ROOT
ATOM      1  C   UNL     1     -14.815 -19.045  20.174  1.00  0.00    -0.003 A 
ATOM      2  C   UNL     1     -15.063 -18.480  21.438  1.00  0.00     0.014 A 
ATOM      3  C   UNL     1     -14.619 -20.435  20.074  1.00  0.00     0.014 A 
ATOM      4  C   UNL     1     -15.111 -19.290  22.577  1.00  0.00     0.047 A 
ATOM      5  C   UNL     1     -14.667 -21.240  21.216  1.00  0.00     0.047 A 
ATOM      6  C   UNL     1     -14.915 -20.669  22.471  1.00  0.00     0.115 A 
ENDROOT
BRANCH   1   7
ATOM      7  C   UNL     1     -14.765 -18.186  18.970  1.00  0.00     0.071 C 
ATOM      8  O   UNL     1     -13.963 -18.443  18.032  1.00  0.00    -0.545 OA
ATOM      9  O   UNL     1     -15.603 -17.083  18.855  1.00  0.00    -0.545 OA
ENDBRANCH   1   7
BRANCH   6  10
ATOM     10  O   UNL     1     -14.966 -21.462  23.615  1.00  0.00    -0.508 OA
ATOM     11  H   UNL     1     -15.307 -22.416  23.583  1.00  0.00     0.293 HD
ENDBRANCH   6  10
TORSDOF 2
ENDMDL
MODEL 8
REMARK VINA RESULT:    -3.962      1.747      2.570
REMARK INTER + INTRA:          -4.339
REMARK INTER:                  -4.309
REMARK INTRA:                  -0.030
REMARK UNBOUND:                -0.030
REMARK SMILES O=C([O-])c1ccc(O)cc1
REMARK SMILES IDX 4 1 5 2 10 3 6 4 9 5 7 6 2 7 1 8 3 9 8 10
REMARK H PARENT 8 11
REMARK Flexibility Score: inf
ROOT
ATOM      1  C   UNL     1      -6.966 -10.429  29.713  1.00  0.00    -0.003 A 
ATOM      2  C   UNL     1      -7.344 -10.554  28.364  1.00  0.00     0.014 A 
ATOM      3  C   UNL     1      -7.888  -9.897  30.634  1.00  0.00     0.014 A 
ATOM      4  C   UNL     1      -8.618 -10.155  27.947  1.00  0.00     0.047 A 
ATOM      5  C   UNL     1      -9.159  -9.498  30.212  1.00  0.00     0.047 A 
ATOM      6  C   UNL     1      -9.528  -9.627  28.866  1.00  0.00     0.115 A 
ENDROOT
BRANCH   1   7
ATOM      7  C   UNL     1      -5.618 -10.854  30.153  1.00  0.00     0.071 C 
ATOM      8  O   UNL     1      -5.194 -12.012  29.892  1.00  0.00    -0.545 OA
ATOM      9  O   UNL     1      -4.801  -9.981  30.862  1.00  0.00    -0.545 OA
ENDBRANCH   1   7
BRANCH   6  10
ATOM     10  O   UNL     1     -10.792  -9.232  28.435  1.00  0.00    -0.508 OA
ATOM     11  H   UNL     1     -10.912  -8.624  27.633  1.00  0.00     0.293 HD
ENDBRANCH   6  10
TORSDOF 2
ENDMDL
MODEL 9
REMARK VINA RESULT:    -3.889      1.378      4.094
REMARK INTER + INTRA:          -4.260
REMARK INTER:                  -4.225
REMARK INTRA:                  -0.035
REMARK UNBOUND:                -0.030
REMARK SMILES O=C([O-])c1ccc(O)cc1
REMARK SMILES IDX 4 1 5 2 10 3 6 4 9 5 7 6 2 7 1 8 3 9 8 10
REMARK H PARENT 8 11
REMARK Flexibility Score: inf
ROOT
ATOM      1  C   UNL     1      -8.157  -9.770  28.923  1.00  0.00    -0.003 A 
ATOM      2  C   UNL     1      -7.269  -9.807  30.015  1.00  0.00     0.014 A 
ATOM      3  C   UNL     1      -7.912 -10.605  27.817  1.00  0.00     0.014 A 
ATOM      4  C   UNL     1      -6.161 -10.660  29.997  1.00  0.00     0.047 A 
ATOM      5  C   UNL     1      -6.803 -11.456  27.804  1.00  0.00     0.047 A 
ATOM      6  C   UNL     1      -5.925 -11.486  28.896  1.00  0.00     0.115 A 
ENDROOT
BRANCH   1   7
ATOM      7  C   UNL     1      -9.329  -8.868  28.944  1.00  0.00     0.071 C 
ATOM      8  O   UNL     1     -10.265  -9.014  28.113  1.00  0.00    -0.545 OA
ATOM      9  O   UNL     1      -9.413  -7.844  29.881  1.00  0.00    -0.545 OA
ENDBRANCH   1   7
BRANCH   6  10
ATOM     10  O   UNL     1      -4.816 -12.330  28.893  1.00  0.00    -0.508 OA
ATOM     11  H   UNL     1      -4.803 -13.185  28.349  1.00  0.00     0.293 HD
ENDBRANCH   6  10
TORSDOF 2
ENDMDL
