MODEL 1
REMARK VINA RESULT:    -3.410      0.000      0.000
REMARK INTER + INTRA:          -3.709
REMARK INTER:                  -3.709
REMARK INTRA:                   0.000
REMARK UNBOUND:                 0.000
REMARK SMILES [NH3+]CC(=O)[O-]
REMARK SMILES IDX 2 1 1 2 3 6 4 7 5 8
REMARK H PARENT 1 3 1 4 1 5
REMARK Flexibility Score: inf
ROOT
ATOM      1  C   UNL     1      -0.197  -3.327   1.795  1.00  0.00     0.312 C 
ENDROOT
BRANCH   1   2
ATOM      2  N   UNL     1      -1.153  -2.485   2.512  1.00  0.00    -0.353 N 
ATOM      3  H   UNL     1      -1.313  -2.864   3.474  1.00  0.00     0.344 HD
ATOM      4  H   UNL     1      -0.766  -1.517   2.589  1.00  0.00     0.344 HD
ATOM      5  H   UNL     1      -2.060  -2.448   1.991  1.00  0.00     0.344 HD
ENDBRANCH   1   2
BRANCH   1   6
ATOM      6  C   UNL     1       1.206  -2.867   2.044  1.00  0.00     0.096 C 
ATOM      7  O   UNL     1       1.809  -3.218   3.092  1.00  0.00    -0.544 OA
ATOM      8  O   UNL     1       1.863  -2.095   1.096  1.00  0.00    -0.544 OA
ENDBRANCH   1   6
TORSDOF 2
ENDMDL
MODEL 2
REMARK VINA RESULT:    -3.388      0.089      1.448
REMARK INTER + INTRA:          -3.685
REMARK INTER:                  -3.685
REMARK INTRA:                   0.000
REMARK UNBOUND:                 0.000
REMARK SMILES [NH3+]CC(=O)[O-]
REMARK SMILES IDX 2 1 1 2 3 6 4 7 5 8
REMARK H PARENT 1 3 1 4 1 5
REMARK Flexibility Score: inf
ROOT
ATOM      1  C   UNL     1      -0.167  -3.324   1.781  1.00  0.00     0.312 C 
ENDROOT
BRANCH   1   2
ATOM      2  N   UNL     1      -1.115  -2.470   2.495  1.00  0.00    -0.353 N 
ATOM      3  H   UNL     1      -1.895  -2.189   1.857  1.00  0.00     0.344 HD
ATOM      4  H   UNL     1      -1.512  -3.000   3.303  1.00  0.00     0.344 HD
ATOM      5  H   UNL     1      -0.627  -1.616   2.854  1.00  0.00     0.344 HD
ENDBRANCH   1   2
BRANCH   1   6
ATOM      6  C   UNL     1       1.235  -2.834   1.973  1.00  0.00     0.096 C 
ATOM      7  O   UNL     1       1.776  -2.106   1.100  1.00  0.00    -0.544 OA
ATOM      8  O   UNL     1       1.925  -3.141   3.138  1.00  0.00    -0.544 OA
ENDBRANCH   1   6
TORSDOF 2
ENDMDL
MODEL 3
REMARK VINA RESULT:    -3.259      7.737      8.230
REMARK INTER + INTRA:          -3.545
REMARK INTER:                  -3.545
REMARK INTRA:                   0.000
REMARK UNBOUND:                 0.000
REMARK SMILES [NH3+]CC(=O)[O-]
REMARK SMILES IDX 2 1 1 2 3 6 4 7 5 8
REMARK H PARENT 1 3 1 4 1 5
REMARK Flexibility Score: inf
ROOT
ATOM      1  C   UNL     1      -6.126  -4.668  -3.217  1.00  0.00     0.312 C 
ENDROOT
BRANCH   1   2
ATOM      2  N   UNL     1      -6.099  -4.872  -4.664  1.00  0.00    -0.353 N 
ATOM      3  H   UNL     1      -5.737  -5.829  -4.884  1.00  0.00     0.344 HD
ATOM      4  H   UNL     1      -7.070  -4.782  -5.041  1.00  0.00     0.344 HD
ATOM      5  H   UNL     1      -5.490  -4.151  -5.116  1.00  0.00     0.344 HD
ENDBRANCH   1   2
BRANCH   1   6
ATOM      6  C   UNL     1      -4.937  -3.874  -2.772  1.00  0.00     0.096 C 
ATOM      7  O   UNL     1      -4.359  -3.097  -3.575  1.00  0.00    -0.544 OA
ATOM      8  O   UNL     1      -4.501  -3.954  -1.456  1.00  0.00    -0.544 OA
ENDBRANCH   1   6
TORSDOF 2
ENDMDL
MODEL 4
REMARK VINA RESULT:    -3.088      8.074      8.494
REMARK INTER + INTRA:          -3.359
REMARK INTER:                  -3.359
REMARK INTRA:                   0.000
REMARK UNBOUND:                 0.000
REMARK SMILES [NH3+]CC(=O)[O-]
REMARK SMILES IDX 2 1 1 2 3 6 4 7 5 8
REMARK H PARENT 1 3 1 4 1 5
REMARK Flexibility Score: inf
ROOT
ATOM      1  C   UNL     1       7.426   3.445   2.075  1.00  0.00     0.312 C 
ENDROOT
BRANCH   1   2
ATOM      2  N   UNL     1       6.482   4.078   1.155  1.00  0.00    -0.353 N 
ATOM      3  H   UNL     1       5.875   4.754   1.674  1.00  0.00     0.344 HD
ATOM      4  H   UNL     1       7.014   4.595   0.419  1.00  0.00     0.344 HD
ATOM      5  H   UNL     1       5.887   3.349   0.696  1.00  0.00     0.344 HD
ENDBRANCH   1   2
BRANCH   1   6
ATOM      6  C   UNL     1       6.771   2.324   2.819  1.00  0.00     0.096 C 
ATOM      7  O   UNL     1       6.133   1.437   2.194  1.00  0.00    -0.544 OA
ATOM      8  O   UNL     1       6.910   2.230   4.198  1.00  0.00    -0.544 OA
ENDBRANCH   1   6
TORSDOF 2
ENDMDL
MODEL 5
REMARK VINA RESULT:    -3.010     10.265     10.583
REMARK INTER + INTRA:          -3.273
REMARK INTER:                  -3.273
REMARK INTRA:                   0.000
REMARK UNBOUND:                 0.000
REMARK SMILES [NH3+]CC(=O)[O-]
REMARK SMILES IDX 2 1 1 2 3 6 4 7 5 8
REMARK H PARENT 1 3 1 4 1 5
REMARK Flexibility Score: inf
ROOT
ATOM      1  C   UNL     1      -1.213   7.876   0.738  1.00  0.00     0.312 C 
ENDROOT
BRANCH   1   2
ATOM      2  N   UNL     1      -0.191   7.780   1.779  1.00  0.00    -0.353 N 
ATOM      3  H   UNL     1      -0.577   7.281   2.614  1.00  0.00     0.344 HD
ATOM      4  H   UNL     1       0.624   7.241   1.409  1.00  0.00     0.344 HD
ATOM      5  H   UNL     1       0.130   8.737   2.055  1.00  0.00     0.344 HD
ENDBRANCH   1   2
BRANCH   1   6
ATOM      6  C   UNL     1      -2.293   6.864   0.960  1.00  0.00     0.096 C 
ATOM      7  O   UNL     1      -3.088   6.571   0.028  1.00  0.00    -0.544 OA
ATOM      8  O   UNL     1      -2.389   6.206   2.179  1.00  0.00    -0.544 OA
ENDBRANCH   1   6
TORSDOF 2
ENDMDL
MODEL 6
REMARK VINA RESULT:    -2.982      9.045      9.436
REMARK INTER + INTRA:          -3.244
REMARK INTER:                  -3.244
REMARK INTRA:                   0.000
REMARK UNBOUND:                 0.000
REMARK SMILES [NH3+]CC(=O)[O-]
REMARK SMILES IDX 2 1 1 2 3 6 4 7 5 8
REMARK H PARENT 1 3 1 4 1 5
REMARK Flexibility Score: inf
ROOT
ATOM      1  C   UNL     1       7.442   3.362   2.002  1.00  0.00     0.312 C 
ENDROOT
BRANCH   1   2
ATOM      2  N   UNL     1       6.451   4.070   1.193  1.00  0.00    -0.353 N 
ATOM      3  H   UNL     1       5.839   3.384   0.694  1.00  0.00     0.344 HD
ATOM      4  H   UNL     1       5.858   4.661   1.818  1.00  0.00     0.344 HD
ATOM      5  H   UNL     1       6.932   4.687   0.497  1.00  0.00     0.344 HD
ENDBRANCH   1   2
BRANCH   1   6
ATOM      6  C   UNL     1       7.283   3.701   3.452  1.00  0.00     0.096 C 
ATOM      7  O   UNL     1       7.271   4.904   3.822  1.00  0.00    -0.544 OA
ATOM      8  O   UNL     1       7.095   2.691   4.385  1.00  0.00    -0.544 OA
ENDBRANCH   1   6
TORSDOF 2
ENDMDL
MODEL 7
REMARK VINA RESULT:    -2.965      2.495      2.753
REMARK INTER + INTRA:          -3.225
REMARK INTER:                  -3.225
REMARK INTRA:                   0.000
REMARK UNBOUND:                 0.000
REMARK SMILES [NH3+]CC(=O)[O-]
REMARK SMILES IDX 2 1 1 2 3 6 4 7 5 8
REMARK H PARENT 1 3 1 4 1 5
REMARK Flexibility Score: inf
ROOT
ATOM      1  C   UNL     1       1.888  -3.780   2.600  1.00  0.00     0.312 C 
ENDROOT
BRANCH   1   2
ATOM      2  N   UNL     1       2.674  -4.267   3.733  1.00  0.00    -0.353 N 
ATOM      3  H   UNL     1       3.121  -3.464   4.231  1.00  0.00     0.344 HD
ATOM      4  H   UNL     1       2.042  -4.769   4.397  1.00  0.00     0.344 HD
ATOM      5  H   UNL     1       3.411  -4.930   3.398  1.00  0.00     0.344 HD
ENDBRANCH   1   2
BRANCH   1   6
ATOM      6  C   UNL     1       2.537  -2.580   1.983  1.00  0.00     0.096 C 
ATOM      7  O   UNL     1       2.173  -2.177   0.848  1.00  0.00    -0.544 OA
ATOM      8  O   UNL     1       3.507  -1.876   2.685  1.00  0.00    -0.544 OA
ENDBRANCH   1   6
TORSDOF 2
ENDMDL
MODEL 8
REMARK VINA RESULT:    -2.957     10.066     10.252
REMARK INTER + INTRA:          -3.216
REMARK INTER:                  -3.216
REMARK INTRA:                   0.000
REMARK UNBOUND:                 0.000
REMARK SMILES [NH3+]CC(=O)[O-]
REMARK SMILES IDX 2 1 1 2 3 6 4 7 5 8
REMARK H PARENT 1 3 1 4 1 5
REMARK Flexibility Score: inf
ROOT
ATOM      1  C   UNL     1      -2.254   7.255   0.420  1.00  0.00     0.312 C 
ENDROOT
BRANCH   1   2
ATOM      2  N   UNL     1      -3.065   6.239  -0.249  1.00  0.00    -0.353 N 
ATOM      3  H   UNL     1      -3.415   5.543   0.449  1.00  0.00     0.344 HD
ATOM      4  H   UNL     1      -3.883   6.700  -0.707  1.00  0.00     0.344 HD
ATOM      5  H   UNL     1      -2.496   5.751  -0.980  1.00  0.00     0.344 HD
ENDBRANCH   1   2
BRANCH   1   6
ATOM      6  C   UNL     1      -2.106   6.940   1.876  1.00  0.00     0.096 C 
ATOM      7  O   UNL     1      -2.894   6.132   2.432  1.00  0.00    -0.544 OA
ATOM      8  O   UNL     1      -1.065   7.500   2.606  1.00  0.00    -0.544 OA
ENDBRANCH   1   6
TORSDOF 2
ENDMDL
MODEL 9
REMARK VINA RESULT:    -2.927     10.235     10.565
REMARK INTER + INTRA:          -3.183
REMARK INTER:                  -3.183
REMARK INTRA:                   0.000
REMARK UNBOUND:                 0.000
REMARK SMILES [NH3+]CC(=O)[O-]
REMARK SMILES IDX 2 1 1 2 3 6 4 7 5 8
REMARK H PARENT 1 3 1 4 1 5
REMARK Flexibility Score: inf
ROOT
ATOM      1  C   UNL     1      -1.928   6.949  -0.246  1.00  0.00     0.312 C 
ENDROOT
BRANCH   1   2
ATOM      2  N   UNL     1      -3.171   6.201  -0.427  1.00  0.00    -0.353 N 
ATOM      3  H   UNL     1      -2.969   5.176  -0.468  1.00  0.00     0.344 HD
ATOM      4  H   UNL     1      -3.805   6.390   0.381  1.00  0.00     0.344 HD
ATOM      5  H   UNL     1      -3.645   6.504  -1.310  1.00  0.00     0.344 HD
ENDBRANCH   1   2
BRANCH   1   6
ATOM      6  C   UNL     1      -1.143   6.989  -1.520  1.00  0.00     0.096 C 
ATOM      7  O   UNL     1      -1.211   6.032  -2.335  1.00  0.00    -0.544 OA
ATOM      8  O   UNL     1      -0.377   8.105  -1.831  1.00  0.00    -0.544 OA
ENDBRANCH   1   6
TORSDOF 2
ENDMDL
