MODEL 1
REMARK VINA RESULT:    -4.383      0.000      0.000
REMARK INTER + INTRA:          -8.630
REMARK INTER:                  -7.714
REMARK INTRA:                  -0.916
REMARK UNBOUND:                -0.916
REMARK SMILES CCCCCCC=CCCCCCCCC(=O)[O-]
REMARK SMILES IDX 10 1 11 2 12 3 13 4 14 5 15 6 16 7 17 8 18 9 9 10 8 11 7 12
REMARK SMILES IDX 6 13 5 14 4 15 3 16 2 17 1 18
REMARK H PARENT
REMARK Flexibility Score: inf
ROOT
ATOM      1  C   UNL     1      14.504  17.749  26.747  1.00  0.00     0.004 C 
ENDROOT
BRANCH   1   2
ATOM      2  C   UNL     1      14.779  16.909  25.491  1.00  0.00     0.000 C 
BRANCH   2   3
ATOM      3  C   UNL     1      14.988  17.809  24.264  1.00  0.00     0.000 C 
BRANCH   3   4
ATOM      4  C   UNL     1      13.675  18.119  23.525  1.00  0.00     0.000 C 
BRANCH   4   5
ATOM      5  C   UNL     1      12.591  17.058  23.777  1.00  0.00     0.006 C 
BRANCH   5   6
ATOM      6  C   UNL     1      11.363  17.643  24.487  1.00  0.00     0.053 C 
BRANCH   6   7
ATOM      7  C   UNL     1      11.308  17.242  25.930  1.00  0.00     0.041 C 
ATOM      8  O   UNL     1      11.684  16.093  26.282  1.00  0.00    -0.550 OA
ATOM      9  O   UNL     1      10.813  18.125  26.881  1.00  0.00    -0.550 OA
ENDBRANCH   6   7
ENDBRANCH   5   6
ENDBRANCH   4   5
ENDBRANCH   3   4
ENDBRANCH   2   3
ENDBRANCH   1   2
BRANCH   1  10
ATOM     10  C   UNL     1      14.519  16.899  28.027  1.00  0.00     0.027 C 
BRANCH  10  11
ATOM     11  C   UNL     1      14.932  15.474  27.753  1.00  0.00    -0.031 C 
ATOM     12  C   UNL     1      15.387  14.617  28.686  1.00  0.00    -0.031 C 
BRANCH  12  13
ATOM     13  C   UNL     1      15.466  14.919  30.161  1.00  0.00     0.027 C 
BRANCH  13  14
ATOM     14  C   UNL     1      14.383  14.148  30.929  1.00  0.00     0.004 C 
BRANCH  14  15
ATOM     15  C   UNL     1      14.932  13.439  32.179  1.00  0.00     0.000 C 
BRANCH  15  16
ATOM     16  C   UNL     1      15.943  12.333  31.835  1.00  0.00    -0.000 C 
BRANCH  16  17
ATOM     17  C   UNL     1      15.290  11.143  31.115  1.00  0.00    -0.003 C 
ATOM     18  C   UNL     1      15.654  11.075  29.631  1.00  0.00     0.004 C 
ENDBRANCH  16  17
ENDBRANCH  15  16
ENDBRANCH  14  15
ENDBRANCH  13  14
ENDBRANCH  12  13
ENDBRANCH  10  11
ENDBRANCH   1  10
TORSDOF 13
ENDMDL
MODEL 2
REMARK VINA RESULT:    -4.276      2.833      7.539
REMARK INTER + INTRA:          -8.442
REMARK INTER:                  -7.138
REMARK INTRA:                  -1.304
REMARK UNBOUND:                -0.916
REMARK SMILES CCCCCCC=CCCCCCCCC(=O)[O-]
REMARK SMILES IDX 10 1 11 2 12 3 13 4 14 5 15 6 16 7 17 8 18 9 9 10 8 11 7 12
REMARK SMILES IDX 6 13 5 14 4 15 3 16 2 17 1 18
REMARK H PARENT
REMARK Flexibility Score: inf
ROOT
ATOM      1  C   UNL     1      13.713  15.944  28.963  1.00  0.00     0.004 C 
ENDROOT
BRANCH   1   2
ATOM      2  C   UNL     1      14.453  14.612  29.162  1.00  0.00     0.000 C 
BRANCH   2   3
ATOM      3  C   UNL     1      15.287  14.636  30.452  1.00  0.00     0.000 C 
BRANCH   3   4
ATOM      4  C   UNL     1      14.534  14.045  31.655  1.00  0.00     0.000 C 
BRANCH   4   5
ATOM      5  C   UNL     1      15.115  12.695  32.110  1.00  0.00     0.006 C 
BRANCH   5   6
ATOM      6  C   UNL     1      16.131  12.135  31.105  1.00  0.00     0.053 C 
BRANCH   6   7
ATOM      7  C   UNL     1      15.491  11.190  30.133  1.00  0.00     0.041 C 
ATOM      8  O   UNL     1      14.434  10.581  30.445  1.00  0.00    -0.550 OA
ATOM      9  O   UNL     1      16.078  10.959  28.896  1.00  0.00    -0.550 OA
ENDBRANCH   6   7
ENDBRANCH   5   6
ENDBRANCH   4   5
ENDBRANCH   3   4
ENDBRANCH   2   3
ENDBRANCH   1   2
BRANCH   1  10
ATOM     10  C   UNL     1      14.352  16.802  27.859  1.00  0.00     0.027 C 
BRANCH  10  11
ATOM     11  C   UNL     1      14.722  15.980  26.649  1.00  0.00    -0.031 C 
ATOM     12  C   UNL     1      14.841  16.468  25.400  1.00  0.00    -0.031 C 
BRANCH  12  13
ATOM     13  C   UNL     1      14.714  17.925  25.035  1.00  0.00     0.027 C 
BRANCH  13  14
ATOM     14  C   UNL     1      13.753  18.103  23.850  1.00  0.00     0.004 C 
BRANCH  14  15
ATOM     15  C   UNL     1      12.656  17.028  23.808  1.00  0.00     0.000 C 
BRANCH  15  16
ATOM     16  C   UNL     1      11.368  17.469  24.522  1.00  0.00    -0.000 C 
BRANCH  16  17
ATOM     17  C   UNL     1      11.310  16.991  25.981  1.00  0.00    -0.003 C 
ATOM     18  C   UNL     1      11.026  18.125  26.966  1.00  0.00     0.004 C 
ENDBRANCH  16  17
ENDBRANCH  15  16
ENDBRANCH  14  15
ENDBRANCH  13  14
ENDBRANCH  12  13
ENDBRANCH  10  11
ENDBRANCH   1  10
TORSDOF 13
ENDMDL
MODEL 3
REMARK VINA RESULT:    -4.250      2.896      7.515
REMARK INTER + INTRA:          -8.396
REMARK INTER:                  -7.145
REMARK INTRA:                  -1.251
REMARK UNBOUND:                -0.916
REMARK SMILES CCCCCCC=CCCCCCCCC(=O)[O-]
REMARK SMILES IDX 10 1 11 2 12 3 13 4 14 5 15 6 16 7 17 8 18 9 9 10 8 11 7 12
REMARK SMILES IDX 6 13 5 14 4 15 3 16 2 17 1 18
REMARK H PARENT
REMARK Flexibility Score: inf
ROOT
ATOM      1  C   UNL     1      14.729  15.284  28.070  1.00  0.00     0.004 C 
ENDROOT
BRANCH   1   2
ATOM      2  C   UNL     1      15.284  15.093  29.490  1.00  0.00     0.000 C 
BRANCH   2   3
ATOM      3  C   UNL     1      14.232  14.449  30.407  1.00  0.00     0.000 C 
BRANCH   3   4
ATOM      4  C   UNL     1      14.783  14.124  31.805  1.00  0.00     0.000 C 
BRANCH   4   5
ATOM      5  C   UNL     1      15.038  12.620  32.003  1.00  0.00     0.006 C 
BRANCH   5   6
ATOM      6  C   UNL     1      16.097  12.079  31.033  1.00  0.00     0.053 C 
BRANCH   6   7
ATOM      7  C   UNL     1      15.507  11.126  30.038  1.00  0.00     0.041 C 
ATOM      8  O   UNL     1      16.086  10.920  28.939  1.00  0.00    -0.550 OA
ATOM      9  O   UNL     1      14.303  10.490  30.311  1.00  0.00    -0.550 OA
ENDBRANCH   6   7
ENDBRANCH   5   6
ENDBRANCH   4   5
ENDBRANCH   3   4
ENDBRANCH   2   3
ENDBRANCH   1   2
BRANCH   1  10
ATOM     10  C   UNL     1      13.311  15.875  28.077  1.00  0.00     0.027 C 
BRANCH  10  11
ATOM     11  C   UNL     1      13.325  17.377  27.938  1.00  0.00    -0.031 C 
ATOM     12  C   UNL     1      12.401  18.092  27.269  1.00  0.00    -0.031 C 
BRANCH  12  13
ATOM     13  C   UNL     1      11.163  17.511  26.634  1.00  0.00     0.027 C 
BRANCH  13  14
ATOM     14  C   UNL     1      11.262  17.571  25.103  1.00  0.00     0.004 C 
BRANCH  14  15
ATOM     15  C   UNL     1      11.922  16.320  24.501  1.00  0.00     0.000 C 
BRANCH  15  16
ATOM     16  C   UNL     1      13.451  16.448  24.399  1.00  0.00    -0.000 C 
BRANCH  16  17
ATOM     17  C   UNL     1      13.894  17.848  23.945  1.00  0.00    -0.003 C 
ATOM     18  C   UNL     1      15.372  18.123  24.229  1.00  0.00     0.004 C 
ENDBRANCH  16  17
ENDBRANCH  15  16
ENDBRANCH  14  15
ENDBRANCH  13  14
ENDBRANCH  12  13
ENDBRANCH  10  11
ENDBRANCH   1  10
TORSDOF 13
ENDMDL
MODEL 4
REMARK VINA RESULT:    -4.227      1.933      2.361
REMARK INTER + INTRA:          -8.355
REMARK INTER:                  -7.058
REMARK INTRA:                  -1.297
REMARK UNBOUND:                -0.916
REMARK SMILES CCCCCCC=CCCCCCCCC(=O)[O-]
REMARK SMILES IDX 10 1 11 2 12 3 13 4 14 5 15 6 16 7 17 8 18 9 9 10 8 11 7 12
REMARK SMILES IDX 6 13 5 14 4 15 3 16 2 17 1 18
REMARK H PARENT
REMARK Flexibility Score: inf
ROOT
ATOM      1  C   UNL     1      13.029  17.140  28.070  1.00  0.00     0.004 C 
ENDROOT
BRANCH   1   2
ATOM      2  C   UNL     1      14.394  17.376  27.406  1.00  0.00     0.000 C 
BRANCH   2   3
ATOM      3  C   UNL     1      14.242  17.552  25.887  1.00  0.00     0.000 C 
BRANCH   3   4
ATOM      4  C   UNL     1      13.996  16.221  25.158  1.00  0.00     0.000 C 
BRANCH   4   5
ATOM      5  C   UNL     1      12.576  16.120  24.576  1.00  0.00     0.006 C 
BRANCH   5   6
ATOM      6  C   UNL     1      12.037  17.486  24.128  1.00  0.00     0.053 C 
BRANCH   6   7
ATOM      7  C   UNL     1      12.466  17.825  22.733  1.00  0.00     0.041 C 
ATOM      8  O   UNL     1      13.674  18.080  22.486  1.00  0.00    -0.550 OA
ATOM      9  O   UNL     1      11.527  17.890  21.712  1.00  0.00    -0.550 OA
ENDBRANCH   6   7
ENDBRANCH   5   6
ENDBRANCH   4   5
ENDBRANCH   3   4
ENDBRANCH   2   3
ENDBRANCH   1   2
BRANCH   1  10
ATOM     10  C   UNL     1      12.992  15.828  28.868  1.00  0.00     0.027 C 
BRANCH  10  11
ATOM     11  C   UNL     1      14.341  15.153  28.905  1.00  0.00    -0.031 C 
ATOM     12  C   UNL     1      14.926  14.673  30.019  1.00  0.00    -0.031 C 
BRANCH  12  13
ATOM     13  C   UNL     1      14.284  14.655  31.383  1.00  0.00     0.027 C 
BRANCH  13  14
ATOM     14  C   UNL     1      14.885  13.537  32.248  1.00  0.00     0.004 C 
BRANCH  14  15
ATOM     15  C   UNL     1      15.912  12.683  31.486  1.00  0.00     0.000 C 
BRANCH  15  16
ATOM     16  C   UNL     1      15.561  11.186  31.499  1.00  0.00    -0.000 C 
BRANCH  16  17
ATOM     17  C   UNL     1      15.247  10.642  30.097  1.00  0.00    -0.003 C 
ATOM     18  C   UNL     1      15.981  11.399  28.989  1.00  0.00     0.004 C 
ENDBRANCH  16  17
ENDBRANCH  15  16
ENDBRANCH  14  15
ENDBRANCH  13  14
ENDBRANCH  12  13
ENDBRANCH  10  11
ENDBRANCH   1  10
TORSDOF 13
ENDMDL
MODEL 5
REMARK VINA RESULT:    -4.214      1.411      2.325
REMARK INTER + INTRA:          -8.332
REMARK INTER:                  -7.437
REMARK INTRA:                  -0.895
REMARK UNBOUND:                -0.916
REMARK SMILES CCCCCCC=CCCCCCCCC(=O)[O-]
REMARK SMILES IDX 10 1 11 2 12 3 13 4 14 5 15 6 16 7 17 8 18 9 9 10 8 11 7 12
REMARK SMILES IDX 6 13 5 14 4 15 3 16 2 17 1 18
REMARK H PARENT
REMARK Flexibility Score: inf
ROOT
ATOM      1  C   UNL     1      12.538  16.936  28.267  1.00  0.00     0.004 C 
ENDROOT
BRANCH   1   2
ATOM      2  C   UNL     1      12.278  18.119  27.323  1.00  0.00     0.000 C 
BRANCH   2   3
ATOM      3  C   UNL     1      10.988  17.904  26.518  1.00  0.00     0.000 C 
BRANCH   3   4
ATOM      4  C   UNL     1      11.241  17.227  25.161  1.00  0.00     0.000 C 
BRANCH   4   5
ATOM      5  C   UNL     1      12.036  18.121  24.194  1.00  0.00     0.006 C 
BRANCH   5   6
ATOM      6  C   UNL     1      13.268  17.404  23.624  1.00  0.00     0.053 C 
BRANCH   6   7
ATOM      7  C   UNL     1      14.047  16.699  24.693  1.00  0.00     0.041 C 
ATOM      8  O   UNL     1      15.077  17.232  25.181  1.00  0.00    -0.550 OA
ATOM      9  O   UNL     1      13.652  15.440  25.127  1.00  0.00    -0.550 OA
ENDBRANCH   6   7
ENDBRANCH   5   6
ENDBRANCH   4   5
ENDBRANCH   3   4
ENDBRANCH   2   3
ENDBRANCH   1   2
BRANCH   1  10
ATOM     10  C   UNL     1      14.029  16.782  28.606  1.00  0.00     0.027 C 
BRANCH  10  11
ATOM     11  C   UNL     1      14.583  15.464  28.124  1.00  0.00    -0.031 C 
ATOM     12  C   UNL     1      15.303  14.614  28.881  1.00  0.00    -0.031 C 
BRANCH  12  13
ATOM     13  C   UNL     1      15.587  14.806  30.349  1.00  0.00     0.027 C 
BRANCH  13  14
ATOM     14  C   UNL     1      14.371  14.398  31.193  1.00  0.00     0.004 C 
BRANCH  14  15
ATOM     15  C   UNL     1      14.715  13.346  32.261  1.00  0.00     0.000 C 
BRANCH  15  16
ATOM     16  C   UNL     1      15.848  12.405  31.820  1.00  0.00    -0.000 C 
BRANCH  16  17
ATOM     17  C   UNL     1      15.323  11.125  31.150  1.00  0.00    -0.003 C 
ATOM     18  C   UNL     1      15.696  11.035  29.670  1.00  0.00     0.004 C 
ENDBRANCH  16  17
ENDBRANCH  15  16
ENDBRANCH  14  15
ENDBRANCH  13  14
ENDBRANCH  12  13
ENDBRANCH  10  11
ENDBRANCH   1  10
TORSDOF 13
ENDMDL
MODEL 6
REMARK VINA RESULT:    -3.129      2.909      7.733
REMARK INTER + INTRA:          -6.422
REMARK INTER:                  -5.608
REMARK INTRA:                  -0.814
REMARK UNBOUND:                -0.916
REMARK SMILES CCCCCCC=CCCCCCCCC(=O)[O-]
REMARK SMILES IDX 10 1 11 2 12 3 13 4 14 5 15 6 16 7 17 8 18 9 9 10 8 11 7 12
REMARK SMILES IDX 6 13 5 14 4 15 3 16 2 17 1 18
REMARK H PARENT
REMARK Flexibility Score: inf
ROOT
ATOM      1  C   UNL     1      12.526  15.443  28.518  1.00  0.00     0.004 C 
ENDROOT
BRANCH   1   2
ATOM      2  C   UNL     1      13.702  16.053  29.295  1.00  0.00     0.000 C 
BRANCH   2   3
ATOM      3  C   UNL     1      15.026  15.379  28.905  1.00  0.00     0.000 C 
BRANCH   3   4
ATOM      4  C   UNL     1      15.785  14.815  30.117  1.00  0.00     0.000 C 
BRANCH   4   5
ATOM      5  C   UNL     1      14.843  14.225  31.181  1.00  0.00     0.006 C 
BRANCH   5   6
ATOM      6  C   UNL     1      15.416  12.953  31.820  1.00  0.00     0.053 C 
BRANCH   6   7
ATOM      7  C   UNL     1      15.346  11.781  30.889  1.00  0.00     0.041 C 
ATOM      8  O   UNL     1      15.585  11.932  29.662  1.00  0.00    -0.550 OA
ATOM      9  O   UNL     1      14.986  10.529  31.371  1.00  0.00    -0.550 OA
ENDBRANCH   6   7
ENDBRANCH   5   6
ENDBRANCH   4   5
ENDBRANCH   3   4
ENDBRANCH   2   3
ENDBRANCH   1   2
BRANCH   1  10
ATOM     10  C   UNL     1      12.347  16.090  27.136  1.00  0.00     0.027 C 
BRANCH  10  11
ATOM     11  C   UNL     1      12.847  15.198  26.027  1.00  0.00    -0.031 C 
ATOM     12  C   UNL     1      13.956  15.431  25.299  1.00  0.00    -0.031 C 
BRANCH  12  13
ATOM     13  C   UNL     1      14.916  16.568  25.542  1.00  0.00     0.027 C 
BRANCH  13  14
ATOM     14  C   UNL     1      14.386  17.866  24.917  1.00  0.00     0.004 C 
BRANCH  14  15
ATOM     15  C   UNL     1      13.880  17.670  23.478  1.00  0.00     0.000 C 
BRANCH  15  16
ATOM     16  C   UNL     1      12.422  18.123  23.297  1.00  0.00    -0.000 C 
BRANCH  16  17
ATOM     17  C   UNL     1      11.805  17.608  21.987  1.00  0.00    -0.003 C 
ATOM     18  C   UNL     1      12.534  18.122  20.745  1.00  0.00     0.004 C 
ENDBRANCH  16  17
ENDBRANCH  15  16
ENDBRANCH  14  15
ENDBRANCH  13  14
ENDBRANCH  12  13
ENDBRANCH  10  11
ENDBRANCH   1  10
TORSDOF 13
ENDMDL
MODEL 7
REMARK VINA RESULT:    -2.982      2.694      6.729
REMARK INTER + INTRA:          -6.164
REMARK INTER:                  -4.811
REMARK INTRA:                  -1.353
REMARK UNBOUND:                -0.916
REMARK SMILES CCCCCCC=CCCCCCCCC(=O)[O-]
REMARK SMILES IDX 10 1 11 2 12 3 13 4 14 5 15 6 16 7 17 8 18 9 9 10 8 11 7 12
REMARK SMILES IDX 6 13 5 14 4 15 3 16 2 17 1 18
REMARK H PARENT
REMARK Flexibility Score: inf
ROOT
ATOM      1  C   UNL     1      12.172  18.093  27.058  1.00  0.00     0.004 C 
ENDROOT
BRANCH   1   2
ATOM      2  C   UNL     1      12.063  17.043  28.175  1.00  0.00     0.000 C 
BRANCH   2   3
ATOM      3  C   UNL     1      13.330  17.033  29.043  1.00  0.00     0.000 C 
BRANCH   3   4
ATOM      4  C   UNL     1      13.232  16.054  30.224  1.00  0.00     0.000 C 
BRANCH   4   5
ATOM      5  C   UNL     1      13.922  14.709  29.936  1.00  0.00     0.006 C 
BRANCH   5   6
ATOM      6  C   UNL     1      14.751  14.217  31.130  1.00  0.00     0.053 C 
BRANCH   6   7
ATOM      7  C   UNL     1      15.359  12.872  30.871  1.00  0.00     0.041 C 
ATOM      8  O   UNL     1      15.777  12.171  31.829  1.00  0.00    -0.550 OA
ATOM      9  O   UNL     1      15.492  12.407  29.569  1.00  0.00    -0.550 OA
ENDBRANCH   6   7
ENDBRANCH   5   6
ENDBRANCH   4   5
ENDBRANCH   3   4
ENDBRANCH   2   3
ENDBRANCH   1   2
BRANCH   1  10
ATOM     10  C   UNL     1      11.096  17.904  25.978  1.00  0.00     0.027 C 
BRANCH  10  11
ATOM     11  C   UNL     1      11.326  16.652  25.167  1.00  0.00    -0.031 C 
ATOM     12  C   UNL     1      11.861  16.630  23.931  1.00  0.00    -0.031 C 
BRANCH  12  13
ATOM     13  C   UNL     1      12.395  17.839  23.207  1.00  0.00     0.027 C 
BRANCH  13  14
ATOM     14  C   UNL     1      13.844  18.125  23.628  1.00  0.00     0.004 C 
BRANCH  14  15
ATOM     15  C   UNL     1      14.511  16.923  24.318  1.00  0.00     0.000 C 
BRANCH  15  16
ATOM     16  C   UNL     1      15.045  17.267  25.718  1.00  0.00    -0.000 C 
BRANCH  16  17
ATOM     17  C   UNL     1      15.167  16.030  26.622  1.00  0.00    -0.003 C 
ATOM     18  C   UNL     1      14.202  14.911  26.229  1.00  0.00     0.004 C 
ENDBRANCH  16  17
ENDBRANCH  15  16
ENDBRANCH  14  15
ENDBRANCH  13  14
ENDBRANCH  12  13
ENDBRANCH  10  11
ENDBRANCH   1  10
TORSDOF 13
ENDMDL
MODEL 8
REMARK VINA RESULT:    -2.581      1.651      2.801
REMARK INTER + INTRA:          -5.458
REMARK INTER:                  -5.311
REMARK INTRA:                  -0.147
REMARK UNBOUND:                -0.916
REMARK SMILES CCCCCCC=CCCCCCCCC(=O)[O-]
REMARK SMILES IDX 10 1 11 2 12 3 13 4 14 5 15 6 16 7 17 8 18 9 9 10 8 11 7 12
REMARK SMILES IDX 6 13 5 14 4 15 3 16 2 17 1 18
REMARK H PARENT
REMARK Flexibility Score: inf
ROOT
ATOM      1  C   UNL     1      11.385  15.941  26.004  1.00  0.00     0.004 C 
ENDROOT
BRANCH   1   2
ATOM      2  C   UNL     1      11.274  17.472  25.931  1.00  0.00     0.000 C 
BRANCH   2   3
ATOM      3  C   UNL     1      11.571  17.976  24.511  1.00  0.00     0.000 C 
BRANCH   3   4
ATOM      4  C   UNL     1      12.581  17.088  23.766  1.00  0.00     0.000 C 
BRANCH   4   5
ATOM      5  C   UNL     1      13.968  17.745  23.646  1.00  0.00     0.006 C 
BRANCH   5   6
ATOM      6  C   UNL     1      14.712  17.772  24.988  1.00  0.00     0.053 C 
BRANCH   6   7
ATOM      7  C   UNL     1      14.913  16.394  25.542  1.00  0.00     0.041 C 
ATOM      8  O   UNL     1      14.337  15.408  25.012  1.00  0.00    -0.550 OA
ATOM      9  O   UNL     1      15.711  16.203  26.663  1.00  0.00    -0.550 OA
ENDBRANCH   6   7
ENDBRANCH   5   6
ENDBRANCH   4   5
ENDBRANCH   3   4
ENDBRANCH   2   3
ENDBRANCH   1   2
BRANCH   1  10
ATOM     10  C   UNL     1      12.119  15.474  27.270  1.00  0.00     0.027 C 
BRANCH  10  11
ATOM     11  C   UNL     1      12.687  16.632  28.053  1.00  0.00    -0.031 C 
ATOM     12  C   UNL     1      13.296  16.522  29.248  1.00  0.00    -0.031 C 
BRANCH  12  13
ATOM     13  C   UNL     1      13.587  15.216  29.944  1.00  0.00     0.027 C 
BRANCH  13  14
ATOM     14  C   UNL     1      14.991  14.712  29.583  1.00  0.00     0.004 C 
BRANCH  14  15
ATOM     15  C   UNL     1      15.813  14.306  30.817  1.00  0.00     0.000 C 
BRANCH  15  16
ATOM     16  C   UNL     1      15.041  13.369  31.760  1.00  0.00    -0.000 C 
BRANCH  16  17
ATOM     17  C   UNL     1      15.567  11.926  31.715  1.00  0.00    -0.003 C 
ATOM     18  C   UNL     1      15.557  11.333  30.305  1.00  0.00     0.004 C 
ENDBRANCH  16  17
ENDBRANCH  15  16
ENDBRANCH  14  15
ENDBRANCH  13  14
ENDBRANCH  12  13
ENDBRANCH  10  11
ENDBRANCH   1  10
TORSDOF 13
ENDMDL
