MODEL 1
REMARK VINA RESULT:    -3.607      0.000      0.000
REMARK INTER + INTRA:          -4.927
REMARK INTER:                  -5.084
REMARK INTRA:                   0.157
REMARK UNBOUND:                 0.157
REMARK SMILES CC1=CCC(=C(C)C)C(=O)CC(C)=CCC1
REMARK SMILES IDX 12 1 14 2 13 3 15 4 16 5 2 6 1 7 3 8 11 10 9 11 10 12 5 13
REMARK SMILES IDX 6 14 7 15 8 16 4 17
REMARK H PARENT
REMARK Flexibility Score: 60.00
ROOT
ATOM      1  C   UNL     1       1.917  10.285  17.086  1.00  0.00    -0.070 C 
ATOM      2  C   UNL     1       1.587   9.002  17.356  1.00  0.00    -0.027 C 
ATOM      3  C   UNL     1       1.948  10.716  15.641  1.00  0.00     0.039 C 
ENDROOT
BRANCH   2   4
ATOM      4  C   UNL     1       1.408   8.408  18.736  1.00  0.00     0.032 C 
BRANCH   4   5
ATOM      5  C   UNL     1      -0.050   8.369  19.239  1.00  0.00     0.034 C 
BRANCH   5   6
ATOM      6  C   UNL     1      -0.194   8.802  20.687  1.00  0.00    -0.077 C 
ATOM      7  C   UNL     1       0.091   7.779  21.757  1.00  0.00     0.039 C 
ATOM      8  C   UNL     1      -0.496  10.064  21.081  1.00  0.00    -0.023 CG0
ATOM      9  G   UNL     1      -0.839  11.242  20.190  1.00  0.00     0.000 G0
ENDBRANCH   5   6
ENDBRANCH   4   5
ENDBRANCH   2   4
BRANCH   1  10
ATOM     10  C   UNL     1       2.166  11.323  18.160  1.00  0.00     0.111 C 
BRANCH  10  11
ATOM     11  C   UNL     1       0.912  12.087  18.495  1.00  0.00     0.163 C 
ATOM     12  O   UNL     1       0.290  12.650  17.553  1.00  0.00    -0.294 OA
BRANCH  11  13
ATOM     13  C   UNL     1       0.355  12.147  19.879  1.00  0.00    -0.002 C 
ATOM     14  C   UNL     1       0.854  13.028  20.798  1.00  0.00    -0.069 C 
ATOM     15  C   UNL     1       0.211  13.223  22.153  1.00  0.00     0.039 C 
ATOM     16  C   UNL     1       2.083  13.858  20.499  1.00  0.00     0.039 C 
BRANCH  13  17
ATOM     17  C   UNL     1      -0.842  11.261  20.185  1.00  0.00     0.066 CG0
ATOM     18  G   UNL     1      -0.476  10.081  21.065  1.00  0.00     0.000 G0
ENDBRANCH  13  17
ENDBRANCH  11  13
ENDBRANCH  10  11
ENDBRANCH   1  10
TORSDOF 0
ENDMDL
MODEL 2
REMARK VINA RESULT:    -3.536      1.967      3.996
REMARK INTER + INTRA:          -4.826
REMARK INTER:                  -4.961
REMARK INTRA:                   0.135
REMARK UNBOUND:                 0.157
REMARK SMILES CC1=CCC(=C(C)C)C(=O)CC(C)=CCC1
REMARK SMILES IDX 12 1 14 2 13 3 15 4 16 5 2 6 1 7 3 8 11 10 9 11 10 12 5 13
REMARK SMILES IDX 6 14 7 15 8 16 4 17
REMARK H PARENT
REMARK Flexibility Score: 60.00
ROOT
ATOM      1  C   UNL     1      -0.084   8.670  20.696  1.00  0.00    -0.070 C 
ATOM      2  C   UNL     1       0.259   8.015  19.565  1.00  0.00    -0.027 C 
ATOM      3  C   UNL     1      -0.207   7.867  21.966  1.00  0.00     0.039 C 
ENDROOT
BRANCH   2   4
ATOM      4  C   UNL     1       0.526   8.656  18.219  1.00  0.00     0.032 C 
BRANCH   4   5
ATOM      5  C   UNL     1       1.999   9.038  17.966  1.00  0.00     0.034 C 
BRANCH   5   6
ATOM      6  C   UNL     1       2.164  10.438  17.402  1.00  0.00    -0.077 C 
ATOM      7  C   UNL     1       1.883  10.641  15.934  1.00  0.00     0.039 C 
ATOM      8  C   UNL     1       2.481  11.528  18.143  1.00  0.00    -0.023 CG0
ATOM      9  G   UNL     1       2.822  11.561  19.620  1.00  0.00     0.000 G0
ENDBRANCH   5   6
ENDBRANCH   4   5
ENDBRANCH   2   4
BRANCH   1  10
ATOM     10  C   UNL     1      -0.260  10.173  20.766  1.00  0.00     0.111 C 
BRANCH  10  11
ATOM     11  C   UNL     1       0.988  10.856  21.260  1.00  0.00     0.163 C 
ATOM     12  O   UNL     1       1.511  10.439  22.329  1.00  0.00    -0.294 OA
BRANCH  11  13
ATOM     13  C   UNL     1       1.654  11.957  20.501  1.00  0.00    -0.002 C 
ATOM     14  C   UNL     1       1.262  13.256  20.665  1.00  0.00    -0.069 C 
ATOM     15  C   UNL     1       2.016  14.406  20.034  1.00  0.00     0.039 C 
ATOM     16  C   UNL     1       0.047  13.610  21.494  1.00  0.00     0.039 C 
BRANCH  13  17
ATOM     17  C   UNL     1       2.835  11.579  19.622  1.00  0.00     0.066 CG0
ATOM     18  G   UNL     1       2.466  11.525  18.152  1.00  0.00     0.000 G0
ENDBRANCH  13  17
ENDBRANCH  11  13
ENDBRANCH  10  11
ENDBRANCH   1  10
TORSDOF 0
ENDMDL
MODEL 3
REMARK VINA RESULT:    -3.531      4.381      6.335
REMARK INTER + INTRA:          -4.820
REMARK INTER:                  -5.216
REMARK INTRA:                   0.396
REMARK UNBOUND:                 0.157
REMARK SMILES CC1=CCC(=C(C)C)C(=O)CC(C)=CCC1
REMARK SMILES IDX 12 1 14 2 13 3 15 4 16 5 2 6 1 7 3 8 11 10 9 11 10 12 5 13
REMARK SMILES IDX 6 14 7 15 8 16 4 17
REMARK H PARENT
REMARK Flexibility Score: 60.00
ROOT
ATOM      1  C   UNL     1       1.581  16.618  21.306  1.00  0.00    -0.070 C 
ATOM      2  C   UNL     1       1.664  16.926  19.993  1.00  0.00    -0.027 C 
ATOM      3  C   UNL     1       0.244  16.781  21.985  1.00  0.00     0.039 C 
ENDROOT
BRANCH   2   4
ATOM      4  C   UNL     1       2.885  16.738  19.118  1.00  0.00     0.032 C 
BRANCH   4   5
ATOM      5  C   UNL     1       2.714  15.710  17.981  1.00  0.00     0.034 C 
BRANCH   5   6
ATOM      6  C   UNL     1       2.094  14.404  18.444  1.00  0.00    -0.077 C 
ATOM      7  C   UNL     1       0.744  14.031  17.884  1.00  0.00     0.039 C 
ATOM      8  C   UNL     1       2.703  13.521  19.273  1.00  0.00    -0.023 CG0
ATOM      9  G   UNL     1       4.041  13.691  19.967  1.00  0.00     0.000 G0
ENDBRANCH   5   6
ENDBRANCH   4   5
ENDBRANCH   2   4
BRANCH   1  10
ATOM     10  C   UNL     1       2.733  16.034  22.099  1.00  0.00     0.111 C 
BRANCH  10  11
ATOM     11  C   UNL     1       2.747  14.530  22.034  1.00  0.00     0.163 C 
ATOM     12  O   UNL     1       1.714  13.909  22.403  1.00  0.00    -0.294 OA
BRANCH  11  13
ATOM     13  C   UNL     1       3.908  13.762  21.492  1.00  0.00    -0.002 C 
ATOM     14  C   UNL     1       4.760  13.098  22.331  1.00  0.00    -0.069 C 
ATOM     15  C   UNL     1       5.847  12.185  21.809  1.00  0.00     0.039 C 
ATOM     16  C   UNL     1       4.652  13.243  23.833  1.00  0.00     0.039 C 
BRANCH  13  17
ATOM     17  C   UNL     1       4.041  13.677  19.981  1.00  0.00     0.066 CG0
ATOM     18  G   UNL     1       2.700  13.512  19.292  1.00  0.00     0.000 G0
ENDBRANCH  13  17
ENDBRANCH  11  13
ENDBRANCH  10  11
ENDBRANCH   1  10
TORSDOF 0
ENDMDL
MODEL 4
REMARK VINA RESULT:    -3.513      3.087      6.066
REMARK INTER + INTRA:          -4.794
REMARK INTER:                  -5.001
REMARK INTRA:                   0.208
REMARK UNBOUND:                 0.157
REMARK SMILES CC1=CCC(=C(C)C)C(=O)CC(C)=CCC1
REMARK SMILES IDX 12 1 14 2 13 3 15 4 16 5 2 6 1 7 3 8 11 10 9 11 10 12 5 13
REMARK SMILES IDX 6 14 7 15 8 16 4 17
REMARK H PARENT
REMARK Flexibility Score: 60.00
ROOT
ATOM      1  C   UNL     1       3.052  13.283  23.681  1.00  0.00    -0.070 C 
ATOM      2  C   UNL     1       3.394  14.591  23.704  1.00  0.00    -0.027 C 
ATOM      3  C   UNL     1       3.995  12.297  24.323  1.00  0.00     0.039 C 
ENDROOT
BRANCH   2   4
ATOM      4  C   UNL     1       2.539  15.736  23.203  1.00  0.00     0.032 C 
BRANCH   4   5
ATOM      5  C   UNL     1       2.504  15.893  21.668  1.00  0.00     0.034 C 
BRANCH   5   6
ATOM      6  C   UNL     1       1.095  15.911  21.102  1.00  0.00    -0.077 C 
ATOM      7  C   UNL     1       0.218  17.090  21.442  1.00  0.00     0.039 C 
ATOM      8  C   UNL     1       0.599  14.973  20.258  1.00  0.00    -0.023 CG0
ATOM      9  G   UNL     1       1.286  13.702  19.797  1.00  0.00     0.000 G0
ENDBRANCH   5   6
ENDBRANCH   4   5
ENDBRANCH   2   4
BRANCH   1  10
ATOM     10  C   UNL     1       1.735  12.777  23.128  1.00  0.00     0.111 C 
BRANCH  10  11
ATOM     11  C   UNL     1       1.901  12.184  21.754  1.00  0.00     0.163 C 
ATOM     12  O   UNL     1       2.837  11.358  21.572  1.00  0.00    -0.294 OA
BRANCH  11  13
ATOM     13  C   UNL     1       0.966  12.490  20.630  1.00  0.00    -0.002 C 
ATOM     14  C   UNL     1      -0.170  11.753  20.445  1.00  0.00    -0.069 C 
ATOM     15  C   UNL     1      -1.213  12.133  19.417  1.00  0.00     0.039 C 
ATOM     16  C   UNL     1      -0.443  10.512  21.267  1.00  0.00     0.039 C 
BRANCH  13  17
ATOM     17  C   UNL     1       1.285  13.702  19.771  1.00  0.00     0.066 CG0
ATOM     18  G   UNL     1       0.593  14.958  20.266  1.00  0.00     0.000 G0
ENDBRANCH  13  17
ENDBRANCH  11  13
ENDBRANCH  10  11
ENDBRANCH   1  10
TORSDOF 0
ENDMDL
MODEL 5
REMARK VINA RESULT:    -3.483      4.146      5.982
REMARK INTER + INTRA:          -4.751
REMARK INTER:                  -5.211
REMARK INTRA:                   0.460
REMARK UNBOUND:                 0.157
REMARK SMILES CC1=CCC(=C(C)C)C(=O)CC(C)=CCC1
REMARK SMILES IDX 12 1 14 2 13 3 15 4 16 5 2 6 1 7 3 8 11 10 9 11 10 12 5 13
REMARK SMILES IDX 6 14 7 15 8 16 4 17
REMARK H PARENT
REMARK Flexibility Score: 60.00
ROOT
ATOM      1  C   UNL     1       1.523  16.409  21.659  1.00  0.00    -0.070 C 
ATOM      2  C   UNL     1       2.228  16.075  22.764  1.00  0.00    -0.027 C 
ATOM      3  C   UNL     1       0.162  17.029  21.852  1.00  0.00     0.039 C 
ENDROOT
BRANCH   2   4
ATOM      4  C   UNL     1       3.642  15.535  22.780  1.00  0.00     0.032 C 
BRANCH   4   5
ATOM      5  C   UNL     1       3.804  14.167  23.473  1.00  0.00     0.034 C 
BRANCH   5   6
ATOM      6  C   UNL     1       2.979  13.068  22.828  1.00  0.00    -0.077 C 
ATOM      7  C   UNL     1       1.995  12.327  23.698  1.00  0.00     0.039 C 
ATOM      8  C   UNL     1       3.020  12.756  21.510  1.00  0.00    -0.023 CG0
ATOM      9  G   UNL     1       3.936  13.349  20.457  1.00  0.00     0.000 G0
ENDBRANCH   5   6
ENDBRANCH   4   5
ENDBRANCH   2   4
BRANCH   1  10
ATOM     10  C   UNL     1       2.070  16.275  20.252  1.00  0.00     0.111 C 
BRANCH  10  11
ATOM     11  C   UNL     1       1.967  14.861  19.748  1.00  0.00     0.163 C 
ATOM     12  O   UNL     1       0.818  14.357  19.621  1.00  0.00    -0.294 OA
BRANCH  11  13
ATOM     13  C   UNL     1       3.164  14.066  19.339  1.00  0.00    -0.002 C 
ATOM     14  C   UNL     1       3.593  14.065  18.041  1.00  0.00    -0.069 C 
ATOM     15  C   UNL     1       4.887  13.401  17.626  1.00  0.00     0.039 C 
ATOM     16  C   UNL     1       2.788  14.736  16.949  1.00  0.00     0.039 C 
BRANCH  13  17
ATOM     17  C   UNL     1       3.927  13.344  20.437  1.00  0.00     0.066 CG0
ATOM     18  G   UNL     1       3.008  12.768  21.497  1.00  0.00     0.000 G0
ENDBRANCH  13  17
ENDBRANCH  11  13
ENDBRANCH  10  11
ENDBRANCH   1  10
TORSDOF 0
ENDMDL
MODEL 6
REMARK VINA RESULT:    -3.415      2.964      6.033
REMARK INTER + INTRA:          -4.656
REMARK INTER:                  -4.788
REMARK INTRA:                   0.132
REMARK UNBOUND:                 0.157
REMARK SMILES CC1=CCC(=C(C)C)C(=O)CC(C)=CCC1
REMARK SMILES IDX 12 1 14 2 13 3 15 4 16 5 2 6 1 7 3 8 11 10 9 11 10 12 5 13
REMARK SMILES IDX 6 14 7 15 8 16 4 17
REMARK H PARENT
REMARK Flexibility Score: 60.00
ROOT
ATOM      1  C   UNL     1       3.103  14.989  22.665  1.00  0.00    -0.070 C 
ATOM      2  C   UNL     1       2.243  16.028  22.756  1.00  0.00    -0.027 C 
ATOM      3  C   UNL     1       3.700  14.454  23.943  1.00  0.00     0.039 C 
ENDROOT
BRANCH   2   4
ATOM      4  C   UNL     1       1.471  16.638  21.606  1.00  0.00     0.032 C 
BRANCH   4   5
ATOM      5  C   UNL     1       0.223  15.843  21.171  1.00  0.00     0.034 C 
BRANCH   5   6
ATOM      6  C   UNL     1       0.162  15.598  19.674  1.00  0.00    -0.077 C 
ATOM      7  C   UNL     1      -0.016  16.795  18.774  1.00  0.00     0.039 C 
ATOM      8  C   UNL     1       0.325  14.385  19.091  1.00  0.00    -0.023 CG0
ATOM      9  G   UNL     1       0.497  13.050  19.790  1.00  0.00     0.000 G0
ENDBRANCH   5   6
ENDBRANCH   4   5
ENDBRANCH   2   4
BRANCH   1  10
ATOM     10  C   UNL     1       3.423  14.284  21.363  1.00  0.00     0.111 C 
BRANCH  10  11
ATOM     11  C   UNL     1       2.636  13.010  21.213  1.00  0.00     0.163 C 
ATOM     12  O   UNL     1       2.510  12.267  22.224  1.00  0.00    -0.294 OA
BRANCH  11  13
ATOM     13  C   UNL     1       1.954  12.632  19.939  1.00  0.00    -0.002 C 
ATOM     14  C   UNL     1       2.600  11.884  18.995  1.00  0.00    -0.069 C 
ATOM     15  C   UNL     1       1.890  11.354  17.769  1.00  0.00     0.039 C 
ATOM     16  C   UNL     1       4.068  11.545  19.133  1.00  0.00     0.039 C 
BRANCH  13  17
ATOM     17  C   UNL     1       0.496  13.034  19.785  1.00  0.00     0.066 CG0
ATOM     18  G   UNL     1       0.338  14.380  19.105  1.00  0.00     0.000 G0
ENDBRANCH  13  17
ENDBRANCH  11  13
ENDBRANCH  10  11
ENDBRANCH   1  10
TORSDOF 0
ENDMDL
MODEL 7
REMARK VINA RESULT:    -3.415      2.615      5.402
REMARK INTER + INTRA:          -4.656
REMARK INTER:                  -4.879
REMARK INTRA:                   0.222
REMARK UNBOUND:                 0.157
REMARK SMILES CC1=CCC(=C(C)C)C(=O)CC(C)=CCC1
REMARK SMILES IDX 12 1 14 2 13 3 15 4 16 5 2 6 1 7 3 8 11 10 9 11 10 12 5 13
REMARK SMILES IDX 6 14 7 15 8 16 4 17
REMARK H PARENT
REMARK Flexibility Score: 60.00
ROOT
ATOM      1  C   UNL     1       1.270  16.168  21.361  1.00  0.00    -0.070 C 
ATOM      2  C   UNL     1       2.293  16.361  22.224  1.00  0.00    -0.027 C 
ATOM      3  C   UNL     1       0.933  17.285  20.405  1.00  0.00     0.039 C 
ENDROOT
BRANCH   2   4
ATOM      4  C   UNL     1       2.842  15.331  23.187  1.00  0.00     0.032 C 
BRANCH   4   5
ATOM      5  C   UNL     1       3.696  14.225  22.534  1.00  0.00     0.034 C 
BRANCH   5   6
ATOM      6  C   UNL     1       3.232  12.824  22.889  1.00  0.00    -0.077 C 
ATOM      7  C   UNL     1       3.288  12.412  24.338  1.00  0.00     0.039 C 
ATOM      8  C   UNL     1       2.708  11.945  22.000  1.00  0.00    -0.023 CG0
ATOM      9  G   UNL     1       2.571  12.132  20.501  1.00  0.00     0.000 G0
ENDBRANCH   5   6
ENDBRANCH   4   5
ENDBRANCH   2   4
BRANCH   1  10
ATOM     10  C   UNL     1       0.512  14.860  21.249  1.00  0.00     0.111 C 
BRANCH  10  11
ATOM     11  C   UNL     1       0.949  14.067  20.046  1.00  0.00     0.163 C 
ATOM     12  O   UNL     1       1.182  14.691  18.975  1.00  0.00    -0.294 OA
BRANCH  11  13
ATOM     13  C   UNL     1       1.174  12.591  20.097  1.00  0.00    -0.002 C 
ATOM     14  C   UNL     1       0.193  11.720  19.714  1.00  0.00    -0.069 C 
ATOM     15  C   UNL     1       0.441  10.232  19.604  1.00  0.00     0.039 C 
ATOM     16  C   UNL     1      -1.199  12.207  19.375  1.00  0.00     0.039 C 
BRANCH  13  17
ATOM     17  C   UNL     1       2.560  12.113  20.500  1.00  0.00     0.066 CG0
ATOM     18  G   UNL     1       2.699  11.947  22.001  1.00  0.00     0.000 G0
ENDBRANCH  13  17
ENDBRANCH  11  13
ENDBRANCH  10  11
ENDBRANCH   1  10
TORSDOF 0
ENDMDL
MODEL 8
REMARK VINA RESULT:    -3.222      1.655      1.907
REMARK INTER + INTRA:          -4.383
REMARK INTER:                  -4.967
REMARK INTRA:                   0.584
REMARK UNBOUND:                 0.157
REMARK SMILES CC1=CCC(=C(C)C)C(=O)CC(C)=CCC1
REMARK SMILES IDX 12 1 14 2 13 3 15 4 16 5 2 6 1 7 3 8 11 10 9 11 10 12 5 13
REMARK SMILES IDX 6 14 7 15 8 16 4 17
REMARK H PARENT
REMARK Flexibility Score: 60.00
ROOT
ATOM      1  C   UNL     1       1.696   9.411  17.946  1.00  0.00    -0.070 C 
ATOM      2  C   UNL     1       0.845   8.539  18.532  1.00  0.00    -0.027 C 
ATOM      3  C   UNL     1       2.776   8.850  17.055  1.00  0.00     0.039 C 
ENDROOT
BRANCH   2   4
ATOM      4  C   UNL     1      -0.355   8.910  19.377  1.00  0.00     0.032 C 
BRANCH   4   5
ATOM      5  C   UNL     1      -0.308   8.392  20.830  1.00  0.00     0.034 C 
BRANCH   5   6
ATOM      6  C   UNL     1       1.005   8.695  21.530  1.00  0.00    -0.077 C 
ATOM      7  C   UNL     1       1.812   7.529  22.041  1.00  0.00     0.039 C 
ATOM      8  C   UNL     1       1.530   9.938  21.665  1.00  0.00    -0.023 CG0
ATOM      9  G   UNL     1       0.893  11.250  21.249  1.00  0.00     0.000 G0
ENDBRANCH   5   6
ENDBRANCH   4   5
ENDBRANCH   2   4
BRANCH   1  10
ATOM     10  C   UNL     1       1.562  10.915  18.069  1.00  0.00     0.111 C 
BRANCH  10  11
ATOM     11  C   UNL     1       2.418  11.460  19.180  1.00  0.00     0.163 C 
ATOM     12  O   UNL     1       3.671  11.417  19.041  1.00  0.00    -0.294 OA
BRANCH  11  13
ATOM     13  C   UNL     1       1.839  12.101  20.399  1.00  0.00    -0.002 C 
ATOM     14  C   UNL     1       2.081  13.417  20.679  1.00  0.00    -0.069 C 
ATOM     15  C   UNL     1       1.385  14.135  21.814  1.00  0.00     0.039 C 
ATOM     16  C   UNL     1       3.063  14.226  19.860  1.00  0.00     0.039 C 
BRANCH  13  17
ATOM     17  C   UNL     1       0.904  11.258  21.249  1.00  0.00     0.066 CG0
ATOM     18  G   UNL     1       1.533   9.945  21.671  1.00  0.00     0.000 G0
ENDBRANCH  13  17
ENDBRANCH  11  13
ENDBRANCH  10  11
ENDBRANCH   1  10
TORSDOF 0
ENDMDL
MODEL 9
REMARK VINA RESULT:    -3.196      3.301      5.655
REMARK INTER + INTRA:          -4.347
REMARK INTER:                  -4.812
REMARK INTRA:                   0.464
REMARK UNBOUND:                 0.157
REMARK SMILES CC1=CCC(=C(C)C)C(=O)CC(C)=CCC1
REMARK SMILES IDX 12 1 14 2 13 3 15 4 16 5 2 6 1 7 3 8 11 10 9 11 10 12 5 13
REMARK SMILES IDX 6 14 7 15 8 16 4 17
REMARK H PARENT
REMARK Flexibility Score: 60.00
ROOT
ATOM      1  C   UNL     1       2.704  14.845  22.774  1.00  0.00    -0.070 C 
ATOM      2  C   UNL     1       3.253  14.302  23.883  1.00  0.00    -0.027 C 
ATOM      3  C   UNL     1       3.245  16.169  22.296  1.00  0.00     0.039 C 
ENDROOT
BRANCH   2   4
ATOM      4  C   UNL     1       2.916  12.943  24.460  1.00  0.00     0.032 C 
BRANCH   4   5
ATOM      5  C   UNL     1       4.110  11.972  24.569  1.00  0.00     0.034 C 
BRANCH   5   6
ATOM      6  C   UNL     1       4.782  11.700  23.235  1.00  0.00    -0.077 C 
ATOM      7  C   UNL     1       6.272  11.911  23.145  1.00  0.00     0.039 C 
ATOM      8  C   UNL     1       4.143  11.216  22.142  1.00  0.00    -0.023 CG0
ATOM      9  G   UNL     1       2.657  10.947  21.996  1.00  0.00     0.000 G0
ENDBRANCH   5   6
ENDBRANCH   4   5
ENDBRANCH   2   4
BRANCH   1  10
ATOM     10  C   UNL     1       1.645  14.150  21.943  1.00  0.00     0.111 C 
BRANCH  10  11
ATOM     11  C   UNL     1       2.256  13.249  20.903  1.00  0.00     0.163 C 
ATOM     12  O   UNL     1       3.038  13.763  20.058  1.00  0.00    -0.294 OA
BRANCH  11  13
ATOM     13  C   UNL     1       2.019  11.775  20.880  1.00  0.00    -0.002 C 
ATOM     14  C   UNL     1       1.333  11.193  19.851  1.00  0.00    -0.069 C 
ATOM     15  C   UNL     1       1.213   9.691  19.716  1.00  0.00     0.039 C 
ATOM     16  C   UNL     1       0.658  12.029  18.786  1.00  0.00     0.039 C 
BRANCH  13  17
ATOM     17  C   UNL     1       2.651  10.952  21.990  1.00  0.00     0.066 CG0
ATOM     18  G   UNL     1       4.139  11.213  22.127  1.00  0.00     0.000 G0
ENDBRANCH  13  17
ENDBRANCH  11  13
ENDBRANCH  10  11
ENDBRANCH   1  10
TORSDOF 0
ENDMDL
