MODEL 1
REMARK VINA RESULT:    -6.829      0.000      0.000
REMARK INTER + INTRA:          -7.427
REMARK INTER:                  -7.427
REMARK INTRA:                   0.000
REMARK UNBOUND:                 0.000
REMARK SMILES Cc1cc(O)c2c(c1)C(=O)c1cc(O)cc(O)c1C2=O
REMARK SMILES IDX 1 1 2 2 8 3 7 4 6 5 4 6 3 7 19 8 20 9 18 10 11 11 9 12 10 13
REMARK SMILES IDX 12 14 13 15 15 16 16 17 5 18 17 20 14 22
REMARK H PARENT 5 19 17 21 14 23
REMARK Flexibility Score: inf
ROOT
ATOM      1  C   UNL     1       7.758  51.516  25.125  1.00  0.00     0.044 C 
ATOM      2  C   UNL     1       8.293  51.823  23.757  1.00  0.00    -0.047 A 
ATOM      3  C   UNL     1       7.415  52.096  22.702  1.00  0.00     0.016 A 
ATOM      4  C   UNL     1       7.906  52.428  21.428  1.00  0.00     0.038 A 
ATOM      5  C   UNL     1       9.300  52.515  21.212  1.00  0.00     0.076 A 
ATOM      6  C   UNL     1      10.186  52.193  22.273  1.00  0.00     0.127 A 
ATOM      7  C   UNL     1       9.673  51.885  23.537  1.00  0.00     0.050 A 
ATOM      8  C   UNL     1       9.776  53.013  19.895  1.00  0.00     0.201 C 
ATOM      9  O   UNL     1      10.867  53.638  19.818  1.00  0.00    -0.288 OA
ATOM     10  C   UNL     1       8.881  52.938  18.711  1.00  0.00     0.076 A 
ATOM     11  C   UNL     1       7.488  52.851  18.932  1.00  0.00     0.041 A 
ATOM     12  C   UNL     1       6.968  52.685  20.309  1.00  0.00     0.194 C 
ATOM     13  O   UNL     1       5.726  52.735  20.525  1.00  0.00    -0.289 OA
ATOM     14  C   UNL     1       6.602  52.919  17.843  1.00  0.00     0.059 A 
ATOM     15  C   UNL     1       7.087  53.054  16.542  1.00  0.00     0.120 A 
ATOM     16  C   UNL     1       8.465  53.101  16.315  1.00  0.00     0.093 A 
ATOM     17  C   UNL     1       9.368  53.016  17.380  1.00  0.00     0.131 A 
ENDROOT
BRANCH   6  18
ATOM     18  O   UNL     1      11.571  52.136  22.109  1.00  0.00    -0.507 OA
ATOM     19  H   UNL     1      12.124  52.905  21.754  1.00  0.00     0.293 HD
ENDBRANCH   6  18
BRANCH  17  20
ATOM     20  O   UNL     1      10.729  52.976  17.069  1.00  0.00    -0.507 OA
ATOM     21  H   UNL     1      11.229  53.749  16.652  1.00  0.00     0.293 HD
ENDBRANCH  17  20
BRANCH  15  22
ATOM     22  O   UNL     1       6.190  53.131  15.480  1.00  0.00    -0.508 OA
ATOM     23  H   UNL     1       6.030  54.000  14.983  1.00  0.00     0.293 HD
ENDBRANCH  15  22
TORSDOF 3
ENDMDL
MODEL 2
REMARK VINA RESULT:    -6.687      2.313      3.373
REMARK INTER + INTRA:          -7.273
REMARK INTER:                  -7.273
REMARK INTRA:                   0.000
REMARK UNBOUND:                 0.000
REMARK SMILES Cc1cc(O)c2c(c1)C(=O)c1cc(O)cc(O)c1C2=O
REMARK SMILES IDX 1 1 2 2 8 3 7 4 6 5 4 6 3 7 19 8 20 9 18 10 11 11 9 12 10 13
REMARK SMILES IDX 12 14 13 15 15 16 16 17 5 18 17 20 14 22
REMARK H PARENT 5 19 17 21 14 23
REMARK Flexibility Score: inf
ROOT
ATOM      1  C   UNL     1       6.247  51.848  25.124  1.00  0.00     0.044 C 
ATOM      2  C   UNL     1       7.559  51.749  24.403  1.00  0.00    -0.047 A 
ATOM      3  C   UNL     1       7.665  52.167  23.072  1.00  0.00     0.016 A 
ATOM      4  C   UNL     1       8.899  52.120  22.401  1.00  0.00     0.038 A 
ATOM      5  C   UNL     1      10.053  51.671  23.083  1.00  0.00     0.076 A 
ATOM      6  C   UNL     1       9.931  51.206  24.418  1.00  0.00     0.127 A 
ATOM      7  C   UNL     1       8.696  51.282  25.070  1.00  0.00     0.050 A 
ATOM      8  C   UNL     1      11.363  51.776  22.388  1.00  0.00     0.201 C 
ATOM      9  O   UNL     1      12.415  51.952  23.058  1.00  0.00    -0.288 OA
ATOM     10  C   UNL     1      11.406  51.860  20.905  1.00  0.00     0.076 A 
ATOM     11  C   UNL     1      10.250  52.309  20.227  1.00  0.00     0.041 A 
ATOM     12  C   UNL     1       8.995  52.535  20.981  1.00  0.00     0.194 C 
ATOM     13  O   UNL     1       7.999  53.055  20.407  1.00  0.00    -0.289 OA
ATOM     14  C   UNL     1      10.296  52.535  18.841  1.00  0.00     0.059 A 
ATOM     15  C   UNL     1      11.469  52.304  18.124  1.00  0.00     0.120 A 
ATOM     16  C   UNL     1      12.604  51.823  18.782  1.00  0.00     0.093 A 
ATOM     17  C   UNL     1      12.579  51.572  20.158  1.00  0.00     0.131 A 
ENDROOT
BRANCH   6  18
ATOM     18  O   UNL     1      10.995  50.636  25.119  1.00  0.00    -0.507 OA
ATOM     19  H   UNL     1      11.831  51.144  25.378  1.00  0.00     0.293 HD
ENDBRANCH   6  18
BRANCH  17  20
ATOM     20  O   UNL     1      13.720  51.005  20.731  1.00  0.00    -0.507 OA
ATOM     21  H   UNL     1      14.145  50.151  20.400  1.00  0.00     0.293 HD
ENDBRANCH  17  20
BRANCH  15  22
ATOM     22  O   UNL     1      11.494  52.547  16.753  1.00  0.00    -0.508 OA
ATOM     23  H   UNL     1      10.640  52.646  16.216  1.00  0.00     0.293 HD
ENDBRANCH  15  22
TORSDOF 3
ENDMDL
MODEL 3
REMARK VINA RESULT:    -6.506      1.547      6.380
REMARK INTER + INTRA:          -7.076
REMARK INTER:                  -7.076
REMARK INTRA:                   0.000
REMARK UNBOUND:                 0.000
REMARK SMILES Cc1cc(O)c2c(c1)C(=O)c1cc(O)cc(O)c1C2=O
REMARK SMILES IDX 1 1 2 2 8 3 7 4 6 5 4 6 3 7 19 8 20 9 18 10 11 11 9 12 10 13
REMARK SMILES IDX 12 14 13 15 15 16 16 17 5 18 17 20 14 22
REMARK H PARENT 5 19 17 21 14 23
REMARK Flexibility Score: inf
ROOT
ATOM      1  C   UNL     1       7.859  53.059  15.947  1.00  0.00     0.044 C 
ATOM      2  C   UNL     1       7.603  52.885  17.415  1.00  0.00    -0.047 A 
ATOM      3  C   UNL     1       8.671  52.854  18.318  1.00  0.00     0.016 A 
ATOM      4  C   UNL     1       8.440  52.736  19.699  1.00  0.00     0.038 A 
ATOM      5  C   UNL     1       7.115  52.674  20.187  1.00  0.00     0.076 A 
ATOM      6  C   UNL     1       6.038  52.660  19.264  1.00  0.00     0.127 A 
ATOM      7  C   UNL     1       6.292  52.799  17.897  1.00  0.00     0.050 A 
ATOM      8  C   UNL     1       6.908  52.699  21.659  1.00  0.00     0.201 C 
ATOM      9  O   UNL     1       5.859  53.207  22.136  1.00  0.00    -0.288 OA
ATOM     10  C   UNL     1       8.015  52.299  22.566  1.00  0.00     0.076 A 
ATOM     11  C   UNL     1       9.338  52.363  22.074  1.00  0.00     0.041 A 
ATOM     12  C   UNL     1       9.579  52.673  20.645  1.00  0.00     0.194 C 
ATOM     13  O   UNL     1      10.756  52.857  20.229  1.00  0.00    -0.289 OA
ATOM     14  C   UNL     1      10.419  52.127  22.941  1.00  0.00     0.059 A 
ATOM     15  C   UNL     1      10.196  51.815  24.281  1.00  0.00     0.120 A 
ATOM     16  C   UNL     1       8.890  51.712  24.764  1.00  0.00     0.093 A 
ATOM     17  C   UNL     1       7.796  51.922  23.917  1.00  0.00     0.131 A 
ENDROOT
BRANCH   6  18
ATOM     18  O   UNL     1       4.710  52.478  19.656  1.00  0.00    -0.507 OA
ATOM     19  H   UNL     1       3.923  52.890  19.172  1.00  0.00     0.293 HD
ENDBRANCH   6  18
BRANCH  17  20
ATOM     20  O   UNL     1       6.521  51.712  24.446  1.00  0.00    -0.507 OA
ATOM     21  H   UNL     1       6.302  51.802  25.429  1.00  0.00     0.293 HD
ENDBRANCH  17  20
BRANCH  15  22
ATOM     22  O   UNL     1      11.284  51.597  25.125  1.00  0.00    -0.508 OA
ATOM     23  H   UNL     1      11.288  50.842  25.800  1.00  0.00     0.293 HD
ENDBRANCH  15  22
TORSDOF 3
ENDMDL
MODEL 4
REMARK VINA RESULT:    -6.332      1.717      2.819
REMARK INTER + INTRA:          -6.887
REMARK INTER:                  -6.887
REMARK INTRA:                   0.000
REMARK UNBOUND:                 0.000
REMARK SMILES Cc1cc(O)c2c(c1)C(=O)c1cc(O)cc(O)c1C2=O
REMARK SMILES IDX 1 1 2 2 8 3 7 4 6 5 4 6 3 7 19 8 20 9 18 10 11 11 9 12 10 13
REMARK SMILES IDX 12 14 13 15 15 16 16 17 5 18 17 20 14 22
REMARK H PARENT 5 19 17 21 14 23
REMARK Flexibility Score: inf
ROOT
ATOM      1  C   UNL     1      11.919  51.365  25.125  1.00  0.00     0.044 C 
ATOM      2  C   UNL     1      11.247  51.694  23.824  1.00  0.00    -0.047 A 
ATOM      3  C   UNL     1       9.869  51.936  23.785  1.00  0.00     0.016 A 
ATOM      4  C   UNL     1       9.237  52.289  22.581  1.00  0.00     0.038 A 
ATOM      5  C   UNL     1      10.000  52.427  21.400  1.00  0.00     0.076 A 
ATOM      6  C   UNL     1      11.389  52.137  21.436  1.00  0.00     0.127 A 
ATOM      7  C   UNL     1      11.999  51.808  22.650  1.00  0.00     0.050 A 
ATOM      8  C   UNL     1       9.322  52.944  20.182  1.00  0.00     0.201 C 
ATOM      9  O   UNL     1       9.976  53.610  19.335  1.00  0.00    -0.288 OA
ATOM     10  C   UNL     1       7.846  52.838  20.060  1.00  0.00     0.076 A 
ATOM     11  C   UNL     1       7.085  52.700  21.243  1.00  0.00     0.041 A 
ATOM     12  C   UNL     1       7.772  52.512  22.543  1.00  0.00     0.194 C 
ATOM     13  O   UNL     1       7.106  52.516  23.615  1.00  0.00    -0.289 OA
ATOM     14  C   UNL     1       5.682  52.736  21.181  1.00  0.00     0.059 A 
ATOM     15  C   UNL     1       5.031  52.892  19.958  1.00  0.00     0.120 A 
ATOM     16  C   UNL     1       5.776  52.990  18.781  1.00  0.00     0.093 A 
ATOM     17  C   UNL     1       7.174  52.937  18.813  1.00  0.00     0.131 A 
ENDROOT
BRANCH   6  18
ATOM     18  O   UNL     1      12.190  52.131  20.292  1.00  0.00    -0.507 OA
ATOM     19  H   UNL     1      12.091  52.798  19.537  1.00  0.00     0.293 HD
ENDBRANCH   6  18
BRANCH  17  20
ATOM     20  O   UNL     1       7.848  52.948  17.590  1.00  0.00    -0.507 OA
ATOM     21  H   UNL     1       8.855  52.968  17.507  1.00  0.00     0.293 HD
ENDBRANCH  17  20
BRANCH  15  22
ATOM     22  O   UNL     1       3.639  52.937  19.922  1.00  0.00    -0.508 OA
ATOM     23  H   UNL     1       3.139  53.227  19.090  1.00  0.00     0.293 HD
ENDBRANCH  15  22
TORSDOF 3
ENDMDL
MODEL 5
REMARK VINA RESULT:    -6.206      2.684      5.046
REMARK INTER + INTRA:          -6.750
REMARK INTER:                  -6.750
REMARK INTRA:                   0.000
REMARK UNBOUND:                 0.000
REMARK SMILES Cc1cc(O)c2c(c1)C(=O)c1cc(O)cc(O)c1C2=O
REMARK SMILES IDX 1 1 2 2 8 3 7 4 6 5 4 6 3 7 19 8 20 9 18 10 11 11 9 12 10 13
REMARK SMILES IDX 12 14 13 15 15 16 16 17 5 18 17 20 14 22
REMARK H PARENT 5 19 17 21 14 23
REMARK Flexibility Score: inf
ROOT
ATOM      1  C   UNL     1       6.618  51.737  24.850  1.00  0.00     0.044 C 
ATOM      2  C   UNL     1       7.598  52.018  23.749  1.00  0.00    -0.047 A 
ATOM      3  C   UNL     1       8.874  51.445  23.780  1.00  0.00     0.016 A 
ATOM      4  C   UNL     1       9.784  51.666  22.732  1.00  0.00     0.038 A 
ATOM      5  C   UNL     1       9.402  52.453  21.622  1.00  0.00     0.076 A 
ATOM      6  C   UNL     1       8.123  53.068  21.618  1.00  0.00     0.127 A 
ATOM      7  C   UNL     1       7.228  52.817  22.662  1.00  0.00     0.050 A 
ATOM      8  C   UNL     1      10.336  52.540  20.469  1.00  0.00     0.201 C 
ATOM      9  O   UNL     1       9.881  52.700  19.305  1.00  0.00    -0.288 OA
ATOM     10  C   UNL     1      11.780  52.253  20.666  1.00  0.00     0.076 A 
ATOM     11  C   UNL     1      12.159  51.466  21.778  1.00  0.00     0.041 A 
ATOM     12  C   UNL     1      11.145  51.080  22.788  1.00  0.00     0.194 C 
ATOM     13  O   UNL     1      11.448  50.275  23.710  1.00  0.00    -0.289 OA
ATOM     14  C   UNL     1      13.495  51.057  21.922  1.00  0.00     0.059 A 
ATOM     15  C   UNL     1      14.457  51.434  20.985  1.00  0.00     0.120 A 
ATOM     16  C   UNL     1      14.096  52.245  19.906  1.00  0.00     0.093 A 
ATOM     17  C   UNL     1      12.776  52.682  19.750  1.00  0.00     0.131 A 
ENDROOT
BRANCH   6  18
ATOM     18  O   UNL     1       7.715  53.956  20.620  1.00  0.00    -0.507 OA
ATOM     19  H   UNL     1       7.578  53.687  19.655  1.00  0.00     0.293 HD
ENDBRANCH   6  18
BRANCH  17  20
ATOM     20  O   UNL     1      12.509  53.564  18.701  1.00  0.00    -0.507 OA
ATOM     21  H   UNL     1      12.958  53.509  17.798  1.00  0.00     0.293 HD
ENDBRANCH  17  20
BRANCH  15  22
ATOM     22  O   UNL     1      15.773  51.006  21.142  1.00  0.00    -0.508 OA
ATOM     23  H   UNL     1      15.994  50.043  21.367  1.00  0.00     0.293 HD
ENDBRANCH  15  22
TORSDOF 3
ENDMDL
MODEL 6
REMARK VINA RESULT:    -6.077      2.592      5.522
REMARK INTER + INTRA:          -6.610
REMARK INTER:                  -6.610
REMARK INTRA:                   0.000
REMARK UNBOUND:                 0.000
REMARK SMILES Cc1cc(O)c2c(c1)C(=O)c1cc(O)cc(O)c1C2=O
REMARK SMILES IDX 1 1 2 2 8 3 7 4 6 5 4 6 3 7 19 8 20 9 18 10 11 11 9 12 10 13
REMARK SMILES IDX 12 14 13 15 15 16 16 17 5 18 17 20 14 22
REMARK H PARENT 5 19 17 21 14 23
REMARK Flexibility Score: inf
ROOT
ATOM      1  C   UNL     1      15.697  50.868  20.992  1.00  0.00     0.044 C 
ATOM      2  C   UNL     1      14.282  51.346  20.843  1.00  0.00    -0.047 A 
ATOM      3  C   UNL     1      13.398  51.275  21.926  1.00  0.00     0.016 A 
ATOM      4  C   UNL     1      12.084  51.761  21.811  1.00  0.00     0.038 A 
ATOM      5  C   UNL     1      11.656  52.352  20.601  1.00  0.00     0.076 A 
ATOM      6  C   UNL     1      12.542  52.380  19.493  1.00  0.00     0.127 A 
ATOM      7  C   UNL     1      13.851  51.909  19.638  1.00  0.00     0.050 A 
ATOM      8  C   UNL     1      10.312  52.985  20.567  1.00  0.00     0.201 C 
ATOM      9  O   UNL     1      10.100  53.967  19.806  1.00  0.00    -0.288 OA
ATOM     10  C   UNL     1       9.282  52.584  21.560  1.00  0.00     0.076 A 
ATOM     11  C   UNL     1       9.714  51.993  22.769  1.00  0.00     0.041 A 
ATOM     12  C   UNL     1      11.144  51.652  22.953  1.00  0.00     0.194 C 
ATOM     13  O   UNL     1      11.557  51.244  24.073  1.00  0.00    -0.289 OA
ATOM     14  C   UNL     1       8.785  51.728  23.789  1.00  0.00     0.059 A 
ATOM     15  C   UNL     1       7.435  52.028  23.613  1.00  0.00     0.120 A 
ATOM     16  C   UNL     1       6.996  52.576  22.406  1.00  0.00     0.093 A 
ATOM     17  C   UNL     1       7.897  52.831  21.367  1.00  0.00     0.131 A 
ENDROOT
BRANCH   6  18
ATOM     18  O   UNL     1      12.158  52.835  18.230  1.00  0.00    -0.507 OA
ATOM     19  H   UNL     1      12.557  53.650  17.784  1.00  0.00     0.293 HD
ENDBRANCH   6  18
BRANCH  17  20
ATOM     20  O   UNL     1       7.374  53.293  20.157  1.00  0.00    -0.507 OA
ATOM     21  H   UNL     1       6.613  52.841  19.669  1.00  0.00     0.293 HD
ENDBRANCH  17  20
BRANCH  15  22
ATOM     22  O   UNL     1       6.534  51.768  24.643  1.00  0.00    -0.508 OA
ATOM     23  H   UNL     1       6.638  52.191  25.558  1.00  0.00     0.293 HD
ENDBRANCH  15  22
TORSDOF 3
ENDMDL
MODEL 7
REMARK VINA RESULT:    -6.001      2.639      5.288
REMARK INTER + INTRA:          -6.527
REMARK INTER:                  -6.527
REMARK INTRA:                   0.000
REMARK UNBOUND:                 0.000
REMARK SMILES Cc1cc(O)c2c(c1)C(=O)c1cc(O)cc(O)c1C2=O
REMARK SMILES IDX 1 1 2 2 8 3 7 4 6 5 4 6 3 7 19 8 20 9 18 10 11 11 9 12 10 13
REMARK SMILES IDX 12 14 13 15 15 16 16 17 5 18 17 20 14 22
REMARK H PARENT 5 19 17 21 14 23
REMARK Flexibility Score: inf
ROOT
ATOM      1  C   UNL     1       5.316  53.644  20.817  1.00  0.00     0.044 C 
ATOM      2  C   UNL     1       6.607  53.124  21.376  1.00  0.00    -0.047 A 
ATOM      3  C   UNL     1       7.799  53.282  20.660  1.00  0.00     0.016 A 
ATOM      4  C   UNL     1       9.021  52.838  21.195  1.00  0.00     0.038 A 
ATOM      5  C   UNL     1       9.055  52.249  22.479  1.00  0.00     0.076 A 
ATOM      6  C   UNL     1       7.837  52.050  23.180  1.00  0.00     0.127 A 
ATOM      7  C   UNL     1       6.637  52.519  22.637  1.00  0.00     0.050 A 
ATOM      8  C   UNL     1      10.380  51.928  23.069  1.00  0.00     0.201 C 
ATOM      9  O   UNL     1      10.534  51.960  24.319  1.00  0.00    -0.288 OA
ATOM     10  C   UNL     1      11.560  51.757  22.183  1.00  0.00     0.076 A 
ATOM     11  C   UNL     1      11.523  52.347  20.899  1.00  0.00     0.041 A 
ATOM     12  C   UNL     1      10.274  52.981  20.415  1.00  0.00     0.194 C 
ATOM     13  O   UNL     1      10.271  53.620  19.327  1.00  0.00    -0.289 OA
ATOM     14  C   UNL     1      12.669  52.327  20.086  1.00  0.00     0.059 A 
ATOM     15  C   UNL     1      13.840  51.714  20.529  1.00  0.00     0.120 A 
ATOM     16  C   UNL     1      13.871  51.094  21.780  1.00  0.00     0.093 A 
ATOM     17  C   UNL     1      12.738  51.083  22.601  1.00  0.00     0.131 A 
ENDROOT
BRANCH   6  18
ATOM     18  O   UNL     1       7.770  51.368  24.397  1.00  0.00    -0.507 OA
ATOM     19  H   UNL     1       8.503  51.391  25.093  1.00  0.00     0.293 HD
ENDBRANCH   6  18
BRANCH  17  20
ATOM     20  O   UNL     1      12.815  50.366  23.797  1.00  0.00    -0.507 OA
ATOM     21  H   UNL     1      13.563  50.475  24.466  1.00  0.00     0.293 HD
ENDBRANCH  17  20
BRANCH  15  22
ATOM     22  O   UNL     1      14.968  51.716  19.710  1.00  0.00    -0.508 OA
ATOM     23  H   UNL     1      15.329  50.862  19.304  1.00  0.00     0.293 HD
ENDBRANCH  15  22
TORSDOF 3
ENDMDL
MODEL 8
REMARK VINA RESULT:    -5.961      2.132      6.635
REMARK INTER + INTRA:          -6.483
REMARK INTER:                  -6.483
REMARK INTRA:                   0.000
REMARK UNBOUND:                 0.000
REMARK SMILES Cc1cc(O)c2c(c1)C(=O)c1cc(O)cc(O)c1C2=O
REMARK SMILES IDX 1 1 2 2 8 3 7 4 6 5 4 6 3 7 19 8 20 9 18 10 11 11 9 12 10 13
REMARK SMILES IDX 12 14 13 15 15 16 16 17 5 18 17 20 14 22
REMARK H PARENT 5 19 17 21 14 23
REMARK Flexibility Score: inf
ROOT
ATOM      1  C   UNL     1      11.235  52.370  15.536  1.00  0.00     0.044 C 
ATOM      2  C   UNL     1      10.725  52.383  16.947  1.00  0.00    -0.047 A 
ATOM      3  C   UNL     1      11.564  52.007  18.002  1.00  0.00     0.016 A 
ATOM      4  C   UNL     1      11.111  52.058  19.332  1.00  0.00     0.038 A 
ATOM      5  C   UNL     1       9.805  52.518  19.613  1.00  0.00     0.076 A 
ATOM      6  C   UNL     1       8.944  52.854  18.536  1.00  0.00     0.127 A 
ATOM      7  C   UNL     1       9.424  52.815  17.223  1.00  0.00     0.050 A 
ATOM      8  C   UNL     1       9.415  52.697  21.035  1.00  0.00     0.201 C 
ATOM      9  O   UNL     1       8.575  53.583  21.349  1.00  0.00    -0.288 OA
ATOM     10  C   UNL     1      10.150  51.965  22.099  1.00  0.00     0.076 A 
ATOM     11  C   UNL     1      11.456  51.507  21.815  1.00  0.00     0.041 A 
ATOM     12  C   UNL     1      11.997  51.628  20.440  1.00  0.00     0.194 C 
ATOM     13  O   UNL     1      13.203  51.340  20.209  1.00  0.00    -0.289 OA
ATOM     14  C   UNL     1      12.234  50.935  22.835  1.00  0.00     0.059 A 
ATOM     15  C   UNL     1      11.723  50.800  24.125  1.00  0.00     0.120 A 
ATOM     16  C   UNL     1      10.418  51.215  24.403  1.00  0.00     0.093 A 
ATOM     17  C   UNL     1       9.616  51.769  23.400  1.00  0.00     0.131 A 
ENDROOT
BRANCH   6  18
ATOM     18  O   UNL     1       7.603  53.199  18.720  1.00  0.00    -0.507 OA
ATOM     19  H   UNL     1       6.843  52.788  18.195  1.00  0.00     0.293 HD
ENDBRANCH   6  18
BRANCH  17  20
ATOM     20  O   UNL     1       8.293  52.076  23.728  1.00  0.00    -0.507 OA
ATOM     21  H   UNL     1       7.690  52.640  23.146  1.00  0.00     0.293 HD
ENDBRANCH  17  20
BRANCH  15  22
ATOM     22  O   UNL     1      12.517  50.241  25.124  1.00  0.00    -0.508 OA
ATOM     23  H   UNL     1      13.455  49.911  24.932  1.00  0.00     0.293 HD
ENDBRANCH  15  22
TORSDOF 3
ENDMDL
MODEL 9
REMARK VINA RESULT:    -5.909      2.841      5.929
REMARK INTER + INTRA:          -6.427
REMARK INTER:                  -6.427
REMARK INTRA:                   0.000
REMARK UNBOUND:                 0.000
REMARK SMILES Cc1cc(O)c2c(c1)C(=O)c1cc(O)cc(O)c1C2=O
REMARK SMILES IDX 1 1 2 2 8 3 7 4 6 5 4 6 3 7 19 8 20 9 18 10 11 11 9 12 10 13
REMARK SMILES IDX 12 14 13 15 15 16 16 17 5 18 17 20 14 22
REMARK H PARENT 5 19 17 21 14 23
REMARK Flexibility Score: inf
ROOT
ATOM      1  C   UNL     1      12.627  54.421  17.558  1.00  0.00     0.044 C 
ATOM      2  C   UNL     1      12.375  53.671  18.833  1.00  0.00    -0.047 A 
ATOM      3  C   UNL     1      11.084  53.603  19.366  1.00  0.00     0.016 A 
ATOM      4  C   UNL     1      10.828  52.866  20.536  1.00  0.00     0.038 A 
ATOM      5  C   UNL     1      11.879  52.163  21.168  1.00  0.00     0.076 A 
ATOM      6  C   UNL     1      13.195  52.273  20.648  1.00  0.00     0.127 A 
ATOM      7  C   UNL     1      13.420  52.995  19.472  1.00  0.00     0.050 A 
ATOM      8  C   UNL     1      11.542  51.278  22.313  1.00  0.00     0.201 C 
ATOM      9  O   UNL     1      12.235  50.250  22.536  1.00  0.00    -0.288 OA
ATOM     10  C   UNL     1      10.285  51.502  23.073  1.00  0.00     0.076 A 
ATOM     11  C   UNL     1       9.237  52.206  22.438  1.00  0.00     0.041 A 
ATOM     12  C   UNL     1       9.463  52.826  21.111  1.00  0.00     0.194 C 
ATOM     13  O   UNL     1       8.498  53.343  20.484  1.00  0.00    -0.289 OA
ATOM     14  C   UNL     1       7.986  52.317  23.069  1.00  0.00     0.059 A 
ATOM     15  C   UNL     1       7.775  51.753  24.327  1.00  0.00     0.120 A 
ATOM     16  C   UNL     1       8.819  51.091  24.976  1.00  0.00     0.093 A 
ATOM     17  C   UNL     1      10.079  50.983  24.378  1.00  0.00     0.131 A 
ENDROOT
BRANCH   6  18
ATOM     18  O   UNL     1      14.306  51.711  21.281  1.00  0.00    -0.507 OA
ATOM     19  H   UNL     1      15.232  52.116  21.247  1.00  0.00     0.293 HD
ENDBRANCH   6  18
BRANCH  17  20
ATOM     20  O   UNL     1      11.099  50.389  25.125  1.00  0.00    -0.507 OA
ATOM     21  H   UNL     1      10.958  49.984  26.040  1.00  0.00     0.293 HD
ENDBRANCH  17  20
BRANCH  15  22
ATOM     22  O   UNL     1       6.523  51.866  24.928  1.00  0.00    -0.508 OA
ATOM     23  H   UNL     1       5.777  51.210  24.726  1.00  0.00     0.293 HD
ENDBRANCH  15  22
TORSDOF 3
ENDMDL
