MODEL 1
REMARK VINA RESULT:    10.380      0.000      0.000
REMARK INTER + INTRA:          14.061
REMARK INTER:                  14.628
REMARK INTRA:                  -0.568
REMARK UNBOUND:                -0.568
REMARK SMILES O=C(C=Cc1ccc(O)cc1)CC(=O)C=Cc1ccc(O)cc1
REMARK SMILES IDX 12 1 2 2 1 3 3 4 4 5 5 6 6 7 7 8 8 9 11 10 10 11 9 12 13 14
REMARK SMILES IDX 14 15 15 16 16 17 17 18 18 19 23 20 19 21 22 22 20 23 21 24
REMARK H PARENT 9 13 21 25
REMARK Flexibility Score: inf
ROOT
ATOM      1  C   UNL     1      29.362  32.859  48.934  1.00  0.00     0.160 C 
ENDROOT
BRANCH   1   2
ATOM      2  C   UNL     1      28.721  32.924  47.571  1.00  0.00     0.163 C 
ATOM      3  O   UNL     1      29.202  33.701  46.703  1.00  0.00    -0.294 OA
BRANCH   2   4
ATOM      4  C   UNL     1      27.587  32.057  47.190  1.00  0.00     0.048 C 
ATOM      5  C   UNL     1      27.600  30.714  47.183  1.00  0.00     0.012 C 
BRANCH   5   6
ATOM      6  C   UNL     1      28.686  29.868  47.721  1.00  0.00    -0.025 A 
ATOM      7  C   UNL     1      29.847  29.597  46.973  1.00  0.00     0.012 A 
ATOM      8  C   UNL     1      30.865  28.807  47.514  1.00  0.00     0.047 A 
ATOM      9  C   UNL     1      30.748  28.298  48.811  1.00  0.00     0.115 A 
ATOM     10  C   UNL     1      28.587  29.379  49.033  1.00  0.00     0.012 A 
ATOM     11  C   UNL     1      29.608  28.590  49.571  1.00  0.00     0.047 A 
BRANCH   9  12
ATOM     12  O   UNL     1      31.770  27.510  49.335  1.00  0.00    -0.508 OA
ATOM     13  H   UNL     1      32.323  26.900  48.744  1.00  0.00     0.293 HD
ENDBRANCH   9  12
ENDBRANCH   5   6
ENDBRANCH   2   4
ENDBRANCH   1   2
BRANCH   1  14
ATOM     14  C   UNL     1      29.564  34.224  49.548  1.00  0.00     0.163 C 
ATOM     15  O   UNL     1      30.612  34.466  50.208  1.00  0.00    -0.294 OA
BRANCH  14  16
ATOM     16  C   UNL     1      28.544  35.289  49.446  1.00  0.00     0.048 C 
ATOM     17  C   UNL     1      27.894  35.790  50.508  1.00  0.00     0.012 C 
BRANCH  17  18
ATOM     18  C   UNL     1      26.881  36.869  50.417  1.00  0.00    -0.025 A 
ATOM     19  C   UNL     1      27.206  38.180  50.012  1.00  0.00     0.012 A 
ATOM     20  C   UNL     1      25.541  36.562  50.708  1.00  0.00     0.012 A 
ATOM     21  C   UNL     1      26.212  39.161  49.928  1.00  0.00     0.047 A 
ATOM     22  C   UNL     1      24.551  37.546  50.623  1.00  0.00     0.047 A 
ATOM     23  C   UNL     1      24.883  38.847  50.236  1.00  0.00     0.115 A 
BRANCH  23  24
ATOM     24  O   UNL     1      23.886  39.817  50.157  1.00  0.00    -0.508 OA
ATOM     25  H   UNL     1      23.218  39.828  49.395  1.00  0.00     0.293 HD
ENDBRANCH  23  24
ENDBRANCH  17  18
ENDBRANCH  14  16
ENDBRANCH   1  14
TORSDOF 8
ENDMDL
