MODEL 1
REMARK VINA RESULT:    -4.231      0.000      0.000
REMARK INTER + INTRA:          -2.533
REMARK INTER:                  -5.221
REMARK INTRA:                   2.688
REMARK UNBOUND:                 2.688
REMARK SMILES C=C1CC[C@H]2[C@H]([C@@H]3[C@@H]1CC[C@@H]3C)C2(C)C
REMARK SMILES IDX 3 1 2 2 1 3 8 4 12 5 11 6 10 7 7 8 9 9 4 11 5 12 6 13 13 14
REMARK SMILES IDX 14 16 15 17
REMARK H PARENT
REMARK Flexibility Score: 80.00
ROOT
ATOM      1  C   UNL     1      -1.858   2.902  10.526  1.00  0.00     0.031 C 
ENDROOT
BRANCH   1   2
ATOM      2  C   UNL     1      -1.339   2.091  11.724  1.00  0.00    -0.074 C 
ATOM      3  C   UNL     1      -0.998   0.805  11.541  1.00  0.00     0.008 C 
BRANCH   2   4
ATOM      4  C   UNL     1      -1.334   2.664  13.154  1.00  0.00     0.018 C 
ATOM      5  C   UNL     1      -0.951   4.891  15.574  1.00  0.00     0.008 C 
ATOM      6  C   UNL     1      -0.100   3.784  14.951  1.00  0.00    -0.010 C 
ATOM      7  C   UNL     1      -0.548   2.391  15.454  1.00  0.00     0.004 C 
ATOM      8  C   UNL     1      -0.210   3.678  13.426  1.00  0.00     0.003 CG0
ATOM      9  C   UNL     1      -1.118   1.622  14.250  1.00  0.00     0.008 C 
ATOM     10  G   UNL     1      -0.052   4.943  12.511  1.00  0.00     0.000 G0
ENDBRANCH   2   4
ENDBRANCH   1   2
BRANCH   1  11
ATOM     11  C   UNL     1      -1.214   4.310  10.385  1.00  0.00     0.009 C 
BRANCH  11  12
ATOM     12  C   UNL     1      -1.366   5.107  11.685  1.00  0.00    -0.001 C 
ATOM     13  C   UNL     1      -0.041   4.945  12.502  1.00  0.00     0.002 CG0
ATOM     14  C   UNL     1      -0.652   6.328  12.201  1.00  0.00    -0.029 C 
ATOM     15  G   UNL     1      -0.216   3.687  13.425  1.00  0.00     0.000 G0
ATOM     16  C   UNL     1      -1.393   7.089  13.306  1.00  0.00     0.011 C 
ATOM     17  C   UNL     1       0.036   7.190  11.133  1.00  0.00     0.011 C 
ENDBRANCH  11  12
ENDBRANCH   1  11
TORSDOF 0
ENDMDL
MODEL 2
REMARK VINA RESULT:    -4.197      1.179      3.346
REMARK INTER + INTRA:          -2.490
REMARK INTER:                  -5.192
REMARK INTRA:                   2.702
REMARK UNBOUND:                 2.688
REMARK SMILES C=C1CC[C@H]2[C@H]([C@@H]3[C@@H]1CC[C@@H]3C)C2(C)C
REMARK SMILES IDX 3 1 2 2 1 3 8 4 12 5 11 6 10 7 7 8 9 9 4 11 5 12 6 13 13 14
REMARK SMILES IDX 14 16 15 17
REMARK H PARENT
REMARK Flexibility Score: 80.00
ROOT
ATOM      1  C   UNL     1      -0.636   2.513  15.603  1.00  0.00     0.031 C 
ENDROOT
BRANCH   1   2
ATOM      2  C   UNL     1      -1.100   1.688  14.393  1.00  0.00    -0.074 C 
ATOM      3  C   UNL     1      -1.660   0.485  14.601  1.00  0.00     0.008 C 
BRANCH   2   4
ATOM      4  C   UNL     1      -0.812   2.132  12.945  1.00  0.00     0.018 C 
ATOM      5  C   UNL     1      -0.505   4.175  10.359  1.00  0.00     0.008 C 
ATOM      6  C   UNL     1      -1.592   3.253  10.910  1.00  0.00    -0.010 C 
ATOM      7  C   UNL     1      -1.287   1.773  10.574  1.00  0.00     0.004 C 
ATOM      8  C   UNL     1      -1.721   3.262  12.437  1.00  0.00     0.003 CG0
ATOM      9  C   UNL     1      -1.018   1.039  11.898  1.00  0.00     0.008 C 
ATOM     10  G   UNL     1      -1.822   4.611  13.234  1.00  0.00     0.000 G0
ENDBRANCH   2   4
ENDBRANCH   1   2
BRANCH   1  11
ATOM     11  C   UNL     1      -1.068   4.007  15.557  1.00  0.00     0.009 C 
BRANCH  11  12
ATOM     12  C   UNL     1      -0.622   4.658  14.243  1.00  0.00    -0.001 C 
ATOM     13  C   UNL     1      -1.830   4.607  13.250  1.00  0.00     0.002 CG0
ATOM     14  C   UNL     1      -1.070   5.916  13.546  1.00  0.00    -0.029 C 
ATOM     15  G   UNL     1      -1.716   3.261  12.451  1.00  0.00     0.000 G0
ATOM     16  C   UNL     1      -0.080   6.469  12.517  1.00  0.00     0.011 C 
ATOM     17  C   UNL     1      -1.765   6.953  14.439  1.00  0.00     0.011 C 
ENDBRANCH  11  12
ENDBRANCH   1  11
TORSDOF 0
ENDMDL
MODEL 3
REMARK VINA RESULT:    -4.042      1.249      3.271
REMARK INTER + INTRA:          -2.299
REMARK INTER:                  -5.189
REMARK INTRA:                   2.890
REMARK UNBOUND:                 2.688
REMARK SMILES C=C1CC[C@H]2[C@H]([C@@H]3[C@@H]1CC[C@@H]3C)C2(C)C
REMARK SMILES IDX 3 1 2 2 1 3 8 4 12 5 11 6 10 7 7 8 9 9 4 11 5 12 6 13 13 14
REMARK SMILES IDX 14 16 15 17
REMARK H PARENT
REMARK Flexibility Score: 80.00
ROOT
ATOM      1  C   UNL     1      -0.230   6.492  11.042  1.00  0.00     0.031 C 
ENDROOT
BRANCH   1   2
ATOM      2  C   UNL     1      -1.415   5.532  10.855  1.00  0.00    -0.074 C 
ATOM      3  C   UNL     1      -2.495   5.955  10.177  1.00  0.00     0.008 C 
BRANCH   2   4
ATOM      4  C   UNL     1      -1.463   4.153  11.541  1.00  0.00     0.018 C 
ATOM      5  C   UNL     1      -0.834   1.821  13.805  1.00  0.00     0.008 C 
ATOM      6  C   UNL     1      -0.247   2.231  12.455  1.00  0.00    -0.010 C 
ATOM      7  C   UNL     1      -1.142   1.742  11.290  1.00  0.00     0.004 C 
ATOM      8  C   UNL     1      -0.153   3.745  12.234  1.00  0.00     0.003 CG0
ATOM      9  C   UNL     1      -1.718   2.985  10.591  1.00  0.00     0.008 C 
ATOM     10  G   UNL     1       0.493   4.683  13.315  1.00  0.00     0.000 G0
ENDBRANCH   2   4
ENDBRANCH   1   2
BRANCH   1  11
ATOM     11  C   UNL     1      -0.050   7.003  12.500  1.00  0.00     0.009 C 
BRANCH  11  12
ATOM     12  C   UNL     1      -0.462   5.922  13.506  1.00  0.00    -0.001 C 
ATOM     13  C   UNL     1       0.501   4.703  13.318  1.00  0.00     0.002 CG0
ATOM     14  C   UNL     1       0.250   5.341  14.700  1.00  0.00    -0.029 C 
ATOM     15  G   UNL     1      -0.155   3.754  12.254  1.00  0.00     0.000 G0
ATOM     16  C   UNL     1      -0.659   4.634  15.710  1.00  0.00     0.011 C 
ATOM     17  C   UNL     1       1.366   6.214  15.291  1.00  0.00     0.011 C 
ENDBRANCH  11  12
ENDBRANCH   1  11
TORSDOF 0
ENDMDL
MODEL 4
REMARK VINA RESULT:    -3.791      1.785      2.675
REMARK INTER + INTRA:          -1.989
REMARK INTER:                  -4.894
REMARK INTRA:                   2.905
REMARK UNBOUND:                 2.688
REMARK SMILES C=C1CC[C@H]2[C@H]([C@@H]3[C@@H]1CC[C@@H]3C)C2(C)C
REMARK SMILES IDX 3 1 2 2 1 3 8 4 12 5 11 6 10 7 7 8 9 9 4 11 5 12 6 13 13 14
REMARK SMILES IDX 14 16 15 17
REMARK H PARENT
REMARK Flexibility Score: 80.00
ROOT
ATOM      1  C   UNL     1      -3.493   5.021  10.424  1.00  0.00     0.031 C 
ENDROOT
BRANCH   1   2
ATOM      2  C   UNL     1      -3.492   4.997  11.960  1.00  0.00    -0.074 C 
ATOM      3  C   UNL     1      -4.618   5.320  12.618  1.00  0.00     0.008 C 
BRANCH   2   4
ATOM      4  C   UNL     1      -2.203   4.754  12.769  1.00  0.00     0.018 C 
ATOM      5  C   UNL     1       1.034   4.724  13.462  1.00  0.00     0.008 C 
ATOM      6  C   UNL     1       0.019   3.729  12.901  1.00  0.00    -0.010 C 
ATOM      7  C   UNL     1      -0.863   3.141  14.028  1.00  0.00     0.004 C 
ATOM      8  C   UNL     1      -0.992   4.334  11.921  1.00  0.00     0.003 CG0
ATOM      9  C   UNL     1      -2.304   3.623  13.792  1.00  0.00     0.008 C 
ATOM     10  G   UNL     1      -0.522   5.230  10.721  1.00  0.00     0.000 G0
ENDBRANCH   2   4
ENDBRANCH   1   2
BRANCH   1  11
ATOM     11  C   UNL     1      -2.661   6.179   9.805  1.00  0.00     0.009 C 
BRANCH  11  12
ATOM     12  C   UNL     1      -1.446   6.500  10.684  1.00  0.00    -0.001 C 
ATOM     13  C   UNL     1      -0.523   5.237  10.703  1.00  0.00     0.002 CG0
ATOM     14  C   UNL     1       0.018   6.639  10.357  1.00  0.00    -0.029 C 
ATOM     15  G   UNL     1      -0.979   4.349  11.914  1.00  0.00     0.000 G0
ATOM     16  C   UNL     1       0.837   7.415  11.393  1.00  0.00     0.011 C 
ATOM     17  C   UNL     1       0.340   6.932   8.885  1.00  0.00     0.011 C 
ENDBRANCH  11  12
ENDBRANCH   1  11
TORSDOF 0
ENDMDL
MODEL 5
REMARK VINA RESULT:    -3.767      1.482      3.862
REMARK INTER + INTRA:          -1.960
REMARK INTER:                  -4.599
REMARK INTRA:                   2.639
REMARK UNBOUND:                 2.688
REMARK SMILES C=C1CC[C@H]2[C@H]([C@@H]3[C@@H]1CC[C@@H]3C)C2(C)C
REMARK SMILES IDX 3 1 2 2 1 3 8 4 12 5 11 6 10 7 7 8 9 9 4 11 5 12 6 13 13 14
REMARK SMILES IDX 14 16 15 17
REMARK H PARENT
REMARK Flexibility Score: 80.00
ROOT
ATOM      1  C   UNL     1      -1.944   3.153  10.636  1.00  0.00     0.031 C 
ENDROOT
BRANCH   1   2
ATOM      2  C   UNL     1      -2.669   4.506  10.708  1.00  0.00    -0.074 C 
ATOM      3  C   UNL     1      -3.840   4.652  10.068  1.00  0.00     0.008 C 
BRANCH   2   4
ATOM      4  C   UNL     1      -2.026   5.740  11.371  1.00  0.00     0.018 C 
ATOM      5  C   UNL     1      -0.316   7.494  13.597  1.00  0.00     0.008 C 
ATOM      6  C   UNL     1      -1.787   7.159  13.354  1.00  0.00    -0.010 C 
ATOM      7  C   UNL     1      -2.367   8.014  12.201  1.00  0.00     0.004 C 
ATOM      8  C   UNL     1      -2.047   5.717  12.907  1.00  0.00     0.003 CG0
ATOM      9  C   UNL     1      -2.718   7.062  11.045  1.00  0.00     0.008 C 
ATOM     10  G   UNL     1      -1.426   4.503  13.686  1.00  0.00     0.000 G0
ENDBRANCH   2   4
ENDBRANCH   1   2
BRANCH   1  11
ATOM     11  C   UNL     1      -1.428   2.633  12.008  1.00  0.00     0.009 C 
BRANCH  11  12
ATOM     12  C   UNL     1      -0.543   3.685  12.685  1.00  0.00    -0.001 C 
ATOM     13  C   UNL     1      -1.435   4.483  13.693  1.00  0.00     0.002 CG0
ATOM     14  C   UNL     1      -0.095   3.848  14.114  1.00  0.00    -0.029 C 
ATOM     15  G   UNL     1      -2.036   5.706  12.912  1.00  0.00     0.000 G0
ATOM     16  C   UNL     1       1.141   4.733  14.305  1.00  0.00     0.011 C 
ATOM     17  C   UNL     1      -0.152   2.575  14.972  1.00  0.00     0.011 C 
ENDBRANCH  11  12
ENDBRANCH   1  11
TORSDOF 0
ENDMDL
MODEL 6
REMARK VINA RESULT:    -3.725      1.557      3.533
REMARK INTER + INTRA:          -1.908
REMARK INTER:                  -4.873
REMARK INTRA:                   2.966
REMARK UNBOUND:                 2.688
REMARK SMILES C=C1CC[C@H]2[C@H]([C@@H]3[C@@H]1CC[C@@H]3C)C2(C)C
REMARK SMILES IDX 3 1 2 2 1 3 8 4 12 5 11 6 10 7 7 8 9 9 4 11 5 12 6 13 13 14
REMARK SMILES IDX 14 16 15 17
REMARK H PARENT
REMARK Flexibility Score: 80.00
ROOT
ATOM      1  C   UNL     1      -1.152   2.716  13.151  1.00  0.00     0.031 C 
ENDROOT
BRANCH   1   2
ATOM      2  C   UNL     1      -1.470   2.953  11.667  1.00  0.00    -0.074 C 
ATOM      3  C   UNL     1      -1.374   1.924  10.808  1.00  0.00     0.008 C 
BRANCH   2   4
ATOM      4  C   UNL     1      -1.755   4.361  11.110  1.00  0.00     0.018 C 
ATOM      5  C   UNL     1      -1.670   7.664  10.909  1.00  0.00     0.008 C 
ATOM      6  C   UNL     1      -2.625   6.621  11.488  1.00  0.00    -0.010 C 
ATOM      7  C   UNL     1      -3.460   5.951  10.370  1.00  0.00     0.004 C 
ATOM      8  C   UNL     1      -1.935   5.444  12.186  1.00  0.00     0.003 CG0
ATOM      9  C   UNL     1      -3.049   4.470  10.305  1.00  0.00     0.008 C 
ATOM     10  G   UNL     1      -0.814   5.681  13.259  1.00  0.00     0.000 G0
ENDBRANCH   2   4
ENDBRANCH   1   2
BRANCH   1  11
ATOM     11  C   UNL     1       0.161   3.393  13.636  1.00  0.00     0.009 C 
BRANCH  11  12
ATOM     12  C   UNL     1       0.388   4.719  12.902  1.00  0.00    -0.001 C 
ATOM     13  C   UNL     1      -0.795   5.676  13.266  1.00  0.00     0.002 CG0
ATOM     14  C   UNL     1       0.678   6.108  13.408  1.00  0.00    -0.029 C 
ATOM     15  G   UNL     1      -1.922   5.446  12.197  1.00  0.00     0.000 G0
ATOM     16  C   UNL     1       1.296   7.054  12.374  1.00  0.00     0.011 C 
ATOM     17  C   UNL     1       1.261   6.184  14.826  1.00  0.00     0.011 C 
ENDBRANCH  11  12
ENDBRANCH   1  11
TORSDOF 0
ENDMDL
MODEL 7
REMARK VINA RESULT:    -3.638      1.198      1.520
REMARK INTER + INTRA:          -1.801
REMARK INTER:                  -4.842
REMARK INTRA:                   3.041
REMARK UNBOUND:                 2.688
REMARK SMILES C=C1CC[C@H]2[C@H]([C@@H]3[C@@H]1CC[C@@H]3C)C2(C)C
REMARK SMILES IDX 3 1 2 2 1 3 8 4 12 5 11 6 10 7 7 8 9 9 4 11 5 12 6 13 13 14
REMARK SMILES IDX 14 16 15 17
REMARK H PARENT
REMARK Flexibility Score: 80.00
ROOT
ATOM      1  C   UNL     1      -0.799   1.311  11.426  1.00  0.00     0.031 C 
ENDROOT
BRANCH   1   2
ATOM      2  C   UNL     1      -1.379   1.146  12.839  1.00  0.00    -0.074 C 
ATOM      3  C   UNL     1      -2.034   0.014  13.146  1.00  0.00     0.008 C 
BRANCH   2   4
ATOM      4  C   UNL     1      -1.360   2.295  13.867  1.00  0.00     0.018 C 
ATOM      5  C   UNL     1      -1.270   5.402  15.005  1.00  0.00     0.008 C 
ATOM      6  C   UNL     1      -0.248   4.295  14.743  1.00  0.00    -0.010 C 
ATOM      7  C   UNL     1      -0.291   3.225  15.860  1.00  0.00     0.004 C 
ATOM      8  C   UNL     1      -0.492   3.496  13.458  1.00  0.00     0.003 CG0
ATOM      9  C   UNL     1      -0.784   1.912  15.228  1.00  0.00     0.008 C 
ATOM     10  G   UNL     1      -0.742   4.219  12.088  1.00  0.00     0.000 G0
ENDBRANCH   2   4
ENDBRANCH   1   2
BRANCH   1  11
ATOM     11  C   UNL     1      -1.521   2.386  10.563  1.00  0.00     0.009 C 
BRANCH  11  12
ATOM     12  C   UNL     1      -2.013   3.541  11.441  1.00  0.00    -0.001 C 
ATOM     13  C   UNL     1      -0.759   4.222  12.083  1.00  0.00     0.002 CG0
ATOM     14  C   UNL     1      -1.833   5.033  11.329  1.00  0.00    -0.029 C 
ATOM     15  G   UNL     1      -0.486   3.497  13.448  1.00  0.00     0.000 G0
ATOM     16  C   UNL     1      -2.849   5.865  12.115  1.00  0.00     0.011 C 
ATOM     17  C   UNL     1      -1.476   5.549   9.927  1.00  0.00     0.011 C 
ENDBRANCH  11  12
ENDBRANCH   1  11
TORSDOF 0
ENDMDL
MODEL 8
REMARK VINA RESULT:    -3.472     12.700     15.365
REMARK INTER + INTRA:          -1.596
REMARK INTER:                  -4.279
REMARK INTRA:                   2.683
REMARK UNBOUND:                 2.688
REMARK SMILES C=C1CC[C@H]2[C@H]([C@@H]3[C@@H]1CC[C@@H]3C)C2(C)C
REMARK SMILES IDX 3 1 2 2 1 3 8 4 12 5 11 6 10 7 7 8 9 9 4 11 5 12 6 13 13 14
REMARK SMILES IDX 14 16 15 17
REMARK H PARENT
REMARK Flexibility Score: 80.00
ROOT
ATOM      1  C   UNL     1      -3.186 -10.969  18.161  1.00  0.00     0.031 C 
ENDROOT
BRANCH   1   2
ATOM      2  C   UNL     1      -4.686 -11.078  17.846  1.00  0.00    -0.074 C 
ATOM      3  C   UNL     1      -5.560 -11.161  18.862  1.00  0.00     0.008 C 
BRANCH   2   4
ATOM      4  C   UNL     1      -5.205 -11.241  16.404  1.00  0.00     0.018 C 
ATOM      5  C   UNL     1      -5.415 -10.751  13.137  1.00  0.00     0.008 C 
ATOM      6  C   UNL     1      -6.111 -10.198  14.380  1.00  0.00    -0.010 C 
ATOM      7  C   UNL     1      -7.153 -11.204  14.926  1.00  0.00     0.004 C 
ATOM      8  C   UNL     1      -5.182  -9.948  15.573  1.00  0.00     0.003 CG0
ATOM      9  C   UNL     1      -6.666 -11.677  16.306  1.00  0.00     0.008 C 
ATOM     10  G   UNL     1      -3.845  -9.144  15.404  1.00  0.00     0.000 G0
ENDBRANCH   2   4
ENDBRANCH   1   2
BRANCH   1  11
ATOM     11  C   UNL     1      -2.441  -9.880  17.337  1.00  0.00     0.009 C 
BRANCH  11  12
ATOM     12  C   UNL     1      -2.664 -10.091  15.836  1.00  0.00    -0.001 C 
ATOM     13  C   UNL     1      -3.825  -9.143  15.387  1.00  0.00     0.002 CG0
ATOM     14  C   UNL     1      -2.468  -9.176  14.655  1.00  0.00    -0.029 C 
ATOM     15  G   UNL     1      -5.166  -9.943  15.549  1.00  0.00     0.000 G0
ATOM     16  C   UNL     1      -2.351  -9.886  13.303  1.00  0.00     0.011 C 
ATOM     17  C   UNL     1      -1.510  -7.999  14.885  1.00  0.00     0.011 C 
ENDBRANCH  11  12
ENDBRANCH   1  11
TORSDOF 0
ENDMDL
MODEL 9
REMARK VINA RESULT:    -3.294      1.365      2.385
REMARK INTER + INTRA:          -1.376
REMARK INTER:                  -4.396
REMARK INTRA:                   3.020
REMARK UNBOUND:                 2.688
REMARK SMILES C=C1CC[C@H]2[C@H]([C@@H]3[C@@H]1CC[C@@H]3C)C2(C)C
REMARK SMILES IDX 3 1 2 2 1 3 8 4 12 5 11 6 10 7 7 8 9 9 4 11 5 12 6 13 13 14
REMARK SMILES IDX 14 16 15 17
REMARK H PARENT
REMARK Flexibility Score: 80.00
ROOT
ATOM      1  C   UNL     1      -0.846   2.507  11.491  1.00  0.00     0.031 C 
ENDROOT
BRANCH   1   2
ATOM      2  C   UNL     1      -0.679   2.792  12.992  1.00  0.00    -0.074 C 
ATOM      3  C   UNL     1      -1.018   1.839  13.876  1.00  0.00     0.008 C 
BRANCH   2   4
ATOM      4  C   UNL     1      -0.273   4.183  13.517  1.00  0.00     0.018 C 
ATOM      5  C   UNL     1       0.069   7.475  13.558  1.00  0.00     0.008 C 
ATOM      6  C   UNL     1       0.934   6.283  13.150  1.00  0.00    -0.010 C 
ATOM      7  C   UNL     1       1.532   5.580  14.392  1.00  0.00     0.004 C 
ATOM      8  C   UNL     1       0.178   5.165  12.424  1.00  0.00     0.003 CG0
ATOM      9  C   UNL     1       0.919   4.172  14.471  1.00  0.00     0.008 C 
ATOM     10  G   UNL     1      -0.765   5.480  11.210  1.00  0.00     0.000 G0
ENDBRANCH   2   4
ENDBRANCH   1   2
BRANCH   1  11
ATOM     11  C   UNL     1      -1.978   3.328  10.810  1.00  0.00     0.009 C 
BRANCH  11  12
ATOM     12  C   UNL     1      -2.111   4.709  11.461  1.00  0.00    -0.001 C 
ATOM     13  C   UNL     1      -0.777   5.486  11.209  1.00  0.00     0.002 CG0
ATOM     14  C   UNL     1      -2.153   6.094  10.872  1.00  0.00    -0.029 C 
ATOM     15  G   UNL     1       0.178   5.172  12.415  1.00  0.00     0.000 G0
ATOM     16  C   UNL     1      -2.756   7.165  11.787  1.00  0.00     0.011 C 
ATOM     17  C   UNL     1      -2.552   6.169   9.392  1.00  0.00     0.011 C 
ENDBRANCH  11  12
ENDBRANCH   1  11
TORSDOF 0
ENDMDL
