MODEL 1
REMARK VINA RESULT:    -4.267      0.000      0.000
REMARK INTER + INTRA:          -5.779
REMARK INTER:                  -5.016
REMARK INTRA:                  -0.764
REMARK UNBOUND:                -0.764
REMARK SMILES C=C(C)[C@@H]1CC[C@]2(CO)CC[C@@]3(C)[C@H](CC[C@H]4[C@]5(C)CC[C@H](O)C(C)(C)[C@H]5CC[C@]43C)[C@@H]12
REMARK SMILES IDX 4 1 5 2 6 3 7 4 32 5 14 6 15 7 16 8 17 9 18 10 20 11 21 12
REMARK SMILES IDX 22 13 24 14 27 15 28 16 29 17 30 18 12 19 11 20 10 21 13 22
REMARK SMILES IDX 31 23 25 24 26 25 19 26 2 27 3 28 1 29 8 30 9 31 23 33
REMARK H PARENT 9 32 23 34
REMARK Flexibility Score: inf
ROOT
ATOM      1  C   UNL     1      -3.208  -3.310  15.842  1.00  0.00     0.018 C 
ATOM      2  C   UNL     1      -1.945  -3.552  14.985  1.00  0.00     0.009 C 
ATOM      3  C   UNL     1      -1.798  -5.072  14.827  1.00  0.00     0.010 C 
ATOM      4  C   UNL     1      -2.620  -5.679  15.982  1.00  0.00    -0.003 C 
ATOM      5  C   UNL     1      -3.820  -4.724  16.015  1.00  0.00     0.008 C 
ATOM      6  C   UNL     1      -4.803  -5.074  17.195  1.00  0.00    -0.000 C 
ATOM      7  C   UNL     1      -5.948  -4.068  17.248  1.00  0.00     0.005 C 
ATOM      8  C   UNL     1      -6.951  -4.345  16.142  1.00  0.00     0.005 C 
ATOM      9  C   UNL     1      -7.807  -5.555  16.531  1.00  0.00     0.002 C 
ATOM     10  C   UNL     1      -8.972  -5.893  15.500  1.00  0.00    -0.026 C 
ATOM     11  C   UNL     1      -9.996  -4.702  15.493  1.00  0.00     0.010 C 
ATOM     12  C   UNL     1     -11.310  -5.004  14.760  1.00  0.00     0.033 C 
ATOM     13  C   UNL     1     -12.034  -6.234  15.345  1.00  0.00     0.120 C 
ATOM     14  C   UNL     1     -11.134  -7.508  15.341  1.00  0.00    -0.006 C 
ATOM     15  C   UNL     1      -9.745  -7.167  16.030  1.00  0.00     0.003 C 
ATOM     16  C   UNL     1      -8.859  -8.417  16.282  1.00  0.00     0.005 C 
ATOM     17  C   UNL     1      -7.363  -8.128  16.434  1.00  0.00     0.008 C 
ATOM     18  C   UNL     1      -6.971  -6.788  17.146  1.00  0.00    -0.024 C 
ATOM     19  C   UNL     1      -5.315  -6.614  17.131  1.00  0.00    -0.024 C 
ATOM     20  C   UNL     1      -4.659  -7.321  15.871  1.00  0.00     0.008 C 
ATOM     21  C   UNL     1      -3.123  -7.129  15.703  1.00  0.00     0.010 C 
ATOM     22  C   UNL     1      -4.724  -7.391  18.354  1.00  0.00     0.012 C 
ATOM     23  C   UNL     1      -7.486  -6.931  18.630  1.00  0.00     0.012 C 
ATOM     24  C   UNL     1     -11.844  -8.621  16.160  1.00  0.00     0.014 C 
ATOM     25  C   UNL     1     -11.020  -8.048  13.875  1.00  0.00     0.014 C 
ATOM     26  C   UNL     1      -8.391  -6.045  14.062  1.00  0.00     0.012 C 
ENDROOT
BRANCH   1  27
ATOM     27  C   UNL     1      -4.122  -2.270  15.181  1.00  0.00    -0.077 C 
ATOM     28  C   UNL     1      -4.499  -1.006  15.926  1.00  0.00     0.039 C 
ATOM     29  C   UNL     1      -4.554  -2.404  13.906  1.00  0.00     0.008 C 
ENDBRANCH   1  27
BRANCH   4  30
ATOM     30  C   UNL     1      -1.738  -5.619  17.281  1.00  0.00     0.163 C 
BRANCH  30  31
ATOM     31  O   UNL     1      -1.290  -6.904  17.634  1.00  0.00    -0.396 OA
ATOM     32  H   UNL     1      -1.705  -7.107  18.515  1.00  0.00     0.210 HD
ENDBRANCH  30  31
ENDBRANCH   4  30
BRANCH  13  33
ATOM     33  O   UNL     1     -12.458  -5.921  16.653  1.00  0.00    -0.393 OA
ATOM     34  H   UNL     1     -12.981  -6.695  17.001  1.00  0.00     0.210 HD
ENDBRANCH  13  33
TORSDOF 4
ENDMDL
MODEL 2
REMARK VINA RESULT:    -4.072      1.559      7.636
REMARK INTER + INTRA:          -5.549
REMARK INTER:                  -6.533
REMARK INTRA:                   0.984
REMARK UNBOUND:                -0.764
REMARK SMILES C=C(C)[C@@H]1CC[C@]2(CO)CC[C@@]3(C)[C@H](CC[C@H]4[C@]5(C)CC[C@H](O)C(C)(C)[C@H]5CC[C@]43C)[C@@H]12
REMARK SMILES IDX 4 1 5 2 6 3 7 4 32 5 14 6 15 7 16 8 17 9 18 10 20 11 21 12
REMARK SMILES IDX 22 13 24 14 27 15 28 16 29 17 30 18 12 19 11 20 10 21 13 22
REMARK SMILES IDX 31 23 25 24 26 25 19 26 2 27 3 28 1 29 8 30 9 31 23 33
REMARK H PARENT 9 32 23 34
REMARK Flexibility Score: inf
ROOT
ATOM      1  C   UNL     1     -11.376  -8.090  15.580  1.00  0.00     0.018 C 
ATOM      2  C   UNL     1     -12.660  -7.387  15.085  1.00  0.00     0.009 C 
ATOM      3  C   UNL     1     -12.554  -5.915  15.508  1.00  0.00     0.010 C 
ATOM      4  C   UNL     1     -11.522  -5.899  16.654  1.00  0.00    -0.003 C 
ATOM      5  C   UNL     1     -10.511  -6.935  16.147  1.00  0.00     0.008 C 
ATOM      6  C   UNL     1      -9.364  -7.183  17.197  1.00  0.00    -0.000 C 
ATOM      7  C   UNL     1      -8.414  -8.268  16.699  1.00  0.00     0.005 C 
ATOM      8  C   UNL     1      -7.500  -7.718  15.618  1.00  0.00     0.005 C 
ATOM      9  C   UNL     1      -6.408  -6.862  16.271  1.00  0.00     0.002 C 
ATOM     10  C   UNL     1      -5.316  -6.304  15.254  1.00  0.00    -0.026 C 
ATOM     11  C   UNL     1      -4.524  -7.522  14.655  1.00  0.00     0.010 C 
ATOM     12  C   UNL     1      -3.262  -7.129  13.875  1.00  0.00     0.033 C 
ATOM     13  C   UNL     1      -2.276  -6.312  14.736  1.00  0.00     0.120 C 
ATOM     14  C   UNL     1      -2.934  -5.032  15.335  1.00  0.00    -0.006 C 
ATOM     15  C   UNL     1      -4.281  -5.433  16.072  1.00  0.00     0.003 C 
ATOM     16  C   UNL     1      -4.903  -4.274  16.897  1.00  0.00     0.005 C 
ATOM     17  C   UNL     1      -6.402  -4.412  17.176  1.00  0.00     0.008 C 
ATOM     18  C   UNL     1      -6.946  -5.861  17.414  1.00  0.00    -0.024 C 
ATOM     19  C   UNL     1      -8.599  -5.810  17.607  1.00  0.00    -0.024 C 
ATOM     20  C   UNL     1      -9.250  -4.603  16.809  1.00  0.00     0.008 C 
ATOM     21  C   UNL     1     -10.804  -4.525  16.835  1.00  0.00     0.010 C 
ATOM     22  C   UNL     1      -8.914  -5.489  19.106  1.00  0.00     0.012 C 
ATOM     23  C   UNL     1      -6.262  -6.357  18.746  1.00  0.00     0.012 C 
ATOM     24  C   UNL     1      -1.957  -4.409  16.372  1.00  0.00     0.014 C 
ATOM     25  C   UNL     1      -3.104  -3.966  14.200  1.00  0.00     0.014 C 
ATOM     26  C   UNL     1      -6.010  -5.548  14.082  1.00  0.00     0.012 C 
ENDROOT
BRANCH   1  27
ATOM     27  C   UNL     1     -10.733  -8.906  14.451  1.00  0.00    -0.077 C 
ATOM     28  C   UNL     1     -11.455 -10.107  13.876  1.00  0.00     0.039 C 
ATOM     29  C   UNL     1      -9.559  -8.545  13.887  1.00  0.00     0.008 C 
ENDBRANCH   1  27
BRANCH   4  30
ATOM     30  C   UNL     1     -12.260  -6.337  17.970  1.00  0.00     0.163 C 
BRANCH  30  31
ATOM     31  O   UNL     1     -11.825  -5.564  19.061  1.00  0.00    -0.396 OA
ATOM     32  H   UNL     1     -10.890  -5.294  18.850  1.00  0.00     0.210 HD
ENDBRANCH  30  31
ENDBRANCH   4  30
BRANCH  13  33
ATOM     33  O   UNL     1      -1.778  -7.148  15.758  1.00  0.00    -0.393 OA
ATOM     34  H   UNL     1      -2.198  -6.868  16.617  1.00  0.00     0.210 HD
ENDBRANCH  13  33
TORSDOF 4
ENDMDL
MODEL 3
REMARK VINA RESULT:    -2.065      2.013      7.209
REMARK INTER + INTRA:          -3.191
REMARK INTER:                  -2.661
REMARK INTRA:                  -0.530
REMARK UNBOUND:                -0.764
REMARK SMILES C=C(C)[C@@H]1CC[C@]2(CO)CC[C@@]3(C)[C@H](CC[C@H]4[C@]5(C)CC[C@H](O)C(C)(C)[C@H]5CC[C@]43C)[C@@H]12
REMARK SMILES IDX 4 1 5 2 6 3 7 4 32 5 14 6 15 7 16 8 17 9 18 10 20 11 21 12
REMARK SMILES IDX 22 13 24 14 27 15 28 16 29 17 30 18 12 19 11 20 10 21 13 22
REMARK SMILES IDX 31 23 25 24 26 25 19 26 2 27 3 28 1 29 8 30 9 31 23 33
REMARK H PARENT 9 32 23 34
REMARK Flexibility Score: inf
ROOT
ATOM      1  C   UNL     1     -10.800  -5.590  16.108  1.00  0.00     0.018 C 
ATOM      2  C   UNL     1     -11.631  -4.322  16.411  1.00  0.00     0.009 C 
ATOM      3  C   UNL     1     -10.984  -3.645  17.627  1.00  0.00     0.010 C 
ATOM      4  C   UNL     1     -10.159  -4.753  18.313  1.00  0.00    -0.003 C 
ATOM      5  C   UNL     1      -9.606  -5.500  17.093  1.00  0.00     0.008 C 
ATOM      6  C   UNL     1      -8.774  -6.766  17.521  1.00  0.00    -0.000 C 
ATOM      7  C   UNL     1      -8.297  -7.528  16.288  1.00  0.00     0.005 C 
ATOM      8  C   UNL     1      -7.131  -6.807  15.635  1.00  0.00     0.005 C 
ATOM      9  C   UNL     1      -5.861  -7.056  16.457  1.00  0.00     0.002 C 
ATOM     10  C   UNL     1      -4.538  -6.437  15.824  1.00  0.00    -0.026 C 
ATOM     11  C   UNL     1      -4.247  -7.164  14.462  1.00  0.00     0.010 C 
ATOM     12  C   UNL     1      -2.860  -6.870  13.875  1.00  0.00     0.033 C 
ATOM     13  C   UNL     1      -1.724  -7.241  14.851  1.00  0.00     0.120 C 
ATOM     14  C   UNL     1      -1.867  -6.520  16.227  1.00  0.00    -0.006 C 
ATOM     15  C   UNL     1      -3.330  -6.761  16.792  1.00  0.00     0.003 C 
ATOM     16  C   UNL     1      -3.512  -6.280  18.257  1.00  0.00     0.005 C 
ATOM     17  C   UNL     1      -4.960  -5.994  18.667  1.00  0.00     0.008 C 
ATOM     18  C   UNL     1      -6.065  -6.917  18.050  1.00  0.00    -0.024 C 
ATOM     19  C   UNL     1      -7.566  -6.392  18.541  1.00  0.00    -0.024 C 
ATOM     20  C   UNL     1      -7.587  -4.828  18.807  1.00  0.00     0.008 C 
ATOM     21  C   UNL     1      -8.971  -4.214  19.170  1.00  0.00     0.010 C 
ATOM     22  C   UNL     1      -7.879  -7.020  19.939  1.00  0.00     0.012 C 
ATOM     23  C   UNL     1      -5.782  -8.359  18.625  1.00  0.00     0.012 C 
ATOM     24  C   UNL     1      -0.836  -7.130  17.217  1.00  0.00     0.014 C 
ATOM     25  C   UNL     1      -1.472  -5.014  16.058  1.00  0.00     0.014 C 
ATOM     26  C   UNL     1      -4.740  -4.919  15.534  1.00  0.00     0.012 C 
ENDROOT
BRANCH   1  27
ATOM     27  C   UNL     1     -10.427  -5.652  14.621  1.00  0.00    -0.077 C 
ATOM     28  C   UNL     1     -10.477  -6.973  13.880  1.00  0.00     0.039 C 
ATOM     29  C   UNL     1     -10.122  -4.542  13.912  1.00  0.00     0.008 C 
ENDBRANCH   1  27
BRANCH   4  30
ATOM     30  C   UNL     1     -11.144  -5.616  19.181  1.00  0.00     0.163 C 
BRANCH  30  31
ATOM     31  O   UNL     1     -10.980  -5.330  20.548  1.00  0.00    -0.396 OA
ATOM     32  H   UNL     1     -10.384  -6.041  20.907  1.00  0.00     0.210 HD
ENDBRANCH  30  31
ENDBRANCH   4  30
BRANCH  13  33
ATOM     33  O   UNL     1      -1.716  -8.642  15.014  1.00  0.00    -0.393 OA
ATOM     34  H   UNL     1      -1.211  -9.038  14.252  1.00  0.00     0.210 HD
ENDBRANCH  13  33
TORSDOF 4
ENDMDL
MODEL 4
REMARK VINA RESULT:    -1.835     19.235     21.834
REMARK INTER + INTRA:          -2.921
REMARK INTER:                  -2.187
REMARK INTRA:                  -0.734
REMARK UNBOUND:                -0.764
REMARK SMILES C=C(C)[C@@H]1CC[C@]2(CO)CC[C@@]3(C)[C@H](CC[C@H]4[C@]5(C)CC[C@H](O)C(C)(C)[C@H]5CC[C@]43C)[C@@H]12
REMARK SMILES IDX 4 1 5 2 6 3 7 4 32 5 14 6 15 7 16 8 17 9 18 10 20 11 21 12
REMARK SMILES IDX 22 13 24 14 27 15 28 16 29 17 30 18 12 19 11 20 10 21 13 22
REMARK SMILES IDX 31 23 25 24 26 25 19 26 2 27 3 28 1 29 8 30 9 31 23 33
REMARK H PARENT 9 32 23 34
REMARK Flexibility Score: inf
ROOT
ATOM      1  C   UNL     1       3.455   6.550  31.945  1.00  0.00     0.018 C 
ATOM      2  C   UNL     1       4.160   6.833  33.291  1.00  0.00     0.009 C 
ATOM      3  C   UNL     1       5.658   6.582  33.071  1.00  0.00     0.010 C 
ATOM      4  C   UNL     1       5.736   5.681  31.822  1.00  0.00    -0.003 C 
ATOM      5  C   UNL     1       4.622   6.286  30.959  1.00  0.00     0.008 C 
ATOM      6  C   UNL     1       4.424   5.477  29.622  1.00  0.00    -0.000 C 
ATOM      7  C   UNL     1       3.264   6.057  28.818  1.00  0.00     0.005 C 
ATOM      8  C   UNL     1       3.681   7.350  28.140  1.00  0.00     0.005 C 
ATOM      9  C   UNL     1       4.550   7.021  26.920  1.00  0.00     0.002 C 
ATOM     10  C   UNL     1       4.974   8.289  26.056  1.00  0.00    -0.026 C 
ATOM     11  C   UNL     1       3.679   8.923  25.429  1.00  0.00     0.010 C 
ATOM     12  C   UNL     1       3.954   9.980  24.352  1.00  0.00     0.033 C 
ATOM     13  C   UNL     1       4.805   9.422  23.192  1.00  0.00     0.120 C 
ATOM     14  C   UNL     1       6.158   8.823  23.686  1.00  0.00    -0.006 C 
ATOM     15  C   UNL     1       5.874   7.789  24.856  1.00  0.00     0.003 C 
ATOM     16  C   UNL     1       7.125   6.967  25.269  1.00  0.00     0.005 C 
ATOM     17  C   UNL     1       7.069   6.372  26.679  1.00  0.00     0.008 C 
ATOM     18  C   UNL     1       5.667   5.891  27.188  1.00  0.00    -0.024 C 
ATOM     19  C   UNL     1       5.798   5.365  28.762  1.00  0.00    -0.024 C 
ATOM     20  C   UNL     1       6.953   6.121  29.543  1.00  0.00     0.008 C 
ATOM     21  C   UNL     1       7.093   5.782  31.056  1.00  0.00     0.010 C 
ATOM     22  C   UNL     1       6.262   3.871  28.750  1.00  0.00     0.012 C 
ATOM     23  C   UNL     1       5.265   4.689  26.249  1.00  0.00     0.012 C 
ATOM     24  C   UNL     1       6.832   8.075  22.502  1.00  0.00     0.014 C 
ATOM     25  C   UNL     1       7.125   9.994  24.070  1.00  0.00     0.014 C 
ATOM     26  C   UNL     1       5.650   9.359  26.965  1.00  0.00     0.012 C 
ENDROOT
BRANCH   1  27
ATOM     27  C   UNL     1       2.519   7.706  31.568  1.00  0.00    -0.077 C 
ATOM     28  C   UNL     1       1.029   7.465  31.438  1.00  0.00     0.039 C 
ATOM     29  C   UNL     1       2.970   8.971  31.417  1.00  0.00     0.008 C 
ENDBRANCH   1  27
BRANCH   4  30
ATOM     30  C   UNL     1       5.444   4.205  32.275  1.00  0.00     0.163 C 
BRANCH  30  31
ATOM     31  O   UNL     1       6.629   3.570  32.685  1.00  0.00    -0.396 OA
ATOM     32  H   UNL     1       7.161   4.263  33.161  1.00  0.00     0.210 HD
ENDBRANCH  30  31
ENDBRANCH   4  30
BRANCH  13  33
ATOM     33  O   UNL     1       4.045   8.452  22.507  1.00  0.00    -0.393 OA
ATOM     34  H   UNL     1       3.679   8.873  21.681  1.00  0.00     0.210 HD
ENDBRANCH  13  33
TORSDOF 4
ENDMDL
MODEL 5
REMARK VINA RESULT:    -1.561     18.552     21.281
REMARK INTER + INTRA:          -2.599
REMARK INTER:                  -1.938
REMARK INTRA:                  -0.661
REMARK UNBOUND:                -0.764
REMARK SMILES C=C(C)[C@@H]1CC[C@]2(CO)CC[C@@]3(C)[C@H](CC[C@H]4[C@]5(C)CC[C@H](O)C(C)(C)[C@H]5CC[C@]43C)[C@@H]12
REMARK SMILES IDX 4 1 5 2 6 3 7 4 32 5 14 6 15 7 16 8 17 9 18 10 20 11 21 12
REMARK SMILES IDX 22 13 24 14 27 15 28 16 29 17 30 18 12 19 11 20 10 21 13 22
REMARK SMILES IDX 31 23 25 24 26 25 19 26 2 27 3 28 1 29 8 30 9 31 23 33
REMARK H PARENT 9 32 23 34
REMARK Flexibility Score: inf
ROOT
ATOM      1  C   UNL     1       3.631   5.403  31.735  1.00  0.00     0.018 C 
ATOM      2  C   UNL     1       4.438   5.430  33.053  1.00  0.00     0.009 C 
ATOM      3  C   UNL     1       5.892   5.091  32.693  1.00  0.00     0.010 C 
ATOM      4  C   UNL     1       5.813   4.378  31.329  1.00  0.00    -0.003 C 
ATOM      5  C   UNL     1       4.709   5.190  30.640  1.00  0.00     0.008 C 
ATOM      6  C   UNL     1       4.359   4.602  29.222  1.00  0.00    -0.000 C 
ATOM      7  C   UNL     1       3.211   5.385  28.592  1.00  0.00     0.005 C 
ATOM      8  C   UNL     1       3.703   6.725  28.072  1.00  0.00     0.005 C 
ATOM      9  C   UNL     1       4.464   6.506  26.759  1.00  0.00     0.002 C 
ATOM     10  C   UNL     1       4.950   7.847  26.051  1.00  0.00    -0.026 C 
ATOM     11  C   UNL     1       3.683   8.668  25.614  1.00  0.00     0.010 C 
ATOM     12  C   UNL     1       3.988   9.844  24.676  1.00  0.00     0.033 C 
ATOM     13  C   UNL     1       4.715   9.393  23.393  1.00  0.00     0.120 C 
ATOM     14  C   UNL     1       6.034   8.620  23.700  1.00  0.00    -0.006 C 
ATOM     15  C   UNL     1       5.727   7.454  24.732  1.00  0.00     0.003 C 
ATOM     16  C   UNL     1       6.920   6.481  24.936  1.00  0.00     0.005 C 
ATOM     17  C   UNL     1       6.894   5.695  26.249  1.00  0.00     0.008 C 
ATOM     18  C   UNL     1       5.487   5.261  26.786  1.00  0.00    -0.024 C 
ATOM     19  C   UNL     1       5.663   4.505  28.258  1.00  0.00    -0.024 C 
ATOM     20  C   UNL     1       6.927   5.043  29.052  1.00  0.00     0.008 C 
ATOM     21  C   UNL     1       7.125   4.477  30.489  1.00  0.00     0.010 C 
ATOM     22  C   UNL     1       5.987   2.995  28.005  1.00  0.00     0.012 C 
ATOM     23  C   UNL     1       4.922   4.245  25.721  1.00  0.00     0.012 C 
ATOM     24  C   UNL     1       6.566   7.998  22.378  1.00  0.00     0.014 C 
ATOM     25  C   UNL     1       7.125   9.640  24.172  1.00  0.00     0.014 C 
ATOM     26  C   UNL     1       5.773   8.715  27.049  1.00  0.00     0.012 C 
ENDROOT
BRANCH   1  27
ATOM     27  C   UNL     1       2.784   6.674  31.591  1.00  0.00    -0.077 C 
ATOM     28  C   UNL     1       3.438   7.984  31.200  1.00  0.00     0.039 C 
ATOM     29  C   UNL     1       1.439   6.657  31.730  1.00  0.00     0.008 C 
ENDBRANCH   1  27
BRANCH   4  30
ATOM     30  C   UNL     1       5.415   2.880  31.592  1.00  0.00     0.163 C 
BRANCH  30  31
ATOM     31  O   UNL     1       6.539   2.044  31.485  1.00  0.00    -0.396 OA
ATOM     32  H   UNL     1       6.501   1.648  30.573  1.00  0.00     0.210 HD
ENDBRANCH  30  31
ENDBRANCH   4  30
BRANCH  13  33
ATOM     33  O   UNL     1       3.829   8.597  22.635  1.00  0.00    -0.393 OA
ATOM     34  H   UNL     1       4.319   7.778  22.349  1.00  0.00     0.210 HD
ENDBRANCH  13  33
TORSDOF 4
ENDMDL
