MODEL 1
REMARK VINA RESULT:    -3.121      0.000      0.000
REMARK INTER + INTRA:          -3.395
REMARK INTER:                  -3.395
REMARK INTRA:                   0.000
REMARK UNBOUND:                 0.000
REMARK SMILES [NH3+]CC(=O)[O-]
REMARK SMILES IDX 2 1 1 2 3 6 4 7 5 8
REMARK H PARENT 1 3 1 4 1 5
REMARK Flexibility Score: inf
ROOT
ATOM      1  C   UNL     1      -9.035   3.431 -16.043  1.00  0.00     0.312 C 
ENDROOT
BRANCH   1   2
ATOM      2  N   UNL     1      -8.744   2.038 -15.711  1.00  0.00    -0.353 N 
ATOM      3  H   UNL     1      -9.609   1.588 -15.334  1.00  0.00     0.344 HD
ATOM      4  H   UNL     1      -7.992   1.992 -14.985  1.00  0.00     0.344 HD
ATOM      5  H   UNL     1      -8.438   1.522 -16.569  1.00  0.00     0.344 HD
ENDBRANCH   1   2
BRANCH   1   6
ATOM      6  C   UNL     1     -10.053   3.512 -17.140  1.00  0.00     0.096 C 
ATOM      7  O   UNL     1     -11.279   3.399 -16.877  1.00  0.00    -0.544 OA
ATOM      8  O   UNL     1      -9.643   3.660 -18.459  1.00  0.00    -0.544 OA
ENDBRANCH   1   6
TORSDOF 2
ENDMDL
MODEL 2
REMARK VINA RESULT:    -2.765      3.000      3.229
REMARK INTER + INTRA:          -3.008
REMARK INTER:                  -3.008
REMARK INTRA:                   0.000
REMARK UNBOUND:                 0.000
REMARK SMILES [NH3+]CC(=O)[O-]
REMARK SMILES IDX 2 1 1 2 3 6 4 7 5 8
REMARK H PARENT 1 3 1 4 1 5
REMARK Flexibility Score: inf
ROOT
ATOM      1  C   UNL     1     -12.679   3.675 -16.987  1.00  0.00     0.312 C 
ENDROOT
BRANCH   1   2
ATOM      2  N   UNL     1     -13.603   4.060 -18.052  1.00  0.00    -0.353 N 
ATOM      3  H   UNL     1     -14.056   3.201 -18.439  1.00  0.00     0.344 HD
ATOM      4  H   UNL     1     -13.085   4.546 -18.819  1.00  0.00     0.344 HD
ATOM      5  H   UNL     1     -14.345   4.692 -17.671  1.00  0.00     0.344 HD
ENDBRANCH   1   2
BRANCH   1   6
ATOM      6  C   UNL     1     -11.263   3.720 -17.474  1.00  0.00     0.096 C 
ATOM      7  O   UNL     1     -10.320   3.370 -16.717  1.00  0.00    -0.544 OA
ATOM      8  O   UNL     1     -10.981   4.199 -18.748  1.00  0.00    -0.544 OA
ENDBRANCH   1   6
TORSDOF 2
ENDMDL
MODEL 3
REMARK VINA RESULT:    -2.718      3.682      3.965
REMARK INTER + INTRA:          -2.956
REMARK INTER:                  -2.956
REMARK INTRA:                   0.000
REMARK UNBOUND:                 0.000
REMARK SMILES [NH3+]CC(=O)[O-]
REMARK SMILES IDX 2 1 1 2 3 6 4 7 5 8
REMARK H PARENT 1 3 1 4 1 5
REMARK Flexibility Score: inf
ROOT
ATOM      1  C   UNL     1      -9.253   4.472 -19.918  1.00  0.00     0.312 C 
ENDROOT
BRANCH   1   2
ATOM      2  N   UNL     1      -7.997   4.457 -20.665  1.00  0.00    -0.353 N 
ATOM      3  H   UNL     1      -8.048   3.719 -21.405  1.00  0.00     0.344 HD
ATOM      4  H   UNL     1      -7.200   4.240 -20.024  1.00  0.00     0.344 HD
ATOM      5  H   UNL     1      -7.840   5.385 -21.122  1.00  0.00     0.344 HD
ENDBRANCH   1   2
BRANCH   1   6
ATOM      6  C   UNL     1      -9.259   5.586 -18.917  1.00  0.00     0.096 C 
ATOM      7  O   UNL     1      -9.729   6.713 -19.223  1.00  0.00    -0.544 OA
ATOM      8  O   UNL     1      -8.696   5.394 -17.661  1.00  0.00    -0.544 OA
ENDBRANCH   1   6
TORSDOF 2
ENDMDL
MODEL 4
REMARK VINA RESULT:    -2.703     10.369     10.631
REMARK INTER + INTRA:          -2.940
REMARK INTER:                  -2.940
REMARK INTRA:                   0.000
REMARK UNBOUND:                 0.000
REMARK SMILES [NH3+]CC(=O)[O-]
REMARK SMILES IDX 2 1 1 2 3 6 4 7 5 8
REMARK H PARENT 1 3 1 4 1 5
REMARK Flexibility Score: inf
ROOT
ATOM      1  C   UNL     1     -12.927   1.851 -26.199  1.00  0.00     0.312 C 
ENDROOT
BRANCH   1   2
ATOM      2  N   UNL     1     -12.001   0.859 -25.657  1.00  0.00    -0.353 N 
ATOM      3  H   UNL     1     -11.749   0.179 -26.410  1.00  0.00     0.344 HD
ATOM      4  H   UNL     1     -12.451   0.341 -24.868  1.00  0.00     0.344 HD
ATOM      5  H   UNL     1     -11.129   1.329 -25.320  1.00  0.00     0.344 HD
ENDBRANCH   1   2
BRANCH   1   6
ATOM      6  C   UNL     1     -12.354   2.497 -27.423  1.00  0.00     0.096 C 
ATOM      7  O   UNL     1     -13.061   3.266 -28.125  1.00  0.00    -0.544 OA
ATOM      8  O   UNL     1     -11.053   2.209 -27.816  1.00  0.00    -0.544 OA
ENDBRANCH   1   6
TORSDOF 2
ENDMDL
MODEL 5
REMARK VINA RESULT:    -2.668      3.808      4.051
REMARK INTER + INTRA:          -2.902
REMARK INTER:                  -2.902
REMARK INTRA:                   0.000
REMARK UNBOUND:                 0.000
REMARK SMILES [NH3+]CC(=O)[O-]
REMARK SMILES IDX 2 1 1 2 3 6 4 7 5 8
REMARK H PARENT 1 3 1 4 1 5
REMARK Flexibility Score: inf
ROOT
ATOM      1  C   UNL     1      -9.650   5.250 -18.779  1.00  0.00     0.312 C 
ENDROOT
BRANCH   1   2
ATOM      2  N   UNL     1      -9.974   6.636 -19.107  1.00  0.00    -0.353 N 
ATOM      3  H   UNL     1      -9.184   7.053 -19.650  1.00  0.00     0.344 HD
ATOM      4  H   UNL     1     -10.115   7.190 -18.231  1.00  0.00     0.344 HD
ATOM      5  H   UNL     1     -10.843   6.673 -19.691  1.00  0.00     0.344 HD
ENDBRANCH   1   2
BRANCH   1   6
ATOM      6  C   UNL     1      -9.590   4.412 -20.019  1.00  0.00     0.096 C 
ATOM      7  O   UNL     1      -8.492   3.941 -20.414  1.00  0.00    -0.544 OA
ATOM      8  O   UNL     1     -10.740   4.195 -20.768  1.00  0.00    -0.544 OA
ENDBRANCH   1   6
TORSDOF 2
ENDMDL
MODEL 6
REMARK VINA RESULT:    -2.657      7.745      8.184
REMARK INTER + INTRA:          -2.890
REMARK INTER:                  -2.890
REMARK INTRA:                   0.000
REMARK UNBOUND:                 0.000
REMARK SMILES [NH3+]CC(=O)[O-]
REMARK SMILES IDX 2 1 1 2 3 6 4 7 5 8
REMARK H PARENT 1 3 1 4 1 5
REMARK Flexibility Score: inf
ROOT
ATOM      1  C   UNL     1     -13.262   0.744 -23.335  1.00  0.00     0.312 C 
ENDROOT
BRANCH   1   2
ATOM      2  N   UNL     1     -12.855  -0.656 -23.433  1.00  0.00    -0.353 N 
ATOM      3  H   UNL     1     -12.451  -0.961 -22.518  1.00  0.00     0.344 HD
ATOM      4  H   UNL     1     -12.131  -0.769 -24.179  1.00  0.00     0.344 HD
ATOM      5  H   UNL     1     -13.685  -1.256 -23.653  1.00  0.00     0.344 HD
ENDBRANCH   1   2
BRANCH   1   6
ATOM      6  C   UNL     1     -12.443   1.597 -24.253  1.00  0.00     0.096 C 
ATOM      7  O   UNL     1     -12.325   1.290 -25.468  1.00  0.00    -0.544 OA
ATOM      8  O   UNL     1     -11.768   2.706 -23.756  1.00  0.00    -0.544 OA
ENDBRANCH   1   6
TORSDOF 2
ENDMDL
MODEL 7
REMARK VINA RESULT:    -2.652      9.431      9.815
REMARK INTER + INTRA:          -2.885
REMARK INTER:                  -2.885
REMARK INTRA:                   0.000
REMARK UNBOUND:                 0.000
REMARK SMILES [NH3+]CC(=O)[O-]
REMARK SMILES IDX 2 1 1 2 3 6 4 7 5 8
REMARK H PARENT 1 3 1 4 1 5
REMARK Flexibility Score: inf
ROOT
ATOM      1  C   UNL     1     -19.935   2.258 -17.878  1.00  0.00     0.312 C 
ENDROOT
BRANCH   1   2
ATOM      2  N   UNL     1     -21.116   2.807 -17.214  1.00  0.00    -0.353 N 
ATOM      3  H   UNL     1     -21.300   2.265 -16.340  1.00  0.00     0.344 HD
ATOM      4  H   UNL     1     -21.949   2.732 -17.843  1.00  0.00     0.344 HD
ATOM      5  H   UNL     1     -20.952   3.810 -16.963  1.00  0.00     0.344 HD
ENDBRANCH   1   2
BRANCH   1   6
ATOM      6  C   UNL     1     -18.686   2.881 -17.336  1.00  0.00     0.096 C 
ATOM      7  O   UNL     1     -18.070   3.752 -18.004  1.00  0.00    -0.544 OA
ATOM      8  O   UNL     1     -18.173   2.462 -16.115  1.00  0.00    -0.544 OA
ENDBRANCH   1   6
TORSDOF 2
ENDMDL
MODEL 8
REMARK VINA RESULT:    -2.639     10.036     10.480
REMARK INTER + INTRA:          -2.870
REMARK INTER:                  -2.870
REMARK INTRA:                   0.000
REMARK UNBOUND:                 0.000
REMARK SMILES [NH3+]CC(=O)[O-]
REMARK SMILES IDX 2 1 1 2 3 6 4 7 5 8
REMARK H PARENT 1 3 1 4 1 5
REMARK Flexibility Score: inf
ROOT
ATOM      1  C   UNL     1     -12.135   1.738 -27.553  1.00  0.00     0.312 C 
ENDROOT
BRANCH   1   2
ATOM      2  N   UNL     1     -11.012   2.533 -28.045  1.00  0.00    -0.353 N 
ATOM      3  H   UNL     1     -10.349   1.908 -28.558  1.00  0.00     0.344 HD
ATOM      4  H   UNL     1     -10.508   2.977 -27.243  1.00  0.00     0.344 HD
ATOM      5  H   UNL     1     -11.356   3.274 -28.699  1.00  0.00     0.344 HD
ENDBRANCH   1   2
BRANCH   1   6
ATOM      6  C   UNL     1     -12.786   2.410 -26.383  1.00  0.00     0.096 C 
ATOM      7  O   UNL     1     -13.895   2.988 -26.520  1.00  0.00    -0.544 OA
ATOM      8  O   UNL     1     -12.141   2.441 -25.152  1.00  0.00    -0.544 OA
ENDBRANCH   1   6
TORSDOF 2
ENDMDL
MODEL 9
REMARK VINA RESULT:    -2.614      2.870      3.095
REMARK INTER + INTRA:          -2.844
REMARK INTER:                  -2.844
REMARK INTRA:                   0.000
REMARK UNBOUND:                 0.000
REMARK SMILES [NH3+]CC(=O)[O-]
REMARK SMILES IDX 2 1 1 2 3 6 4 7 5 8
REMARK H PARENT 1 3 1 4 1 5
REMARK Flexibility Score: inf
ROOT
ATOM      1  C   UNL     1      -9.600   5.440 -19.136  1.00  0.00     0.312 C 
ENDROOT
BRANCH   1   2
ATOM      2  N   UNL     1      -8.413   5.007 -19.871  1.00  0.00    -0.353 N 
ATOM      3  H   UNL     1      -8.243   3.993 -19.680  1.00  0.00     0.344 HD
ATOM      4  H   UNL     1      -7.578   5.556 -19.560  1.00  0.00     0.344 HD
ATOM      5  H   UNL     1      -8.560   5.139 -20.899  1.00  0.00     0.344 HD
ENDBRANCH   1   2
BRANCH   1   6
ATOM      6  C   UNL     1     -10.301   4.267 -18.525  1.00  0.00     0.096 C 
ATOM      7  O   UNL     1     -11.480   3.985 -18.865  1.00  0.00    -0.544 OA
ATOM      8  O   UNL     1      -9.670   3.514 -17.542  1.00  0.00    -0.544 OA
ENDBRANCH   1   6
TORSDOF 2
ENDMDL
