MODEL 1
REMARK VINA RESULT:    -3.421      0.000      0.000
REMARK INTER + INTRA:          -5.267
REMARK INTER:                  -5.222
REMARK INTRA:                  -0.045
REMARK UNBOUND:                -0.045
REMARK SMILES CC1=CCC[C@H](C)C(=O)C[C@@H](C(C)C)C(=O)C1
REMARK SMILES IDX 8 1 9 2 6 3 7 4 5 5 4 6 3 7 2 8 1 9 10 11 11 12 15 13 16 14
REMARK SMILES IDX 17 15 12 17 13 18 14 19
REMARK H PARENT
REMARK Flexibility Score: 70.00
ROOT
ATOM      1  C   UNL     1      23.955  51.887  -0.993  1.00  0.00     0.136 C 
ATOM      2  O   UNL     1      23.086  52.708  -1.243  1.00  0.00    -0.299 OA
ENDROOT
BRANCH   1   3
ATOM      3  C   UNL     1      25.115  52.297  -0.097  1.00  0.00     0.053 C 
ATOM      4  C   UNL     1      25.536  53.739  -0.402  1.00  0.00     0.016 C 
BRANCH   3   5
ATOM      5  C   UNL     1      24.795  52.124   1.403  1.00  0.00     0.015 C 
BRANCH   5   6
ATOM      6  C   UNL     1      24.529  50.653   1.765  1.00  0.00     0.028 C 
BRANCH   6   7
ATOM      7  C   UNL     1      23.089  50.374   2.123  1.00  0.00    -0.028 C 
ATOM      8  C   UNL     1      22.295  49.419   1.572  1.00  0.00    -0.070 CG0
ATOM      9  C   UNL     1      20.913  49.218   2.143  1.00  0.00     0.039 C 
ATOM     10  G   UNL     1      22.636  48.630   0.313  1.00  0.00     0.000 G0
ENDBRANCH   6   7
ENDBRANCH   5   6
ENDBRANCH   3   5
ENDBRANCH   1   3
BRANCH   1  11
ATOM     11  C   UNL     1      23.810  50.473  -1.513  1.00  0.00     0.087 C 
BRANCH  11  12
ATOM     12  C   UNL     1      22.352  50.061  -1.874  1.00  0.00     0.066 C 
BRANCH  12  13
ATOM     13  C   UNL     1      21.839  48.982  -0.924  1.00  0.00     0.140 C 
ATOM     14  O   UNL     1      20.753  48.451  -1.116  1.00  0.00    -0.299 OA
BRANCH  13  15
ATOM     15  C   UNL     1      22.631  48.617   0.308  1.00  0.00     0.106 CG0
ATOM     16  G   UNL     1      22.288  49.424   1.555  1.00  0.00     0.000 G0
ENDBRANCH  13  15
ENDBRANCH  12  13
BRANCH  12  17
ATOM     17  C   UNL     1      22.131  49.688  -3.382  1.00  0.00    -0.006 C 
ATOM     18  C   UNL     1      22.981  48.489  -3.838  1.00  0.00     0.008 C 
ATOM     19  C   UNL     1      22.453  50.887  -4.295  1.00  0.00     0.008 C 
ENDBRANCH  12  17
ENDBRANCH  11  12
ENDBRANCH   1  11
TORSDOF 1
ENDMDL
MODEL 2
REMARK VINA RESULT:    -3.245      1.946      4.502
REMARK INTER + INTRA:          -4.997
REMARK INTER:                  -5.029
REMARK INTRA:                   0.032
REMARK UNBOUND:                -0.045
REMARK SMILES CC1=CCC[C@H](C)C(=O)C[C@@H](C(C)C)C(=O)C1
REMARK SMILES IDX 8 1 9 2 6 3 7 4 5 5 4 6 3 7 2 8 1 9 10 11 11 12 15 13 16 14
REMARK SMILES IDX 17 15 12 17 13 18 14 19
REMARK H PARENT
REMARK Flexibility Score: 70.00
ROOT
ATOM      1  C   UNL     1      23.274  48.412  -1.428  1.00  0.00     0.136 C 
ATOM      2  O   UNL     1      24.461  48.134  -1.362  1.00  0.00    -0.299 OA
ENDROOT
BRANCH   1   3
ATOM      3  C   UNL     1      22.740  49.057  -2.698  1.00  0.00     0.053 C 
ATOM      4  C   UNL     1      21.212  48.946  -2.747  1.00  0.00     0.016 C 
BRANCH   3   5
ATOM      5  C   UNL     1      23.189  50.526  -2.850  1.00  0.00     0.015 C 
BRANCH   5   6
ATOM      6  C   UNL     1      22.730  51.390  -1.663  1.00  0.00     0.028 C 
BRANCH   6   7
ATOM      7  C   UNL     1      23.867  52.087  -0.955  1.00  0.00    -0.028 C 
ATOM      8  C   UNL     1      24.179  51.978   0.364  1.00  0.00    -0.070 CG0
ATOM      9  C   UNL     1      25.425  52.666   0.866  1.00  0.00     0.039 C 
ATOM     10  G   UNL     1      23.281  51.337   1.416  1.00  0.00     0.000 G0
ENDBRANCH   6   7
ENDBRANCH   5   6
ENDBRANCH   3   5
ENDBRANCH   1   3
BRANCH   1  11
ATOM     11  C   UNL     1      22.361  48.034  -0.281  1.00  0.00     0.087 C 
BRANCH  11  12
ATOM     12  C   UNL     1      21.930  49.224   0.625  1.00  0.00     0.066 C 
BRANCH  12  13
ATOM     13  C   UNL     1      23.137  49.832   1.337  1.00  0.00     0.140 C 
ATOM     14  O   UNL     1      23.959  49.112   1.890  1.00  0.00    -0.299 OA
BRANCH  13  15
ATOM     15  C   UNL     1      23.285  51.330   1.436  1.00  0.00     0.106 CG0
ATOM     16  G   UNL     1      24.174  51.960   0.368  1.00  0.00     0.000 G0
ENDBRANCH  13  15
ENDBRANCH  12  13
BRANCH  12  17
ATOM     17  C   UNL     1      20.751  48.906   1.610  1.00  0.00    -0.006 C 
ATOM     18  C   UNL     1      19.663  48.017   0.981  1.00  0.00     0.008 C 
ATOM     19  C   UNL     1      20.088  50.205   2.108  1.00  0.00     0.008 C 
ENDBRANCH  12  17
ENDBRANCH  11  12
ENDBRANCH   1  11
TORSDOF 1
ENDMDL
MODEL 3
REMARK VINA RESULT:    -3.225      1.682      4.208
REMARK INTER + INTRA:          -4.968
REMARK INTER:                  -5.021
REMARK INTRA:                   0.054
REMARK UNBOUND:                -0.045
REMARK SMILES CC1=CCC[C@H](C)C(=O)C[C@@H](C(C)C)C(=O)C1
REMARK SMILES IDX 8 1 9 2 6 3 7 4 5 5 4 6 3 7 2 8 1 9 10 11 11 12 15 13 16 14
REMARK SMILES IDX 17 15 12 17 13 18 14 19
REMARK H PARENT
REMARK Flexibility Score: 70.00
ROOT
ATOM      1  C   UNL     1      23.179  49.967  -1.628  1.00  0.00     0.136 C 
ATOM      2  O   UNL     1      24.158  49.293  -1.908  1.00  0.00    -0.299 OA
ENDROOT
BRANCH   1   3
ATOM      3  C   UNL     1      21.799  49.332  -1.721  1.00  0.00     0.053 C 
ATOM      4  C   UNL     1      21.402  49.141  -3.190  1.00  0.00     0.016 C 
BRANCH   3   5
ATOM      5  C   UNL     1      21.708  47.998  -0.950  1.00  0.00     0.015 C 
BRANCH   5   6
ATOM      6  C   UNL     1      21.622  48.221   0.569  1.00  0.00     0.028 C 
BRANCH   6   7
ATOM      7  C   UNL     1      22.948  48.066   1.274  1.00  0.00    -0.028 C 
ATOM      8  C   UNL     1      23.461  48.904   2.212  1.00  0.00    -0.070 CG0
ATOM      9  C   UNL     1      24.755  48.520   2.887  1.00  0.00     0.039 C 
ATOM     10  G   UNL     1      22.908  50.289   2.532  1.00  0.00     0.000 G0
ENDBRANCH   6   7
ENDBRANCH   5   6
ENDBRANCH   3   5
ENDBRANCH   1   3
BRANCH   1  11
ATOM     11  C   UNL     1      23.373  51.380  -1.122  1.00  0.00     0.087 C 
BRANCH  11  12
ATOM     12  C   UNL     1      23.845  51.480   0.359  1.00  0.00     0.066 C 
BRANCH  12  13
ATOM     13  C   UNL     1      22.694  51.184   1.318  1.00  0.00     0.140 C 
ATOM     14  O   UNL     1      21.601  51.710   1.156  1.00  0.00    -0.299 OA
BRANCH  13  15
ATOM     15  C   UNL     1      22.918  50.303   2.523  1.00  0.00     0.106 CG0
ATOM     16  G   UNL     1      23.475  48.918   2.211  1.00  0.00     0.000 G0
ENDBRANCH  13  15
ENDBRANCH  12  13
BRANCH  12  17
ATOM     17  C   UNL     1      24.599  52.808   0.719  1.00  0.00    -0.006 C 
ATOM     18  C   UNL     1      25.094  53.576  -0.520  1.00  0.00     0.008 C 
ATOM     19  C   UNL     1      25.811  52.519   1.626  1.00  0.00     0.008 C 
ENDBRANCH  12  17
ENDBRANCH  11  12
ENDBRANCH   1  11
TORSDOF 1
ENDMDL
MODEL 4
REMARK VINA RESULT:    -3.138      2.067      3.848
REMARK INTER + INTRA:          -4.834
REMARK INTER:                  -4.530
REMARK INTRA:                  -0.304
REMARK UNBOUND:                -0.045
REMARK SMILES CC1=CCC[C@H](C)C(=O)C[C@@H](C(C)C)C(=O)C1
REMARK SMILES IDX 8 1 9 2 6 3 7 4 5 5 4 6 3 7 2 8 1 9 10 11 11 12 15 13 16 14
REMARK SMILES IDX 17 15 12 17 13 18 14 19
REMARK H PARENT
REMARK Flexibility Score: 70.00
ROOT
ATOM      1  C   UNL     1      22.065  50.563   1.493  1.00  0.00     0.136 C 
ATOM      2  O   UNL     1      21.843  51.734   1.761  1.00  0.00    -0.299 OA
ENDROOT
BRANCH   1   3
ATOM      3  C   UNL     1      22.455  49.615   2.618  1.00  0.00     0.053 C 
ATOM      4  C   UNL     1      22.550  48.179   2.090  1.00  0.00     0.016 C 
BRANCH   3   5
ATOM      5  C   UNL     1      23.768  50.031   3.315  1.00  0.00     0.015 C 
BRANCH   5   6
ATOM      6  C   UNL     1      24.912  50.231   2.307  1.00  0.00     0.028 C 
BRANCH   6   7
ATOM      7  C   UNL     1      25.313  51.676   2.134  1.00  0.00    -0.028 C 
ATOM      8  C   UNL     1      25.317  52.373   0.967  1.00  0.00    -0.070 CG0
ATOM      9  C   UNL     1      25.642  53.846   1.013  1.00  0.00     0.039 C 
ATOM     10  G   UNL     1      25.165  51.749  -0.416  1.00  0.00     0.000 G0
ENDBRANCH   6   7
ENDBRANCH   5   6
ENDBRANCH   3   5
ENDBRANCH   1   3
BRANCH   1  11
ATOM     11  C   UNL     1      21.866  50.078   0.074  1.00  0.00     0.087 C 
BRANCH  11  12
ATOM     12  C   UNL     1      23.153  50.097  -0.805  1.00  0.00     0.066 C 
BRANCH  12  13
ATOM     13  C   UNL     1      23.737  51.506  -0.886  1.00  0.00     0.140 C 
ATOM     14  O   UNL     1      23.085  52.420  -1.375  1.00  0.00    -0.299 OA
BRANCH  13  15
ATOM     15  C   UNL     1      25.154  51.767  -0.439  1.00  0.00     0.106 CG0
ATOM     16  G   UNL     1      25.286  52.376   0.953  1.00  0.00     0.000 G0
ENDBRANCH  13  15
ENDBRANCH  12  13
BRANCH  12  17
ATOM     17  C   UNL     1      22.993  49.431  -2.216  1.00  0.00    -0.006 C 
ATOM     18  C   UNL     1      21.523  49.238  -2.630  1.00  0.00     0.008 C 
ATOM     19  C   UNL     1      23.692  48.058  -2.255  1.00  0.00     0.008 C 
ENDBRANCH  12  17
ENDBRANCH  11  12
ENDBRANCH   1  11
TORSDOF 1
ENDMDL
MODEL 5
REMARK VINA RESULT:    -3.085      1.643      4.150
REMARK INTER + INTRA:          -4.754
REMARK INTER:                  -4.890
REMARK INTRA:                   0.137
REMARK UNBOUND:                -0.045
REMARK SMILES CC1=CCC[C@H](C)C(=O)C[C@@H](C(C)C)C(=O)C1
REMARK SMILES IDX 8 1 9 2 6 3 7 4 5 5 4 6 3 7 2 8 1 9 10 11 11 12 15 13 16 14
REMARK SMILES IDX 17 15 12 17 13 18 14 19
REMARK H PARENT
REMARK Flexibility Score: 70.00
ROOT
ATOM      1  C   UNL     1      24.009  51.465   1.614  1.00  0.00     0.136 C 
ATOM      2  O   UNL     1      24.888  50.777   2.109  1.00  0.00    -0.299 OA
ENDROOT
BRANCH   1   3
ATOM      3  C   UNL     1      24.406  52.663   0.763  1.00  0.00     0.053 C 
ATOM      4  C   UNL     1      25.742  53.238   1.249  1.00  0.00     0.016 C 
BRANCH   3   5
ATOM      5  C   UNL     1      24.468  52.327  -0.742  1.00  0.00     0.015 C 
BRANCH   5   6
ATOM      6  C   UNL     1      23.073  52.028  -1.318  1.00  0.00     0.028 C 
BRANCH   6   7
ATOM      7  C   UNL     1      23.043  50.813  -2.215  1.00  0.00    -0.028 C 
ATOM      8  C   UNL     1      22.324  49.679  -2.005  1.00  0.00    -0.070 CG0
ATOM      9  C   UNL     1      22.335  48.615  -3.075  1.00  0.00     0.039 C 
ATOM     10  G   UNL     1      21.623  49.326  -0.698  1.00  0.00     0.000 G0
ENDBRANCH   6   7
ENDBRANCH   5   6
ENDBRANCH   3   5
ENDBRANCH   1   3
BRANCH   1  11
ATOM     11  C   UNL     1      22.562  51.059   1.793  1.00  0.00     0.087 C 
BRANCH  11  12
ATOM     12  C   UNL     1      22.321  49.521   1.842  1.00  0.00     0.066 C 
BRANCH  12  13
ATOM     13  C   UNL     1      22.497  48.898   0.459  1.00  0.00     0.140 C 
ATOM     14  O   UNL     1      23.402  48.101   0.249  1.00  0.00    -0.299 OA
BRANCH  13  15
ATOM     15  C   UNL     1      21.606  49.321  -0.683  1.00  0.00     0.106 CG0
ATOM     16  G   UNL     1      22.339  49.674  -1.973  1.00  0.00     0.000 G0
ENDBRANCH  13  15
ENDBRANCH  12  13
BRANCH  12  17
ATOM     17  C   UNL     1      20.977  49.090   2.528  1.00  0.00    -0.006 C 
ATOM     18  C   UNL     1      19.836  50.099   2.309  1.00  0.00     0.008 C 
ATOM     19  C   UNL     1      21.173  48.902   4.045  1.00  0.00     0.008 C 
ENDBRANCH  12  17
ENDBRANCH  11  12
ENDBRANCH   1  11
TORSDOF 1
ENDMDL
MODEL 6
REMARK VINA RESULT:    -3.034      2.178      3.600
REMARK INTER + INTRA:          -4.675
REMARK INTER:                  -4.515
REMARK INTRA:                  -0.160
REMARK UNBOUND:                -0.045
REMARK SMILES CC1=CCC[C@H](C)C(=O)C[C@@H](C(C)C)C(=O)C1
REMARK SMILES IDX 8 1 9 2 6 3 7 4 5 5 4 6 3 7 2 8 1 9 10 11 11 12 15 13 16 14
REMARK SMILES IDX 17 15 12 17 13 18 14 19
REMARK H PARENT
REMARK Flexibility Score: 70.00
ROOT
ATOM      1  C   UNL     1      24.466  49.815   2.342  1.00  0.00     0.136 C 
ATOM      2  O   UNL     1      25.062  50.879   2.284  1.00  0.00    -0.299 OA
ENDROOT
BRANCH   1   3
ATOM      3  C   UNL     1      24.416  49.074   3.671  1.00  0.00     0.053 C 
ATOM      4  C   UNL     1      24.847  50.003   4.812  1.00  0.00     0.016 C 
BRANCH   3   5
ATOM      5  C   UNL     1      23.028  48.462   3.956  1.00  0.00     0.015 C 
BRANCH   5   6
ATOM      6  C   UNL     1      22.043  49.509   4.503  1.00  0.00     0.028 C 
BRANCH   6   7
ATOM      7  C   UNL     1      20.595  49.142   4.283  1.00  0.00    -0.028 C 
ATOM      8  C   UNL     1      19.870  49.374   3.158  1.00  0.00    -0.070 CG0
ATOM      9  C   UNL     1      18.464  48.830   3.084  1.00  0.00     0.039 C 
ATOM     10  G   UNL     1      20.314  50.278   2.012  1.00  0.00     0.000 G0
ENDBRANCH   6   7
ENDBRANCH   5   6
ENDBRANCH   3   5
ENDBRANCH   1   3
BRANCH   1  11
ATOM     11  C   UNL     1      23.732  49.309   1.120  1.00  0.00     0.087 C 
BRANCH  11  12
ATOM     12  C   UNL     1      22.567  50.224   0.637  1.00  0.00     0.066 C 
BRANCH  12  13
ATOM     13  C   UNL     1      21.212  49.614   0.993  1.00  0.00     0.140 C 
ATOM     14  O   UNL     1      20.813  48.612   0.415  1.00  0.00    -0.299 OA
BRANCH  13  15
ATOM     15  C   UNL     1      20.317  50.290   2.002  1.00  0.00     0.106 CG0
ATOM     16  G   UNL     1      19.857  49.399   3.151  1.00  0.00     0.000 G0
ENDBRANCH  13  15
ENDBRANCH  12  13
BRANCH  12  17
ATOM     17  C   UNL     1      22.654  50.658  -0.868  1.00  0.00    -0.006 C 
ATOM     18  C   UNL     1      23.401  49.640  -1.748  1.00  0.00     0.008 C 
ATOM     19  C   UNL     1      23.355  52.024  -1.004  1.00  0.00     0.008 C 
ENDBRANCH  12  17
ENDBRANCH  11  12
ENDBRANCH   1  11
TORSDOF 1
ENDMDL
MODEL 7
REMARK VINA RESULT:    -2.753      2.587      5.002
REMARK INTER + INTRA:          -4.247
REMARK INTER:                  -4.367
REMARK INTRA:                   0.119
REMARK UNBOUND:                -0.045
REMARK SMILES CC1=CCC[C@H](C)C(=O)C[C@@H](C(C)C)C(=O)C1
REMARK SMILES IDX 8 1 9 2 6 3 7 4 5 5 4 6 3 7 2 8 1 9 10 11 11 12 15 13 16 14
REMARK SMILES IDX 17 15 12 17 13 18 14 19
REMARK H PARENT
REMARK Flexibility Score: 70.00
ROOT
ATOM      1  C   UNL     1      20.061  49.698   2.210  1.00  0.00     0.136 C 
ATOM      2  O   UNL     1      19.366  49.216   1.330  1.00  0.00    -0.299 OA
ENDROOT
BRANCH   1   3
ATOM      3  C   UNL     1      19.733  49.380   3.662  1.00  0.00     0.053 C 
ATOM      4  C   UNL     1      18.398  48.632   3.751  1.00  0.00     0.016 C 
BRANCH   3   5
ATOM      5  C   UNL     1      20.856  48.585   4.363  1.00  0.00     0.015 C 
BRANCH   5   6
ATOM      6  C   UNL     1      21.526  49.405   5.478  1.00  0.00     0.028 C 
BRANCH   6   7
ATOM      7  C   UNL     1      23.017  49.187   5.570  1.00  0.00    -0.028 C 
ATOM      8  C   UNL     1      23.959  49.733   4.757  1.00  0.00    -0.070 CG0
ATOM      9  C   UNL     1      25.413  49.486   5.077  1.00  0.00     0.039 C 
ATOM     10  G   UNL     1      23.661  50.457   3.449  1.00  0.00     0.000 G0
ENDBRANCH   6   7
ENDBRANCH   5   6
ENDBRANCH   3   5
ENDBRANCH   1   3
BRANCH   1  11
ATOM     11  C   UNL     1      21.269  50.527   1.829  1.00  0.00     0.087 C 
BRANCH  11  12
ATOM     12  C   UNL     1      22.445  49.714   1.210  1.00  0.00     0.066 C 
BRANCH  12  13
ATOM     13  C   UNL     1      23.578  49.542   2.219  1.00  0.00     0.140 C 
ATOM     14  O   UNL     1      24.391  48.636   2.090  1.00  0.00    -0.299 OA
BRANCH  13  15
ATOM     15  C   UNL     1      23.658  50.438   3.431  1.00  0.00     0.106 CG0
ATOM     16  G   UNL     1      23.950  49.718   4.744  1.00  0.00     0.000 G0
ENDBRANCH  13  15
ENDBRANCH  12  13
BRANCH  12  17
ATOM     17  C   UNL     1      22.951  50.246  -0.176  1.00  0.00    -0.006 C 
ATOM     18  C   UNL     1      22.738  51.760  -0.357  1.00  0.00     0.008 C 
ATOM     19  C   UNL     1      22.243  49.515  -1.334  1.00  0.00     0.008 C 
ENDBRANCH  12  17
ENDBRANCH  11  12
ENDBRANCH   1  11
TORSDOF 1
ENDMDL
MODEL 8
REMARK VINA RESULT:    -2.750      2.350      4.041
REMARK INTER + INTRA:          -4.242
REMARK INTER:                  -4.064
REMARK INTRA:                  -0.178
REMARK UNBOUND:                -0.045
REMARK SMILES CC1=CCC[C@H](C)C(=O)C[C@@H](C(C)C)C(=O)C1
REMARK SMILES IDX 8 1 9 2 6 3 7 4 5 5 4 6 3 7 2 8 1 9 10 11 11 12 15 13 16 14
REMARK SMILES IDX 17 15 12 17 13 18 14 19
REMARK H PARENT
REMARK Flexibility Score: 70.00
ROOT
ATOM      1  C   UNL     1      21.239  50.799   1.560  1.00  0.00     0.136 C 
ATOM      2  O   UNL     1      21.432  51.642   2.422  1.00  0.00    -0.299 OA
ENDROOT
BRANCH   1   3
ATOM      3  C   UNL     1      20.232  49.690   1.830  1.00  0.00     0.053 C 
ATOM      4  C   UNL     1      20.338  48.604   0.754  1.00  0.00     0.016 C 
BRANCH   3   5
ATOM      5  C   UNL     1      20.383  49.083   3.241  1.00  0.00     0.015 C 
BRANCH   5   6
ATOM      6  C   UNL     1      21.653  48.223   3.359  1.00  0.00     0.028 C 
BRANCH   6   7
ATOM      7  C   UNL     1      22.754  48.886   4.153  1.00  0.00    -0.028 C 
ATOM      8  C   UNL     1      23.912  49.391   3.652  1.00  0.00    -0.070 CG0
ATOM      9  C   UNL     1      24.842  50.120   4.590  1.00  0.00     0.039 C 
ATOM     10  G   UNL     1      24.424  49.146   2.236  1.00  0.00     0.000 G0
ENDBRANCH   6   7
ENDBRANCH   5   6
ENDBRANCH   3   5
ENDBRANCH   1   3
BRANCH   1  11
ATOM     11  C   UNL     1      21.943  50.928   0.227  1.00  0.00     0.087 C 
BRANCH  11  12
ATOM     12  C   UNL     1      23.217  50.044   0.077  1.00  0.00     0.066 C 
BRANCH  12  13
ATOM     13  C   UNL     1      24.174  50.265   1.247  1.00  0.00     0.140 C 
ATOM     14  O   UNL     1      24.782  51.321   1.360  1.00  0.00    -0.299 OA
BRANCH  13  15
ATOM     15  C   UNL     1      24.440  49.151   2.229  1.00  0.00     0.106 CG0
ATOM     16  G   UNL     1      23.890  49.387   3.632  1.00  0.00     0.000 G0
ENDBRANCH  13  15
ENDBRANCH  12  13
BRANCH  12  17
ATOM     17  C   UNL     1      23.934  50.157  -1.315  1.00  0.00    -0.006 C 
ATOM     18  C   UNL     1      23.135  50.980  -2.341  1.00  0.00     0.008 C 
ATOM     19  C   UNL     1      24.193  48.759  -1.910  1.00  0.00     0.008 C 
ENDBRANCH  12  17
ENDBRANCH  11  12
ENDBRANCH   1  11
TORSDOF 1
ENDMDL
MODEL 9
REMARK VINA RESULT:    -2.645      2.521      4.861
REMARK INTER + INTRA:          -4.081
REMARK INTER:                  -3.831
REMARK INTRA:                  -0.250
REMARK UNBOUND:                -0.045
REMARK SMILES CC1=CCC[C@H](C)C(=O)C[C@@H](C(C)C)C(=O)C1
REMARK SMILES IDX 8 1 9 2 6 3 7 4 5 5 4 6 3 7 2 8 1 9 10 11 11 12 15 13 16 14
REMARK SMILES IDX 17 15 12 17 13 18 14 19
REMARK H PARENT
REMARK Flexibility Score: 70.00
ROOT
ATOM      1  C   UNL     1      23.625  50.909   1.329  1.00  0.00     0.136 C 
ATOM      2  O   UNL     1      24.799  51.215   1.182  1.00  0.00    -0.299 OA
ENDROOT
BRANCH   1   3
ATOM      3  C   UNL     1      22.789  50.596   0.097  1.00  0.00     0.053 C 
ATOM      4  C   UNL     1      23.029  51.651  -0.989  1.00  0.00     0.016 C 
BRANCH   3   5
ATOM      5  C   UNL     1      23.048  49.176  -0.450  1.00  0.00     0.015 C 
BRANCH   5   6
ATOM      6  C   UNL     1      22.180  48.123   0.260  1.00  0.00     0.028 C 
BRANCH   6   7
ATOM      7  C   UNL     1      20.791  48.615   0.590  1.00  0.00    -0.028 C 
ATOM      8  C   UNL     1      20.238  48.684   1.830  1.00  0.00    -0.070 CG0
ATOM      9  C   UNL     1      18.874  49.313   1.973  1.00  0.00     0.039 C 
ATOM     10  G   UNL     1      20.826  48.036   3.079  1.00  0.00     0.000 G0
ENDBRANCH   6   7
ENDBRANCH   5   6
ENDBRANCH   3   5
ENDBRANCH   1   3
BRANCH   1  11
ATOM     11  C   UNL     1      23.065  50.774   2.728  1.00  0.00     0.087 C 
BRANCH  11  12
ATOM     12  C   UNL     1      23.113  49.330   3.310  1.00  0.00     0.066 C 
BRANCH  12  13
ATOM     13  C   UNL     1      21.755  48.929   3.883  1.00  0.00     0.140 C 
ATOM     14  O   UNL     1      21.434  49.271   5.014  1.00  0.00    -0.299 OA
BRANCH  13  15
ATOM     15  C   UNL     1      20.830  48.038   3.091  1.00  0.00     0.106 CG0
ATOM     16  G   UNL     1      20.231  48.681   1.844  1.00  0.00     0.000 G0
ENDBRANCH  13  15
ENDBRANCH  12  13
BRANCH  12  17
ATOM     17  C   UNL     1      24.290  49.066   4.313  1.00  0.00    -0.006 C 
ATOM     18  C   UNL     1      24.749  50.335   5.053  1.00  0.00     0.008 C 
ATOM     19  C   UNL     1      25.506  48.463   3.582  1.00  0.00     0.008 C 
ENDBRANCH  12  17
ENDBRANCH  11  12
ENDBRANCH   1  11
TORSDOF 1
ENDMDL
