MODEL 1
REMARK VINA RESULT:    -3.776      0.000      0.000
REMARK INTER + INTRA:          -3.776
REMARK INTER:                  -3.776
REMARK INTRA:                   0.000
REMARK UNBOUND:                 0.000
REMARK SMILES CC1=CC(=O)[C@H]2C[C@@H]1C2(C)C
REMARK SMILES IDX 1 1 2 2 3 3 4 4 5 5 6 6 7 7 8 8 9 9 10 10 11 11
REMARK H PARENT
REMARK Flexibility Score: inf
ROOT
ATOM      1  C   UNL     1     188.364 203.127 210.714  1.00  0.00     0.040 C 
ATOM      2  C   UNL     1     187.488 202.159 211.446  1.00  0.00    -0.066 C 
ATOM      3  C   UNL     1     187.965 201.353 212.437  1.00  0.00     0.047 C 
ATOM      4  C   UNL     1     186.969 200.433 213.078  1.00  0.00     0.159 C 
ATOM      5  O   UNL     1     187.294 199.610 213.973  1.00  0.00    -0.295 OA
ATOM      6  C   UNL     1     185.533 200.565 212.568  1.00  0.00     0.067 C 
ATOM      7  C   UNL     1     185.287 202.088 212.525  1.00  0.00     0.021 C 
ATOM      8  C   UNL     1     185.978 202.074 211.144  1.00  0.00     0.022 C 
ATOM      9  C   UNL     1     185.560 200.581 211.012  1.00  0.00    -0.019 C 
ATOM     10  C   UNL     1     184.147 200.416 210.397  1.00  0.00     0.012 C 
ATOM     11  C   UNL     1     186.527 199.608 210.280  1.00  0.00     0.012 C 
ENDROOT
TORSDOF 0
ENDMDL
MODEL 2
REMARK VINA RESULT:    -3.740      1.685      2.762
REMARK INTER + INTRA:          -3.740
REMARK INTER:                  -3.740
REMARK INTRA:                   0.000
REMARK UNBOUND:                 0.000
REMARK SMILES CC1=CC(=O)[C@H]2C[C@@H]1C2(C)C
REMARK SMILES IDX 1 1 2 2 3 3 4 4 5 5 6 6 7 7 8 8 9 9 10 10 11 11
REMARK H PARENT
REMARK Flexibility Score: inf
ROOT
ATOM      1  C   UNL     1     187.986 202.766 209.558  1.00  0.00     0.040 C 
ATOM      2  C   UNL     1     187.221 201.745 210.342  1.00  0.00    -0.066 C 
ATOM      3  C   UNL     1     186.523 200.741 209.741  1.00  0.00     0.047 C 
ATOM      4  C   UNL     1     185.805 199.795 210.656  1.00  0.00     0.159 C 
ATOM      5  O   UNL     1     185.091 198.853 210.223  1.00  0.00    -0.295 OA
ATOM      6  C   UNL     1     186.001 200.054 212.150  1.00  0.00     0.067 C 
ATOM      7  C   UNL     1     187.520 200.292 212.296  1.00  0.00     0.021 C 
ATOM      8  C   UNL     1     187.241 201.755 211.884  1.00  0.00     0.022 C 
ATOM      9  C   UNL     1     185.792 201.572 212.421  1.00  0.00    -0.019 C 
ATOM     10  C   UNL     1     185.679 201.891 213.933  1.00  0.00     0.012 C 
ATOM     11  C   UNL     1     184.636 202.301 211.681  1.00  0.00     0.012 C 
ENDROOT
TORSDOF 0
ENDMDL
MODEL 3
REMARK VINA RESULT:    -3.662      1.662      3.127
REMARK INTER + INTRA:          -3.662
REMARK INTER:                  -3.662
REMARK INTRA:                   0.000
REMARK UNBOUND:                 0.000
REMARK SMILES CC1=CC(=O)[C@H]2C[C@@H]1C2(C)C
REMARK SMILES IDX 1 1 2 2 3 3 4 4 5 5 6 6 7 7 8 8 9 9 10 10 11 11
REMARK H PARENT
REMARK Flexibility Score: inf
ROOT
ATOM      1  C   UNL     1     184.146 200.814 210.743  1.00  0.00     0.040 C 
ATOM      2  C   UNL     1     185.396 201.147 211.496  1.00  0.00    -0.066 C 
ATOM      3  C   UNL     1     186.297 202.062 211.039  1.00  0.00     0.047 C 
ATOM      4  C   UNL     1     187.503 202.290 211.900  1.00  0.00     0.159 C 
ATOM      5  O   UNL     1     188.428 203.076 211.567  1.00  0.00    -0.295 OA
ATOM      6  C   UNL     1     187.530 201.501 213.210  1.00  0.00     0.067 C 
ATOM      7  C   UNL     1     186.107 201.673 213.783  1.00  0.00     0.021 C 
ATOM      8  C   UNL     1     185.690 200.502 212.866  1.00  0.00     0.022 C 
ATOM      9  C   UNL     1     187.168 200.019 212.903  1.00  0.00    -0.019 C 
ATOM     10  C   UNL     1     187.452 199.083 214.105  1.00  0.00     0.012 C 
ATOM     11  C   UNL     1     187.761 199.364 211.623  1.00  0.00     0.012 C 
ENDROOT
TORSDOF 0
ENDMDL
MODEL 4
REMARK VINA RESULT:    -3.606      1.753      3.147
REMARK INTER + INTRA:          -3.606
REMARK INTER:                  -3.606
REMARK INTRA:                   0.000
REMARK UNBOUND:                 0.000
REMARK SMILES CC1=CC(=O)[C@H]2C[C@@H]1C2(C)C
REMARK SMILES IDX 1 1 2 2 3 3 4 4 5 5 6 6 7 7 8 8 9 9 10 10 11 11
REMARK H PARENT
REMARK Flexibility Score: inf
ROOT
ATOM      1  C   UNL     1     187.647 198.518 213.870  1.00  0.00     0.040 C 
ATOM      2  C   UNL     1     187.604 199.839 213.168  1.00  0.00    -0.066 C 
ATOM      3  C   UNL     1     188.560 200.792 213.353  1.00  0.00     0.047 C 
ATOM      4  C   UNL     1     188.383 202.066 212.583  1.00  0.00     0.159 C 
ATOM      5  O   UNL     1     189.173 203.038 212.701  1.00  0.00    -0.295 OA
ATOM      6  C   UNL     1     187.176 202.101 211.645  1.00  0.00     0.067 C 
ATOM      7  C   UNL     1     187.223 200.739 210.918  1.00  0.00     0.021 C 
ATOM      8  C   UNL     1     186.491 200.156 212.147  1.00  0.00     0.022 C 
ATOM      9  C   UNL     1     185.930 201.582 212.420  1.00  0.00    -0.019 C 
ATOM     10  C   UNL     1     184.608 201.851 211.659  1.00  0.00     0.012 C 
ATOM     11  C   UNL     1     185.743 202.027 213.898  1.00  0.00     0.012 C 
ENDROOT
TORSDOF 0
ENDMDL
MODEL 5
REMARK VINA RESULT:    -3.491      1.624      2.252
REMARK INTER + INTRA:          -3.491
REMARK INTER:                  -3.491
REMARK INTRA:                   0.000
REMARK UNBOUND:                 0.000
REMARK SMILES CC1=CC(=O)[C@H]2C[C@@H]1C2(C)C
REMARK SMILES IDX 1 1 2 2 3 3 4 4 5 5 6 6 7 7 8 8 9 9 10 10 11 11
REMARK H PARENT
REMARK Flexibility Score: inf
ROOT
ATOM      1  C   UNL     1     189.501 202.732 213.728  1.00  0.00     0.040 C 
ATOM      2  C   UNL     1     188.536 201.760 213.123  1.00  0.00    -0.066 C 
ATOM      3  C   UNL     1     188.949 200.645 212.457  1.00  0.00     0.047 C 
ATOM      4  C   UNL     1     187.867 199.766 211.905  1.00  0.00     0.159 C 
ATOM      5  O   UNL     1     188.119 198.732 211.234  1.00  0.00    -0.295 OA
ATOM      6  C   UNL     1     186.438 200.213 212.215  1.00  0.00     0.067 C 
ATOM      7  C   UNL     1     186.473 200.574 213.716  1.00  0.00     0.021 C 
ATOM      8  C   UNL     1     187.014 201.954 213.283  1.00  0.00     0.022 C 
ATOM      9  C   UNL     1     186.318 201.735 211.909  1.00  0.00    -0.019 C 
ATOM     10  C   UNL     1     184.847 202.221 211.909  1.00  0.00     0.012 C 
ATOM     11  C   UNL     1     187.016 202.288 210.634  1.00  0.00     0.012 C 
ENDROOT
TORSDOF 0
ENDMDL
MODEL 6
REMARK VINA RESULT:    -3.457      1.765      3.576
REMARK INTER + INTRA:          -3.457
REMARK INTER:                  -3.457
REMARK INTRA:                   0.000
REMARK UNBOUND:                 0.000
REMARK SMILES CC1=CC(=O)[C@H]2C[C@@H]1C2(C)C
REMARK SMILES IDX 1 1 2 2 3 3 4 4 5 5 6 6 7 7 8 8 9 9 10 10 11 11
REMARK H PARENT
REMARK Flexibility Score: inf
ROOT
ATOM      1  C   UNL     1     187.628 198.601 210.991  1.00  0.00     0.040 C 
ATOM      2  C   UNL     1     187.109 199.775 211.759  1.00  0.00    -0.066 C 
ATOM      3  C   UNL     1     185.964 200.426 211.407  1.00  0.00     0.047 C 
ATOM      4  C   UNL     1     185.570 201.586 212.271  1.00  0.00     0.159 C 
ATOM      5  O   UNL     1     184.558 202.293 212.025  1.00  0.00    -0.295 OA
ATOM      6  C   UNL     1     186.481 201.848 213.471  1.00  0.00     0.067 C 
ATOM      7  C   UNL     1     186.710 200.450 214.084  1.00  0.00     0.021 C 
ATOM      8  C   UNL     1     187.827 200.268 213.032  1.00  0.00     0.022 C 
ATOM      9  C   UNL     1     187.959 201.817 212.985  1.00  0.00    -0.019 C 
ATOM     10  C   UNL     1     188.942 202.358 214.054  1.00  0.00     0.012 C 
ATOM     11  C   UNL     1     188.303 202.485 211.624  1.00  0.00     0.012 C 
ENDROOT
TORSDOF 0
ENDMDL
MODEL 7
REMARK VINA RESULT:    -3.421      1.966      2.945
REMARK INTER + INTRA:          -3.421
REMARK INTER:                  -3.421
REMARK INTRA:                   0.000
REMARK UNBOUND:                 0.000
REMARK SMILES CC1=CC(=O)[C@H]2C[C@@H]1C2(C)C
REMARK SMILES IDX 1 1 2 2 3 3 4 4 5 5 6 6 7 7 8 8 9 9 10 10 11 11
REMARK H PARENT
REMARK Flexibility Score: inf
ROOT
ATOM      1  C   UNL     1     187.496 201.663 214.125  1.00  0.00     0.040 C 
ATOM      2  C   UNL     1     187.235 201.481 212.663  1.00  0.00    -0.066 C 
ATOM      3  C   UNL     1     187.740 202.329 211.723  1.00  0.00     0.047 C 
ATOM      4  C   UNL     1     187.393 202.020 210.298  1.00  0.00     0.159 C 
ATOM      5  O   UNL     1     187.762 202.752 209.342  1.00  0.00    -0.295 OA
ATOM      6  C   UNL     1     186.561 200.754 210.086  1.00  0.00     0.067 C 
ATOM      7  C   UNL     1     187.249 199.698 210.978  1.00  0.00     0.021 C 
ATOM      8  C   UNL     1     186.422 200.275 212.149  1.00  0.00     0.022 C 
ATOM      9  C   UNL     1     185.381 200.762 211.100  1.00  0.00    -0.019 C 
ATOM     10  C   UNL     1     184.319 199.681 210.777  1.00  0.00     0.012 C 
ATOM     11  C   UNL     1     184.644 202.106 211.365  1.00  0.00     0.012 C 
ENDROOT
TORSDOF 0
ENDMDL
MODEL 8
REMARK VINA RESULT:    -3.391      2.067      3.328
REMARK INTER + INTRA:          -3.391
REMARK INTER:                  -3.391
REMARK INTRA:                   0.000
REMARK UNBOUND:                 0.000
REMARK SMILES CC1=CC(=O)[C@H]2C[C@@H]1C2(C)C
REMARK SMILES IDX 1 1 2 2 3 3 4 4 5 5 6 6 7 7 8 8 9 9 10 10 11 11
REMARK H PARENT
REMARK Flexibility Score: inf
ROOT
ATOM      1  C   UNL     1     185.724 201.980 213.888  1.00  0.00     0.040 C 
ATOM      2  C   UNL     1     185.957 201.567 212.468  1.00  0.00    -0.066 C 
ATOM      3  C   UNL     1     184.990 200.969 211.718  1.00  0.00     0.047 C 
ATOM      4  C   UNL     1     185.370 200.610 210.313  1.00  0.00     0.159 C 
ATOM      5  O   UNL     1     184.580 200.015 209.534  1.00  0.00    -0.295 OA
ATOM      6  C   UNL     1     186.782 201.019 209.892  1.00  0.00     0.067 C 
ATOM      7  C   UNL     1     186.923 202.469 210.402  1.00  0.00     0.021 C 
ATOM      8  C   UNL     1     187.301 201.859 211.770  1.00  0.00     0.022 C 
ATOM      9  C   UNL     1     187.776 200.588 211.010  1.00  0.00    -0.019 C 
ATOM     10  C   UNL     1     189.254 200.689 210.555  1.00  0.00     0.012 C 
ATOM     11  C   UNL     1     187.568 199.204 211.689  1.00  0.00     0.012 C 
ENDROOT
TORSDOF 0
ENDMDL
MODEL 9
REMARK VINA RESULT:    -3.388      1.317      2.776
REMARK INTER + INTRA:          -3.388
REMARK INTER:                  -3.388
REMARK INTRA:                   0.000
REMARK UNBOUND:                 0.000
REMARK SMILES CC1=CC(=O)[C@H]2C[C@@H]1C2(C)C
REMARK SMILES IDX 1 1 2 2 3 3 4 4 5 5 6 6 7 7 8 8 9 9 10 10 11 11
REMARK H PARENT
REMARK Flexibility Score: inf
ROOT
ATOM      1  C   UNL     1     185.560 201.987 214.098  1.00  0.00     0.040 C 
ATOM      2  C   UNL     1     186.090 201.254 212.906  1.00  0.00    -0.066 C 
ATOM      3  C   UNL     1     186.604 199.995 212.998  1.00  0.00     0.047 C 
ATOM      4  C   UNL     1     187.099 199.388 211.719  1.00  0.00     0.159 C 
ATOM      5  O   UNL     1     187.635 198.250 211.679  1.00  0.00    -0.295 OA
ATOM      6  C   UNL     1     186.907 200.247 210.469  1.00  0.00     0.067 C 
ATOM      7  C   UNL     1     185.458 200.766 210.587  1.00  0.00     0.021 C 
ATOM      8  C   UNL     1     186.023 201.879 211.498  1.00  0.00     0.022 C 
ATOM      9  C   UNL     1     187.392 201.693 210.783  1.00  0.00    -0.019 C 
ATOM     10  C   UNL     1     187.514 202.563 209.507  1.00  0.00     0.012 C 
ATOM     11  C   UNL     1     188.689 201.870 211.621  1.00  0.00     0.012 C 
ENDROOT
TORSDOF 0
ENDMDL
