MODEL 1
REMARK VINA RESULT:    -3.856      0.000      0.000
REMARK INTER + INTRA:          -4.812
REMARK INTER:                  -5.434
REMARK INTRA:                   0.622
REMARK UNBOUND:                 0.622
REMARK SMILES CC1=CCC(=C(C)C)C(=O)CC(C)=CCC1
REMARK SMILES IDX 12 1 14 2 13 3 15 4 16 5 2 6 1 7 3 8 11 10 9 11 10 12 5 13
REMARK SMILES IDX 6 14 7 15 8 16 4 17
REMARK H PARENT
REMARK Flexibility Score: 60.00
ROOT
ATOM      1  C   UNL     1     -14.348  11.733   0.231  1.00  0.00    -0.070 C 
ATOM      2  C   UNL     1     -14.943  12.668  -0.542  1.00  0.00    -0.027 C 
ATOM      3  C   UNL     1     -14.747  10.292   0.028  1.00  0.00     0.039 C 
ENDROOT
BRANCH   2   4
ATOM      4  C   UNL     1     -14.750  14.164  -0.424  1.00  0.00     0.032 C 
BRANCH   4   5
ATOM      5  C   UNL     1     -15.410  14.807   0.813  1.00  0.00     0.034 C 
BRANCH   5   6
ATOM      6  C   UNL     1     -14.414  15.487   1.737  1.00  0.00    -0.077 C 
ATOM      7  C   UNL     1     -13.640  16.660   1.190  1.00  0.00     0.039 C 
ATOM      8  C   UNL     1     -14.125  15.065   2.992  1.00  0.00    -0.023 CG0
ATOM      9  G   UNL     1     -14.784  13.930   3.749  1.00  0.00     0.000 G0
ENDBRANCH   5   6
ENDBRANCH   4   5
ENDBRANCH   2   4
BRANCH   1  10
ATOM     10  C   UNL     1     -13.377  12.068   1.343  1.00  0.00     0.111 C 
BRANCH  10  11
ATOM     11  C   UNL     1     -13.947  11.737   2.697  1.00  0.00     0.163 C 
ATOM     12  O   UNL     1     -14.537  10.631   2.839  1.00  0.00    -0.294 OA
BRANCH  11  13
ATOM     13  C   UNL     1     -13.892  12.690   3.845  1.00  0.00    -0.002 C 
ATOM     14  C   UNL     1     -13.146  12.405   4.955  1.00  0.00    -0.069 C 
ATOM     15  C   UNL     1     -13.192  13.270   6.195  1.00  0.00     0.039 C 
ATOM     16  C   UNL     1     -12.230  11.201   4.996  1.00  0.00     0.039 C 
BRANCH  13  17
ATOM     17  C   UNL     1     -14.770  13.929   3.764  1.00  0.00     0.066 CG0
ATOM     18  G   UNL     1     -14.111  15.050   2.985  1.00  0.00     0.000 G0
ENDBRANCH  13  17
ENDBRANCH  11  13
ENDBRANCH  10  11
ENDBRANCH   1  10
TORSDOF 0
ENDMDL
MODEL 2
REMARK VINA RESULT:    -3.718      1.857      3.619
REMARK INTER + INTRA:          -4.618
REMARK INTER:                  -5.109
REMARK INTRA:                   0.491
REMARK UNBOUND:                 0.622
REMARK SMILES CC1=CCC(=C(C)C)C(=O)CC(C)=CCC1
REMARK SMILES IDX 12 1 14 2 13 3 15 4 16 5 2 6 1 7 3 8 11 10 9 11 10 12 5 13
REMARK SMILES IDX 6 14 7 15 8 16 4 17
REMARK H PARENT
REMARK Flexibility Score: 60.00
ROOT
ATOM      1  C   UNL     1     -14.467  14.413   1.366  1.00  0.00    -0.070 C 
ATOM      2  C   UNL     1     -14.628  13.681   0.242  1.00  0.00    -0.027 C 
ATOM      3  C   UNL     1     -15.223  15.714   1.475  1.00  0.00     0.039 C 
ENDROOT
BRANCH   2   4
ATOM      4  C   UNL     1     -13.886  12.405  -0.094  1.00  0.00     0.032 C 
BRANCH   4   5
ATOM      5  C   UNL     1     -14.370  11.155   0.669  1.00  0.00     0.034 C 
BRANCH   5   6
ATOM      6  C   UNL     1     -13.285  10.518   1.521  1.00  0.00    -0.077 C 
ATOM      7  C   UNL     1     -12.122   9.875   0.808  1.00  0.00     0.039 C 
ATOM      8  C   UNL     1     -13.330  10.428   2.872  1.00  0.00    -0.023 CG0
ATOM      9  G   UNL     1     -14.382  11.011   3.794  1.00  0.00     0.000 G0
ENDBRANCH   5   6
ENDBRANCH   4   5
ENDBRANCH   2   4
BRANCH   1  10
ATOM     10  C   UNL     1     -13.500  14.041   2.470  1.00  0.00     0.111 C 
BRANCH  10  11
ATOM     11  C   UNL     1     -14.222  13.590   3.713  1.00  0.00     0.163 C 
ATOM     12  O   UNL     1     -15.107  14.349   4.193  1.00  0.00    -0.294 OA
BRANCH  11  13
ATOM     13  C   UNL     1     -13.884  12.320   4.420  1.00  0.00    -0.002 C 
ATOM     14  C   UNL     1     -13.096  12.329   5.537  1.00  0.00    -0.069 C 
ATOM     15  C   UNL     1     -12.606  11.051   6.183  1.00  0.00     0.039 C 
ATOM     16  C   UNL     1     -12.670  13.628   6.185  1.00  0.00     0.039 C 
BRANCH  13  17
ATOM     17  C   UNL     1     -14.372  11.023   3.792  1.00  0.00     0.066 CG0
ATOM     18  G   UNL     1     -13.338  10.404   2.873  1.00  0.00     0.000 G0
ENDBRANCH  13  17
ENDBRANCH  11  13
ENDBRANCH  10  11
ENDBRANCH   1  10
TORSDOF 0
ENDMDL
MODEL 3
REMARK VINA RESULT:    -3.271      1.578      4.346
REMARK INTER + INTRA:          -3.988
REMARK INTER:                  -5.066
REMARK INTRA:                   1.078
REMARK UNBOUND:                 0.622
REMARK SMILES CC1=CCC(=C(C)C)C(=O)CC(C)=CCC1
REMARK SMILES IDX 12 1 14 2 13 3 15 4 16 5 2 6 1 7 3 8 11 10 9 11 10 12 5 13
REMARK SMILES IDX 6 14 7 15 8 16 4 17
REMARK H PARENT
REMARK Flexibility Score: 60.00
ROOT
ATOM      1  C   UNL     1     -12.747  10.121   2.100  1.00  0.00    -0.070 C 
ATOM      2  C   UNL     1     -12.145   9.876   3.284  1.00  0.00    -0.027 C 
ATOM      3  C   UNL     1     -11.927   9.954   0.844  1.00  0.00     0.039 C 
ENDROOT
BRANCH   2   4
ATOM      4  C   UNL     1     -12.766  10.079   4.650  1.00  0.00     0.032 C 
BRANCH   4   5
ATOM      5  C   UNL     1     -12.599  11.498   5.231  1.00  0.00     0.034 C 
BRANCH   5   6
ATOM      6  C   UNL     1     -13.874  12.322   5.175  1.00  0.00    -0.077 C 
ATOM      7  C   UNL     1     -14.862  12.161   6.303  1.00  0.00     0.039 C 
ATOM      8  C   UNL     1     -14.213  13.136   4.146  1.00  0.00    -0.023 CG0
ATOM      9  G   UNL     1     -13.376  13.463   2.925  1.00  0.00     0.000 G0
ENDBRANCH   5   6
ENDBRANCH   4   5
ENDBRANCH   2   4
BRANCH   1  10
ATOM     10  C   UNL     1     -14.164  10.642   1.978  1.00  0.00     0.111 C 
BRANCH  10  11
ATOM     11  C   UNL     1     -14.236  11.855   1.088  1.00  0.00     0.163 C 
ATOM     12  O   UNL     1     -14.332  11.673  -0.156  1.00  0.00    -0.294 OA
BRANCH  11  13
ATOM     13  C   UNL     1     -14.137  13.246   1.620  1.00  0.00    -0.002 C 
ATOM     14  C   UNL     1     -14.640  14.303   0.912  1.00  0.00    -0.069 C 
ATOM     15  C   UNL     1     -14.418  15.735   1.345  1.00  0.00     0.039 C 
ATOM     16  C   UNL     1     -15.450  14.087  -0.347  1.00  0.00     0.039 C 
BRANCH  13  17
ATOM     17  C   UNL     1     -13.374  13.441   2.920  1.00  0.00     0.066 CG0
ATOM     18  G   UNL     1     -14.220  13.124   4.137  1.00  0.00     0.000 G0
ENDBRANCH  13  17
ENDBRANCH  11  13
ENDBRANCH  10  11
ENDBRANCH   1  10
TORSDOF 0
ENDMDL
MODEL 4
REMARK VINA RESULT:    -3.083      1.982      4.198
REMARK INTER + INTRA:          -3.722
REMARK INTER:                  -3.956
REMARK INTRA:                   0.233
REMARK UNBOUND:                 0.622
REMARK SMILES CC1=CCC(=C(C)C)C(=O)CC(C)=CCC1
REMARK SMILES IDX 12 1 14 2 13 3 15 4 16 5 2 6 1 7 3 8 11 10 9 11 10 12 5 13
REMARK SMILES IDX 6 14 7 15 8 16 4 17
REMARK H PARENT
REMARK Flexibility Score: 60.00
ROOT
ATOM      1  C   UNL     1     -14.365  12.838   0.151  1.00  0.00    -0.070 C 
ATOM      2  C   UNL     1     -14.282  11.743   0.938  1.00  0.00    -0.027 C 
ATOM      3  C   UNL     1     -15.547  12.952  -0.778  1.00  0.00     0.039 C 
ENDROOT
BRANCH   2   4
ATOM      4  C   UNL     1     -13.131  11.401   1.860  1.00  0.00     0.032 C 
BRANCH   4   5
ATOM      5  C   UNL     1     -12.870  12.432   2.977  1.00  0.00     0.034 C 
BRANCH   5   6
ATOM      6  C   UNL     1     -14.122  12.807   3.751  1.00  0.00    -0.077 C 
ATOM      7  C   UNL     1     -14.801  11.724   4.551  1.00  0.00     0.039 C 
ATOM      8  C   UNL     1     -14.707  14.029   3.712  1.00  0.00    -0.023 CG0
ATOM      9  G   UNL     1     -14.198  15.264   2.997  1.00  0.00     0.000 G0
ENDBRANCH   5   6
ENDBRANCH   4   5
ENDBRANCH   2   4
BRANCH   1  10
ATOM     10  C   UNL     1     -13.289  13.902   0.091  1.00  0.00     0.111 C 
BRANCH  10  11
ATOM     11  C   UNL     1     -13.826  15.258   0.465  1.00  0.00     0.163 C 
ATOM     12  O   UNL     1     -13.425  16.257  -0.191  1.00  0.00    -0.294 OA
BRANCH  11  13
ATOM     13  C   UNL     1     -14.760  15.462   1.612  1.00  0.00    -0.002 C 
ATOM     14  C   UNL     1     -16.046  15.875   1.402  1.00  0.00    -0.069 C 
ATOM     15  C   UNL     1     -16.967  16.242   2.545  1.00  0.00     0.039 C 
ATOM     16  C   UNL     1     -16.615  15.987   0.004  1.00  0.00     0.039 C 
BRANCH  13  17
ATOM     17  C   UNL     1     -14.192  15.285   3.011  1.00  0.00     0.066 CG0
ATOM     18  G   UNL     1     -14.706  14.030   3.687  1.00  0.00     0.000 G0
ENDBRANCH  13  17
ENDBRANCH  11  13
ENDBRANCH  10  11
ENDBRANCH   1  10
TORSDOF 0
ENDMDL
MODEL 5
REMARK VINA RESULT:    -2.786      1.409      3.908
REMARK INTER + INTRA:          -3.304
REMARK INTER:                  -4.939
REMARK INTRA:                   1.635
REMARK UNBOUND:                 0.622
REMARK SMILES CC1=CCC(=C(C)C)C(=O)CC(C)=CCC1
REMARK SMILES IDX 12 1 14 2 13 3 15 4 16 5 2 6 1 7 3 8 11 10 9 11 10 12 5 13
REMARK SMILES IDX 6 14 7 15 8 16 4 17
REMARK H PARENT
REMARK Flexibility Score: 60.00
ROOT
ATOM      1  C   UNL     1     -13.526  11.544   4.677  1.00  0.00    -0.070 C 
ATOM      2  C   UNL     1     -14.024  12.795   4.793  1.00  0.00    -0.027 C 
ATOM      3  C   UNL     1     -12.452  11.119   5.647  1.00  0.00     0.039 C 
ENDROOT
BRANCH   2   4
ATOM      4  C   UNL     1     -15.029  13.436   3.861  1.00  0.00     0.032 C 
BRANCH   4   5
ATOM      5  C   UNL     1     -14.719  14.898   3.481  1.00  0.00     0.034 C 
BRANCH   5   6
ATOM      6  C   UNL     1     -14.692  15.133   1.981  1.00  0.00    -0.077 C 
ATOM      7  C   UNL     1     -15.601  16.200   1.423  1.00  0.00     0.039 C 
ATOM      8  C   UNL     1     -13.961  14.402   1.105  1.00  0.00    -0.023 CG0
ATOM      9  G   UNL     1     -12.972  13.302   1.435  1.00  0.00     0.000 G0
ENDBRANCH   5   6
ENDBRANCH   4   5
ENDBRANCH   2   4
BRANCH   1  10
ATOM     10  C   UNL     1     -13.925  10.590   3.571  1.00  0.00     0.111 C 
BRANCH  10  11
ATOM     11  C   UNL     1     -13.175  10.872   2.296  1.00  0.00     0.163 C 
ATOM     12  O   UNL     1     -12.107  10.236   2.082  1.00  0.00    -0.294 OA
BRANCH  11  13
ATOM     13  C   UNL     1     -13.617  11.912   1.320  1.00  0.00    -0.002 C 
ATOM     14  C   UNL     1     -14.484  11.600   0.310  1.00  0.00    -0.069 C 
ATOM     15  C   UNL     1     -14.828  12.586  -0.785  1.00  0.00     0.039 C 
ATOM     16  C   UNL     1     -15.147  10.242   0.238  1.00  0.00     0.039 C 
BRANCH  13  17
ATOM     17  C   UNL     1     -12.989  13.292   1.442  1.00  0.00     0.066 CG0
ATOM     18  G   UNL     1     -13.961  14.399   1.085  1.00  0.00     0.000 G0
ENDBRANCH  13  17
ENDBRANCH  11  13
ENDBRANCH  10  11
ENDBRANCH   1  10
TORSDOF 0
ENDMDL
MODEL 6
REMARK VINA RESULT:    -2.396      1.751      3.470
REMARK INTER + INTRA:          -2.755
REMARK INTER:                  -3.653
REMARK INTRA:                   0.898
REMARK UNBOUND:                 0.622
REMARK SMILES CC1=CCC(=C(C)C)C(=O)CC(C)=CCC1
REMARK SMILES IDX 12 1 14 2 13 3 15 4 16 5 2 6 1 7 3 8 11 10 9 11 10 12 5 13
REMARK SMILES IDX 6 14 7 15 8 16 4 17
REMARK H PARENT
REMARK Flexibility Score: 60.00
ROOT
ATOM      1  C   UNL     1     -13.962  14.088   3.654  1.00  0.00    -0.070 C 
ATOM      2  C   UNL     1     -14.040  15.158   2.834  1.00  0.00    -0.027 C 
ATOM      3  C   UNL     1     -12.674  13.869   4.409  1.00  0.00     0.039 C 
ENDROOT
BRANCH   2   4
ATOM      4  C   UNL     1     -15.203  15.492   1.925  1.00  0.00     0.032 C 
BRANCH   4   5
ATOM      5  C   UNL     1     -15.548  14.402   0.890  1.00  0.00     0.034 C 
BRANCH   5   6
ATOM      6  C   UNL     1     -14.322  13.782   0.242  1.00  0.00    -0.077 C 
ATOM      7  C   UNL     1     -13.464  14.669  -0.624  1.00  0.00     0.039 C 
ATOM      8  C   UNL     1     -13.990  12.471   0.335  1.00  0.00    -0.023 CG0
ATOM      9  G   UNL     1     -14.688  11.406   1.156  1.00  0.00     0.000 G0
ENDBRANCH   5   6
ENDBRANCH   4   5
ENDBRANCH   2   4
BRANCH   1  10
ATOM     10  C   UNL     1     -15.061  13.053   3.779  1.00  0.00     0.111 C 
BRANCH  10  11
ATOM     11  C   UNL     1     -14.516  11.651   3.709  1.00  0.00     0.163 C 
ATOM     12  O   UNL     1     -14.482  10.974   4.772  1.00  0.00    -0.294 OA
BRANCH  11  13
ATOM     13  C   UNL     1     -13.964  11.068   2.450  1.00  0.00    -0.002 C 
ATOM     14  C   UNL     1     -12.804  10.344   2.464  1.00  0.00    -0.069 C 
ATOM     15  C   UNL     1     -12.137   9.875   1.190  1.00  0.00     0.039 C 
ATOM     16  C   UNL     1     -12.126   9.976   3.766  1.00  0.00     0.039 C 
BRANCH  13  17
ATOM     17  C   UNL     1     -14.691  11.394   1.155  1.00  0.00     0.066 CG0
ATOM     18  G   UNL     1     -13.985  12.469   0.354  1.00  0.00     0.000 G0
ENDBRANCH  13  17
ENDBRANCH  11  13
ENDBRANCH  10  11
ENDBRANCH   1  10
TORSDOF 0
ENDMDL
MODEL 7
REMARK VINA RESULT:    -2.351      1.866      4.807
REMARK INTER + INTRA:          -2.691
REMARK INTER:                  -2.946
REMARK INTRA:                   0.255
REMARK UNBOUND:                 0.622
REMARK SMILES CC1=CCC(=C(C)C)C(=O)CC(C)=CCC1
REMARK SMILES IDX 12 1 14 2 13 3 15 4 16 5 2 6 1 7 3 8 11 10 9 11 10 12 5 13
REMARK SMILES IDX 6 14 7 15 8 16 4 17
REMARK H PARENT
REMARK Flexibility Score: 60.00
ROOT
ATOM      1  C   UNL     1     -13.727  12.519   4.321  1.00  0.00    -0.070 C 
ATOM      2  C   UNL     1     -13.205  11.405   3.764  1.00  0.00    -0.027 C 
ATOM      3  C   UNL     1     -13.204  12.944   5.671  1.00  0.00     0.039 C 
ENDROOT
BRANCH   2   4
ATOM      4  C   UNL     1     -13.663  10.766   2.470  1.00  0.00     0.032 C 
BRANCH   4   5
ATOM      5  C   UNL     1     -13.141  11.451   1.190  1.00  0.00     0.034 C 
BRANCH   5   6
ATOM      6  C   UNL     1     -14.247  11.817   0.215  1.00  0.00    -0.077 C 
ATOM      7  C   UNL     1     -14.976  10.690  -0.472  1.00  0.00     0.039 C 
ATOM      8  C   UNL     1     -14.572  13.086  -0.129  1.00  0.00    -0.023 CG0
ATOM      9  G   UNL     1     -13.992  14.366   0.441  1.00  0.00     0.000 G0
ENDBRANCH   5   6
ENDBRANCH   4   5
ENDBRANCH   2   4
BRANCH   1  10
ATOM     10  C   UNL     1     -14.868  13.301   3.705  1.00  0.00     0.111 C 
BRANCH  10  11
ATOM     11  C   UNL     1     -14.376  14.531   2.990  1.00  0.00     0.163 C 
ATOM     12  O   UNL     1     -13.595  15.304   3.607  1.00  0.00    -0.294 OA
BRANCH  11  13
ATOM     13  C   UNL     1     -14.828  14.892   1.613  1.00  0.00    -0.002 C 
ATOM     14  C   UNL     1     -15.987  15.590   1.417  1.00  0.00    -0.069 C 
ATOM     15  C   UNL     1     -16.552  15.834   0.035  1.00  0.00     0.039 C 
ATOM     16  C   UNL     1     -16.767  16.156   2.584  1.00  0.00     0.039 C 
BRANCH  13  17
ATOM     17  C   UNL     1     -13.999  14.369   0.450  1.00  0.00     0.066 CG0
ATOM     18  G   UNL     1     -14.565  13.089  -0.131  1.00  0.00     0.000 G0
ENDBRANCH  13  17
ENDBRANCH  11  13
ENDBRANCH  10  11
ENDBRANCH   1  10
TORSDOF 0
ENDMDL
MODEL 8
REMARK VINA RESULT:    -2.309      1.746      4.355
REMARK INTER + INTRA:          -2.632
REMARK INTER:                  -4.949
REMARK INTRA:                   2.317
REMARK UNBOUND:                 0.622
REMARK SMILES CC1=CCC(=C(C)C)C(=O)CC(C)=CCC1
REMARK SMILES IDX 12 1 14 2 13 3 15 4 16 5 2 6 1 7 3 8 11 10 9 11 10 12 5 13
REMARK SMILES IDX 6 14 7 15 8 16 4 17
REMARK H PARENT
REMARK Flexibility Score: 60.00
ROOT
ATOM      1  C   UNL     1     -15.424  15.644   1.436  1.00  0.00    -0.070 C 
ATOM      2  C   UNL     1     -15.541  15.495   2.773  1.00  0.00    -0.027 C 
ATOM      3  C   UNL     1     -16.540  16.348   0.704  1.00  0.00     0.039 C 
ENDROOT
BRANCH   2   4
ATOM      4  C   UNL     1     -14.581  14.737   3.665  1.00  0.00     0.032 C 
BRANCH   4   5
ATOM      5  C   UNL     1     -15.120  13.396   4.204  1.00  0.00     0.034 C 
BRANCH   5   6
ATOM      6  C   UNL     1     -14.051  12.322   4.313  1.00  0.00    -0.077 C 
ATOM      7  C   UNL     1     -14.094  11.412   5.514  1.00  0.00     0.039 C 
ATOM      8  C   UNL     1     -13.025  12.174   3.441  1.00  0.00    -0.023 CG0
ATOM      9  G   UNL     1     -12.790  12.955   2.163  1.00  0.00     0.000 G0
ENDBRANCH   5   6
ENDBRANCH   4   5
ENDBRANCH   2   4
BRANCH   1  10
ATOM     10  C   UNL     1     -14.282  15.061   0.630  1.00  0.00     0.111 C 
BRANCH  10  11
ATOM     11  C   UNL     1     -14.495  13.599   0.340  1.00  0.00     0.163 C 
ATOM     12  O   UNL     1     -15.407  13.281  -0.471  1.00  0.00    -0.294 OA
BRANCH  11  13
ATOM     13  C   UNL     1     -13.714  12.525   1.021  1.00  0.00    -0.002 C 
ATOM     14  C   UNL     1     -13.897  11.210   0.692  1.00  0.00    -0.069 C 
ATOM     15  C   UNL     1     -13.240  10.090   1.468  1.00  0.00     0.039 C 
ATOM     16  C   UNL     1     -14.775  10.810  -0.474  1.00  0.00     0.039 C 
BRANCH  13  17
ATOM     17  C   UNL     1     -12.787  12.948   2.150  1.00  0.00     0.066 CG0
ATOM     18  G   UNL     1     -13.037  12.164   3.424  1.00  0.00     0.000 G0
ENDBRANCH  13  17
ENDBRANCH  11  13
ENDBRANCH  10  11
ENDBRANCH   1  10
TORSDOF 0
ENDMDL
MODEL 9
REMARK VINA RESULT:    -2.240      1.631      3.644
REMARK INTER + INTRA:          -2.535
REMARK INTER:                  -3.918
REMARK INTRA:                   1.383
REMARK UNBOUND:                 0.622
REMARK SMILES CC1=CCC(=C(C)C)C(=O)CC(C)=CCC1
REMARK SMILES IDX 12 1 14 2 13 3 15 4 16 5 2 6 1 7 3 8 11 10 9 11 10 12 5 13
REMARK SMILES IDX 6 14 7 15 8 16 4 17
REMARK H PARENT
REMARK Flexibility Score: 60.00
ROOT
ATOM      1  C   UNL     1     -15.013  15.402   1.101  1.00  0.00    -0.070 C 
ATOM      2  C   UNL     1     -14.983  14.569   0.038  1.00  0.00    -0.027 C 
ATOM      3  C   UNL     1     -16.042  16.505   1.103  1.00  0.00     0.039 C 
ENDROOT
BRANCH   2   4
ATOM      4  C   UNL     1     -13.970  13.468  -0.194  1.00  0.00     0.032 C 
BRANCH   4   5
ATOM      5  C   UNL     1     -14.570  12.118  -0.635  1.00  0.00     0.034 C 
BRANCH   5   6
ATOM      6  C   UNL     1     -14.707  11.124   0.506  1.00  0.00    -0.077 C 
ATOM      7  C   UNL     1     -15.650   9.963   0.313  1.00  0.00     0.039 C 
ATOM      8  C   UNL     1     -14.092  11.250   1.707  1.00  0.00    -0.023 CG0
ATOM      9  G   UNL     1     -13.096  12.315   2.117  1.00  0.00     0.000 G0
ENDBRANCH   5   6
ENDBRANCH   4   5
ENDBRANCH   2   4
BRANCH   1  10
ATOM     10  C   UNL     1     -14.013  15.339   2.236  1.00  0.00     0.111 C 
BRANCH  10  11
ATOM     11  C   UNL     1     -14.362  14.259   3.226  1.00  0.00     0.163 C 
ATOM     12  O   UNL     1     -15.367  14.435   3.966  1.00  0.00    -0.294 OA
BRANCH  11  13
ATOM     13  C   UNL     1     -13.531  13.031   3.399  1.00  0.00    -0.002 C 
ATOM     14  C   UNL     1     -13.112  12.639   4.640  1.00  0.00    -0.069 C 
ATOM     15  C   UNL     1     -12.142  11.495   4.835  1.00  0.00     0.039 C 
ATOM     16  C   UNL     1     -13.603  13.338   5.889  1.00  0.00     0.039 C 
BRANCH  13  17
ATOM     17  C   UNL     1     -13.096  12.301   2.138  1.00  0.00     0.066 CG0
ATOM     18  G   UNL     1     -14.106  11.260   1.698  1.00  0.00     0.000 G0
ENDBRANCH  13  17
ENDBRANCH  11  13
ENDBRANCH  10  11
ENDBRANCH   1  10
TORSDOF 0
ENDMDL
