MODEL 1
REMARK VINA RESULT:    -3.690      0.000      0.000
REMARK INTER + INTRA:          -4.649
REMARK INTER:                  -4.553
REMARK INTRA:                  -0.096
REMARK UNBOUND:                -0.096
REMARK SMILES CCCCCC(=O)[O-]
REMARK SMILES IDX 4 1 5 2 6 3 7 4 8 5 3 6 2 7 1 8
REMARK H PARENT
REMARK Flexibility Score: inf
ROOT
ATOM      1  C   UNL     1      74.326  82.783  74.611  1.00  0.00     0.006 C 
ENDROOT
BRANCH   1   2
ATOM      2  C   UNL     1      75.228  83.489  75.627  1.00  0.00     0.053 C 
BRANCH   2   3
ATOM      3  C   UNL     1      76.464  84.003  74.961  1.00  0.00     0.041 C 
ATOM      4  O   UNL     1      77.300  83.200  74.468  1.00  0.00    -0.550 OA
ATOM      5  O   UNL     1      76.671  85.372  74.840  1.00  0.00    -0.550 OA
ENDBRANCH   2   3
ENDBRANCH   1   2
BRANCH   1   6
ATOM      6  C   UNL     1      72.873  82.747  75.097  1.00  0.00     0.000 C 
BRANCH   6   7
ATOM      7  C   UNL     1      72.806  82.666  76.627  1.00  0.00    -0.003 C 
ATOM      8  C   UNL     1      71.361  82.616  77.114  1.00  0.00     0.004 C 
ENDBRANCH   6   7
ENDBRANCH   1   6
TORSDOF 4
ENDMDL
MODEL 2
REMARK VINA RESULT:    -3.686      0.144      1.153
REMARK INTER + INTRA:          -4.643
REMARK INTER:                  -4.545
REMARK INTRA:                  -0.098
REMARK UNBOUND:                -0.096
REMARK SMILES CCCCCC(=O)[O-]
REMARK SMILES IDX 4 1 5 2 6 3 7 4 8 5 3 6 2 7 1 8
REMARK H PARENT
REMARK Flexibility Score: inf
ROOT
ATOM      1  C   UNL     1      74.279  82.962  74.555  1.00  0.00     0.006 C 
ENDROOT
BRANCH   1   2
ATOM      2  C   UNL     1      75.214  83.576  75.600  1.00  0.00     0.053 C 
BRANCH   2   3
ATOM      3  C   UNL     1      76.449  84.110  74.948  1.00  0.00     0.041 C 
ATOM      4  O   UNL     1      76.640  85.353  74.874  1.00  0.00    -0.550 OA
ATOM      5  O   UNL     1      77.415  83.236  74.466  1.00  0.00    -0.550 OA
ENDBRANCH   2   3
ENDBRANCH   1   2
BRANCH   1   6
ATOM      6  C   UNL     1      72.851  82.837  75.099  1.00  0.00     0.000 C 
BRANCH   6   7
ATOM      7  C   UNL     1      72.859  82.470  76.588  1.00  0.00    -0.003 C 
ATOM      8  C   UNL     1      71.493  82.712  77.223  1.00  0.00     0.004 C 
ENDBRANCH   6   7
ENDBRANCH   1   6
TORSDOF 4
ENDMDL
MODEL 3
REMARK VINA RESULT:    -3.511      2.475      2.999
REMARK INTER + INTRA:          -4.427
REMARK INTER:                  -4.364
REMARK INTRA:                  -0.063
REMARK UNBOUND:                -0.096
REMARK SMILES CCCCCC(=O)[O-]
REMARK SMILES IDX 4 1 5 2 6 3 7 4 8 5 3 6 2 7 1 8
REMARK H PARENT
REMARK Flexibility Score: inf
ROOT
ATOM      1  C   UNL     1      75.814  82.965  76.594  1.00  0.00     0.006 C 
ENDROOT
BRANCH   1   2
ATOM      2  C   UNL     1      76.602  82.706  75.308  1.00  0.00     0.053 C 
BRANCH   2   3
ATOM      3  C   UNL     1      77.345  83.936  74.892  1.00  0.00     0.041 C 
ATOM      4  O   UNL     1      78.546  83.855  74.521  1.00  0.00    -0.550 OA
ATOM      5  O   UNL     1      76.698  85.164  74.867  1.00  0.00    -0.550 OA
ENDBRANCH   2   3
ENDBRANCH   1   2
BRANCH   1   6
ATOM      6  C   UNL     1      76.399  82.170  77.768  1.00  0.00     0.000 C 
BRANCH   6   7
ATOM      7  C   UNL     1      75.293  81.707  78.725  1.00  0.00    -0.003 C 
ATOM      8  C   UNL     1      75.686  80.417  79.437  1.00  0.00     0.004 C 
ENDBRANCH   6   7
ENDBRANCH   1   6
TORSDOF 4
ENDMDL
MODEL 4
REMARK VINA RESULT:    -3.484      2.017      2.739
REMARK INTER + INTRA:          -4.395
REMARK INTER:                  -4.188
REMARK INTRA:                  -0.207
REMARK UNBOUND:                -0.096
REMARK SMILES CCCCCC(=O)[O-]
REMARK SMILES IDX 4 1 5 2 6 3 7 4 8 5 3 6 2 7 1 8
REMARK H PARENT
REMARK Flexibility Score: inf
ROOT
ATOM      1  C   UNL     1      76.523  81.833  76.249  1.00  0.00     0.006 C 
ENDROOT
BRANCH   1   2
ATOM      2  C   UNL     1      77.224  82.844  75.338  1.00  0.00     0.053 C 
BRANCH   2   3
ATOM      3  C   UNL     1      76.306  83.977  75.007  1.00  0.00     0.041 C 
ATOM      4  O   UNL     1      76.760  85.146  74.886  1.00  0.00    -0.550 OA
ATOM      5  O   UNL     1      74.956  83.736  74.783  1.00  0.00    -0.550 OA
ENDBRANCH   2   3
ENDBRANCH   1   2
BRANCH   1   6
ATOM      6  C   UNL     1      76.378  82.384  77.672  1.00  0.00     0.000 C 
BRANCH   6   7
ATOM      7  C   UNL     1      75.194  81.731  78.397  1.00  0.00    -0.003 C 
ATOM      8  C   UNL     1      74.025  81.499  77.445  1.00  0.00     0.004 C 
ENDBRANCH   6   7
ENDBRANCH   1   6
TORSDOF 4
ENDMDL
MODEL 5
REMARK VINA RESULT:    -3.474      2.983      5.215
REMARK INTER + INTRA:          -4.382
REMARK INTER:                  -4.226
REMARK INTRA:                  -0.157
REMARK UNBOUND:                -0.096
REMARK SMILES CCCCCC(=O)[O-]
REMARK SMILES IDX 4 1 5 2 6 3 7 4 8 5 3 6 2 7 1 8
REMARK H PARENT
REMARK Flexibility Score: inf
ROOT
ATOM      1  C   UNL     1      77.689  82.252  74.166  1.00  0.00     0.006 C 
ENDROOT
BRANCH   1   2
ATOM      2  C   UNL     1      77.165  82.934  75.433  1.00  0.00     0.053 C 
BRANCH   2   3
ATOM      3  C   UNL     1      76.248  84.061  75.080  1.00  0.00     0.041 C 
ATOM      4  O   UNL     1      76.716  85.200  74.814  1.00  0.00    -0.550 OA
ATOM      5  O   UNL     1      74.879  83.844  74.995  1.00  0.00    -0.550 OA
ENDBRANCH   2   3
ENDBRANCH   1   2
BRANCH   1   6
ATOM      6  C   UNL     1      79.195  82.481  74.000  1.00  0.00     0.000 C 
BRANCH   6   7
ATOM      7  C   UNL     1      79.779  83.212  75.215  1.00  0.00    -0.003 C 
ATOM      8  C   UNL     1      81.200  82.744  75.509  1.00  0.00     0.004 C 
ENDBRANCH   6   7
ENDBRANCH   1   6
TORSDOF 4
ENDMDL
MODEL 6
REMARK VINA RESULT:    -3.415      2.744      3.743
REMARK INTER + INTRA:          -4.310
REMARK INTER:                  -4.190
REMARK INTRA:                  -0.119
REMARK UNBOUND:                -0.096
REMARK SMILES CCCCCC(=O)[O-]
REMARK SMILES IDX 4 1 5 2 6 3 7 4 8 5 3 6 2 7 1 8
REMARK H PARENT
REMARK Flexibility Score: inf
ROOT
ATOM      1  C   UNL     1      76.311  81.814  76.191  1.00  0.00     0.006 C 
ENDROOT
BRANCH   1   2
ATOM      2  C   UNL     1      77.118  82.821  75.368  1.00  0.00     0.053 C 
BRANCH   2   3
ATOM      3  C   UNL     1      76.276  84.007  75.019  1.00  0.00     0.041 C 
ATOM      4  O   UNL     1      76.809  85.137  74.856  1.00  0.00    -0.550 OA
ATOM      5  O   UNL     1      74.909  83.858  74.826  1.00  0.00    -0.550 OA
ENDBRANCH   2   3
ENDBRANCH   1   2
BRANCH   1   6
ATOM      6  C   UNL     1      76.147  82.292  77.638  1.00  0.00     0.000 C 
BRANCH   6   7
ATOM      7  C   UNL     1      76.792  81.306  78.620  1.00  0.00    -0.003 C 
ATOM      8  C   UNL     1      78.311  81.438  78.615  1.00  0.00     0.004 C 
ENDBRANCH   6   7
ENDBRANCH   1   6
TORSDOF 4
ENDMDL
MODEL 7
REMARK VINA RESULT:    -3.139     12.665     13.600
REMARK INTER + INTRA:          -3.968
REMARK INTER:                  -3.868
REMARK INTRA:                  -0.100
REMARK UNBOUND:                -0.096
REMARK SMILES CCCCCC(=O)[O-]
REMARK SMILES IDX 4 1 5 2 6 3 7 4 8 5 3 6 2 7 1 8
REMARK H PARENT
REMARK Flexibility Score: inf
ROOT
ATOM      1  C   UNL     1      73.031  95.775  69.873  1.00  0.00     0.006 C 
ENDROOT
BRANCH   1   2
ATOM      2  C   UNL     1      72.931  95.171  71.276  1.00  0.00     0.053 C 
BRANCH   2   3
ATOM      3  C   UNL     1      71.676  95.622  71.952  1.00  0.00     0.041 C 
ATOM      4  O   UNL     1      71.241  95.003  72.960  1.00  0.00    -0.550 OA
ATOM      5  O   UNL     1      71.011  96.756  71.502  1.00  0.00    -0.550 OA
ENDBRANCH   2   3
ENDBRANCH   1   2
BRANCH   1   6
ATOM      6  C   UNL     1      74.454  95.645  69.318  1.00  0.00     0.000 C 
BRANCH   6   7
ATOM      7  C   UNL     1      74.792  94.183  69.004  1.00  0.00    -0.003 C 
ATOM      8  C   UNL     1      76.246  93.869  69.339  1.00  0.00     0.004 C 
ENDBRANCH   6   7
ENDBRANCH   1   6
TORSDOF 4
ENDMDL
MODEL 8
REMARK VINA RESULT:    -3.103     12.931     13.899
REMARK INTER + INTRA:          -3.925
REMARK INTER:                  -3.700
REMARK INTRA:                  -0.224
REMARK UNBOUND:                -0.096
REMARK SMILES CCCCCC(=O)[O-]
REMARK SMILES IDX 4 1 5 2 6 3 7 4 8 5 3 6 2 7 1 8
REMARK H PARENT
REMARK Flexibility Score: inf
ROOT
ATOM      1  C   UNL     1      73.166  95.308  70.140  1.00  0.00     0.006 C 
ENDROOT
BRANCH   1   2
ATOM      2  C   UNL     1      71.777  95.761  70.595  1.00  0.00     0.053 C 
BRANCH   2   3
ATOM      3  C   UNL     1      71.641  95.624  72.078  1.00  0.00     0.041 C 
ATOM      4  O   UNL     1      71.790  96.629  72.824  1.00  0.00    -0.550 OA
ATOM      5  O   UNL     1      71.301  94.398  72.636  1.00  0.00    -0.550 OA
ENDBRANCH   2   3
ENDBRANCH   1   2
BRANCH   1   6
ATOM      6  C   UNL     1      73.989  96.492  69.620  1.00  0.00     0.000 C 
BRANCH   6   7
ATOM      7  C   UNL     1      75.043  96.924  70.647  1.00  0.00    -0.003 C 
ATOM      8  C   UNL     1      75.387  95.780  71.597  1.00  0.00     0.004 C 
ENDBRANCH   6   7
ENDBRANCH   1   6
TORSDOF 4
ENDMDL
MODEL 9
REMARK VINA RESULT:    -2.951     10.395     11.337
REMARK INTER + INTRA:          -3.736
REMARK INTER:                  -3.689
REMARK INTRA:                  -0.047
REMARK UNBOUND:                -0.096
REMARK SMILES CCCCCC(=O)[O-]
REMARK SMILES IDX 4 1 5 2 6 3 7 4 8 5 3 6 2 7 1 8
REMARK H PARENT
REMARK Flexibility Score: inf
ROOT
ATOM      1  C   UNL     1      72.389  87.451  66.112  1.00  0.00     0.006 C 
ENDROOT
BRANCH   1   2
ATOM      2  C   UNL     1      71.783  86.077  66.408  1.00  0.00     0.053 C 
BRANCH   2   3
ATOM      3  C   UNL     1      71.174  86.056  67.774  1.00  0.00     0.041 C 
ATOM      4  O   UNL     1      71.741  86.647  68.730  1.00  0.00    -0.550 OA
ATOM      5  O   UNL     1      69.954  85.425  67.982  1.00  0.00    -0.550 OA
ENDBRANCH   2   3
ENDBRANCH   1   2
BRANCH   1   6
ATOM      6  C   UNL     1      72.439  87.718  64.603  1.00  0.00     0.000 C 
BRANCH   6   7
ATOM      7  C   UNL     1      73.109  89.064  64.304  1.00  0.00    -0.003 C 
ATOM      8  C   UNL     1      72.407  89.787  63.160  1.00  0.00     0.004 C 
ENDBRANCH   6   7
ENDBRANCH   1   6
TORSDOF 4
ENDMDL
