MODEL 1
REMARK VINA RESULT:    -3.850      0.000      0.000
REMARK INTER + INTRA:          -9.310
REMARK INTER:                  -7.002
REMARK INTRA:                  -2.308
REMARK UNBOUND:                -2.308
REMARK SMILES CCCCCCCCCCCCCCCC(=O)[O-]
REMARK SMILES IDX 9 1 10 2 11 3 12 4 13 5 14 6 15 7 16 8 17 9 18 10 8 11 7 12
REMARK SMILES IDX 6 13 5 14 4 15 3 16 2 17 1 18
REMARK H PARENT
REMARK Flexibility Score: inf
ROOT
ATOM      1  C   UNL     1       9.707  17.514  26.227  1.00  0.00     0.000 C 
ENDROOT
BRANCH   1   2
ATOM      2  C   UNL     1       8.494  17.025  25.417  1.00  0.00     0.000 C 
BRANCH   2   3
ATOM      3  C   UNL     1       8.795  15.750  24.612  1.00  0.00     0.000 C 
BRANCH   3   4
ATOM      4  C   UNL     1      10.284  15.373  24.629  1.00  0.00     0.000 C 
BRANCH   4   5
ATOM      5  C   UNL     1      10.616  14.401  23.490  1.00  0.00     0.000 C 
BRANCH   5   6
ATOM      6  C   UNL     1       9.795  14.720  22.235  1.00  0.00     0.006 C 
BRANCH   6   7
ATOM      7  C   UNL     1      10.498  14.213  20.974  1.00  0.00     0.053 C 
BRANCH   7   8
ATOM      8  C   UNL     1      10.101  15.032  19.787  1.00  0.00     0.041 C 
ATOM      9  O   UNL     1       9.001  15.644  19.780  1.00  0.00    -0.550 OA
ATOM     10  O   UNL     1      10.968  15.162  18.710  1.00  0.00    -0.550 OA
ENDBRANCH   7   8
ENDBRANCH   6   7
ENDBRANCH   5   6
ENDBRANCH   4   5
ENDBRANCH   3   4
ENDBRANCH   2   3
ENDBRANCH   1   2
BRANCH   1  11
ATOM     11  C   UNL     1       9.692  19.036  26.446  1.00  0.00     0.000 C 
BRANCH  11  12
ATOM     12  C   UNL     1       8.416  19.697  25.895  1.00  0.00    -0.000 C 
BRANCH  12  13
ATOM     13  C   UNL     1       8.716  20.838  24.910  1.00  0.00    -0.000 C 
BRANCH  13  14
ATOM     14  C   UNL     1      10.217  20.980  24.605  1.00  0.00    -0.000 C 
BRANCH  14  15
ATOM     15  C   UNL     1      10.564  20.646  23.142  1.00  0.00    -0.000 C 
BRANCH  15  16
ATOM     16  C   UNL     1       9.559  19.721  22.423  1.00  0.00    -0.000 C 
BRANCH  16  17
ATOM     17  C   UNL     1      10.106  18.335  22.042  1.00  0.00    -0.003 C 
ATOM     18  C   UNL     1      11.525  18.092  22.557  1.00  0.00     0.004 C 
ENDBRANCH  16  17
ENDBRANCH  15  16
ENDBRANCH  14  15
ENDBRANCH  13  14
ENDBRANCH  12  13
ENDBRANCH  11  12
ENDBRANCH   1  11
TORSDOF 14
ENDMDL
MODEL 2
REMARK VINA RESULT:    -3.775      2.249      4.065
REMARK INTER + INTRA:          -9.173
REMARK INTER:                  -6.868
REMARK INTRA:                  -2.306
REMARK UNBOUND:                -2.308
REMARK SMILES CCCCCCCCCCCCCCCC(=O)[O-]
REMARK SMILES IDX 9 1 10 2 11 3 12 4 13 5 14 6 15 7 16 8 17 9 18 10 8 11 7 12
REMARK SMILES IDX 6 13 5 14 4 15 3 16 2 17 1 18
REMARK H PARENT
REMARK Flexibility Score: inf
ROOT
ATOM      1  C   UNL     1       8.315  18.612  23.280  1.00  0.00     0.000 C 
ENDROOT
BRANCH   1   2
ATOM      2  C   UNL     1       8.408  18.886  24.791  1.00  0.00     0.000 C 
BRANCH   2   3
ATOM      3  C   UNL     1       8.396  17.596  25.628  1.00  0.00     0.000 C 
BRANCH   3   4
ATOM      4  C   UNL     1       8.158  16.338  24.779  1.00  0.00     0.000 C 
BRANCH   4   5
ATOM      5  C   UNL     1       8.875  15.125  25.382  1.00  0.00     0.000 C 
BRANCH   5   6
ATOM      6  C   UNL     1       8.592  13.855  24.569  1.00  0.00     0.006 C 
BRANCH   6   7
ATOM      7  C   UNL     1       9.818  12.938  24.537  1.00  0.00     0.053 C 
BRANCH   7   8
ATOM      8  C   UNL     1       9.684  11.923  23.447  1.00  0.00     0.041 C 
ATOM      9  O   UNL     1       9.737  12.279  22.240  1.00  0.00    -0.550 OA
ATOM     10  O   UNL     1       9.551  10.577  23.762  1.00  0.00    -0.550 OA
ENDBRANCH   7   8
ENDBRANCH   6   7
ENDBRANCH   5   6
ENDBRANCH   4   5
ENDBRANCH   3   4
ENDBRANCH   2   3
ENDBRANCH   1   2
BRANCH   1  11
ATOM     11  C   UNL     1       9.371  19.389  22.476  1.00  0.00     0.000 C 
BRANCH  11  12
ATOM     12  C   UNL     1      10.793  19.198  23.035  1.00  0.00    -0.000 C 
BRANCH  12  13
ATOM     13  C   UNL     1      11.546  18.040  22.361  1.00  0.00    -0.000 C 
BRANCH  13  14
ATOM     14  C   UNL     1      11.378  16.708  23.111  1.00  0.00    -0.000 C 
BRANCH  14  15
ATOM     15  C   UNL     1      11.024  15.537  22.177  1.00  0.00    -0.000 C 
BRANCH  15  16
ATOM     16  C   UNL     1       9.628  15.614  21.525  1.00  0.00    -0.000 C 
BRANCH  16  17
ATOM     17  C   UNL     1       9.598  15.329  20.013  1.00  0.00    -0.003 C 
ATOM     18  C   UNL     1      10.967  14.945  19.452  1.00  0.00     0.004 C 
ENDBRANCH  16  17
ENDBRANCH  15  16
ENDBRANCH  14  15
ENDBRANCH  13  14
ENDBRANCH  12  13
ENDBRANCH  11  12
ENDBRANCH   1  11
TORSDOF 14
ENDMDL
MODEL 3
REMARK VINA RESULT:    -3.630      3.473      6.435
REMARK INTER + INTRA:          -8.909
REMARK INTER:                  -7.385
REMARK INTRA:                  -1.524
REMARK UNBOUND:                -2.308
REMARK SMILES CCCCCCCCCCCCCCCC(=O)[O-]
REMARK SMILES IDX 9 1 10 2 11 3 12 4 13 5 14 6 15 7 16 8 17 9 18 10 8 11 7 12
REMARK SMILES IDX 6 13 5 14 4 15 3 16 2 17 1 18
REMARK H PARENT
REMARK Flexibility Score: inf
ROOT
ATOM      1  C   UNL     1       8.025  15.716  24.231  1.00  0.00     0.000 C 
ENDROOT
BRANCH   1   2
ATOM      2  C   UNL     1       9.286  16.251  24.933  1.00  0.00     0.000 C 
BRANCH   2   3
ATOM      3  C   UNL     1      10.070  17.247  24.063  1.00  0.00     0.000 C 
BRANCH   3   4
ATOM      4  C   UNL     1      10.448  16.670  22.691  1.00  0.00     0.000 C 
BRANCH   4   5
ATOM      5  C   UNL     1      11.239  15.366  22.844  1.00  0.00     0.000 C 
BRANCH   5   6
ATOM      6  C   UNL     1      10.825  14.341  21.781  1.00  0.00     0.006 C 
BRANCH   6   7
ATOM      7  C   UNL     1      10.118  15.022  20.605  1.00  0.00     0.053 C 
BRANCH   7   8
ATOM      8  C   UNL     1      10.775  14.651  19.313  1.00  0.00     0.041 C 
ATOM      9  O   UNL     1      10.815  13.447  18.947  1.00  0.00    -0.550 OA
ATOM     10  O   UNL     1      11.298  15.639  18.490  1.00  0.00    -0.550 OA
ENDBRANCH   7   8
ENDBRANCH   6   7
ENDBRANCH   5   6
ENDBRANCH   4   5
ENDBRANCH   3   4
ENDBRANCH   2   3
ENDBRANCH   1   2
BRANCH   1  11
ATOM     11  C   UNL     1       7.950  14.180  24.250  1.00  0.00     0.000 C 
BRANCH  11  12
ATOM     12  C   UNL     1       8.952  13.554  25.236  1.00  0.00    -0.000 C 
BRANCH  12  13
ATOM     13  C   UNL     1       9.624  12.289  24.678  1.00  0.00    -0.000 C 
BRANCH  13  14
ATOM     14  C   UNL     1       9.712  11.157  25.716  1.00  0.00    -0.000 C 
BRANCH  14  15
ATOM     15  C   UNL     1       8.617  11.249  26.794  1.00  0.00    -0.000 C 
BRANCH  15  16
ATOM     16  C   UNL     1       9.092  10.982  28.238  1.00  0.00    -0.000 C 
BRANCH  16  17
ATOM     17  C   UNL     1       8.562   9.681  28.868  1.00  0.00    -0.003 C 
ATOM     18  C   UNL     1       8.178   8.629  27.828  1.00  0.00     0.004 C 
ENDBRANCH  16  17
ENDBRANCH  15  16
ENDBRANCH  14  15
ENDBRANCH  13  14
ENDBRANCH  12  13
ENDBRANCH  11  12
ENDBRANCH   1  11
TORSDOF 14
ENDMDL
MODEL 4
REMARK VINA RESULT:    -3.587      4.760      7.709
REMARK INTER + INTRA:          -8.832
REMARK INTER:                  -7.997
REMARK INTRA:                  -0.835
REMARK UNBOUND:                -2.308
REMARK SMILES CCCCCCCCCCCCCCCC(=O)[O-]
REMARK SMILES IDX 9 1 10 2 11 3 12 4 13 5 14 6 15 7 16 8 17 9 18 10 8 11 7 12
REMARK SMILES IDX 6 13 5 14 4 15 3 16 2 17 1 18
REMARK H PARENT
REMARK Flexibility Score: inf
ROOT
ATOM      1  C   UNL     1       9.649  11.838  25.055  1.00  0.00     0.000 C 
ENDROOT
BRANCH   1   2
ATOM      2  C   UNL     1       9.154  13.111  24.346  1.00  0.00     0.000 C 
BRANCH   2   3
ATOM      3  C   UNL     1      10.024  13.492  23.137  1.00  0.00     0.000 C 
BRANCH   3   4
ATOM      4  C   UNL     1      10.695  14.865  23.296  1.00  0.00     0.000 C 
BRANCH   4   5
ATOM      5  C   UNL     1       9.751  15.990  22.856  1.00  0.00     0.000 C 
BRANCH   5   6
ATOM      6  C   UNL     1       9.933  16.312  21.367  1.00  0.00     0.006 C 
BRANCH   6   7
ATOM      7  C   UNL     1      11.219  15.685  20.822  1.00  0.00     0.053 C 
BRANCH   7   8
ATOM      8  C   UNL     1      10.944  14.951  19.547  1.00  0.00     0.041 C 
ATOM      9  O   UNL     1      11.248  15.469  18.440  1.00  0.00    -0.550 OA
ATOM     10  O   UNL     1      10.399  13.675  19.584  1.00  0.00    -0.550 OA
ENDBRANCH   7   8
ENDBRANCH   6   7
ENDBRANCH   5   6
ENDBRANCH   4   5
ENDBRANCH   3   4
ENDBRANCH   2   3
ENDBRANCH   1   2
BRANCH   1  11
ATOM     11  C   UNL     1       8.614  11.276  26.043  1.00  0.00     0.000 C 
BRANCH  11  12
ATOM     12  C   UNL     1       8.226  12.292  27.132  1.00  0.00    -0.000 C 
BRANCH  12  13
ATOM     13  C   UNL     1       8.052  11.645  28.515  1.00  0.00    -0.000 C 
BRANCH  13  14
ATOM     14  C   UNL     1       8.983  10.440  28.728  1.00  0.00    -0.000 C 
BRANCH  14  15
ATOM     15  C   UNL     1       8.215   9.119  28.924  1.00  0.00    -0.000 C 
BRANCH  15  16
ATOM     16  C   UNL     1       9.054   7.837  28.738  1.00  0.00    -0.000 C 
BRANCH  16  17
ATOM     17  C   UNL     1       8.685   6.990  27.508  1.00  0.00    -0.003 C 
ATOM     18  C   UNL     1       9.108   7.639  26.190  1.00  0.00     0.004 C 
ENDBRANCH  16  17
ENDBRANCH  15  16
ENDBRANCH  14  15
ENDBRANCH  13  14
ENDBRANCH  12  13
ENDBRANCH  11  12
ENDBRANCH   1  11
TORSDOF 14
ENDMDL
MODEL 5
REMARK VINA RESULT:    -3.570      3.954      7.414
REMARK INTER + INTRA:          -8.800
REMARK INTER:                  -7.301
REMARK INTRA:                  -1.499
REMARK UNBOUND:                -2.308
REMARK SMILES CCCCCCCCCCCCCCCC(=O)[O-]
REMARK SMILES IDX 9 1 10 2 11 3 12 4 13 5 14 6 15 7 16 8 17 9 18 10 8 11 7 12
REMARK SMILES IDX 6 13 5 14 4 15 3 16 2 17 1 18
REMARK H PARENT
REMARK Flexibility Score: inf
ROOT
ATOM      1  C   UNL     1      10.983  13.404  22.788  1.00  0.00     0.000 C 
ENDROOT
BRANCH   1   2
ATOM      2  C   UNL     1      10.100  12.907  21.630  1.00  0.00     0.000 C 
BRANCH   2   3
ATOM      3  C   UNL     1      10.386  13.642  20.310  1.00  0.00     0.000 C 
BRANCH   3   4
ATOM      4  C   UNL     1      10.871  15.084  20.524  1.00  0.00     0.000 C 
BRANCH   4   5
ATOM      5  C   UNL     1       9.700  16.010  20.875  1.00  0.00     0.000 C 
BRANCH   5   6
ATOM      6  C   UNL     1      10.172  17.201  21.718  1.00  0.00     0.006 C 
BRANCH   6   7
ATOM      7  C   UNL     1       9.415  17.267  23.048  1.00  0.00     0.053 C 
BRANCH   7   8
ATOM      8  C   UNL     1      10.289  17.840  24.119  1.00  0.00     0.041 C 
ATOM      9  O   UNL     1      10.537  17.173  25.158  1.00  0.00    -0.550 OA
ATOM     10  O   UNL     1      10.871  19.089  23.947  1.00  0.00    -0.550 OA
ENDBRANCH   7   8
ENDBRANCH   6   7
ENDBRANCH   5   6
ENDBRANCH   4   5
ENDBRANCH   3   4
ENDBRANCH   2   3
ENDBRANCH   1   2
BRANCH   1  11
ATOM     11  C   UNL     1      10.161  13.794  24.028  1.00  0.00     0.000 C 
BRANCH  11  12
ATOM     12  C   UNL     1       8.866  12.972  24.158  1.00  0.00    -0.000 C 
BRANCH  12  13
ATOM     13  C   UNL     1       8.755  12.247  25.509  1.00  0.00    -0.000 C 
BRANCH  13  14
ATOM     14  C   UNL     1       9.722  11.056  25.624  1.00  0.00    -0.000 C 
BRANCH  14  15
ATOM     15  C   UNL     1       9.695  10.142  24.385  1.00  0.00    -0.000 C 
BRANCH  15  16
ATOM     16  C   UNL     1       8.978   8.790  24.580  1.00  0.00    -0.000 C 
BRANCH  16  17
ATOM     17  C   UNL     1       8.536   8.489  26.023  1.00  0.00    -0.003 C 
ATOM     18  C   UNL     1       9.207   7.246  26.606  1.00  0.00     0.004 C 
ENDBRANCH  16  17
ENDBRANCH  15  16
ENDBRANCH  14  15
ENDBRANCH  13  14
ENDBRANCH  12  13
ENDBRANCH  11  12
ENDBRANCH   1  11
TORSDOF 14
ENDMDL
MODEL 6
REMARK VINA RESULT:    -3.470      1.497      3.012
REMARK INTER + INTRA:          -8.618
REMARK INTER:                  -7.052
REMARK INTRA:                  -1.566
REMARK UNBOUND:                -2.308
REMARK SMILES CCCCCCCCCCCCCCCC(=O)[O-]
REMARK SMILES IDX 9 1 10 2 11 3 12 4 13 5 14 6 15 7 16 8 17 9 18 10 8 11 7 12
REMARK SMILES IDX 6 13 5 14 4 15 3 16 2 17 1 18
REMARK H PARENT
REMARK Flexibility Score: inf
ROOT
ATOM      1  C   UNL     1       8.122  13.948  24.784  1.00  0.00     0.000 C 
ENDROOT
BRANCH   1   2
ATOM      2  C   UNL     1       9.064  12.760  25.043  1.00  0.00     0.000 C 
BRANCH   2   3
ATOM      3  C   UNL     1      10.079  12.551  23.907  1.00  0.00     0.000 C 
BRANCH   3   4
ATOM      4  C   UNL     1       9.732  13.352  22.643  1.00  0.00     0.000 C 
BRANCH   4   5
ATOM      5  C   UNL     1      10.887  14.278  22.246  1.00  0.00     0.000 C 
BRANCH   5   6
ATOM      6  C   UNL     1      10.364  15.574  21.615  1.00  0.00     0.006 C 
BRANCH   6   7
ATOM      7  C   UNL     1       9.682  15.296  20.272  1.00  0.00     0.053 C 
BRANCH   7   8
ATOM      8  C   UNL     1      10.692  14.886  19.248  1.00  0.00     0.041 C 
ATOM      9  O   UNL     1      11.408  15.754  18.682  1.00  0.00    -0.550 OA
ATOM     10  O   UNL     1      10.879  13.542  18.955  1.00  0.00    -0.550 OA
ENDBRANCH   7   8
ENDBRANCH   6   7
ENDBRANCH   5   6
ENDBRANCH   4   5
ENDBRANCH   3   4
ENDBRANCH   2   3
ENDBRANCH   1   2
BRANCH   1  11
ATOM     11  C   UNL     1       8.396  15.131  25.728  1.00  0.00     0.000 C 
BRANCH  11  12
ATOM     12  C   UNL     1       9.835  15.662  25.604  1.00  0.00    -0.000 C 
BRANCH  12  13
ATOM     13  C   UNL     1       9.993  17.087  26.160  1.00  0.00    -0.000 C 
BRANCH  13  14
ATOM     14  C   UNL     1       8.730  17.942  25.967  1.00  0.00    -0.000 C 
BRANCH  14  15
ATOM     15  C   UNL     1       8.703  18.670  24.610  1.00  0.00    -0.000 C 
BRANCH  15  16
ATOM     16  C   UNL     1      10.085  19.045  24.037  1.00  0.00    -0.000 C 
BRANCH  16  17
ATOM     17  C   UNL     1      10.050  19.860  22.732  1.00  0.00    -0.003 C 
ATOM     18  C   UNL     1       8.980  19.374  21.755  1.00  0.00     0.004 C 
ENDBRANCH  16  17
ENDBRANCH  15  16
ENDBRANCH  14  15
ENDBRANCH  13  14
ENDBRANCH  12  13
ENDBRANCH  11  12
ENDBRANCH   1  11
TORSDOF 14
ENDMDL
MODEL 7
REMARK VINA RESULT:    -3.463     17.653     20.018
REMARK INTER + INTRA:          -8.605
REMARK INTER:                  -6.638
REMARK INTRA:                  -1.967
REMARK UNBOUND:                -2.308
REMARK SMILES CCCCCCCCCCCCCCCC(=O)[O-]
REMARK SMILES IDX 9 1 10 2 11 3 12 4 13 5 14 6 15 7 16 8 17 9 18 10 8 11 7 12
REMARK SMILES IDX 6 13 5 14 4 15 3 16 2 17 1 18
REMARK H PARENT
REMARK Flexibility Score: inf
ROOT
ATOM      1  C   UNL     1      22.602   2.487  29.676  1.00  0.00     0.000 C 
ENDROOT
BRANCH   1   2
ATOM      2  C   UNL     1      23.238   3.758  30.266  1.00  0.00     0.000 C 
BRANCH   2   3
ATOM      3  C   UNL     1      22.868   5.025  29.478  1.00  0.00     0.000 C 
BRANCH   3   4
ATOM      4  C   UNL     1      23.262   6.317  30.210  1.00  0.00     0.000 C 
BRANCH   4   5
ATOM      5  C   UNL     1      24.541   6.917  29.614  1.00  0.00     0.000 C 
BRANCH   5   6
ATOM      6  C   UNL     1      24.777   6.406  28.187  1.00  0.00     0.006 C 
BRANCH   6   7
ATOM      7  C   UNL     1      24.252   7.405  27.152  1.00  0.00     0.053 C 
BRANCH   7   8
ATOM      8  C   UNL     1      23.520   6.691  26.060  1.00  0.00     0.041 C 
ATOM      9  O   UNL     1      24.149   6.238  25.068  1.00  0.00    -0.550 OA
ATOM     10  O   UNL     1      22.151   6.481  26.162  1.00  0.00    -0.550 OA
ENDBRANCH   7   8
ENDBRANCH   6   7
ENDBRANCH   5   6
ENDBRANCH   4   5
ENDBRANCH   3   4
ENDBRANCH   2   3
ENDBRANCH   1   2
BRANCH   1  11
ATOM     11  C   UNL     1      22.144   1.500  30.763  1.00  0.00     0.000 C 
BRANCH  11  12
ATOM     12  C   UNL     1      23.146   1.401  31.927  1.00  0.00    -0.000 C 
BRANCH  12  13
ATOM     13  C   UNL     1      22.511   1.728  33.289  1.00  0.00    -0.000 C 
BRANCH  13  14
ATOM     14  C   UNL     1      23.091   3.003  33.923  1.00  0.00    -0.000 C 
BRANCH  14  15
ATOM     15  C   UNL     1      22.113   4.192  33.876  1.00  0.00    -0.000 C 
BRANCH  15  16
ATOM     16  C   UNL     1      20.705   3.864  33.334  1.00  0.00    -0.000 C 
BRANCH  16  17
ATOM     17  C   UNL     1      20.029   5.002  32.549  1.00  0.00    -0.003 C 
ATOM     18  C   UNL     1      19.669   4.605  31.118  1.00  0.00     0.004 C 
ENDBRANCH  16  17
ENDBRANCH  15  16
ENDBRANCH  14  15
ENDBRANCH  13  14
ENDBRANCH  12  13
ENDBRANCH  11  12
ENDBRANCH   1  11
TORSDOF 14
ENDMDL
MODEL 8
REMARK VINA RESULT:    -3.447     17.958     19.893
REMARK INTER + INTRA:          -8.576
REMARK INTER:                  -6.237
REMARK INTRA:                  -2.339
REMARK UNBOUND:                -2.308
REMARK SMILES CCCCCCCCCCCCCCCC(=O)[O-]
REMARK SMILES IDX 9 1 10 2 11 3 12 4 13 5 14 6 15 7 16 8 17 9 18 10 8 11 7 12
REMARK SMILES IDX 6 13 5 14 4 15 3 16 2 17 1 18
REMARK H PARENT
REMARK Flexibility Score: inf
ROOT
ATOM      1  C   UNL     1      19.908   4.638  31.766  1.00  0.00     0.000 C 
ENDROOT
BRANCH   1   2
ATOM      2  C   UNL     1      20.794   5.402  30.767  1.00  0.00     0.000 C 
BRANCH   2   3
ATOM      3  C   UNL     1      21.826   6.305  31.462  1.00  0.00     0.000 C 
BRANCH   3   4
ATOM      4  C   UNL     1      22.884   6.855  30.493  1.00  0.00     0.000 C 
BRANCH   4   5
ATOM      5  C   UNL     1      24.101   5.925  30.423  1.00  0.00     0.000 C 
BRANCH   5   6
ATOM      6  C   UNL     1      24.601   5.780  28.980  1.00  0.00     0.006 C 
BRANCH   6   7
ATOM      7  C   UNL     1      23.461   5.985  27.979  1.00  0.00     0.053 C 
BRANCH   7   8
ATOM      8  C   UNL     1      23.962   6.677  26.750  1.00  0.00     0.041 C 
ATOM      9  O   UNL     1      24.899   7.514  26.832  1.00  0.00    -0.550 OA
ATOM     10  O   UNL     1      23.429   6.359  25.508  1.00  0.00    -0.550 OA
ENDBRANCH   7   8
ENDBRANCH   6   7
ENDBRANCH   5   6
ENDBRANCH   4   5
ENDBRANCH   3   4
ENDBRANCH   2   3
ENDBRANCH   1   2
BRANCH   1  11
ATOM     11  C   UNL     1      20.558   4.519  33.155  1.00  0.00     0.000 C 
BRANCH  11  12
ATOM     12  C   UNL     1      21.258   3.164  33.364  1.00  0.00    -0.000 C 
BRANCH  12  13
ATOM     13  C   UNL     1      22.777   3.303  33.554  1.00  0.00    -0.000 C 
BRANCH  13  14
ATOM     14  C   UNL     1      23.571   2.892  32.303  1.00  0.00    -0.000 C 
BRANCH  14  15
ATOM     15  C   UNL     1      22.728   2.086  31.298  1.00  0.00    -0.000 C 
BRANCH  15  16
ATOM     16  C   UNL     1      22.827   2.554  29.831  1.00  0.00    -0.000 C 
BRANCH  16  17
ATOM     17  C   UNL     1      23.393   1.512  28.851  1.00  0.00    -0.003 C 
ATOM     18  C   UNL     1      24.264   2.132  27.758  1.00  0.00     0.004 C 
ENDBRANCH  16  17
ENDBRANCH  15  16
ENDBRANCH  14  15
ENDBRANCH  13  14
ENDBRANCH  12  13
ENDBRANCH  11  12
ENDBRANCH   1  11
TORSDOF 14
ENDMDL
MODEL 9
REMARK VINA RESULT:    -3.417      4.830      8.136
REMARK INTER + INTRA:          -8.522
REMARK INTER:                  -7.607
REMARK INTRA:                  -0.915
REMARK UNBOUND:                -2.308
REMARK SMILES CCCCCCCCCCCCCCCC(=O)[O-]
REMARK SMILES IDX 9 1 10 2 11 3 12 4 13 5 14 6 15 7 16 8 17 9 18 10 8 11 7 12
REMARK SMILES IDX 6 13 5 14 4 15 3 16 2 17 1 18
REMARK H PARENT
REMARK Flexibility Score: inf
ROOT
ATOM      1  C   UNL     1       8.319  12.661  24.141  1.00  0.00     0.000 C 
ENDROOT
BRANCH   1   2
ATOM      2  C   UNL     1       8.263  14.198  24.110  1.00  0.00     0.000 C 
BRANCH   2   3
ATOM      3  C   UNL     1       9.545  14.847  24.656  1.00  0.00     0.000 C 
BRANCH   3   4
ATOM      4  C   UNL     1       9.797  16.248  24.078  1.00  0.00     0.000 C 
BRANCH   4   5
ATOM      5  C   UNL     1      10.075  16.178  22.572  1.00  0.00     0.000 C 
BRANCH   5   6
ATOM      6  C   UNL     1      11.046  15.037  22.243  1.00  0.00     0.006 C 
BRANCH   6   7
ATOM      7  C   UNL     1      10.486  14.140  21.135  1.00  0.00     0.053 C 
BRANCH   7   8
ATOM      8  C   UNL     1      10.977  14.594  19.796  1.00  0.00     0.041 C 
ATOM      9  O   UNL     1      10.925  13.818  18.806  1.00  0.00    -0.550 OA
ATOM     10  O   UNL     1      11.443  15.891  19.631  1.00  0.00    -0.550 OA
ENDBRANCH   7   8
ENDBRANCH   6   7
ENDBRANCH   5   6
ENDBRANCH   4   5
ENDBRANCH   3   4
ENDBRANCH   2   3
ENDBRANCH   1   2
BRANCH   1  11
ATOM     11  C   UNL     1       9.739  12.129  24.394  1.00  0.00     0.000 C 
BRANCH  11  12
ATOM     12  C   UNL     1       9.751  10.897  25.316  1.00  0.00    -0.000 C 
BRANCH  12  13
ATOM     13  C   UNL     1       9.620   9.574  24.543  1.00  0.00    -0.000 C 
BRANCH  13  14
ATOM     14  C   UNL     1       8.530   8.656  25.121  1.00  0.00    -0.000 C 
BRANCH  14  15
ATOM     15  C   UNL     1       9.043   7.768  26.269  1.00  0.00    -0.000 C 
BRANCH  15  16
ATOM     16  C   UNL     1       8.442   8.075  27.657  1.00  0.00    -0.000 C 
BRANCH  16  17
ATOM     17  C   UNL     1       8.584   6.945  28.693  1.00  0.00    -0.003 C 
ATOM     18  C   UNL     1       8.049   5.605  28.189  1.00  0.00     0.004 C 
ENDBRANCH  16  17
ENDBRANCH  15  16
ENDBRANCH  14  15
ENDBRANCH  13  14
ENDBRANCH  12  13
ENDBRANCH  11  12
ENDBRANCH   1  11
TORSDOF 14
ENDMDL
