MODEL 1
REMARK VINA RESULT:    -4.531      0.000      0.000
REMARK INTER + INTRA:          -4.819
REMARK INTER:                  -4.796
REMARK INTRA:                  -0.023
REMARK UNBOUND:                -0.023
REMARK SMILES O=C([O-])c1cccnc1
REMARK SMILES IDX 4 1 5 2 9 3 6 4 8 5 7 6 2 7 1 8 3 9
REMARK H PARENT
REMARK Flexibility Score: inf
ROOT
ATOM      1  C   UNL     1      16.531  -3.402  16.877  1.00  0.00     0.016 A 
ATOM      2  C   UNL     1      15.260  -3.038  17.351  1.00  0.00     0.013 A 
ATOM      3  C   UNL     1      16.615  -4.101  15.660  1.00  0.00     0.120 A 
ATOM      4  C   UNL     1      14.118  -3.371  16.620  1.00  0.00     0.021 A 
ATOM      5  N   UNL     1      15.487  -4.413  14.968  1.00  0.00    -0.264 NA
ATOM      6  C   UNL     1      14.252  -4.066  15.418  1.00  0.00     0.111 A 
ENDROOT
BRANCH   1   7
ATOM      7  C   UNL     1      17.747  -3.055  17.643  1.00  0.00     0.073 C 
ATOM      8  O   UNL     1      17.679  -2.809  18.877  1.00  0.00    -0.545 OA
ATOM      9  O   UNL     1      18.984  -2.997  17.012  1.00  0.00    -0.545 OA
ENDBRANCH   1   7
TORSDOF 1
ENDMDL
MODEL 2
REMARK VINA RESULT:    -4.486      5.806      7.001
REMARK INTER + INTRA:          -4.772
REMARK INTER:                  -4.749
REMARK INTRA:                  -0.022
REMARK UNBOUND:                -0.023
REMARK SMILES O=C([O-])c1cccnc1
REMARK SMILES IDX 4 1 5 2 9 3 6 4 8 5 7 6 2 7 1 8 3 9
REMARK H PARENT
REMARK Flexibility Score: inf
ROOT
ATOM      1  C   UNL     1      15.121  -5.282  11.080  1.00  0.00     0.016 A 
ATOM      2  C   UNL     1      16.378  -5.695  10.612  1.00  0.00     0.013 A 
ATOM      3  C   UNL     1      15.004  -4.889  12.426  1.00  0.00     0.120 A 
ATOM      4  C   UNL     1      17.477  -5.709  11.474  1.00  0.00     0.021 A 
ATOM      5  N   UNL     1      16.090  -4.913  13.244  1.00  0.00    -0.264 NA
ATOM      6  C   UNL     1      17.312  -5.311  12.801  1.00  0.00     0.111 A 
ENDROOT
BRANCH   1   7
ATOM      7  C   UNL     1      13.951  -5.263  10.177  1.00  0.00     0.073 C 
ATOM      8  O   UNL     1      12.949  -4.545  10.442  1.00  0.00    -0.545 OA
ATOM      9  O   UNL     1      13.940  -6.034   9.021  1.00  0.00    -0.545 OA
ENDBRANCH   1   7
TORSDOF 1
ENDMDL
MODEL 3
REMARK VINA RESULT:    -4.486      5.841      7.102
REMARK INTER + INTRA:          -4.771
REMARK INTER:                  -4.748
REMARK INTRA:                  -0.023
REMARK UNBOUND:                -0.023
REMARK SMILES O=C([O-])c1cccnc1
REMARK SMILES IDX 4 1 5 2 9 3 6 4 8 5 7 6 2 7 1 8 3 9
REMARK H PARENT
REMARK Flexibility Score: inf
ROOT
ATOM      1  C   UNL     1      15.112  -5.313  11.024  1.00  0.00     0.016 A 
ATOM      2  C   UNL     1      16.383  -5.695  10.565  1.00  0.00     0.013 A 
ATOM      3  C   UNL     1      14.971  -4.953  12.376  1.00  0.00     0.120 A 
ATOM      4  C   UNL     1      17.470  -5.709  11.441  1.00  0.00     0.021 A 
ATOM      5  N   UNL     1      16.046  -4.977  13.209  1.00  0.00    -0.264 NA
ATOM      6  C   UNL     1      17.280  -5.344  12.774  1.00  0.00     0.111 A 
ENDROOT
BRANCH   1   7
ATOM      7  C   UNL     1      13.954  -5.294  10.105  1.00  0.00     0.073 C 
ATOM      8  O   UNL     1      13.947  -6.011   9.069  1.00  0.00    -0.545 OA
ATOM      9  O   UNL     1      12.856  -4.485  10.373  1.00  0.00    -0.545 OA
ENDBRANCH   1   7
TORSDOF 1
ENDMDL
MODEL 4
REMARK VINA RESULT:    -4.406      2.767      3.572
REMARK INTER + INTRA:          -4.686
REMARK INTER:                  -4.664
REMARK INTRA:                  -0.022
REMARK UNBOUND:                -0.023
REMARK SMILES O=C([O-])c1cccnc1
REMARK SMILES IDX 4 1 5 2 9 3 6 4 8 5 7 6 2 7 1 8 3 9
REMARK H PARENT
REMARK Flexibility Score: inf
ROOT
ATOM      1  C   UNL     1      15.518  -3.522  16.510  1.00  0.00     0.016 A 
ATOM      2  C   UNL     1      15.704  -2.779  17.687  1.00  0.00     0.013 A 
ATOM      3  C   UNL     1      16.640  -4.128  15.917  1.00  0.00     0.120 A 
ATOM      4  C   UNL     1      16.979  -2.654  18.243  1.00  0.00     0.021 A 
ATOM      5  N   UNL     1      17.871  -3.989  16.479  1.00  0.00    -0.264 NA
ATOM      6  C   UNL     1      18.062  -3.272  17.618  1.00  0.00     0.111 A 
ENDROOT
BRANCH   1   7
ATOM      7  C   UNL     1      14.172  -3.662  15.913  1.00  0.00     0.073 C 
ATOM      8  O   UNL     1      13.142  -3.605  16.636  1.00  0.00    -0.545 OA
ATOM      9  O   UNL     1      14.026  -3.855  14.545  1.00  0.00    -0.545 OA
ENDBRANCH   1   7
TORSDOF 1
ENDMDL
MODEL 5
REMARK VINA RESULT:    -4.246      5.849      6.744
REMARK INTER + INTRA:          -4.517
REMARK INTER:                  -4.499
REMARK INTRA:                  -0.018
REMARK UNBOUND:                -0.023
REMARK SMILES O=C([O-])c1cccnc1
REMARK SMILES IDX 4 1 5 2 9 3 6 4 8 5 7 6 2 7 1 8 3 9
REMARK H PARENT
REMARK Flexibility Score: inf
ROOT
ATOM      1  C   UNL     1      14.420  -5.703  11.441  1.00  0.00     0.016 A 
ATOM      2  C   UNL     1      13.779  -6.233  12.572  1.00  0.00     0.013 A 
ATOM      3  C   UNL     1      15.812  -5.507  11.491  1.00  0.00     0.120 A 
ATOM      4  C   UNL     1      14.520  -6.554  13.711  1.00  0.00     0.021 A 
ATOM      5  N   UNL     1      16.509  -5.827  12.614  1.00  0.00    -0.264 NA
ATOM      6  C   UNL     1      15.898  -6.341  13.714  1.00  0.00     0.111 A 
ENDROOT
BRANCH   1   7
ATOM      7  C   UNL     1      13.646  -5.360  10.228  1.00  0.00     0.073 C 
ATOM      8  O   UNL     1      12.688  -4.542  10.290  1.00  0.00    -0.545 OA
ATOM      9  O   UNL     1      13.964  -5.933   9.004  1.00  0.00    -0.545 OA
ENDBRANCH   1   7
TORSDOF 1
ENDMDL
MODEL 6
REMARK VINA RESULT:    -4.215      4.810      5.902
REMARK INTER + INTRA:          -4.485
REMARK INTER:                  -4.461
REMARK INTRA:                  -0.024
REMARK UNBOUND:                -0.023
REMARK SMILES O=C([O-])c1cccnc1
REMARK SMILES IDX 4 1 5 2 9 3 6 4 8 5 7 6 2 7 1 8 3 9
REMARK H PARENT
REMARK Flexibility Score: inf
ROOT
ATOM      1  C   UNL     1      16.046  -5.320  11.657  1.00  0.00     0.016 A 
ATOM      2  C   UNL     1      16.234  -5.528  10.282  1.00  0.00     0.013 A 
ATOM      3  C   UNL     1      14.732  -5.200  12.143  1.00  0.00     0.120 A 
ATOM      4  C   UNL     1      15.131  -5.614   9.429  1.00  0.00     0.021 A 
ATOM      5  N   UNL     1      13.675  -5.286  11.290  1.00  0.00    -0.264 NA
ATOM      6  C   UNL     1      13.846  -5.489   9.957  1.00  0.00     0.111 A 
ENDROOT
BRANCH   1   7
ATOM      7  C   UNL     1      17.206  -5.228  12.570  1.00  0.00     0.073 C 
ATOM      8  O   UNL     1      18.374  -5.110  12.110  1.00  0.00    -0.545 OA
ATOM      9  O   UNL     1      17.025  -5.268  13.946  1.00  0.00    -0.545 OA
ENDBRANCH   1   7
TORSDOF 1
ENDMDL
MODEL 7
REMARK VINA RESULT:    -4.200      1.185      2.149
REMARK INTER + INTRA:          -4.469
REMARK INTER:                  -4.451
REMARK INTRA:                  -0.018
REMARK UNBOUND:                -0.023
REMARK SMILES O=C([O-])c1cccnc1
REMARK SMILES IDX 4 1 5 2 9 3 6 4 8 5 7 6 2 7 1 8 3 9
REMARK H PARENT
REMARK Flexibility Score: inf
ROOT
ATOM      1  C   UNL     1      16.923  -4.084  16.704  1.00  0.00     0.016 A 
ATOM      2  C   UNL     1      17.278  -5.377  16.287  1.00  0.00     0.013 A 
ATOM      3  C   UNL     1      15.657  -3.589  16.345  1.00  0.00     0.120 A 
ATOM      4  C   UNL     1      16.383  -6.141  15.535  1.00  0.00     0.021 A 
ATOM      5  N   UNL     1      14.805  -4.354  15.610  1.00  0.00    -0.264 NA
ATOM      6  C   UNL     1      15.138  -5.607  15.203  1.00  0.00     0.111 A 
ENDROOT
BRANCH   1   7
ATOM      7  C   UNL     1      17.863  -3.266  17.501  1.00  0.00     0.073 C 
ATOM      8  O   UNL     1      18.993  -2.956  17.038  1.00  0.00    -0.545 OA
ATOM      9  O   UNL     1      17.511  -2.828  18.772  1.00  0.00    -0.545 OA
ENDBRANCH   1   7
TORSDOF 1
ENDMDL
MODEL 8
REMARK VINA RESULT:    -4.177      1.240      1.689
REMARK INTER + INTRA:          -4.444
REMARK INTER:                  -4.420
REMARK INTRA:                  -0.024
REMARK UNBOUND:                -0.023
REMARK SMILES O=C([O-])c1cccnc1
REMARK SMILES IDX 4 1 5 2 9 3 6 4 8 5 7 6 2 7 1 8 3 9
REMARK H PARENT
REMARK Flexibility Score: inf
ROOT
ATOM      1  C   UNL     1      17.254  -3.428  16.446  1.00  0.00     0.016 A 
ATOM      2  C   UNL     1      16.732  -2.661  17.500  1.00  0.00     0.013 A 
ATOM      3  C   UNL     1      16.360  -4.164  15.648  1.00  0.00     0.120 A 
ATOM      4  C   UNL     1      15.356  -2.640  17.737  1.00  0.00     0.021 A 
ATOM      5  N   UNL     1      15.025  -4.127  15.901  1.00  0.00    -0.264 NA
ATOM      6  C   UNL     1      14.509  -3.388  16.918  1.00  0.00     0.111 A 
ENDROOT
BRANCH   1   7
ATOM      7  C   UNL     1      18.710  -3.457  16.186  1.00  0.00     0.073 C 
ATOM      8  O   UNL     1      19.510  -2.859  16.955  1.00  0.00    -0.545 OA
ATOM      9  O   UNL     1      19.215  -4.146  15.090  1.00  0.00    -0.545 OA
ENDBRANCH   1   7
TORSDOF 1
ENDMDL
MODEL 9
REMARK VINA RESULT:    -4.089      2.797      3.789
REMARK INTER + INTRA:          -4.351
REMARK INTER:                  -4.330
REMARK INTRA:                  -0.021
REMARK UNBOUND:                -0.023
REMARK SMILES O=C([O-])c1cccnc1
REMARK SMILES IDX 4 1 5 2 9 3 6 4 8 5 7 6 2 7 1 8 3 9
REMARK H PARENT
REMARK Flexibility Score: inf
ROOT
ATOM      1  C   UNL     1      16.225  -4.139  15.986  1.00  0.00     0.016 A 
ATOM      2  C   UNL     1      17.544  -4.137  16.466  1.00  0.00     0.013 A 
ATOM      3  C   UNL     1      15.263  -3.373  16.670  1.00  0.00     0.120 A 
ATOM      4  C   UNL     1      17.878  -3.388  17.596  1.00  0.00     0.021 A 
ATOM      5  N   UNL     1      15.616  -2.652  17.768  1.00  0.00    -0.264 NA
ATOM      6  C   UNL     1      16.890  -2.644  18.241  1.00  0.00     0.111 A 
ENDROOT
BRANCH   1   7
ATOM      7  C   UNL     1      15.859  -4.929  14.791  1.00  0.00     0.073 C 
ATOM      8  O   UNL     1      16.383  -6.056  14.584  1.00  0.00    -0.545 OA
ATOM      9  O   UNL     1      14.932  -4.439  13.879  1.00  0.00    -0.545 OA
ENDBRANCH   1   7
TORSDOF 1
ENDMDL
