MODEL 1
REMARK VINA RESULT:    -3.887      0.000      0.000
REMARK INTER + INTRA:          -5.205
REMARK INTER:                  -5.023
REMARK INTRA:                  -0.182
REMARK UNBOUND:                -0.182
REMARK SMILES CCCCCCC(=O)[O-]
REMARK SMILES IDX 5 1 6 2 7 3 8 4 9 5 4 6 3 7 2 8 1 9
REMARK H PARENT
REMARK Flexibility Score: inf
ROOT
ATOM      1  C   UNL     1     -10.326 -25.553  28.218  1.00  0.00     0.006 C 
ENDROOT
BRANCH   1   2
ATOM      2  C   UNL     1      -9.032 -25.997  28.907  1.00  0.00     0.053 C 
BRANCH   2   3
ATOM      3  C   UNL     1      -8.376 -27.096  28.135  1.00  0.00     0.041 C 
ATOM      4  O   UNL     1      -9.046 -27.790  27.325  1.00  0.00    -0.550 OA
ATOM      5  O   UNL     1      -7.034 -27.388  28.345  1.00  0.00    -0.550 OA
ENDBRANCH   2   3
ENDBRANCH   1   2
BRANCH   1   6
ATOM      6  C   UNL     1     -10.037 -24.516  27.122  1.00  0.00     0.000 C 
BRANCH   6   7
ATOM      7  C   UNL     1     -10.942 -24.688  25.892  1.00  0.00    -0.000 C 
BRANCH   7   8
ATOM      8  C   UNL     1     -11.607 -23.373  25.460  1.00  0.00    -0.003 C 
ATOM      9  C   UNL     1     -11.200 -22.224  26.379  1.00  0.00     0.004 C 
ENDBRANCH   7   8
ENDBRANCH   6   7
ENDBRANCH   1   6
TORSDOF 5
ENDMDL
MODEL 2
REMARK VINA RESULT:    -3.767      2.723      4.596
REMARK INTER + INTRA:          -5.050
REMARK INTER:                  -4.760
REMARK INTRA:                  -0.289
REMARK UNBOUND:                -0.182
REMARK SMILES CCCCCCC(=O)[O-]
REMARK SMILES IDX 5 1 6 2 7 3 8 4 9 5 4 6 3 7 2 8 1 9
REMARK H PARENT
REMARK Flexibility Score: inf
ROOT
ATOM      1  C   UNL     1     -10.378 -25.015  27.885  1.00  0.00     0.006 C 
ENDROOT
BRANCH   1   2
ATOM      2  C   UNL     1     -10.107 -24.095  26.689  1.00  0.00     0.053 C 
BRANCH   2   3
ATOM      3  C   UNL     1     -11.175 -24.252  25.654  1.00  0.00     0.041 C 
ATOM      4  O   UNL     1     -11.352 -25.363  25.088  1.00  0.00    -0.550 OA
ATOM      5  O   UNL     1     -11.945 -23.157  25.278  1.00  0.00    -0.550 OA
ENDBRANCH   2   3
ENDBRANCH   1   2
BRANCH   1   6
ATOM      6  C   UNL     1      -9.109 -25.782  28.285  1.00  0.00     0.000 C 
BRANCH   6   7
ATOM      7  C   UNL     1      -9.351 -27.293  28.424  1.00  0.00    -0.000 C 
BRANCH   7   8
ATOM      8  C   UNL     1      -9.642 -27.971  27.077  1.00  0.00    -0.003 C 
ATOM      9  C   UNL     1     -10.957 -28.744  27.124  1.00  0.00     0.004 C 
ENDBRANCH   7   8
ENDBRANCH   6   7
ENDBRANCH   1   6
TORSDOF 5
ENDMDL
MODEL 3
REMARK VINA RESULT:    -3.728      1.938      2.258
REMARK INTER + INTRA:          -5.000
REMARK INTER:                  -4.795
REMARK INTRA:                  -0.205
REMARK UNBOUND:                -0.182
REMARK SMILES CCCCCCC(=O)[O-]
REMARK SMILES IDX 5 1 6 2 7 3 8 4 9 5 4 6 3 7 2 8 1 9
REMARK H PARENT
REMARK Flexibility Score: inf
ROOT
ATOM      1  C   UNL     1     -10.463 -25.664  28.194  1.00  0.00     0.006 C 
ENDROOT
BRANCH   1   2
ATOM      2  C   UNL     1     -10.029 -27.090  27.839  1.00  0.00     0.053 C 
BRANCH   2   3
ATOM      3  C   UNL     1     -11.222 -27.973  27.663  1.00  0.00     0.041 C 
ATOM      4  O   UNL     1     -12.304 -27.703  28.248  1.00  0.00    -0.550 OA
ATOM      5  O   UNL     1     -11.126 -29.125  26.891  1.00  0.00    -0.550 OA
ENDBRANCH   2   3
ENDBRANCH   1   2
BRANCH   1   6
ATOM      6  C   UNL     1      -9.996 -24.665  27.125  1.00  0.00     0.000 C 
BRANCH   6   7
ATOM      7  C   UNL     1     -10.794 -24.783  25.817  1.00  0.00    -0.000 C 
BRANCH   7   8
ATOM      8  C   UNL     1     -11.549 -23.493  25.467  1.00  0.00    -0.003 C 
ATOM      9  C   UNL     1     -11.132 -22.346  26.385  1.00  0.00     0.004 C 
ENDBRANCH   7   8
ENDBRANCH   6   7
ENDBRANCH   1   6
TORSDOF 5
ENDMDL
MODEL 4
REMARK VINA RESULT:    -3.693      2.023      2.419
REMARK INTER + INTRA:          -4.955
REMARK INTER:                  -4.676
REMARK INTRA:                  -0.278
REMARK UNBOUND:                -0.182
REMARK SMILES CCCCCCC(=O)[O-]
REMARK SMILES IDX 5 1 6 2 7 3 8 4 9 5 4 6 3 7 2 8 1 9
REMARK H PARENT
REMARK Flexibility Score: inf
ROOT
ATOM      1  C   UNL     1     -10.382 -26.417  26.864  1.00  0.00     0.006 C 
ENDROOT
BRANCH   1   2
ATOM      2  C   UNL     1      -9.662 -25.420  27.779  1.00  0.00     0.053 C 
BRANCH   2   3
ATOM      3  C   UNL     1     -10.187 -25.517  29.176  1.00  0.00     0.041 C 
ATOM      4  O   UNL     1      -9.745 -24.752  30.073  1.00  0.00    -0.550 OA
ATOM      5  O   UNL     1     -11.130 -26.485  29.498  1.00  0.00    -0.550 OA
ENDBRANCH   2   3
ENDBRANCH   1   2
BRANCH   1   6
ATOM      6  C   UNL     1     -11.274 -25.687  25.849  1.00  0.00     0.000 C 
BRANCH   6   7
ATOM      7  C   UNL     1     -10.699 -24.325  25.429  1.00  0.00    -0.000 C 
BRANCH   7   8
ATOM      8  C   UNL     1     -11.708 -23.180  25.597  1.00  0.00    -0.003 C 
ATOM      9  C   UNL     1     -11.161 -22.097  26.524  1.00  0.00     0.004 C 
ENDBRANCH   7   8
ENDBRANCH   6   7
ENDBRANCH   1   6
TORSDOF 5
ENDMDL
MODEL 5
REMARK VINA RESULT:    -3.665      2.191      2.773
REMARK INTER + INTRA:          -4.917
REMARK INTER:                  -4.759
REMARK INTRA:                  -0.158
REMARK UNBOUND:                -0.182
REMARK SMILES CCCCCCC(=O)[O-]
REMARK SMILES IDX 5 1 6 2 7 3 8 4 9 5 4 6 3 7 2 8 1 9
REMARK H PARENT
REMARK Flexibility Score: inf
ROOT
ATOM      1  C   UNL     1      -8.759 -26.208  28.723  1.00  0.00     0.006 C 
ENDROOT
BRANCH   1   2
ATOM      2  C   UNL     1      -9.263 -25.438  29.949  1.00  0.00     0.053 C 
BRANCH   2   3
ATOM      3  C   UNL     1      -8.114 -24.998  30.800  1.00  0.00     0.041 C 
ATOM      4  O   UNL     1      -7.043 -25.660  30.812  1.00  0.00    -0.550 OA
ATOM      5  O   UNL     1      -8.244 -23.883  31.619  1.00  0.00    -0.550 OA
ENDBRANCH   2   3
ENDBRANCH   1   2
BRANCH   1   6
ATOM      6  C   UNL     1      -9.663 -25.956  27.507  1.00  0.00     0.000 C 
BRANCH   6   7
ATOM      7  C   UNL     1     -10.420 -24.621  27.600  1.00  0.00    -0.000 C 
BRANCH   7   8
ATOM      8  C   UNL     1     -10.450 -23.866  26.264  1.00  0.00    -0.003 C 
ATOM      9  C   UNL     1     -11.185 -22.535  26.401  1.00  0.00     0.004 C 
ENDBRANCH   7   8
ENDBRANCH   6   7
ENDBRANCH   1   6
TORSDOF 5
ENDMDL
MODEL 6
REMARK VINA RESULT:    -3.632      3.039      4.283
REMARK INTER + INTRA:          -4.875
REMARK INTER:                  -4.495
REMARK INTRA:                  -0.380
REMARK UNBOUND:                -0.182
REMARK SMILES CCCCCCC(=O)[O-]
REMARK SMILES IDX 5 1 6 2 7 3 8 4 9 5 4 6 3 7 2 8 1 9
REMARK H PARENT
REMARK Flexibility Score: inf
ROOT
ATOM      1  C   UNL     1     -10.393 -26.191  29.809  1.00  0.00     0.006 C 
ENDROOT
BRANCH   1   2
ATOM      2  C   UNL     1      -9.376 -27.326  29.642  1.00  0.00     0.053 C 
BRANCH   2   3
ATOM      3  C   UNL     1      -8.628 -27.174  28.356  1.00  0.00     0.041 C 
ATOM      4  O   UNL     1      -7.369 -27.203  28.346  1.00  0.00    -0.550 OA
ATOM      5  O   UNL     1      -9.320 -26.949  27.172  1.00  0.00    -0.550 OA
ENDBRANCH   2   3
ENDBRANCH   1   2
BRANCH   1   6
ATOM      6  C   UNL     1      -9.686 -24.859  30.100  1.00  0.00     0.000 C 
BRANCH   6   7
ATOM      7  C   UNL     1      -9.164 -24.769  31.543  1.00  0.00    -0.000 C 
BRANCH   7   8
ATOM      8  C   UNL     1      -7.783 -24.105  31.631  1.00  0.00    -0.003 C 
ATOM      9  C   UNL     1      -6.686 -25.051  31.149  1.00  0.00     0.004 C 
ENDBRANCH   7   8
ENDBRANCH   6   7
ENDBRANCH   1   6
TORSDOF 5
ENDMDL
MODEL 7
REMARK VINA RESULT:    -3.610      3.170      3.988
REMARK INTER + INTRA:          -4.846
REMARK INTER:                  -4.389
REMARK INTRA:                  -0.457
REMARK UNBOUND:                -0.182
REMARK SMILES CCCCCCC(=O)[O-]
REMARK SMILES IDX 5 1 6 2 7 3 8 4 9 5 4 6 3 7 2 8 1 9
REMARK H PARENT
REMARK Flexibility Score: inf
ROOT
ATOM      1  C   UNL     1      -8.404 -27.151  28.455  1.00  0.00     0.006 C 
ENDROOT
BRANCH   1   2
ATOM      2  C   UNL     1      -6.895 -27.250  28.709  1.00  0.00     0.053 C 
BRANCH   2   3
ATOM      3  C   UNL     1      -6.594 -27.057  30.161  1.00  0.00     0.041 C 
ATOM      4  O   UNL     1      -5.743 -26.203  30.523  1.00  0.00    -0.550 OA
ATOM      5  O   UNL     1      -7.217 -27.855  31.112  1.00  0.00    -0.550 OA
ENDBRANCH   2   3
ENDBRANCH   1   2
BRANCH   1   6
ATOM      6  C   UNL     1      -8.899 -25.710  28.646  1.00  0.00     0.000 C 
BRANCH   6   7
ATOM      7  C   UNL     1     -10.190 -25.633  29.476  1.00  0.00    -0.000 C 
BRANCH   7   8
ATOM      8  C   UNL     1      -9.919 -25.547  30.984  1.00  0.00    -0.003 C 
ATOM      9  C   UNL     1      -8.914 -24.442  31.300  1.00  0.00     0.004 C 
ENDBRANCH   7   8
ENDBRANCH   6   7
ENDBRANCH   1   6
TORSDOF 5
ENDMDL
MODEL 8
REMARK VINA RESULT:    -3.588      2.995      4.071
REMARK INTER + INTRA:          -4.818
REMARK INTER:                  -4.514
REMARK INTRA:                  -0.303
REMARK UNBOUND:                -0.182
REMARK SMILES CCCCCCC(=O)[O-]
REMARK SMILES IDX 5 1 6 2 7 3 8 4 9 5 4 6 3 7 2 8 1 9
REMARK H PARENT
REMARK Flexibility Score: inf
ROOT
ATOM      1  C   UNL     1      -9.419 -27.314  29.599  1.00  0.00     0.006 C 
ENDROOT
BRANCH   1   2
ATOM      2  C   UNL     1      -8.718 -26.898  28.301  1.00  0.00     0.053 C 
BRANCH   2   3
ATOM      3  C   UNL     1      -9.559 -27.247  27.115  1.00  0.00     0.041 C 
ATOM      4  O   UNL     1      -9.547 -28.417  26.651  1.00  0.00    -0.550 OA
ATOM      5  O   UNL     1     -10.321 -26.266  26.491  1.00  0.00    -0.550 OA
ENDBRANCH   2   3
ENDBRANCH   1   2
BRANCH   1   6
ATOM      6  C   UNL     1     -10.362 -26.208  30.093  1.00  0.00     0.000 C 
BRANCH   6   7
ATOM      7  C   UNL     1      -9.651 -24.855  30.260  1.00  0.00    -0.000 C 
BRANCH   7   8
ATOM      8  C   UNL     1      -8.962 -24.714  31.624  1.00  0.00    -0.003 C 
ATOM      9  C   UNL     1      -7.514 -24.260  31.465  1.00  0.00     0.004 C 
ENDBRANCH   7   8
ENDBRANCH   6   7
ENDBRANCH   1   6
TORSDOF 5
ENDMDL
MODEL 9
REMARK VINA RESULT:    -3.564      2.564      4.336
REMARK INTER + INTRA:          -4.787
REMARK INTER:                  -4.440
REMARK INTRA:                  -0.347
REMARK UNBOUND:                -0.182
REMARK SMILES CCCCCCC(=O)[O-]
REMARK SMILES IDX 5 1 6 2 7 3 8 4 9 5 4 6 3 7 2 8 1 9
REMARK H PARENT
REMARK Flexibility Score: inf
ROOT
ATOM      1  C   UNL     1     -10.195 -25.895  29.775  1.00  0.00     0.006 C 
ENDROOT
BRANCH   1   2
ATOM      2  C   UNL     1      -9.189 -25.547  28.672  1.00  0.00     0.053 C 
BRANCH   2   3
ATOM      3  C   UNL     1      -8.570 -26.790  28.116  1.00  0.00     0.041 C 
ATOM      4  O   UNL     1      -9.207 -27.506  27.299  1.00  0.00    -0.550 OA
ATOM      5  O   UNL     1      -7.306 -27.185  28.537  1.00  0.00    -0.550 OA
ENDBRANCH   2   3
ENDBRANCH   1   2
BRANCH   1   6
ATOM      6  C   UNL     1      -9.600 -25.628  31.165  1.00  0.00     0.000 C 
BRANCH   6   7
ATOM      7  C   UNL     1      -8.879 -24.273  31.249  1.00  0.00    -0.000 C 
BRANCH   7   8
ATOM      8  C   UNL     1      -7.576 -24.346  32.058  1.00  0.00    -0.003 C 
ATOM      9  C   UNL     1      -6.483 -25.068  31.275  1.00  0.00     0.004 C 
ENDBRANCH   7   8
ENDBRANCH   6   7
ENDBRANCH   1   6
TORSDOF 5
ENDMDL
