MODEL 1
REMARK VINA RESULT:    -4.126      0.000      0.000
REMARK INTER + INTRA:          -9.351
REMARK INTER:                  -7.503
REMARK INTRA:                  -1.847
REMARK UNBOUND:                -1.847
REMARK SMILES CCCCCCCCCCCCCC[C@@H](C)C(=O)[O-]
REMARK SMILES IDX 9 1 10 2 11 3 12 4 13 5 14 6 15 7 16 8 17 9 18 10 19 11 8 12
REMARK SMILES IDX 7 13 6 14 5 15 4 16 3 17 2 18 1 19
REMARK H PARENT
REMARK Flexibility Score: inf
ROOT
ATOM      1  C   UNL     1       4.186  23.102 114.012  1.00  0.00     0.000 C 
ENDROOT
BRANCH   1   2
ATOM      2  C   UNL     1       2.885  23.745 114.538  1.00  0.00     0.000 C 
BRANCH   2   3
ATOM      3  C   UNL     1       1.707  23.551 113.570  1.00  0.00     0.000 C 
BRANCH   3   4
ATOM      4  C   UNL     1       0.695  24.699 113.695  1.00  0.00     0.000 C 
BRANCH   4   5
ATOM      5  C   UNL     1       1.346  26.089 113.586  1.00  0.00     0.001 C 
BRANCH   5   6
ATOM      6  C   UNL     1       1.815  26.484 112.169  1.00  0.00     0.009 C 
BRANCH   6   7
ATOM      7  C   UNL     1       2.045  27.998 111.970  1.00  0.00     0.032 C 
ATOM      8  C   UNL     1       3.355  28.434 112.634  1.00  0.00     0.014 C 
BRANCH   7   9
ATOM      9  C   UNL     1       2.061  28.371 110.512  1.00  0.00     0.044 C 
ATOM     10  O   UNL     1       1.009  28.759 109.938  1.00  0.00    -0.550 OA
ATOM     11  O   UNL     1       3.245  28.289 109.789  1.00  0.00    -0.550 OA
ENDBRANCH   7   9
ENDBRANCH   6   7
ENDBRANCH   5   6
ENDBRANCH   4   5
ENDBRANCH   3   4
ENDBRANCH   2   3
ENDBRANCH   1   2
BRANCH   1  12
ATOM     12  C   UNL     1       4.617  23.626 112.632  1.00  0.00     0.000 C 
BRANCH  12  13
ATOM     13  C   UNL     1       5.157  25.064 112.682  1.00  0.00    -0.000 C 
BRANCH  13  14
ATOM     14  C   UNL     1       5.464  25.627 111.284  1.00  0.00    -0.000 C 
BRANCH  14  15
ATOM     15  C   UNL     1       6.422  26.830 111.333  1.00  0.00    -0.000 C 
BRANCH  15  16
ATOM     16  C   UNL     1       7.670  26.622 110.448  1.00  0.00    -0.000 C 
BRANCH  16  17
ATOM     17  C   UNL     1       7.653  25.313 109.636  1.00  0.00    -0.000 C 
BRANCH  17  18
ATOM     18  C   UNL     1       7.797  25.515 108.114  1.00  0.00    -0.003 C 
ATOM     19  C   UNL     1       6.754  26.481 107.551  1.00  0.00     0.004 C 
ENDBRANCH  17  18
ENDBRANCH  16  17
ENDBRANCH  15  16
ENDBRANCH  14  15
ENDBRANCH  13  14
ENDBRANCH  12  13
ENDBRANCH   1  12
TORSDOF 14
ENDMDL
MODEL 2
REMARK VINA RESULT:    -4.109      2.503      3.209
REMARK INTER + INTRA:          -9.319
REMARK INTER:                  -7.335
REMARK INTRA:                  -1.984
REMARK UNBOUND:                -1.847
REMARK SMILES CCCCCCCCCCCCCC[C@@H](C)C(=O)[O-]
REMARK SMILES IDX 9 1 10 2 11 3 12 4 13 5 14 6 15 7 16 8 17 9 18 10 19 11 8 12
REMARK SMILES IDX 7 13 6 14 5 15 4 16 3 17 2 18 1 19
REMARK H PARENT
REMARK Flexibility Score: inf
ROOT
ATOM      1  C   UNL     1       4.222  26.307 110.545  1.00  0.00     0.000 C 
ENDROOT
BRANCH   1   2
ATOM      2  C   UNL     1       2.713  26.222 110.860  1.00  0.00     0.000 C 
BRANCH   2   3
ATOM      3  C   UNL     1       2.439  26.108 112.368  1.00  0.00     0.000 C 
BRANCH   3   4
ATOM      4  C   UNL     1       1.286  27.030 112.790  1.00  0.00     0.000 C 
BRANCH   4   5
ATOM      5  C   UNL     1       1.756  28.450 113.155  1.00  0.00     0.001 C 
BRANCH   5   6
ATOM      6  C   UNL     1       3.254  28.577 113.500  1.00  0.00     0.009 C 
BRANCH   6   7
ATOM      7  C   UNL     1       4.007  29.658 112.694  1.00  0.00     0.032 C 
ATOM      8  C   UNL     1       3.092  30.264 111.624  1.00  0.00     0.014 C 
BRANCH   7   9
ATOM      9  C   UNL     1       4.542  30.745 113.586  1.00  0.00     0.044 C 
ATOM     10  O   UNL     1       4.167  31.939 113.438  1.00  0.00    -0.550 OA
ATOM     11  O   UNL     1       5.457  30.434 114.585  1.00  0.00    -0.550 OA
ENDBRANCH   7   9
ENDBRANCH   6   7
ENDBRANCH   5   6
ENDBRANCH   4   5
ENDBRANCH   3   4
ENDBRANCH   2   3
ENDBRANCH   1   2
BRANCH   1  12
ATOM     12  C   UNL     1       5.114  25.698 111.639  1.00  0.00     0.000 C 
BRANCH  12  13
ATOM     13  C   UNL     1       6.238  26.644 112.090  1.00  0.00    -0.000 C 
BRANCH  13  14
ATOM     14  C   UNL     1       7.211  26.988 110.950  1.00  0.00    -0.000 C 
BRANCH  14  15
ATOM     15  C   UNL     1       8.179  25.834 110.634  1.00  0.00    -0.000 C 
BRANCH  15  16
ATOM     16  C   UNL     1       8.787  25.949 109.220  1.00  0.00    -0.000 C 
BRANCH  16  17
ATOM     17  C   UNL     1       8.026  25.155 108.142  1.00  0.00    -0.000 C 
BRANCH  17  18
ATOM     18  C   UNL     1       7.470  26.023 106.996  1.00  0.00    -0.003 C 
ATOM     19  C   UNL     1       6.175  26.739 107.379  1.00  0.00     0.004 C 
ENDBRANCH  17  18
ENDBRANCH  16  17
ENDBRANCH  15  16
ENDBRANCH  14  15
ENDBRANCH  13  14
ENDBRANCH  12  13
ENDBRANCH   1  12
TORSDOF 14
ENDMDL
MODEL 3
REMARK VINA RESULT:    -4.076      2.897      6.402
REMARK INTER + INTRA:          -9.259
REMARK INTER:                  -7.034
REMARK INTRA:                  -2.225
REMARK UNBOUND:                -1.847
REMARK SMILES CCCCCCCCCCCCCC[C@@H](C)C(=O)[O-]
REMARK SMILES IDX 9 1 10 2 11 3 12 4 13 5 14 6 15 7 16 8 17 9 18 10 19 11 8 12
REMARK SMILES IDX 7 13 6 14 5 15 4 16 3 17 2 18 1 19
REMARK H PARENT
REMARK Flexibility Score: inf
ROOT
ATOM      1  C   UNL     1       4.148  24.295 113.417  1.00  0.00     0.000 C 
ENDROOT
BRANCH   1   2
ATOM      2  C   UNL     1       3.318  25.566 113.139  1.00  0.00     0.000 C 
BRANCH   2   3
ATOM      3  C   UNL     1       2.951  25.708 111.654  1.00  0.00     0.000 C 
BRANCH   3   4
ATOM      4  C   UNL     1       4.187  26.055 110.811  1.00  0.00     0.000 C 
BRANCH   4   5
ATOM      5  C   UNL     1       4.958  27.273 111.349  1.00  0.00     0.001 C 
BRANCH   5   6
ATOM      6  C   UNL     1       6.473  27.055 111.546  1.00  0.00     0.009 C 
BRANCH   6   7
ATOM      7  C   UNL     1       6.932  25.586 111.408  1.00  0.00     0.032 C 
ATOM      8  C   UNL     1       7.913  25.438 110.240  1.00  0.00     0.014 C 
BRANCH   7   9
ATOM      9  C   UNL     1       7.565  25.080 112.676  1.00  0.00     0.044 C 
ATOM     10  O   UNL     1       8.289  24.049 112.663  1.00  0.00    -0.550 OA
ATOM     11  O   UNL     1       7.353  25.754 113.873  1.00  0.00    -0.550 OA
ENDBRANCH   7   9
ENDBRANCH   6   7
ENDBRANCH   5   6
ENDBRANCH   4   5
ENDBRANCH   3   4
ENDBRANCH   2   3
ENDBRANCH   1   2
BRANCH   1  12
ATOM     12  C   UNL     1       4.141  23.866 114.893  1.00  0.00     0.000 C 
BRANCH  12  13
ATOM     13  C   UNL     1       3.908  22.358 115.076  1.00  0.00    -0.000 C 
BRANCH  13  14
ATOM     14  C   UNL     1       3.385  21.683 113.798  1.00  0.00    -0.000 C 
BRANCH  14  15
ATOM     15  C   UNL     1       1.965  21.115 113.970  1.00  0.00    -0.000 C 
BRANCH  15  16
ATOM     16  C   UNL     1       0.992  22.146 114.580  1.00  0.00    -0.000 C 
BRANCH  16  17
ATOM     17  C   UNL     1       0.597  23.283 113.619  1.00  0.00    -0.000 C 
BRANCH  17  18
ATOM     18  C   UNL     1      -0.136  24.456 114.299  1.00  0.00    -0.003 C 
ATOM     19  C   UNL     1       0.596  24.962 115.543  1.00  0.00     0.004 C 
ENDBRANCH  17  18
ENDBRANCH  16  17
ENDBRANCH  15  16
ENDBRANCH  14  15
ENDBRANCH  13  14
ENDBRANCH  12  13
ENDBRANCH   1  12
TORSDOF 14
ENDMDL
MODEL 4
REMARK VINA RESULT:    -4.021      1.816      3.027
REMARK INTER + INTRA:          -9.159
REMARK INTER:                  -7.235
REMARK INTRA:                  -1.924
REMARK UNBOUND:                -1.847
REMARK SMILES CCCCCCCCCCCCCC[C@@H](C)C(=O)[O-]
REMARK SMILES IDX 9 1 10 2 11 3 12 4 13 5 14 6 15 7 16 8 17 9 18 10 19 11 8 12
REMARK SMILES IDX 7 13 6 14 5 15 4 16 3 17 2 18 1 19
REMARK H PARENT
REMARK Flexibility Score: inf
ROOT
ATOM      1  C   UNL     1       2.756  26.516 113.164  1.00  0.00     0.000 C 
ENDROOT
BRANCH   1   2
ATOM      2  C   UNL     1       3.659  27.037 114.303  1.00  0.00     0.000 C 
BRANCH   2   3
ATOM      3  C   UNL     1       5.019  27.531 113.787  1.00  0.00     0.000 C 
BRANCH   3   4
ATOM      4  C   UNL     1       4.859  28.801 112.938  1.00  0.00     0.000 C 
BRANCH   4   5
ATOM      5  C   UNL     1       3.986  29.871 113.617  1.00  0.00     0.001 C 
BRANCH   5   6
ATOM      6  C   UNL     1       3.040  30.641 112.672  1.00  0.00     0.009 C 
BRANCH   6   7
ATOM      7  C   UNL     1       1.991  29.759 111.958  1.00  0.00     0.032 C 
ATOM      8  C   UNL     1       0.573  30.201 112.332  1.00  0.00     0.014 C 
BRANCH   7   9
ATOM      9  C   UNL     1       2.161  29.794 110.463  1.00  0.00     0.044 C 
ATOM     10  O   UNL     1       2.927  30.638 109.925  1.00  0.00    -0.550 OA
ATOM     11  O   UNL     1       1.470  28.889 109.665  1.00  0.00    -0.550 OA
ENDBRANCH   7   9
ENDBRANCH   6   7
ENDBRANCH   5   6
ENDBRANCH   4   5
ENDBRANCH   3   4
ENDBRANCH   2   3
ENDBRANCH   1   2
BRANCH   1  12
ATOM     12  C   UNL     1       3.454  25.507 112.238  1.00  0.00     0.000 C 
BRANCH  12  13
ATOM     13  C   UNL     1       3.251  25.825 110.748  1.00  0.00    -0.000 C 
BRANCH  13  14
ATOM     14  C   UNL     1       4.463  26.536 110.125  1.00  0.00    -0.000 C 
BRANCH  14  15
ATOM     15  C   UNL     1       5.802  25.963 110.623  1.00  0.00    -0.000 C 
BRANCH  15  16
ATOM     16  C   UNL     1       7.008  26.534 109.848  1.00  0.00    -0.000 C 
BRANCH  16  17
ATOM     17  C   UNL     1       7.911  25.461 109.211  1.00  0.00    -0.000 C 
BRANCH  17  18
ATOM     18  C   UNL     1       8.102  25.622 107.690  1.00  0.00    -0.003 C 
ATOM     19  C   UNL     1       6.920  26.327 107.023  1.00  0.00     0.004 C 
ENDBRANCH  17  18
ENDBRANCH  16  17
ENDBRANCH  15  16
ENDBRANCH  14  15
ENDBRANCH  13  14
ENDBRANCH  12  13
ENDBRANCH   1  12
TORSDOF 14
ENDMDL
MODEL 5
REMARK VINA RESULT:    -4.021      2.615      3.791
REMARK INTER + INTRA:          -9.159
REMARK INTER:                  -7.152
REMARK INTRA:                  -2.007
REMARK UNBOUND:                -1.847
REMARK SMILES CCCCCCCCCCCCCC[C@@H](C)C(=O)[O-]
REMARK SMILES IDX 9 1 10 2 11 3 12 4 13 5 14 6 15 7 16 8 17 9 18 10 19 11 8 12
REMARK SMILES IDX 7 13 6 14 5 15 4 16 3 17 2 18 1 19
REMARK H PARENT
REMARK Flexibility Score: inf
ROOT
ATOM      1  C   UNL     1       2.859  25.470 112.003  1.00  0.00     0.000 C 
ENDROOT
BRANCH   1   2
ATOM      2  C   UNL     1       3.388  25.925 110.626  1.00  0.00     0.000 C 
BRANCH   2   3
ATOM      3  C   UNL     1       3.079  27.404 110.344  1.00  0.00     0.000 C 
BRANCH   3   4
ATOM      4  C   UNL     1       2.618  28.124 111.619  1.00  0.00     0.000 C 
BRANCH   4   5
ATOM      5  C   UNL     1       3.566  29.259 112.044  1.00  0.00     0.001 C 
BRANCH   5   6
ATOM      6  C   UNL     1       4.842  28.806 112.785  1.00  0.00     0.009 C 
BRANCH   6   7
ATOM      7  C   UNL     1       4.991  29.379 114.211  1.00  0.00     0.032 C 
ATOM      8  C   UNL     1       5.540  28.312 115.164  1.00  0.00     0.014 C 
BRANCH   7   9
ATOM      9  C   UNL     1       5.883  30.591 114.232  1.00  0.00     0.044 C 
ATOM     10  O   UNL     1       5.684  31.547 113.435  1.00  0.00    -0.550 OA
ATOM     11  O   UNL     1       6.934  30.663 115.139  1.00  0.00    -0.550 OA
ENDBRANCH   7   9
ENDBRANCH   6   7
ENDBRANCH   5   6
ENDBRANCH   4   5
ENDBRANCH   3   4
ENDBRANCH   2   3
ENDBRANCH   1   2
BRANCH   1  12
ATOM     12  C   UNL     1       3.952  24.913 112.929  1.00  0.00     0.000 C 
BRANCH  12  13
ATOM     13  C   UNL     1       5.298  24.719 112.213  1.00  0.00    -0.000 C 
BRANCH  13  14
ATOM     14  C   UNL     1       6.379  25.690 112.716  1.00  0.00    -0.000 C 
BRANCH  14  15
ATOM     15  C   UNL     1       7.561  25.812 111.738  1.00  0.00    -0.000 C 
BRANCH  15  16
ATOM     16  C   UNL     1       7.189  26.603 110.466  1.00  0.00    -0.000 C 
BRANCH  16  17
ATOM     17  C   UNL     1       7.354  25.806 109.158  1.00  0.00    -0.000 C 
BRANCH  17  18
ATOM     18  C   UNL     1       6.661  26.447 107.940  1.00  0.00    -0.003 C 
ATOM     19  C   UNL     1       7.343  26.084 106.620  1.00  0.00     0.004 C 
ENDBRANCH  17  18
ENDBRANCH  16  17
ENDBRANCH  15  16
ENDBRANCH  14  15
ENDBRANCH  13  14
ENDBRANCH  12  13
ENDBRANCH   1  12
TORSDOF 14
ENDMDL
MODEL 6
REMARK VINA RESULT:    -3.957      2.669      5.270
REMARK INTER + INTRA:          -9.043
REMARK INTER:                  -6.395
REMARK INTRA:                  -2.648
REMARK UNBOUND:                -1.847
REMARK SMILES CCCCCCCCCCCCCC[C@@H](C)C(=O)[O-]
REMARK SMILES IDX 9 1 10 2 11 3 12 4 13 5 14 6 15 7 16 8 17 9 18 10 19 11 8 12
REMARK SMILES IDX 7 13 6 14 5 15 4 16 3 17 2 18 1 19
REMARK H PARENT
REMARK Flexibility Score: inf
ROOT
ATOM      1  C   UNL     1       1.930  26.270 114.431  1.00  0.00     0.000 C 
ENDROOT
BRANCH   1   2
ATOM      2  C   UNL     1       1.492  25.962 112.983  1.00  0.00     0.000 C 
BRANCH   2   3
ATOM      3  C   UNL     1       2.596  25.259 112.179  1.00  0.00     0.000 C 
BRANCH   3   4
ATOM      4  C   UNL     1       2.990  26.084 110.945  1.00  0.00     0.000 C 
BRANCH   4   5
ATOM      5  C   UNL     1       4.505  26.070 110.672  1.00  0.00     0.001 C 
BRANCH   5   6
ATOM      6  C   UNL     1       5.331  25.160 111.606  1.00  0.00     0.009 C 
BRANCH   6   7
ATOM      7  C   UNL     1       6.566  25.842 112.235  1.00  0.00     0.032 C 
ATOM      8  C   UNL     1       7.393  24.826 113.031  1.00  0.00     0.014 C 
BRANCH   7   9
ATOM      9  C   UNL     1       7.429  26.499 111.193  1.00  0.00     0.044 C 
ATOM     10  O   UNL     1       8.065  25.805 110.356  1.00  0.00    -0.550 OA
ATOM     11  O   UNL     1       7.527  27.885 111.148  1.00  0.00    -0.550 OA
ENDBRANCH   7   9
ENDBRANCH   6   7
ENDBRANCH   5   6
ENDBRANCH   4   5
ENDBRANCH   3   4
ENDBRANCH   2   3
ENDBRANCH   1   2
BRANCH   1  12
ATOM     12  C   UNL     1       3.365  26.811 114.537  1.00  0.00     0.000 C 
BRANCH  12  13
ATOM     13  C   UNL     1       3.443  28.336 114.364  1.00  0.00    -0.000 C 
BRANCH  13  14
ATOM     14  C   UNL     1       4.396  28.754 113.232  1.00  0.00    -0.000 C 
BRANCH  14  15
ATOM     15  C   UNL     1       4.320  30.259 112.923  1.00  0.00    -0.000 C 
BRANCH  15  16
ATOM     16  C   UNL     1       3.022  30.639 112.179  1.00  0.00    -0.000 C 
BRANCH  16  17
ATOM     17  C   UNL     1       2.749  29.796 110.920  1.00  0.00    -0.000 C 
BRANCH  17  18
ATOM     18  C   UNL     1       1.267  29.419 110.724  1.00  0.00    -0.003 C 
ATOM     19  C   UNL     1       0.522  29.263 112.050  1.00  0.00     0.004 C 
ENDBRANCH  17  18
ENDBRANCH  16  17
ENDBRANCH  15  16
ENDBRANCH  14  15
ENDBRANCH  13  14
ENDBRANCH  12  13
ENDBRANCH   1  12
TORSDOF 14
ENDMDL
MODEL 7
REMARK VINA RESULT:    -3.948      2.082      5.090
REMARK INTER + INTRA:          -9.026
REMARK INTER:                  -6.693
REMARK INTRA:                  -2.333
REMARK UNBOUND:                -1.847
REMARK SMILES CCCCCCCCCCCCCC[C@@H](C)C(=O)[O-]
REMARK SMILES IDX 9 1 10 2 11 3 12 4 13 5 14 6 15 7 16 8 17 9 18 10 19 11 8 12
REMARK SMILES IDX 7 13 6 14 5 15 4 16 3 17 2 18 1 19
REMARK H PARENT
REMARK Flexibility Score: inf
ROOT
ATOM      1  C   UNL     1       2.716  25.345 113.905  1.00  0.00     0.000 C 
ENDROOT
BRANCH   1   2
ATOM      2  C   UNL     1       3.148  23.948 113.412  1.00  0.00     0.000 C 
BRANCH   2   3
ATOM      3  C   UNL     1       4.676  23.790 113.376  1.00  0.00     0.000 C 
BRANCH   3   4
ATOM      4  C   UNL     1       5.222  24.025 111.960  1.00  0.00     0.000 C 
BRANCH   4   5
ATOM      5  C   UNL     1       5.892  25.400 111.795  1.00  0.00     0.001 C 
BRANCH   5   6
ATOM      6  C   UNL     1       5.773  26.023 110.388  1.00  0.00     0.009 C 
BRANCH   6   7
ATOM      7  C   UNL     1       7.117  26.465 109.768  1.00  0.00     0.032 C 
ATOM      8  C   UNL     1       8.283  25.719 110.426  1.00  0.00     0.014 C 
BRANCH   7   9
ATOM      9  C   UNL     1       7.142  26.243 108.280  1.00  0.00     0.044 C 
ATOM     10  O   UNL     1       6.494  26.999 107.508  1.00  0.00    -0.550 OA
ATOM     11  O   UNL     1       7.886  25.196 107.748  1.00  0.00    -0.550 OA
ENDBRANCH   7   9
ENDBRANCH   6   7
ENDBRANCH   5   6
ENDBRANCH   4   5
ENDBRANCH   3   4
ENDBRANCH   2   3
ENDBRANCH   1   2
BRANCH   1  12
ATOM     12  C   UNL     1       1.363  25.807 113.338  1.00  0.00     0.000 C 
BRANCH  12  13
ATOM     13  C   UNL     1       1.467  27.112 112.533  1.00  0.00    -0.000 C 
BRANCH  13  14
ATOM     14  C   UNL     1       2.369  26.971 111.296  1.00  0.00    -0.000 C 
BRANCH  14  15
ATOM     15  C   UNL     1       2.922  28.325 110.813  1.00  0.00    -0.000 C 
BRANCH  15  16
ATOM     16  C   UNL     1       3.390  29.216 111.983  1.00  0.00    -0.000 C 
BRANCH  16  17
ATOM     17  C   UNL     1       4.676  28.724 112.673  1.00  0.00    -0.000 C 
BRANCH  17  18
ATOM     18  C   UNL     1       4.537  28.527 114.196  1.00  0.00    -0.003 C 
ATOM     19  C   UNL     1       5.600  27.585 114.764  1.00  0.00     0.004 C 
ENDBRANCH  17  18
ENDBRANCH  16  17
ENDBRANCH  15  16
ENDBRANCH  14  15
ENDBRANCH  13  14
ENDBRANCH  12  13
ENDBRANCH   1  12
TORSDOF 14
ENDMDL
MODEL 8
REMARK VINA RESULT:    -3.926      2.601      5.835
REMARK INTER + INTRA:          -8.986
REMARK INTER:                  -6.708
REMARK INTRA:                  -2.278
REMARK UNBOUND:                -1.847
REMARK SMILES CCCCCCCCCCCCCC[C@@H](C)C(=O)[O-]
REMARK SMILES IDX 9 1 10 2 11 3 12 4 13 5 14 6 15 7 16 8 17 9 18 10 19 11 8 12
REMARK SMILES IDX 7 13 6 14 5 15 4 16 3 17 2 18 1 19
REMARK H PARENT
REMARK Flexibility Score: inf
ROOT
ATOM      1  C   UNL     1      -0.323  23.657 114.582  1.00  0.00     0.000 C 
ENDROOT
BRANCH   1   2
ATOM      2  C   UNL     1       0.452  23.984 113.288  1.00  0.00     0.000 C 
BRANCH   2   3
ATOM      3  C   UNL     1       1.115  25.370 113.342  1.00  0.00     0.000 C 
BRANCH   3   4
ATOM      4  C   UNL     1       2.535  25.325 112.759  1.00  0.00     0.000 C 
BRANCH   4   5
ATOM      5  C   UNL     1       2.621  25.914 111.340  1.00  0.00     0.001 C 
BRANCH   5   6
ATOM      6  C   UNL     1       4.014  25.835 110.680  1.00  0.00     0.009 C 
BRANCH   6   7
ATOM      7  C   UNL     1       5.192  25.767 111.678  1.00  0.00     0.032 C 
ATOM      8  C   UNL     1       5.910  24.417 111.570  1.00  0.00     0.014 C 
BRANCH   7   9
ATOM      9  C   UNL     1       6.172  26.888 111.459  1.00  0.00     0.044 C 
ATOM     10  O   UNL     1       6.815  26.974 110.379  1.00  0.00    -0.550 OA
ATOM     11  O   UNL     1       6.371  27.839 112.453  1.00  0.00    -0.550 OA
ENDBRANCH   7   9
ENDBRANCH   6   7
ENDBRANCH   5   6
ENDBRANCH   4   5
ENDBRANCH   3   4
ENDBRANCH   2   3
ENDBRANCH   1   2
BRANCH   1  12
ATOM     12  C   UNL     1       0.519  23.812 115.859  1.00  0.00     0.000 C 
BRANCH  12  13
ATOM     13  C   UNL     1       0.765  22.476 116.578  1.00  0.00    -0.000 C 
BRANCH  13  14
ATOM     14  C   UNL     1       0.502  21.261 115.672  1.00  0.00    -0.000 C 
BRANCH  14  15
ATOM     15  C   UNL     1       1.786  20.473 115.358  1.00  0.00    -0.000 C 
BRANCH  15  16
ATOM     16  C   UNL     1       2.256  20.676 113.901  1.00  0.00    -0.000 C 
BRANCH  16  17
ATOM     17  C   UNL     1       3.309  21.787 113.729  1.00  0.00    -0.000 C 
BRANCH  17  18
ATOM     18  C   UNL     1       4.179  22.028 114.978  1.00  0.00    -0.003 C 
ATOM     19  C   UNL     1       4.237  23.504 115.376  1.00  0.00     0.004 C 
ENDBRANCH  17  18
ENDBRANCH  16  17
ENDBRANCH  15  16
ENDBRANCH  14  15
ENDBRANCH  13  14
ENDBRANCH  12  13
ENDBRANCH   1  12
TORSDOF 14
ENDMDL
MODEL 9
REMARK VINA RESULT:    -3.909      2.270      5.687
REMARK INTER + INTRA:          -8.955
REMARK INTER:                  -6.698
REMARK INTRA:                  -2.257
REMARK UNBOUND:                -1.847
REMARK SMILES CCCCCCCCCCCCCC[C@@H](C)C(=O)[O-]
REMARK SMILES IDX 9 1 10 2 11 3 12 4 13 5 14 6 15 7 16 8 17 9 18 10 19 11 8 12
REMARK SMILES IDX 7 13 6 14 5 15 4 16 3 17 2 18 1 19
REMARK H PARENT
REMARK Flexibility Score: inf
ROOT
ATOM      1  C   UNL     1       1.510  27.400 112.541  1.00  0.00     0.000 C 
ENDROOT
BRANCH   1   2
ATOM      2  C   UNL     1       1.829  28.172 111.242  1.00  0.00     0.000 C 
BRANCH   2   3
ATOM      3  C   UNL     1       2.901  27.468 110.396  1.00  0.00     0.000 C 
BRANCH   3   4
ATOM      4  C   UNL     1       2.956  25.966 110.712  1.00  0.00     0.000 C 
BRANCH   4   5
ATOM      5  C   UNL     1       4.372  25.477 111.066  1.00  0.00     0.001 C 
BRANCH   5   6
ATOM      6  C   UNL     1       5.452  26.578 111.117  1.00  0.00     0.009 C 
BRANCH   6   7
ATOM      7  C   UNL     1       6.898  26.051 111.247  1.00  0.00     0.032 C 
ATOM      8  C   UNL     1       6.895  24.568 111.636  1.00  0.00     0.014 C 
BRANCH   7   9
ATOM      9  C   UNL     1       7.677  26.245 109.974  1.00  0.00     0.044 C 
ATOM     10  O   UNL     1       8.904  25.967 109.925  1.00  0.00    -0.550 OA
ATOM     11  O   UNL     1       7.039  26.734 108.840  1.00  0.00    -0.550 OA
ENDBRANCH   7   9
ENDBRANCH   6   7
ENDBRANCH   5   6
ENDBRANCH   4   5
ENDBRANCH   3   4
ENDBRANCH   2   3
ENDBRANCH   1   2
BRANCH   1  12
ATOM     12  C   UNL     1       2.163  28.008 113.793  1.00  0.00     0.000 C 
BRANCH  12  13
ATOM     13  C   UNL     1       2.696  26.943 114.765  1.00  0.00    -0.000 C 
BRANCH  13  14
ATOM     14  C   UNL     1       4.187  26.640 114.547  1.00  0.00    -0.000 C 
BRANCH  14  15
ATOM     15  C   UNL     1       4.536  25.168 114.831  1.00  0.00    -0.000 C 
BRANCH  15  16
ATOM     16  C   UNL     1       3.491  24.195 114.246  1.00  0.00    -0.000 C 
BRANCH  16  17
ATOM     17  C   UNL     1       4.084  22.871 113.728  1.00  0.00    -0.000 C 
BRANCH  17  18
ATOM     18  C   UNL     1       3.081  21.701 113.698  1.00  0.00    -0.003 C 
ATOM     19  C   UNL     1       1.683  22.116 114.159  1.00  0.00     0.004 C 
ENDBRANCH  17  18
ENDBRANCH  16  17
ENDBRANCH  15  16
ENDBRANCH  14  15
ENDBRANCH  13  14
ENDBRANCH  12  13
ENDBRANCH   1  12
TORSDOF 14
ENDMDL
