MODEL 1
REMARK VINA RESULT:    -4.875      0.000      0.000
REMARK INTER + INTRA:          -5.579
REMARK INTER:                  -5.445
REMARK INTRA:                  -0.134
REMARK UNBOUND:                -0.134
REMARK SMILES O=C([O-])C=Cc1ccccc1
REMARK SMILES IDX 4 1 5 2 2 3 1 4 3 5 6 6 7 7 11 8 8 9 10 10 9 11
REMARK H PARENT
REMARK Flexibility Score: inf
ROOT
ATOM      1  C   UNL     1      15.725  13.347  38.748  1.00  0.00     0.025 C 
ATOM      2  C   UNL     1      14.596  13.573  38.060  1.00  0.00     0.010 C 
ENDROOT
BRANCH   1   3
ATOM      3  C   UNL     1      15.881  13.758  40.155  1.00  0.00     0.064 C 
ATOM      4  O   UNL     1      14.891  14.125  40.842  1.00  0.00    -0.545 OA
ATOM      5  O   UNL     1      17.143  13.739  40.734  1.00  0.00    -0.545 OA
ENDBRANCH   1   3
BRANCH   2   6
ATOM      6  C   UNL     1      14.375  13.184  36.640  1.00  0.00    -0.026 A 
ATOM      7  C   UNL     1      14.282  11.813  36.335  1.00  0.00     0.008 A 
ATOM      8  C   UNL     1      14.256  14.119  35.588  1.00  0.00     0.008 A 
ATOM      9  C   UNL     1      14.075  11.386  35.020  1.00  0.00     0.001 A 
ATOM     10  C   UNL     1      14.049  13.685  34.275  1.00  0.00     0.001 A 
ATOM     11  C   UNL     1      13.959  12.321  33.991  1.00  0.00     0.000 A 
ENDBRANCH   2   6
TORSDOF 2
ENDMDL
MODEL 2
REMARK VINA RESULT:    -4.830      0.116      1.462
REMARK INTER + INTRA:          -5.528
REMARK INTER:                  -5.399
REMARK INTRA:                  -0.129
REMARK UNBOUND:                -0.134
REMARK SMILES O=C([O-])C=Cc1ccccc1
REMARK SMILES IDX 4 1 5 2 2 3 1 4 3 5 6 6 7 7 11 8 8 9 10 10 9 11
REMARK H PARENT
REMARK Flexibility Score: inf
ROOT
ATOM      1  C   UNL     1      15.755  13.392  38.794  1.00  0.00     0.025 C 
ATOM      2  C   UNL     1      14.602  13.514  38.120  1.00  0.00     0.010 C 
ENDROOT
BRANCH   1   3
ATOM      3  C   UNL     1      15.889  13.813  40.199  1.00  0.00     0.064 C 
ATOM      4  O   UNL     1      14.881  14.123  40.888  1.00  0.00    -0.545 OA
ATOM      5  O   UNL     1      17.151  13.869  40.777  1.00  0.00    -0.545 OA
ENDBRANCH   1   3
BRANCH   2   6
ATOM      6  C   UNL     1      14.401  13.108  36.701  1.00  0.00    -0.026 A 
ATOM      7  C   UNL     1      14.317  14.122  35.728  1.00  0.00     0.008 A 
ATOM      8  C   UNL     1      14.289  11.763  36.285  1.00  0.00     0.008 A 
ATOM      9  C   UNL     1      14.129  13.805  34.380  1.00  0.00     0.001 A 
ATOM     10  C   UNL     1      14.101  11.452  34.935  1.00  0.00     0.001 A 
ATOM     11  C   UNL     1      14.021  12.471  33.983  1.00  0.00     0.000 A 
ENDBRANCH   2   6
TORSDOF 2
ENDMDL
MODEL 3
REMARK VINA RESULT:    -4.799      3.374      5.340
REMARK INTER + INTRA:          -5.494
REMARK INTER:                  -5.359
REMARK INTRA:                  -0.135
REMARK UNBOUND:                -0.134
REMARK SMILES O=C([O-])C=Cc1ccccc1
REMARK SMILES IDX 4 1 5 2 2 3 1 4 3 5 6 6 7 7 11 8 8 9 10 10 9 11
REMARK H PARENT
REMARK Flexibility Score: inf
ROOT
ATOM      1  C   UNL     1      13.988  11.974  35.971  1.00  0.00     0.025 C 
ATOM      2  C   UNL     1      14.183  13.162  36.563  1.00  0.00     0.010 C 
ENDROOT
BRANCH   1   3
ATOM      3  C   UNL     1      13.378  11.855  34.635  1.00  0.00     0.064 C 
ATOM      4  O   UNL     1      13.540  10.822  33.933  1.00  0.00    -0.545 OA
ATOM      5  O   UNL     1      12.609  12.900  34.142  1.00  0.00    -0.545 OA
ENDBRANCH   1   3
BRANCH   2   6
ATOM      6  C   UNL     1      14.793  13.351  37.908  1.00  0.00    -0.026 A 
ATOM      7  C   UNL     1      16.101  12.875  38.115  1.00  0.00     0.008 A 
ATOM      8  C   UNL     1      14.125  13.980  38.982  1.00  0.00     0.008 A 
ATOM      9  C   UNL     1      16.727  13.023  39.356  1.00  0.00     0.001 A 
ATOM     10  C   UNL     1      14.758  14.125  40.221  1.00  0.00     0.001 A 
ATOM     11  C   UNL     1      16.056  13.647  40.408  1.00  0.00     0.000 A 
ENDBRANCH   2   6
TORSDOF 2
ENDMDL
MODEL 4
REMARK VINA RESULT:    -4.534     20.338     22.214
REMARK INTER + INTRA:          -5.198
REMARK INTER:                  -5.057
REMARK INTRA:                  -0.141
REMARK UNBOUND:                -0.134
REMARK SMILES O=C([O-])C=Cc1ccccc1
REMARK SMILES IDX 4 1 5 2 2 3 1 4 3 5 6 6 7 7 11 8 8 9 10 10 9 11
REMARK H PARENT
REMARK Flexibility Score: inf
ROOT
ATOM      1  C   UNL     1       7.792  -1.191  23.982  1.00  0.00     0.025 C 
ATOM      2  C   UNL     1       7.439  -2.354  24.551  1.00  0.00     0.010 C 
ENDROOT
BRANCH   1   3
ATOM      3  C   UNL     1       9.088  -0.547  24.256  1.00  0.00     0.064 C 
ATOM      4  O   UNL     1      10.023  -1.174  24.821  1.00  0.00    -0.545 OA
ATOM      5  O   UNL     1       9.283   0.777  23.884  1.00  0.00    -0.545 OA
ENDBRANCH   1   3
BRANCH   2   6
ATOM      6  C   UNL     1       6.147  -3.056  24.317  1.00  0.00    -0.026 A 
ATOM      7  C   UNL     1       4.979  -2.276  24.214  1.00  0.00     0.008 A 
ATOM      8  C   UNL     1       6.035  -4.458  24.195  1.00  0.00     0.008 A 
ATOM      9  C   UNL     1       3.736  -2.877  23.994  1.00  0.00     0.001 A 
ATOM     10  C   UNL     1       4.788  -5.053  23.975  1.00  0.00     0.001 A 
ATOM     11  C   UNL     1       3.641  -4.265  23.875  1.00  0.00     0.000 A 
ENDBRANCH   2   6
TORSDOF 2
ENDMDL
MODEL 5
REMARK VINA RESULT:    -4.484     20.854     22.702
REMARK INTER + INTRA:          -5.142
REMARK INTER:                  -5.009
REMARK INTRA:                  -0.133
REMARK UNBOUND:                -0.134
REMARK SMILES O=C([O-])C=Cc1ccccc1
REMARK SMILES IDX 4 1 5 2 2 3 1 4 3 5 6 6 7 7 11 8 8 9 10 10 9 11
REMARK H PARENT
REMARK Flexibility Score: inf
ROOT
ATOM      1  C   UNL     1       5.301  -3.900  23.916  1.00  0.00     0.025 C 
ATOM      2  C   UNL     1       5.636  -2.664  24.317  1.00  0.00     0.010 C 
ENDROOT
BRANCH   1   3
ATOM      3  C   UNL     1       3.915  -4.395  23.978  1.00  0.00     0.064 C 
ATOM      4  O   UNL     1       3.655  -5.624  23.882  1.00  0.00    -0.545 OA
ATOM      5  O   UNL     1       2.875  -3.490  24.144  1.00  0.00    -0.545 OA
ENDBRANCH   1   3
BRANCH   2   6
ATOM      6  C   UNL     1       7.015  -2.104  24.281  1.00  0.00    -0.026 A 
ATOM      7  C   UNL     1       7.166  -0.708  24.388  1.00  0.00     0.008 A 
ATOM      8  C   UNL     1       8.174  -2.900  24.143  1.00  0.00     0.008 A 
ATOM      9  C   UNL     1       8.436  -0.123  24.361  1.00  0.00     0.001 A 
ATOM     10  C   UNL     1       9.441  -2.308  24.117  1.00  0.00     0.001 A 
ATOM     11  C   UNL     1       9.572  -0.922  24.226  1.00  0.00     0.000 A 
ENDBRANCH   2   6
TORSDOF 2
ENDMDL
MODEL 6
REMARK VINA RESULT:    -4.182     20.423     22.252
REMARK INTER + INTRA:          -4.805
REMARK INTER:                  -4.672
REMARK INTRA:                  -0.133
REMARK UNBOUND:                -0.134
REMARK SMILES O=C([O-])C=Cc1ccccc1
REMARK SMILES IDX 4 1 5 2 2 3 1 4 3 5 6 6 7 7 11 8 8 9 10 10 9 11
REMARK H PARENT
REMARK Flexibility Score: inf
ROOT
ATOM      1  C   UNL     1       7.896  -1.348  24.493  1.00  0.00     0.025 C 
ATOM      2  C   UNL     1       7.653  -2.624  24.158  1.00  0.00     0.010 C 
ENDROOT
BRANCH   1   3
ATOM      3  C   UNL     1       9.263  -0.802  24.559  1.00  0.00     0.064 C 
ATOM      4  O   UNL     1      10.246  -1.535  24.847  1.00  0.00    -0.545 OA
ATOM      5  O   UNL     1       9.472   0.546  24.299  1.00  0.00    -0.545 OA
ENDBRANCH   1   3
BRANCH   2   6
ATOM      6  C   UNL     1       6.298  -3.237  24.073  1.00  0.00    -0.026 A 
ATOM      7  C   UNL     1       6.211  -4.637  23.958  1.00  0.00     0.008 A 
ATOM      8  C   UNL     1       5.103  -2.486  24.100  1.00  0.00     0.008 A 
ATOM      9  C   UNL     1       4.968  -5.270  23.875  1.00  0.00     0.001 A 
ATOM     10  C   UNL     1       3.862  -3.126  24.017  1.00  0.00     0.001 A 
ATOM     11  C   UNL     1       3.794  -4.515  23.904  1.00  0.00     0.000 A 
ENDBRANCH   2   6
TORSDOF 2
ENDMDL
MODEL 7
REMARK VINA RESULT:    -3.312      2.681      3.889
REMARK INTER + INTRA:          -3.833
REMARK INTER:                  -3.704
REMARK INTRA:                  -0.128
REMARK UNBOUND:                -0.134
REMARK SMILES O=C([O-])C=Cc1ccccc1
REMARK SMILES IDX 4 1 5 2 2 3 1 4 3 5 6 6 7 7 11 8 8 9 10 10 9 11
REMARK H PARENT
REMARK Flexibility Score: inf
ROOT
ATOM      1  C   UNL     1      17.732  12.909  41.373  1.00  0.00     0.025 C 
ATOM      2  C   UNL     1      17.056  13.887  40.752  1.00  0.00     0.010 C 
ENDROOT
BRANCH   1   3
ATOM      3  C   UNL     1      18.690  13.186  42.458  1.00  0.00     0.064 C 
ATOM      4  O   UNL     1      19.529  14.120  42.367  1.00  0.00    -0.545 OA
ATOM      5  O   UNL     1      18.666  12.402  43.605  1.00  0.00    -0.545 OA
ENDBRANCH   1   3
BRANCH   2   6
ATOM      6  C   UNL     1      16.077  13.674  39.650  1.00  0.00    -0.026 A 
ATOM      7  C   UNL     1      14.757  14.125  39.841  1.00  0.00     0.008 A 
ATOM      8  C   UNL     1      16.405  13.045  38.429  1.00  0.00     0.008 A 
ATOM      9  C   UNL     1      13.793  13.954  38.844  1.00  0.00     0.001 A 
ATOM     10  C   UNL     1      15.436  12.878  37.435  1.00  0.00     0.001 A 
ATOM     11  C   UNL     1      14.132  13.331  37.642  1.00  0.00     0.000 A 
ENDBRANCH   2   6
TORSDOF 2
ENDMDL
