MODEL 1
REMARK VINA RESULT:    -3.369      0.000      0.000
REMARK INTER + INTRA:          -5.521
REMARK INTER:                  -5.142
REMARK INTRA:                  -0.379
REMARK UNBOUND:                -0.379
REMARK SMILES CC1=CCC[C@H](C)C(=O)C[C@H](C(C)C)C(=O)C1
REMARK SMILES IDX 8 1 9 2 6 3 7 4 5 5 4 6 3 7 2 8 1 9 10 11 11 12 15 13 16 14
REMARK SMILES IDX 17 15 12 17 13 18 14 19
REMARK H PARENT
REMARK Flexibility Score: 70.00
ROOT
ATOM      1  C   UNL     1      32.117  71.314 106.347  1.00  0.00     0.136 C 
ATOM      2  O   UNL     1      31.209  72.066 106.668  1.00  0.00    -0.299 OA
ENDROOT
BRANCH   1   3
ATOM      3  C   UNL     1      31.859  69.819 106.271  1.00  0.00     0.053 C 
ATOM      4  C   UNL     1      31.242  69.310 107.582  1.00  0.00     0.016 C 
BRANCH   3   5
ATOM      5  C   UNL     1      30.944  69.496 105.069  1.00  0.00     0.015 C 
BRANCH   5   6
ATOM      6  C   UNL     1      31.714  69.506 103.734  1.00  0.00     0.028 C 
BRANCH   6   7
ATOM      7  C   UNL     1      32.839  68.501 103.756  1.00  0.00    -0.028 C 
ATOM      8  C   UNL     1      34.152  68.813 103.647  1.00  0.00    -0.070 CG0
ATOM      9  C   UNL     1      35.147  67.680 103.604  1.00  0.00     0.039 C 
ATOM     10  G   UNL     1      34.657  70.245 103.589  1.00  0.00     0.000 G0
ENDBRANCH   6   7
ENDBRANCH   5   6
ENDBRANCH   3   5
ENDBRANCH   1   3
BRANCH   1  11
ATOM     11  C   UNL     1      33.481  71.888 106.036  1.00  0.00     0.087 C 
BRANCH  11  12
ATOM     12  C   UNL     1      34.671  70.882 106.156  1.00  0.00     0.066 C 
BRANCH  12  13
ATOM     13  C   UNL     1      35.409  70.639 104.843  1.00  0.00     0.140 C 
ATOM     14  O   UNL     1      36.629  70.683 104.808  1.00  0.00    -0.299 OA
BRANCH  13  15
ATOM     15  C   UNL     1      34.652  70.254 103.593  1.00  0.00     0.106 CG0
ATOM     16  G   UNL     1      34.175  68.812 103.625  1.00  0.00     0.000 G0
ENDBRANCH  13  15
ENDBRANCH  12  13
BRANCH  12  17
ATOM     17  C   UNL     1      35.661  71.168 107.333  1.00  0.00    -0.006 C 
ATOM     18  C   UNL     1      35.484  70.161 108.482  1.00  0.00     0.008 C 
ATOM     19  C   UNL     1      35.595  72.602 107.885  1.00  0.00     0.008 C 
ENDBRANCH  12  17
ENDBRANCH  11  12
ENDBRANCH   1  11
TORSDOF 1
ENDMDL
MODEL 2
REMARK VINA RESULT:    -3.111      1.902      3.983
REMARK INTER + INTRA:          -5.127
REMARK INTER:                  -4.730
REMARK INTRA:                  -0.397
REMARK UNBOUND:                -0.379
REMARK SMILES CC1=CCC[C@H](C)C(=O)C[C@H](C(C)C)C(=O)C1
REMARK SMILES IDX 8 1 9 2 6 3 7 4 5 5 4 6 3 7 2 8 1 9 10 11 11 12 15 13 16 14
REMARK SMILES IDX 17 15 12 17 13 18 14 19
REMARK H PARENT
REMARK Flexibility Score: 70.00
ROOT
ATOM      1  C   UNL     1      31.989  68.370 107.556  1.00  0.00     0.136 C 
ATOM      2  O   UNL     1      31.979  68.355 108.778  1.00  0.00    -0.299 OA
ENDROOT
BRANCH   1   3
ATOM      3  C   UNL     1      30.902  69.122 106.808  1.00  0.00     0.053 C 
ATOM      4  C   UNL     1      29.514  68.604 107.209  1.00  0.00     0.016 C 
BRANCH   3   5
ATOM      5  C   UNL     1      31.024  70.639 107.072  1.00  0.00     0.015 C 
BRANCH   5   6
ATOM      6  C   UNL     1      31.726  71.376 105.915  1.00  0.00     0.028 C 
BRANCH   6   7
ATOM      7  C   UNL     1      33.066  71.910 106.355  1.00  0.00    -0.028 C 
ATOM      8  C   UNL     1      34.259  71.484 105.876  1.00  0.00    -0.070 CG0
ATOM      9  C   UNL     1      35.512  72.064 106.482  1.00  0.00     0.039 C 
ATOM     10  G   UNL     1      34.381  70.473 104.747  1.00  0.00     0.000 G0
ENDBRANCH   6   7
ENDBRANCH   5   6
ENDBRANCH   3   5
ENDBRANCH   1   3
BRANCH   1  11
ATOM     11  C   UNL     1      33.083  67.635 106.814  1.00  0.00     0.087 C 
BRANCH  11  12
ATOM     12  C   UNL     1      33.351  68.133 105.357  1.00  0.00     0.066 C 
BRANCH  12  13
ATOM     13  C   UNL     1      34.563  69.052 105.233  1.00  0.00     0.140 C 
ATOM     14  O   UNL     1      35.684  68.622 105.462  1.00  0.00    -0.299 OA
BRANCH  13  15
ATOM     15  C   UNL     1      34.408  70.471 104.739  1.00  0.00     0.106 CG0
ATOM     16  G   UNL     1      34.240  71.466 105.876  1.00  0.00     0.000 G0
ENDBRANCH  13  15
ENDBRANCH  12  13
BRANCH  12  17
ATOM     17  C   UNL     1      33.358  67.011 104.267  1.00  0.00    -0.006 C 
ATOM     18  C   UNL     1      33.205  67.594 102.852  1.00  0.00     0.008 C 
ATOM     19  C   UNL     1      32.317  65.903 104.490  1.00  0.00     0.008 C 
ENDBRANCH  12  17
ENDBRANCH  11  12
ENDBRANCH   1  11
TORSDOF 1
ENDMDL
MODEL 3
REMARK VINA RESULT:    -3.072      2.545      4.086
REMARK INTER + INTRA:          -5.068
REMARK INTER:                  -4.796
REMARK INTRA:                  -0.271
REMARK UNBOUND:                -0.379
REMARK SMILES CC1=CCC[C@H](C)C(=O)C[C@H](C(C)C)C(=O)C1
REMARK SMILES IDX 8 1 9 2 6 3 7 4 5 5 4 6 3 7 2 8 1 9 10 11 11 12 15 13 16 14
REMARK SMILES IDX 17 15 12 17 13 18 14 19
REMARK H PARENT
REMARK Flexibility Score: 70.00
ROOT
ATOM      1  C   UNL     1      31.292  70.115 104.780  1.00  0.00     0.136 C 
ATOM      2  O   UNL     1      30.599  70.757 104.005  1.00  0.00    -0.299 OA
ENDROOT
BRANCH   1   3
ATOM      3  C   UNL     1      31.369  70.534 106.238  1.00  0.00     0.053 C 
ATOM      4  C   UNL     1      31.505  72.059 106.354  1.00  0.00     0.016 C 
BRANCH   3   5
ATOM      5  C   UNL     1      30.126  70.031 107.005  1.00  0.00     0.015 C 
BRANCH   5   6
ATOM      6  C   UNL     1      30.261  68.553 107.423  1.00  0.00     0.028 C 
BRANCH   6   7
ATOM      7  C   UNL     1      31.527  68.332 108.210  1.00  0.00    -0.028 C 
ATOM      8  C   UNL     1      32.496  67.446 107.877  1.00  0.00    -0.070 CG0
ATOM      9  C   UNL     1      33.663  67.287 108.818  1.00  0.00     0.039 C 
ATOM     10  G   UNL     1      32.462  66.632 106.594  1.00  0.00     0.000 G0
ENDBRANCH   6   7
ENDBRANCH   5   6
ENDBRANCH   3   5
ENDBRANCH   1   3
BRANCH   1  11
ATOM     11  C   UNL     1      32.061  68.917 104.271  1.00  0.00     0.087 C 
BRANCH  11  12
ATOM     12  C   UNL     1      33.360  68.570 105.067  1.00  0.00     0.066 C 
BRANCH  12  13
ATOM     13  C   UNL     1      33.424  67.121 105.542  1.00  0.00     0.140 C 
ATOM     14  O   UNL     1      34.301  66.379 105.126  1.00  0.00    -0.299 OA
BRANCH  13  15
ATOM     15  C   UNL     1      32.467  66.610 106.593  1.00  0.00     0.106 CG0
ATOM     16  G   UNL     1      32.491  67.454 107.858  1.00  0.00     0.000 G0
ENDBRANCH  13  15
ENDBRANCH  12  13
BRANCH  12  17
ATOM     17  C   UNL     1      34.694  69.016 104.382  1.00  0.00    -0.006 C 
ATOM     18  C   UNL     1      35.482  70.002 105.262  1.00  0.00     0.008 C 
ATOM     19  C   UNL     1      34.518  69.604 102.972  1.00  0.00     0.008 C 
ENDBRANCH  12  17
ENDBRANCH  11  12
ENDBRANCH   1  11
TORSDOF 1
ENDMDL
MODEL 4
REMARK VINA RESULT:    -2.940      2.129      5.275
REMARK INTER + INTRA:          -4.866
REMARK INTER:                  -4.863
REMARK INTRA:                  -0.002
REMARK UNBOUND:                -0.379
REMARK SMILES CC1=CCC[C@H](C)C(=O)C[C@H](C(C)C)C(=O)C1
REMARK SMILES IDX 8 1 9 2 6 3 7 4 5 5 4 6 3 7 2 8 1 9 10 11 11 12 15 13 16 14
REMARK SMILES IDX 17 15 12 17 13 18 14 19
REMARK H PARENT
REMARK Flexibility Score: 70.00
ROOT
ATOM      1  C   UNL     1      34.856  69.915 103.116  1.00  0.00     0.136 C 
ATOM      2  O   UNL     1      35.385  70.283 102.077  1.00  0.00    -0.299 OA
ENDROOT
BRANCH   1   3
ATOM      3  C   UNL     1      35.554  70.166 104.441  1.00  0.00     0.053 C 
ATOM      4  C   UNL     1      37.056  70.398 104.224  1.00  0.00     0.016 C 
BRANCH   3   5
ATOM      5  C   UNL     1      34.909  71.369 105.165  1.00  0.00     0.015 C 
BRANCH   5   6
ATOM      6  C   UNL     1      34.326  70.977 106.537  1.00  0.00     0.028 C 
BRANCH   6   7
ATOM      7  C   UNL     1      32.922  71.503 106.693  1.00  0.00    -0.028 C 
ATOM      8  C   UNL     1      31.802  70.746 106.604  1.00  0.00    -0.070 CG0
ATOM      9  C   UNL     1      30.468  71.443 106.702  1.00  0.00     0.039 C 
ATOM     10  G   UNL     1      31.839  69.236 106.436  1.00  0.00     0.000 G0
ENDBRANCH   6   7
ENDBRANCH   5   6
ENDBRANCH   3   5
ENDBRANCH   1   3
BRANCH   1  11
ATOM     11  C   UNL     1      33.518  69.213 103.059  1.00  0.00     0.087 C 
BRANCH  11  12
ATOM     12  C   UNL     1      33.157  68.361 104.318  1.00  0.00     0.066 C 
BRANCH  12  13
ATOM     13  C   UNL     1      31.853  68.778 104.992  1.00  0.00     0.140 C 
ATOM     14  O   UNL     1      30.795  68.689 104.387  1.00  0.00    -0.299 OA
BRANCH  13  15
ATOM     15  C   UNL     1      31.838  69.219 106.437  1.00  0.00     0.106 CG0
ATOM     16  G   UNL     1      31.805  70.732 106.581  1.00  0.00     0.000 G0
ENDBRANCH  13  15
ENDBRANCH  12  13
BRANCH  12  17
ATOM     17  C   UNL     1      33.235  66.813 104.112  1.00  0.00    -0.006 C 
ATOM     18  C   UNL     1      32.922  66.417 102.659  1.00  0.00     0.008 C 
ATOM     19  C   UNL     1      32.354  65.999 105.074  1.00  0.00     0.008 C 
ENDBRANCH  12  17
ENDBRANCH  11  12
ENDBRANCH   1  11
TORSDOF 1
ENDMDL
MODEL 5
REMARK VINA RESULT:    -2.890      2.388      4.421
REMARK INTER + INTRA:          -4.790
REMARK INTER:                  -4.594
REMARK INTRA:                  -0.195
REMARK UNBOUND:                -0.379
REMARK SMILES CC1=CCC[C@H](C)C(=O)C[C@H](C(C)C)C(=O)C1
REMARK SMILES IDX 8 1 9 2 6 3 7 4 5 5 4 6 3 7 2 8 1 9 10 11 11 12 15 13 16 14
REMARK SMILES IDX 17 15 12 17 13 18 14 19
REMARK H PARENT
REMARK Flexibility Score: 70.00
ROOT
ATOM      1  C   UNL     1      34.445  70.409 105.337  1.00  0.00     0.136 C 
ATOM      2  O   UNL     1      34.893  71.339 104.682  1.00  0.00    -0.299 OA
ENDROOT
BRANCH   1   3
ATOM      3  C   UNL     1      33.913  70.666 106.736  1.00  0.00     0.053 C 
ATOM      4  C   UNL     1      35.070  70.835 107.731  1.00  0.00     0.016 C 
BRANCH   3   5
ATOM      5  C   UNL     1      32.997  71.910 106.739  1.00  0.00     0.015 C 
BRANCH   5   6
ATOM      6  C   UNL     1      31.626  71.623 106.097  1.00  0.00     0.028 C 
BRANCH   6   7
ATOM      7  C   UNL     1      30.910  70.519 106.833  1.00  0.00    -0.028 C 
ATOM      8  C   UNL     1      30.707  69.273 106.343  1.00  0.00    -0.070 CG0
ATOM      9  C   UNL     1      29.898  68.309 107.174  1.00  0.00     0.039 C 
ATOM     10  G   UNL     1      31.276  68.808 105.013  1.00  0.00     0.000 G0
ENDBRANCH   6   7
ENDBRANCH   5   6
ENDBRANCH   3   5
ENDBRANCH   1   3
BRANCH   1  11
ATOM     11  C   UNL     1      34.433  69.019 104.740  1.00  0.00     0.087 C 
BRANCH  11  12
ATOM     12  C   UNL     1      33.701  67.934 105.593  1.00  0.00     0.066 C 
BRANCH  12  13
ATOM     13  C   UNL     1      32.269  67.659 105.144  1.00  0.00     0.140 C 
ATOM     14  O   UNL     1      31.891  66.510 104.973  1.00  0.00    -0.299 OA
BRANCH  13  15
ATOM     15  C   UNL     1      31.278  68.789 104.992  1.00  0.00     0.106 CG0
ATOM     16  G   UNL     1      30.720  69.254 106.328  1.00  0.00     0.000 G0
ENDBRANCH  13  15
ENDBRANCH  12  13
BRANCH  12  17
ATOM     17  C   UNL     1      34.507  66.610 105.808  1.00  0.00    -0.006 C 
ATOM     18  C   UNL     1      35.633  66.791 106.840  1.00  0.00     0.008 C 
ATOM     19  C   UNL     1      35.077  65.996 104.519  1.00  0.00     0.008 C 
ENDBRANCH  12  17
ENDBRANCH  11  12
ENDBRANCH   1  11
TORSDOF 1
ENDMDL
MODEL 6
REMARK VINA RESULT:    -2.850      1.928      3.881
REMARK INTER + INTRA:          -4.728
REMARK INTER:                  -4.415
REMARK INTRA:                  -0.313
REMARK UNBOUND:                -0.379
REMARK SMILES CC1=CCC[C@H](C)C(=O)C[C@H](C(C)C)C(=O)C1
REMARK SMILES IDX 8 1 9 2 6 3 7 4 5 5 4 6 3 7 2 8 1 9 10 11 11 12 15 13 16 14
REMARK SMILES IDX 17 15 12 17 13 18 14 19
REMARK H PARENT
REMARK Flexibility Score: 70.00
ROOT
ATOM      1  C   UNL     1      34.659  70.043 107.960  1.00  0.00     0.136 C 
ATOM      2  O   UNL     1      35.211  69.815 109.027  1.00  0.00    -0.299 OA
ENDROOT
BRANCH   1   3
ATOM      3  C   UNL     1      35.032  71.290 107.176  1.00  0.00     0.053 C 
ATOM      4  C   UNL     1      35.193  72.491 108.119  1.00  0.00     0.016 C 
BRANCH   3   5
ATOM      5  C   UNL     1      36.324  71.046 106.367  1.00  0.00     0.015 C 
BRANCH   5   6
ATOM      6  C   UNL     1      36.092  71.174 104.849  1.00  0.00     0.028 C 
BRANCH   6   7
ATOM      7  C   UNL     1      36.463  69.896 104.140  1.00  0.00    -0.028 C 
ATOM      8  C   UNL     1      35.574  68.989 103.670  1.00  0.00    -0.070 CG0
ATOM      9  C   UNL     1      36.113  67.721 103.058  1.00  0.00     0.039 C 
ATOM     10  G   UNL     1      34.071  69.210 103.714  1.00  0.00     0.000 G0
ENDBRANCH   6   7
ENDBRANCH   5   6
ENDBRANCH   3   5
ENDBRANCH   1   3
BRANCH   1  11
ATOM     11  C   UNL     1      33.614  69.079 107.444  1.00  0.00     0.087 C 
BRANCH  11  12
ATOM     12  C   UNL     1      32.962  69.471 106.079  1.00  0.00     0.066 C 
BRANCH  12  13
ATOM     13  C   UNL     1      33.403  68.594 104.911  1.00  0.00     0.140 C 
ATOM     14  O   UNL     1      33.157  67.397 104.916  1.00  0.00    -0.299 OA
BRANCH  13  15
ATOM     15  C   UNL     1      34.064  69.203 103.696  1.00  0.00     0.106 CG0
ATOM     16  G   UNL     1      35.568  68.984 103.684  1.00  0.00     0.000 G0
ENDBRANCH  13  15
ENDBRANCH  12  13
BRANCH  12  17
ATOM     17  C   UNL     1      31.408  69.650 106.117  1.00  0.00    -0.006 C 
ATOM     18  C   UNL     1      30.959  70.886 105.320  1.00  0.00     0.008 C 
ATOM     19  C   UNL     1      30.809  69.698 107.533  1.00  0.00     0.008 C 
ENDBRANCH  12  17
ENDBRANCH  11  12
ENDBRANCH   1  11
TORSDOF 1
ENDMDL
MODEL 7
REMARK VINA RESULT:    -2.839     11.107     12.740
REMARK INTER + INTRA:          -4.712
REMARK INTER:                  -4.247
REMARK INTRA:                  -0.465
REMARK UNBOUND:                -0.379
REMARK SMILES CC1=CCC[C@H](C)C(=O)C[C@H](C(C)C)C(=O)C1
REMARK SMILES IDX 8 1 9 2 6 3 7 4 5 5 4 6 3 7 2 8 1 9 10 11 11 12 15 13 16 14
REMARK SMILES IDX 17 15 12 17 13 18 14 19
REMARK H PARENT
REMARK Flexibility Score: 70.00
ROOT
ATOM      1  C   UNL     1      32.569  59.870  98.245  1.00  0.00     0.136 C 
ATOM      2  O   UNL     1      33.411  58.991  98.131  1.00  0.00    -0.299 OA
ENDROOT
BRANCH   1   3
ATOM      3  C   UNL     1      33.005  61.285  98.584  1.00  0.00     0.053 C 
ATOM      4  C   UNL     1      33.853  61.295  99.865  1.00  0.00     0.016 C 
BRANCH   3   5
ATOM      5  C   UNL     1      33.785  61.901  97.402  1.00  0.00     0.015 C 
BRANCH   5   6
ATOM      6  C   UNL     1      32.859  62.277  96.229  1.00  0.00     0.028 C 
BRANCH   6   7
ATOM      7  C   UNL     1      31.880  63.347  96.641  1.00  0.00    -0.028 C 
ATOM      8  C   UNL     1      30.533  63.202  96.639  1.00  0.00    -0.070 CG0
ATOM      9  C   UNL     1      29.691  64.399  97.001  1.00  0.00     0.039 C 
ATOM     10  G   UNL     1      29.847  61.885  96.311  1.00  0.00     0.000 G0
ENDBRANCH   6   7
ENDBRANCH   5   6
ENDBRANCH   3   5
ENDBRANCH   1   3
BRANCH   1  11
ATOM     11  C   UNL     1      31.109  59.529  98.048  1.00  0.00     0.087 C 
BRANCH  11  12
ATOM     12  C   UNL     1      30.098  60.584  98.600  1.00  0.00     0.066 C 
BRANCH  12  13
ATOM     13  C   UNL     1      29.217  61.215  97.525  1.00  0.00     0.140 C 
ATOM     14  O   UNL     1      28.004  61.252  97.671  1.00  0.00    -0.299 OA
BRANCH  13  15
ATOM     15  C   UNL     1      29.831  61.879  96.315  1.00  0.00     0.106 CG0
ATOM     16  G   UNL     1      30.510  63.194  96.658  1.00  0.00     0.000 G0
ENDBRANCH  13  15
ENDBRANCH  12  13
BRANCH  12  17
ATOM     17  C   UNL     1      29.260  60.114  99.835  1.00  0.00    -0.006 C 
ATOM     18  C   UNL     1      29.827  60.672 101.151  1.00  0.00     0.008 C 
ATOM     19  C   UNL     1      29.093  58.590  99.945  1.00  0.00     0.008 C 
ENDBRANCH  12  17
ENDBRANCH  11  12
ENDBRANCH   1  11
TORSDOF 1
ENDMDL
MODEL 8
REMARK VINA RESULT:    -2.767      2.734      3.931
REMARK INTER + INTRA:          -4.602
REMARK INTER:                  -4.193
REMARK INTRA:                  -0.409
REMARK UNBOUND:                -0.379
REMARK SMILES CC1=CCC[C@H](C)C(=O)C[C@H](C(C)C)C(=O)C1
REMARK SMILES IDX 8 1 9 2 6 3 7 4 5 5 4 6 3 7 2 8 1 9 10 11 11 12 15 13 16 14
REMARK SMILES IDX 17 15 12 17 13 18 14 19
REMARK H PARENT
REMARK Flexibility Score: 70.00
ROOT
ATOM      1  C   UNL     1      33.148  69.714 105.431  1.00  0.00     0.136 C 
ATOM      2  O   UNL     1      32.812  69.436 104.289  1.00  0.00    -0.299 OA
ENDROOT
BRANCH   1   3
ATOM      3  C   UNL     1      32.104  70.196 106.422  1.00  0.00     0.053 C 
ATOM      4  C   UNL     1      31.456  71.499 105.932  1.00  0.00     0.016 C 
BRANCH   3   5
ATOM      5  C   UNL     1      31.038  69.101 106.650  1.00  0.00     0.015 C 
BRANCH   5   6
ATOM      6  C   UNL     1      31.663  67.767 107.101  1.00  0.00     0.028 C 
BRANCH   6   7
ATOM      7  C   UNL     1      31.995  67.800 108.571  1.00  0.00    -0.028 C 
ATOM      8  C   UNL     1      33.239  67.644 109.083  1.00  0.00    -0.070 CG0
ATOM      9  C   UNL     1      33.389  67.620 110.583  1.00  0.00     0.039 C 
ATOM     10  G   UNL     1      34.479  67.517 108.213  1.00  0.00     0.000 G0
ENDBRANCH   6   7
ENDBRANCH   5   6
ENDBRANCH   3   5
ENDBRANCH   1   3
BRANCH   1  11
ATOM     11  C   UNL     1      34.600  69.573 105.832  1.00  0.00     0.087 C 
BRANCH  11  12
ATOM     12  C   UNL     1      34.922  69.955 107.313  1.00  0.00     0.066 C 
BRANCH  12  13
ATOM     13  C   UNL     1      35.334  68.768 108.179  1.00  0.00     0.140 C 
ATOM     14  O   UNL     1      36.312  68.852 108.907  1.00  0.00    -0.299 OA
BRANCH  13  15
ATOM     15  C   UNL     1      34.494  67.513 108.219  1.00  0.00     0.106 CG0
ATOM     16  G   UNL     1      33.259  67.669 109.091  1.00  0.00     0.000 G0
ENDBRANCH  13  15
ENDBRANCH  12  13
BRANCH  12  17
ATOM     17  C   UNL     1      35.897  71.166 107.485  1.00  0.00    -0.006 C 
ATOM     18  C   UNL     1      35.420  72.126 108.588  1.00  0.00     0.008 C 
ATOM     19  C   UNL     1      36.168  71.952 106.192  1.00  0.00     0.008 C 
ENDBRANCH  12  17
ENDBRANCH  11  12
ENDBRANCH   1  11
TORSDOF 1
ENDMDL
MODEL 9
REMARK VINA RESULT:    -2.745      9.747     11.182
REMARK INTER + INTRA:          -4.568
REMARK INTER:                  -4.643
REMARK INTRA:                   0.075
REMARK UNBOUND:                -0.379
REMARK SMILES CC1=CCC[C@H](C)C(=O)C[C@H](C(C)C)C(=O)C1
REMARK SMILES IDX 8 1 9 2 6 3 7 4 5 5 4 6 3 7 2 8 1 9 10 11 11 12 15 13 16 14
REMARK SMILES IDX 17 15 12 17 13 18 14 19
REMARK H PARENT
REMARK Flexibility Score: 70.00
ROOT
ATOM      1  C   UNL     1      25.084  72.655 108.598  1.00  0.00     0.136 C 
ATOM      2  O   UNL     1      26.255  72.521 108.273  1.00  0.00    -0.299 OA
ENDROOT
BRANCH   1   3
ATOM      3  C   UNL     1      24.421  71.595 109.461  1.00  0.00     0.053 C 
ATOM      4  C   UNL     1      23.388  72.234 110.400  1.00  0.00     0.016 C 
BRANCH   3   5
ATOM      5  C   UNL     1      23.765  70.516 108.572  1.00  0.00     0.015 C 
BRANCH   5   6
ATOM      6  C   UNL     1      22.277  70.811 108.302  1.00  0.00     0.028 C 
BRANCH   6   7
ATOM      7  C   UNL     1      21.968  70.712 106.830  1.00  0.00    -0.028 C 
ATOM      8  C   UNL     1      21.800  71.773 106.005  1.00  0.00    -0.070 CG0
ATOM      9  C   UNL     1      21.413  71.501 104.573  1.00  0.00     0.039 C 
ATOM     10  G   UNL     1      22.006  73.209 106.457  1.00  0.00     0.000 G0
ENDBRANCH   6   7
ENDBRANCH   5   6
ENDBRANCH   3   5
ENDBRANCH   1   3
BRANCH   1  11
ATOM     11  C   UNL     1      24.319  73.873 108.131  1.00  0.00     0.087 C 
BRANCH  11  12
ATOM     12  C   UNL     1      24.442  74.195 106.608  1.00  0.00     0.066 C 
BRANCH  12  13
ATOM     13  C   UNL     1      23.179  73.886 105.809  1.00  0.00     0.140 C 
ATOM     14  O   UNL     1      23.143  74.114 104.609  1.00  0.00    -0.299 OA
BRANCH  13  15
ATOM     15  C   UNL     1      21.996  73.214 106.465  1.00  0.00     0.106 CG0
ATOM     16  G   UNL     1      21.824  71.772 106.014  1.00  0.00     0.000 G0
ENDBRANCH  13  15
ENDBRANCH  12  13
BRANCH  12  17
ATOM     17  C   UNL     1      25.006  75.616 106.276  1.00  0.00    -0.006 C 
ATOM     18  C   UNL     1      26.380  75.535 105.589  1.00  0.00     0.008 C 
ATOM     19  C   UNL     1      25.082  76.567 107.482  1.00  0.00     0.008 C 
ENDBRANCH  12  17
ENDBRANCH  11  12
ENDBRANCH   1  11
TORSDOF 1
ENDMDL
