MODEL 1
REMARK VINA RESULT:    -4.656      0.000      0.000
REMARK INTER + INTRA:          -5.189
REMARK INTER:                  -5.064
REMARK INTRA:                  -0.125
REMARK UNBOUND:                -0.125
REMARK SMILES Cc1ccc(C(C)C)cc1O
REMARK SMILES IDX 1 1 2 2 10 3 9 4 5 5 4 6 3 7 11 8 6 10 7 11 8 12
REMARK H PARENT 11 9
REMARK Flexibility Score: inf
ROOT
ATOM      1  C   UNL     1      20.245  24.976  16.877  1.00  0.00     0.048 C 
ATOM      2  C   UNL     1      19.735  24.228  18.076  1.00  0.00    -0.009 A 
ATOM      3  C   UNL     1      20.041  24.676  19.373  1.00  0.00     0.118 A 
ATOM      4  C   UNL     1      19.561  23.973  20.487  1.00  0.00     0.050 A 
ATOM      5  C   UNL     1      18.772  22.820  20.324  1.00  0.00    -0.042 A 
ATOM      6  C   UNL     1      18.471  22.381  19.024  1.00  0.00     0.004 A 
ATOM      7  C   UNL     1      18.948  23.079  17.911  1.00  0.00     0.007 A 
ENDROOT
BRANCH   3   8
ATOM      8  O   UNL     1      20.822  25.818  19.550  1.00  0.00    -0.508 OA
ATOM      9  H   UNL     1      20.889  26.280  20.449  1.00  0.00     0.293 HD
ENDBRANCH   3   8
BRANCH   5  10
ATOM     10  C   UNL     1      18.247  22.053  21.523  1.00  0.00     0.013 C 
ATOM     11  C   UNL     1      18.189  22.945  22.768  1.00  0.00     0.012 C 
ATOM     12  C   UNL     1      16.877  21.430  21.225  1.00  0.00     0.012 C 
ENDBRANCH   5  10
TORSDOF 2
ENDMDL
MODEL 2
REMARK VINA RESULT:    -4.493      0.959      1.406
REMARK INTER + INTRA:          -5.012
REMARK INTER:                  -4.886
REMARK INTRA:                  -0.127
REMARK UNBOUND:                -0.125
REMARK SMILES Cc1ccc(C(C)C)cc1O
REMARK SMILES IDX 1 1 2 2 10 3 9 4 5 5 4 6 3 7 11 8 6 10 7 11 8 12
REMARK H PARENT 11 9
REMARK Flexibility Score: inf
ROOT
ATOM      1  C   UNL     1      21.386  23.722  17.395  1.00  0.00     0.048 C 
ATOM      2  C   UNL     1      20.421  23.315  18.472  1.00  0.00    -0.009 A 
ATOM      3  C   UNL     1      20.105  24.205  19.514  1.00  0.00     0.118 A 
ATOM      4  C   UNL     1      19.203  23.818  20.515  1.00  0.00     0.050 A 
ATOM      5  C   UNL     1      18.606  22.545  20.491  1.00  0.00    -0.042 A 
ATOM      6  C   UNL     1      18.928  21.663  19.446  1.00  0.00     0.004 A 
ATOM      7  C   UNL     1      19.827  22.045  18.446  1.00  0.00     0.007 A 
ENDROOT
BRANCH   3   8
ATOM      8  O   UNL     1      20.689  25.471  19.551  1.00  0.00    -0.508 OA
ATOM      9  H   UNL     1      20.263  26.266  19.087  1.00  0.00     0.293 HD
ENDBRANCH   3   8
BRANCH   5  10
ATOM     10  C   UNL     1      17.628  22.117  21.570  1.00  0.00     0.013 C 
ATOM     11  C   UNL     1      17.534  20.589  21.655  1.00  0.00     0.012 C 
ATOM     12  C   UNL     1      18.001  22.724  22.928  1.00  0.00     0.012 C 
ENDBRANCH   5  10
TORSDOF 2
ENDMDL
MODEL 3
REMARK VINA RESULT:    -4.469      1.739      4.246
REMARK INTER + INTRA:          -4.986
REMARK INTER:                  -4.859
REMARK INTRA:                  -0.128
REMARK UNBOUND:                -0.125
REMARK SMILES Cc1ccc(C(C)C)cc1O
REMARK SMILES IDX 1 1 2 2 10 3 9 4 5 5 4 6 3 7 11 8 6 10 7 11 8 12
REMARK H PARENT 11 9
REMARK Flexibility Score: inf
ROOT
ATOM      1  C   UNL     1      17.055  21.657  22.494  1.00  0.00     0.048 C 
ATOM      2  C   UNL     1      17.955  22.284  21.468  1.00  0.00    -0.009 A 
ATOM      3  C   UNL     1      18.779  23.369  21.817  1.00  0.00     0.118 A 
ATOM      4  C   UNL     1      19.618  23.949  20.855  1.00  0.00     0.050 A 
ATOM      5  C   UNL     1      19.647  23.457  19.537  1.00  0.00    -0.042 A 
ATOM      6  C   UNL     1      18.820  22.373  19.198  1.00  0.00     0.004 A 
ATOM      7  C   UNL     1      17.983  21.792  20.155  1.00  0.00     0.007 A 
ENDROOT
BRANCH   3   8
ATOM      8  O   UNL     1      18.761  23.868  23.120  1.00  0.00    -0.508 OA
ATOM      9  H   UNL     1      18.792  23.252  23.924  1.00  0.00     0.293 HD
ENDBRANCH   3   8
BRANCH   5  10
ATOM     10  C   UNL     1      20.550  24.077  18.488  1.00  0.00     0.013 C 
ATOM     11  C   UNL     1      21.513  23.037  17.903  1.00  0.00     0.012 C 
ATOM     12  C   UNL     1      19.731  24.755  17.382  1.00  0.00     0.012 C 
ENDBRANCH   5  10
TORSDOF 2
ENDMDL
MODEL 4
REMARK VINA RESULT:    -4.436     18.655     19.113
REMARK INTER + INTRA:          -4.950
REMARK INTER:                  -4.824
REMARK INTRA:                  -0.127
REMARK UNBOUND:                -0.125
REMARK SMILES Cc1ccc(C(C)C)cc1O
REMARK SMILES IDX 1 1 2 2 10 3 9 4 5 5 4 6 3 7 11 8 6 10 7 11 8 12
REMARK H PARENT 11 9
REMARK Flexibility Score: inf
ROOT
ATOM      1  C   UNL     1      23.227  32.737  35.193  1.00  0.00     0.048 C 
ATOM      2  C   UNL     1      21.810  32.781  35.689  1.00  0.00    -0.009 A 
ATOM      3  C   UNL     1      21.290  31.713  36.442  1.00  0.00     0.118 A 
ATOM      4  C   UNL     1      19.966  31.761  36.902  1.00  0.00     0.050 A 
ATOM      5  C   UNL     1      19.147  32.870  36.620  1.00  0.00    -0.042 A 
ATOM      6  C   UNL     1      19.677  33.932  35.868  1.00  0.00     0.004 A 
ATOM      7  C   UNL     1      20.996  33.887  35.408  1.00  0.00     0.007 A 
ENDROOT
BRANCH   3   8
ATOM      8  O   UNL     1      22.089  30.607  36.729  1.00  0.00    -0.508 OA
ATOM      9  H   UNL     1      22.833  30.654  37.415  1.00  0.00     0.293 HD
ENDBRANCH   3   8
BRANCH   5  10
ATOM     10  C   UNL     1      17.714  32.932  37.113  1.00  0.00     0.013 C 
ATOM     11  C   UNL     1      16.885  33.917  36.281  1.00  0.00     0.012 C 
ATOM     12  C   UNL     1      17.071  31.539  37.123  1.00  0.00     0.012 C 
ENDBRANCH   5  10
TORSDOF 2
ENDMDL
MODEL 5
REMARK VINA RESULT:    -4.360      2.093      4.653
REMARK INTER + INTRA:          -4.867
REMARK INTER:                  -4.768
REMARK INTRA:                  -0.099
REMARK UNBOUND:                -0.125
REMARK SMILES Cc1ccc(C(C)C)cc1O
REMARK SMILES IDX 1 1 2 2 10 3 9 4 5 5 4 6 3 7 11 8 6 10 7 11 8 12
REMARK H PARENT 11 9
REMARK Flexibility Score: inf
ROOT
ATOM      1  C   UNL     1      17.585  22.352  23.176  1.00  0.00     0.048 C 
ATOM      2  C   UNL     1      18.375  22.802  21.980  1.00  0.00    -0.009 A 
ATOM      3  C   UNL     1      18.008  22.379  20.690  1.00  0.00     0.118 A 
ATOM      4  C   UNL     1      18.750  22.803  19.577  1.00  0.00     0.050 A 
ATOM      5  C   UNL     1      19.861  23.651  19.736  1.00  0.00    -0.042 A 
ATOM      6  C   UNL     1      20.219  24.068  21.029  1.00  0.00     0.004 A 
ATOM      7  C   UNL     1      19.482  23.647  22.140  1.00  0.00     0.007 A 
ENDROOT
BRANCH   3   8
ATOM      8  O   UNL     1      16.909  21.539  20.517  1.00  0.00    -0.508 OA
ATOM      9  H   UNL     1      17.017  20.537  20.415  1.00  0.00     0.293 HD
ENDBRANCH   3   8
BRANCH   5  10
ATOM     10  C   UNL     1      20.670  24.116  18.540  1.00  0.00     0.013 C 
ATOM     11  C   UNL     1      21.564  22.991  18.007  1.00  0.00     0.012 C 
ATOM     12  C   UNL     1      19.758  24.667  17.436  1.00  0.00     0.012 C 
ENDBRANCH   5  10
TORSDOF 2
ENDMDL
MODEL 6
REMARK VINA RESULT:    -4.322      7.765      8.052
REMARK INTER + INTRA:          -4.826
REMARK INTER:                  -4.699
REMARK INTRA:                  -0.128
REMARK UNBOUND:                -0.125
REMARK SMILES Cc1ccc(C(C)C)cc1O
REMARK SMILES IDX 1 1 2 2 10 3 9 4 5 5 4 6 3 7 11 8 6 10 7 11 8 12
REMARK H PARENT 11 9
REMARK Flexibility Score: inf
ROOT
ATOM      1  C   UNL     1      26.562  16.074  18.294  1.00  0.00     0.048 C 
ATOM      2  C   UNL     1      25.559  16.771  19.169  1.00  0.00    -0.009 A 
ATOM      3  C   UNL     1      25.932  17.908  19.907  1.00  0.00     0.118 A 
ATOM      4  C   UNL     1      24.990  18.553  20.722  1.00  0.00     0.050 A 
ATOM      5  C   UNL     1      23.670  18.075  20.810  1.00  0.00    -0.042 A 
ATOM      6  C   UNL     1      23.308  16.939  20.068  1.00  0.00     0.004 A 
ATOM      7  C   UNL     1      24.244  16.293  19.256  1.00  0.00     0.007 A 
ENDROOT
BRANCH   3   8
ATOM      8  O   UNL     1      27.237  18.393  19.829  1.00  0.00    -0.508 OA
ATOM      9  H   UNL     1      27.770  18.348  18.969  1.00  0.00     0.293 HD
ENDBRANCH   3   8
BRANCH   5  10
ATOM     10  C   UNL     1      22.643  18.766  21.688  1.00  0.00     0.013 C 
ATOM     11  C   UNL     1      22.661  20.283  21.469  1.00  0.00     0.012 C 
ATOM     12  C   UNL     1      21.241  18.190  21.457  1.00  0.00     0.012 C 
ENDBRANCH   5  10
TORSDOF 2
ENDMDL
MODEL 7
REMARK VINA RESULT:    -4.237     18.535     19.085
REMARK INTER + INTRA:          -4.733
REMARK INTER:                  -4.606
REMARK INTRA:                  -0.127
REMARK UNBOUND:                -0.125
REMARK SMILES Cc1ccc(C(C)C)cc1O
REMARK SMILES IDX 1 1 2 2 10 3 9 4 5 5 4 6 3 7 11 8 6 10 7 11 8 12
REMARK H PARENT 11 9
REMARK Flexibility Score: inf
ROOT
ATOM      1  C   UNL     1      23.244  32.501  35.254  1.00  0.00     0.048 C 
ATOM      2  C   UNL     1      21.849  32.996  35.513  1.00  0.00    -0.009 A 
ATOM      3  C   UNL     1      21.331  34.073  34.772  1.00  0.00     0.118 A 
ATOM      4  C   UNL     1      20.028  34.530  35.019  1.00  0.00     0.050 A 
ATOM      5  C   UNL     1      19.228  33.920  36.002  1.00  0.00    -0.042 A 
ATOM      6  C   UNL     1      19.754  32.845  36.736  1.00  0.00     0.004 A 
ATOM      7  C   UNL     1      21.052  32.387  36.493  1.00  0.00     0.007 A 
ENDROOT
BRANCH   3   8
ATOM      8  O   UNL     1      22.113  34.687  33.794  1.00  0.00    -0.508 OA
ATOM      9  H   UNL     1      22.349  35.671  33.844  1.00  0.00     0.293 HD
ENDBRANCH   3   8
BRANCH   5  10
ATOM     10  C   UNL     1      17.817  34.406  36.276  1.00  0.00     0.013 C 
ATOM     11  C   UNL     1      17.095  34.770  34.974  1.00  0.00     0.012 C 
ATOM     12  C   UNL     1      17.020  33.369  37.078  1.00  0.00     0.012 C 
ENDBRANCH   5  10
TORSDOF 2
ENDMDL
MODEL 8
REMARK VINA RESULT:    -4.207     17.327     18.724
REMARK INTER + INTRA:          -4.702
REMARK INTER:                  -4.574
REMARK INTRA:                  -0.127
REMARK UNBOUND:                -0.125
REMARK SMILES Cc1ccc(C(C)C)cc1O
REMARK SMILES IDX 1 1 2 2 10 3 9 4 5 5 4 6 3 7 11 8 6 10 7 11 8 12
REMARK H PARENT 11 9
REMARK Flexibility Score: inf
ROOT
ATOM      1  C   UNL     1      21.139  35.113  32.048  1.00  0.00     0.048 C 
ATOM      2  C   UNL     1      20.419  34.789  33.326  1.00  0.00    -0.009 A 
ATOM      3  C   UNL     1      21.110  34.192  34.396  1.00  0.00     0.118 A 
ATOM      4  C   UNL     1      20.432  33.894  35.587  1.00  0.00     0.050 A 
ATOM      5  C   UNL     1      19.063  34.185  35.726  1.00  0.00    -0.042 A 
ATOM      6  C   UNL     1      18.382  34.782  34.652  1.00  0.00     0.004 A 
ATOM      7  C   UNL     1      19.055  35.081  33.464  1.00  0.00     0.007 A 
ENDROOT
BRANCH   3   8
ATOM      8  O   UNL     1      22.467  33.897  34.272  1.00  0.00    -0.508 OA
ATOM      9  H   UNL     1      23.023  34.263  33.508  1.00  0.00     0.293 HD
ENDBRANCH   3   8
BRANCH   5  10
ATOM     10  C   UNL     1      18.320  33.867  37.010  1.00  0.00     0.013 C 
ATOM     11  C   UNL     1      17.030  34.687  37.120  1.00  0.00     0.012 C 
ATOM     12  C   UNL     1      18.032  32.364  37.125  1.00  0.00     0.012 C 
ENDBRANCH   5  10
TORSDOF 2
ENDMDL
MODEL 9
REMARK VINA RESULT:    -4.171      2.419      4.296
REMARK INTER + INTRA:          -4.662
REMARK INTER:                  -4.563
REMARK INTRA:                  -0.099
REMARK UNBOUND:                -0.125
REMARK SMILES Cc1ccc(C(C)C)cc1O
REMARK SMILES IDX 1 1 2 2 10 3 9 4 5 5 4 6 3 7 11 8 6 10 7 11 8 12
REMARK H PARENT 11 9
REMARK Flexibility Score: inf
ROOT
ATOM      1  C   UNL     1      22.645  22.361  22.157  1.00  0.00     0.048 C 
ATOM      2  C   UNL     1      21.750  22.749  21.014  1.00  0.00    -0.009 A 
ATOM      3  C   UNL     1      22.082  22.382  19.698  1.00  0.00     0.118 A 
ATOM      4  C   UNL     1      21.241  22.747  18.637  1.00  0.00     0.050 A 
ATOM      5  C   UNL     1      20.063  23.479  18.873  1.00  0.00    -0.042 A 
ATOM      6  C   UNL     1      19.740  23.840  20.192  1.00  0.00     0.004 A 
ATOM      7  C   UNL     1      20.576  23.478  21.252  1.00  0.00     0.007 A 
ENDROOT
BRANCH   3   8
ATOM      8  O   UNL     1      23.246  21.656  19.449  1.00  0.00    -0.508 OA
ATOM      9  H   UNL     1      24.097  22.109  19.135  1.00  0.00     0.293 HD
ENDBRANCH   3   8
BRANCH   5  10
ATOM     10  C   UNL     1      19.146  23.878  17.732  1.00  0.00     0.013 C 
ATOM     11  C   UNL     1      19.778  24.980  16.875  1.00  0.00     0.012 C 
ATOM     12  C   UNL     1      18.765  22.663  16.877  1.00  0.00     0.012 C 
ENDBRANCH   5  10
TORSDOF 2
ENDMDL
