MODEL 1
REMARK VINA RESULT:    -3.433      0.000      0.000
REMARK INTER + INTRA:          -3.729
REMARK INTER:                  -3.633
REMARK INTRA:                  -0.095
REMARK UNBOUND:                -0.095
REMARK SMILES C=C(C)[C@H]1CC=C(C)C(=O)C1
REMARK SMILES IDX 8 1 7 2 6 3 5 4 4 5 11 6 9 7 10 8 2 9 1 10 3 11
REMARK H PARENT
REMARK Flexibility Score: inf
ROOT
ATOM      1  C   UNL     1      65.282  17.139   2.680  1.00  0.00     0.048 C 
ATOM      2  C   UNL     1      64.671  16.592   1.419  1.00  0.00    -0.012 C 
ATOM      3  C   UNL     1      65.316  16.717   0.246  1.00  0.00    -0.019 C 
ATOM      4  C   UNL     1      64.709  16.258  -1.053  1.00  0.00     0.036 C 
ATOM      5  C   UNL     1      63.768  15.057  -0.834  1.00  0.00     0.025 C 
ATOM      6  C   UNL     1      62.700  15.398   0.220  1.00  0.00     0.089 C 
ATOM      7  C   UNL     1      63.341  15.935   1.471  1.00  0.00     0.158 C 
ATOM      8  O   UNL     1      62.715  15.862   2.562  1.00  0.00    -0.295 OA
ENDROOT
BRANCH   5   9
ATOM      9  C   UNL     1      63.134  14.601  -2.141  1.00  0.00    -0.077 C 
ATOM     10  C   UNL     1      62.331  13.525  -2.160  1.00  0.00     0.008 C 
ATOM     11  C   UNL     1      63.383  15.336  -3.435  1.00  0.00     0.039 C 
ENDBRANCH   5   9
TORSDOF 1
ENDMDL
MODEL 2
REMARK VINA RESULT:    -3.391      1.616      2.377
REMARK INTER + INTRA:          -3.684
REMARK INTER:                  -3.587
REMARK INTRA:                  -0.097
REMARK UNBOUND:                -0.095
REMARK SMILES C=C(C)[C@H]1CC=C(C)C(=O)C1
REMARK SMILES IDX 8 1 7 2 6 3 5 4 4 5 11 6 9 7 10 8 2 9 1 10 3 11
REMARK H PARENT
REMARK Flexibility Score: inf
ROOT
ATOM      1  C   UNL     1      61.248  18.078   2.367  1.00  0.00     0.048 C 
ATOM      2  C   UNL     1      61.655  17.178   1.233  1.00  0.00    -0.012 C 
ATOM      3  C   UNL     1      60.930  17.147   0.101  1.00  0.00    -0.019 C 
ATOM      4  C   UNL     1      61.250  16.205  -1.029  1.00  0.00     0.036 C 
ATOM      5  C   UNL     1      62.761  15.906  -1.093  1.00  0.00     0.025 C 
ATOM      6  C   UNL     1      63.260  15.380   0.265  1.00  0.00     0.089 C 
ATOM      7  C   UNL     1      62.846  16.304   1.377  1.00  0.00     0.158 C 
ATOM      8  O   UNL     1      63.496  16.297   2.457  1.00  0.00    -0.295 OA
ENDROOT
BRANCH   5   9
ATOM      9  C   UNL     1      63.089  14.936  -2.220  1.00  0.00    -0.077 C 
ATOM     10  C   UNL     1      63.030  13.612  -2.007  1.00  0.00     0.008 C 
ATOM     11  C   UNL     1      63.481  15.428  -3.591  1.00  0.00     0.039 C 
ENDBRANCH   5   9
TORSDOF 1
ENDMDL
MODEL 3
REMARK VINA RESULT:    -3.279     13.772     14.784
REMARK INTER + INTRA:          -3.566
REMARK INTER:                  -3.468
REMARK INTRA:                  -0.098
REMARK UNBOUND:                -0.095
REMARK SMILES C=C(C)[C@H]1CC=C(C)C(=O)C1
REMARK SMILES IDX 8 1 7 2 6 3 5 4 4 5 11 6 9 7 10 8 2 9 1 10 3 11
REMARK H PARENT
REMARK Flexibility Score: inf
ROOT
ATOM      1  C   UNL     1      60.053   3.891  10.551  1.00  0.00     0.048 C 
ATOM      2  C   UNL     1      59.034   4.554   9.665  1.00  0.00    -0.012 C 
ATOM      3  C   UNL     1      58.182   5.460  10.175  1.00  0.00    -0.019 C 
ATOM      4  C   UNL     1      57.093   6.089   9.347  1.00  0.00     0.036 C 
ATOM      5  C   UNL     1      57.511   6.197   7.867  1.00  0.00     0.025 C 
ATOM      6  C   UNL     1      57.931   4.818   7.328  1.00  0.00     0.089 C 
ATOM      7  C   UNL     1      58.955   4.184   8.229  1.00  0.00     0.158 C 
ATOM      8  O   UNL     1      59.722   3.299   7.763  1.00  0.00    -0.295 OA
ENDROOT
BRANCH   5   9
ATOM      9  C   UNL     1      56.406   6.812   7.020  1.00  0.00    -0.077 C 
ATOM     10  C   UNL     1      55.707   6.047   6.166  1.00  0.00     0.008 C 
ATOM     11  C   UNL     1      56.066   8.279   7.117  1.00  0.00     0.039 C 
ENDBRANCH   5   9
TORSDOF 1
ENDMDL
MODEL 4
REMARK VINA RESULT:    -3.263     14.119     15.704
REMARK INTER + INTRA:          -3.549
REMARK INTER:                  -3.451
REMARK INTRA:                  -0.098
REMARK UNBOUND:                -0.095
REMARK SMILES C=C(C)[C@H]1CC=C(C)C(=O)C1
REMARK SMILES IDX 8 1 7 2 6 3 5 4 4 5 11 6 9 7 10 8 2 9 1 10 3 11
REMARK H PARENT
REMARK Flexibility Score: inf
ROOT
ATOM      1  C   UNL     1      56.884   1.027   5.126  1.00  0.00     0.048 C 
ATOM      2  C   UNL     1      56.190   2.362   5.108  1.00  0.00    -0.012 C 
ATOM      3  C   UNL     1      56.821   3.457   5.565  1.00  0.00    -0.019 C 
ATOM      4  C   UNL     1      56.141   4.799   5.642  1.00  0.00     0.036 C 
ATOM      5  C   UNL     1      55.078   4.947   4.537  1.00  0.00     0.025 C 
ATOM      6  C   UNL     1      54.076   3.780   4.597  1.00  0.00     0.089 C 
ATOM      7  C   UNL     1      54.797   2.460   4.606  1.00  0.00     0.158 C 
ATOM      8  O   UNL     1      54.189   1.425   4.224  1.00  0.00    -0.295 OA
ENDROOT
BRANCH   5   9
ATOM      9  C   UNL     1      54.371   6.292   4.621  1.00  0.00    -0.077 C 
ATOM     10  C   UNL     1      54.915   7.295   5.330  1.00  0.00     0.008 C 
ATOM     11  C   UNL     1      53.058   6.537   3.919  1.00  0.00     0.039 C 
ENDBRANCH   5   9
TORSDOF 1
ENDMDL
MODEL 5
REMARK VINA RESULT:    -3.185     13.082     13.972
REMARK INTER + INTRA:          -3.466
REMARK INTER:                  -3.375
REMARK INTRA:                  -0.091
REMARK UNBOUND:                -0.095
REMARK SMILES C=C(C)[C@H]1CC=C(C)C(=O)C1
REMARK SMILES IDX 8 1 7 2 6 3 5 4 4 5 11 6 9 7 10 8 2 9 1 10 3 11
REMARK H PARENT
REMARK Flexibility Score: inf
ROOT
ATOM      1  C   UNL     1      58.591   4.872   8.529  1.00  0.00     0.048 C 
ATOM      2  C   UNL     1      57.582   5.400   7.546  1.00  0.00    -0.012 C 
ATOM      3  C   UNL     1      57.243   4.671   6.468  1.00  0.00    -0.019 C 
ATOM      4  C   UNL     1      56.301   5.190   5.415  1.00  0.00     0.036 C 
ATOM      5  C   UNL     1      55.270   6.163   6.022  1.00  0.00     0.025 C 
ATOM      6  C   UNL     1      55.985   7.298   6.776  1.00  0.00     0.089 C 
ATOM      7  C   UNL     1      56.981   6.740   7.756  1.00  0.00     0.158 C 
ATOM      8  O   UNL     1      57.335   7.444   8.740  1.00  0.00    -0.295 OA
ENDROOT
BRANCH   5   9
ATOM      9  C   UNL     1      54.327   6.708   4.959  1.00  0.00    -0.077 C 
ATOM     10  C   UNL     1      53.389   5.913   4.420  1.00  0.00     0.008 C 
ATOM     11  C   UNL     1      54.414   8.139   4.490  1.00  0.00     0.039 C 
ENDBRANCH   5   9
TORSDOF 1
ENDMDL
MODEL 6
REMARK VINA RESULT:    -3.163      1.321      2.277
REMARK INTER + INTRA:          -3.443
REMARK INTER:                  -3.351
REMARK INTRA:                  -0.093
REMARK UNBOUND:                -0.095
REMARK SMILES C=C(C)[C@H]1CC=C(C)C(=O)C1
REMARK SMILES IDX 8 1 7 2 6 3 5 4 4 5 11 6 9 7 10 8 2 9 1 10 3 11
REMARK H PARENT
REMARK Flexibility Score: inf
ROOT
ATOM      1  C   UNL     1      63.487  17.225   3.131  1.00  0.00     0.048 C 
ATOM      2  C   UNL     1      63.379  16.498   1.818  1.00  0.00    -0.012 C 
ATOM      3  C   UNL     1      62.237  15.873   1.484  1.00  0.00    -0.019 C 
ATOM      4  C   UNL     1      62.107  15.065   0.220  1.00  0.00     0.036 C 
ATOM      5  C   UNL     1      63.015  15.625  -0.893  1.00  0.00     0.025 C 
ATOM      6  C   UNL     1      64.471  15.713  -0.403  1.00  0.00     0.089 C 
ATOM      7  C   UNL     1      64.548  16.452   0.905  1.00  0.00     0.158 C 
ATOM      8  O   UNL     1      65.633  16.996   1.241  1.00  0.00    -0.295 OA
ENDROOT
BRANCH   5   9
ATOM      9  C   UNL     1      62.905  14.800  -2.168  1.00  0.00    -0.077 C 
ATOM     10  C   UNL     1      63.355  15.296  -3.332  1.00  0.00     0.008 C 
ATOM     11  C   UNL     1      62.300  13.418  -2.161  1.00  0.00     0.039 C 
ENDBRANCH   5   9
TORSDOF 1
ENDMDL
MODEL 7
REMARK VINA RESULT:    -3.118      2.253      4.594
REMARK INTER + INTRA:          -3.396
REMARK INTER:                  -3.300
REMARK INTRA:                  -0.096
REMARK UNBOUND:                -0.095
REMARK SMILES C=C(C)[C@H]1CC=C(C)C(=O)C1
REMARK SMILES IDX 8 1 7 2 6 3 5 4 4 5 11 6 9 7 10 8 2 9 1 10 3 11
REMARK H PARENT
REMARK Flexibility Score: inf
ROOT
ATOM      1  C   UNL     1      59.670  13.086  -1.183  1.00  0.00     0.048 C 
ATOM      2  C   UNL     1      60.939  13.866  -0.965  1.00  0.00    -0.012 C 
ATOM      3  C   UNL     1      60.900  15.063  -0.355  1.00  0.00    -0.019 C 
ATOM      4  C   UNL     1      62.129  15.916  -0.187  1.00  0.00     0.036 C 
ATOM      5  C   UNL     1      63.396  15.046  -0.061  1.00  0.00     0.025 C 
ATOM      6  C   UNL     1      63.509  14.088  -1.260  1.00  0.00     0.089 C 
ATOM      7  C   UNL     1      62.231  13.318  -1.448  1.00  0.00     0.158 C 
ATOM      8  O   UNL     1      62.260  12.218  -2.063  1.00  0.00    -0.295 OA
ENDROOT
BRANCH   5   9
ATOM      9  C   UNL     1      64.646  15.901   0.088  1.00  0.00    -0.077 C 
ATOM     10  C   UNL     1      65.094  16.625  -0.950  1.00  0.00     0.008 C 
ATOM     11  C   UNL     1      65.406  15.963   1.390  1.00  0.00     0.039 C 
ENDBRANCH   5   9
TORSDOF 1
ENDMDL
MODEL 8
REMARK VINA RESULT:    -3.086     14.449     15.815
REMARK INTER + INTRA:          -3.362
REMARK INTER:                  -3.275
REMARK INTRA:                  -0.087
REMARK UNBOUND:                -0.095
REMARK SMILES C=C(C)[C@H]1CC=C(C)C(=O)C1
REMARK SMILES IDX 8 1 7 2 6 3 5 4 4 5 11 6 9 7 10 8 2 9 1 10 3 11
REMARK H PARENT
REMARK Flexibility Score: inf
ROOT
ATOM      1  C   UNL     1      56.634   5.756   6.468  1.00  0.00     0.048 C 
ATOM      2  C   UNL     1      57.426   5.519   7.725  1.00  0.00    -0.012 C 
ATOM      3  C   UNL     1      57.122   6.186   8.852  1.00  0.00    -0.019 C 
ATOM      4  C   UNL     1      57.936   6.043  10.110  1.00  0.00     0.036 C 
ATOM      5  C   UNL     1      58.562   4.637  10.211  1.00  0.00     0.025 C 
ATOM      6  C   UNL     1      59.382   4.324   8.947  1.00  0.00     0.089 C 
ATOM      7  C   UNL     1      58.561   4.563   7.709  1.00  0.00     0.158 C 
ATOM      8  O   UNL     1      58.876   3.974   6.640  1.00  0.00    -0.295 OA
ENDROOT
BRANCH   5   9
ATOM      9  C   UNL     1      59.403   4.492  11.471  1.00  0.00    -0.077 C 
ATOM     10  C   UNL     1      59.032   3.632  12.434  1.00  0.00     0.008 C 
ATOM     11  C   UNL     1      60.665   5.295  11.671  1.00  0.00     0.039 C 
ENDBRANCH   5   9
TORSDOF 1
ENDMDL
MODEL 9
REMARK VINA RESULT:    -3.072     13.970     15.330
REMARK INTER + INTRA:          -3.347
REMARK INTER:                  -3.251
REMARK INTRA:                  -0.096
REMARK UNBOUND:                -0.095
REMARK SMILES C=C(C)[C@H]1CC=C(C)C(=O)C1
REMARK SMILES IDX 8 1 7 2 6 3 5 4 4 5 11 6 9 7 10 8 2 9 1 10 3 11
REMARK H PARENT
REMARK Flexibility Score: inf
ROOT
ATOM      1  C   UNL     1      55.978   7.119   6.705  1.00  0.00     0.048 C 
ATOM      2  C   UNL     1      55.942   5.777   6.026  1.00  0.00    -0.012 C 
ATOM      3  C   UNL     1      57.007   4.959   6.090  1.00  0.00    -0.019 C 
ATOM      4  C   UNL     1      57.049   3.642   5.361  1.00  0.00     0.036 C 
ATOM      5  C   UNL     1      55.638   3.035   5.227  1.00  0.00     0.025 C 
ATOM      6  C   UNL     1      54.683   4.042   4.560  1.00  0.00     0.089 C 
ATOM      7  C   UNL     1      54.735   5.370   5.265  1.00  0.00     0.158 C 
ATOM      8  O   UNL     1      53.756   6.157   5.164  1.00  0.00    -0.295 OA
ENDROOT
BRANCH   5   9
ATOM      9  C   UNL     1      55.670   1.714   4.472  1.00  0.00    -0.077 C 
ATOM     10  C   UNL     1      56.708   0.876   4.625  1.00  0.00     0.008 C 
ATOM     11  C   UNL     1      54.551   1.312   3.544  1.00  0.00     0.039 C 
ENDBRANCH   5   9
TORSDOF 1
ENDMDL
