MODEL 1
REMARK VINA RESULT:    -2.465      0.000      0.000
REMARK INTER + INTRA:          -5.314
REMARK INTER:                  -3.906
REMARK INTRA:                  -1.407
REMARK UNBOUND:                -1.407
REMARK SMILES CCCCCCCCCCCC(=O)[O-]
REMARK SMILES IDX 7 1 8 2 9 3 10 4 11 5 12 6 13 7 14 8 6 9 5 10 4 11 3 12 2 13
REMARK SMILES IDX 1 14
REMARK H PARENT
REMARK Flexibility Score: inf
ROOT
ATOM      1  C   UNL     1      10.224  18.375  30.602  1.00  0.00     0.000 C 
ENDROOT
BRANCH   1   2
ATOM      2  C   UNL     1       8.929  18.921  29.982  1.00  0.00     0.000 C 
BRANCH   2   3
ATOM      3  C   UNL     1       8.683  20.405  30.314  1.00  0.00     0.000 C 
BRANCH   3   4
ATOM      4  C   UNL     1       8.745  21.359  29.109  1.00  0.00     0.006 C 
BRANCH   4   5
ATOM      5  C   UNL     1       7.421  21.435  28.338  1.00  0.00     0.053 C 
BRANCH   5   6
ATOM      6  C   UNL     1       7.512  22.447  27.239  1.00  0.00     0.041 C 
ATOM      7  O   UNL     1       8.419  22.357  26.370  1.00  0.00    -0.550 OA
ATOM      8  O   UNL     1       6.566  23.460  27.145  1.00  0.00    -0.550 OA
ENDBRANCH   5   6
ENDBRANCH   4   5
ENDBRANCH   3   4
ENDBRANCH   2   3
ENDBRANCH   1   2
BRANCH   1   9
ATOM      9  C   UNL     1      10.857  19.404  31.547  1.00  0.00     0.000 C 
BRANCH   9  10
ATOM     10  C   UNL     1      12.346  19.596  31.237  1.00  0.00    -0.000 C 
BRANCH  10  11
ATOM     11  C   UNL     1      12.602  19.559  29.723  1.00  0.00    -0.000 C 
BRANCH  11  12
ATOM     12  C   UNL     1      12.485  20.945  29.068  1.00  0.00    -0.000 C 
BRANCH  12  13
ATOM     13  C   UNL     1      12.194  20.865  27.563  1.00  0.00    -0.003 C 
ATOM     14  C   UNL     1      11.412  19.601  27.221  1.00  0.00     0.004 C 
ENDBRANCH  12  13
ENDBRANCH  11  12
ENDBRANCH  10  11
ENDBRANCH   9  10
ENDBRANCH   1   9
TORSDOF 10
ENDMDL
MODEL 2
REMARK VINA RESULT:    -2.419      4.054      6.048
REMARK INTER + INTRA:          -5.240
REMARK INTER:                  -3.660
REMARK INTRA:                  -1.580
REMARK UNBOUND:                -1.407
REMARK SMILES CCCCCCCCCCCC(=O)[O-]
REMARK SMILES IDX 7 1 8 2 9 3 10 4 11 5 12 6 13 7 14 8 6 9 5 10 4 11 3 12 2 13
REMARK SMILES IDX 1 14
REMARK H PARENT
REMARK Flexibility Score: inf
ROOT
ATOM      1  C   UNL     1      11.139  19.868  28.098  1.00  0.00     0.000 C 
ENDROOT
BRANCH   1   2
ATOM      2  C   UNL     1      11.752  20.457  29.378  1.00  0.00     0.000 C 
BRANCH   2   3
ATOM      3  C   UNL     1      12.087  19.385  30.431  1.00  0.00     0.000 C 
BRANCH   3   4
ATOM      4  C   UNL     1      11.437  19.602  31.809  1.00  0.00     0.006 C 
BRANCH   4   5
ATOM      5  C   UNL     1      11.534  18.369  32.716  1.00  0.00     0.053 C 
BRANCH   5   6
ATOM      6  C   UNL     1      12.963  17.962  32.895  1.00  0.00     0.041 C 
ATOM      7  O   UNL     1      13.346  16.820  32.528  1.00  0.00    -0.550 OA
ATOM      8  O   UNL     1      13.882  18.861  33.420  1.00  0.00    -0.550 OA
ENDBRANCH   5   6
ENDBRANCH   4   5
ENDBRANCH   3   4
ENDBRANCH   2   3
ENDBRANCH   1   2
BRANCH   1   9
ATOM      9  C   UNL     1       9.648  20.211  27.995  1.00  0.00     0.000 C 
BRANCH   9  10
ATOM     10  C   UNL     1       9.190  21.048  29.195  1.00  0.00    -0.000 C 
BRANCH  10  11
ATOM     11  C   UNL     1       8.100  20.316  29.992  1.00  0.00    -0.000 C 
BRANCH  11  12
ATOM     12  C   UNL     1       7.889  18.870  29.517  1.00  0.00    -0.000 C 
BRANCH  12  13
ATOM     13  C   UNL     1       8.454  17.835  30.501  1.00  0.00    -0.003 C 
ATOM     14  C   UNL     1       9.387  16.857  29.793  1.00  0.00     0.004 C 
ENDBRANCH  12  13
ENDBRANCH  11  12
ENDBRANCH  10  11
ENDBRANCH   9  10
ENDBRANCH   1   9
TORSDOF 10
ENDMDL
MODEL 3
REMARK VINA RESULT:    -2.407     10.239     11.485
REMARK INTER + INTRA:          -5.221
REMARK INTER:                  -3.719
REMARK INTRA:                  -1.503
REMARK UNBOUND:                -1.407
REMARK SMILES CCCCCCCCCCCC(=O)[O-]
REMARK SMILES IDX 7 1 8 2 9 3 10 4 11 5 12 6 13 7 14 8 6 9 5 10 4 11 3 12 2 13
REMARK SMILES IDX 1 14
REMARK H PARENT
REMARK Flexibility Score: inf
ROOT
ATOM      1  C   UNL     1       6.357  30.799  32.455  1.00  0.00     0.000 C 
ENDROOT
BRANCH   1   2
ATOM      2  C   UNL     1       7.570  31.471  31.793  1.00  0.00     0.000 C 
BRANCH   2   3
ATOM      3  C   UNL     1       8.706  30.482  31.476  1.00  0.00     0.000 C 
BRANCH   3   4
ATOM      4  C   UNL     1      10.127  31.035  31.684  1.00  0.00     0.006 C 
BRANCH   4   5
ATOM      5  C   UNL     1      11.147  29.944  32.034  1.00  0.00     0.053 C 
BRANCH   5   6
ATOM      6  C   UNL     1      12.492  30.288  31.475  1.00  0.00     0.041 C 
ATOM      7  O   UNL     1      13.538  29.941  32.084  1.00  0.00    -0.550 OA
ATOM      8  O   UNL     1      12.592  30.948  30.256  1.00  0.00    -0.550 OA
ENDBRANCH   5   6
ENDBRANCH   4   5
ENDBRANCH   3   4
ENDBRANCH   2   3
ENDBRANCH   1   2
BRANCH   1   9
ATOM      9  C   UNL     1       6.730  29.418  33.010  1.00  0.00     0.000 C 
BRANCH   9  10
ATOM     10  C   UNL     1       6.182  29.228  34.429  1.00  0.00    -0.000 C 
BRANCH  10  11
ATOM     11  C   UNL     1       7.294  28.790  35.394  1.00  0.00    -0.000 C 
BRANCH  11  12
ATOM     12  C   UNL     1       8.700  28.998  34.810  1.00  0.00    -0.000 C 
BRANCH  12  13
ATOM     13  C   UNL     1       9.523  30.027  35.600  1.00  0.00    -0.003 C 
ATOM     14  C   UNL     1       9.118  31.451  35.233  1.00  0.00     0.004 C 
ENDBRANCH  12  13
ENDBRANCH  11  12
ENDBRANCH  10  11
ENDBRANCH   9  10
ENDBRANCH   1   9
TORSDOF 10
ENDMDL
MODEL 4
REMARK VINA RESULT:    -2.406     11.016     13.374
REMARK INTER + INTRA:          -5.220
REMARK INTER:                  -3.732
REMARK INTRA:                  -1.487
REMARK UNBOUND:                -1.407
REMARK SMILES CCCCCCCCCCCC(=O)[O-]
REMARK SMILES IDX 7 1 8 2 9 3 10 4 11 5 12 6 13 7 14 8 6 9 5 10 4 11 3 12 2 13
REMARK SMILES IDX 1 14
REMARK H PARENT
REMARK Flexibility Score: inf
ROOT
ATOM      1  C   UNL     1      20.740  28.928  24.118  1.00  0.00     0.000 C 
ENDROOT
BRANCH   1   2
ATOM      2  C   UNL     1      19.896  27.799  23.507  1.00  0.00     0.000 C 
BRANCH   2   3
ATOM      3  C   UNL     1      19.401  26.785  24.554  1.00  0.00     0.000 C 
BRANCH   3   4
ATOM      4  C   UNL     1      18.236  27.274  25.433  1.00  0.00     0.006 C 
BRANCH   4   5
ATOM      5  C   UNL     1      18.610  27.377  26.917  1.00  0.00     0.053 C 
BRANCH   5   6
ATOM      6  C   UNL     1      17.392  27.227  27.774  1.00  0.00     0.041 C 
ATOM      7  O   UNL     1      16.544  28.155  27.836  1.00  0.00    -0.550 OA
ATOM      8  O   UNL     1      17.169  26.043  28.466  1.00  0.00    -0.550 OA
ENDBRANCH   5   6
ENDBRANCH   4   5
ENDBRANCH   3   4
ENDBRANCH   2   3
ENDBRANCH   1   2
BRANCH   1   9
ATOM      9  C   UNL     1      20.460  30.264  23.419  1.00  0.00     0.000 C 
BRANCH   9  10
ATOM     10  C   UNL     1      19.020  30.323  22.897  1.00  0.00    -0.000 C 
BRANCH  10  11
ATOM     11  C   UNL     1      18.174  31.300  23.725  1.00  0.00    -0.000 C 
BRANCH  11  12
ATOM     12  C   UNL     1      17.247  30.585  24.721  1.00  0.00    -0.000 C 
BRANCH  12  13
ATOM     13  C   UNL     1      17.365  31.144  26.146  1.00  0.00    -0.003 C 
ATOM     14  C   UNL     1      18.805  31.073  26.647  1.00  0.00     0.004 C 
ENDBRANCH  12  13
ENDBRANCH  11  12
ENDBRANCH  10  11
ENDBRANCH   9  10
ENDBRANCH   1   9
TORSDOF 10
ENDMDL
MODEL 5
REMARK VINA RESULT:    -2.358      3.511      5.212
REMARK INTER + INTRA:          -5.144
REMARK INTER:                  -3.466
REMARK INTRA:                  -1.678
REMARK UNBOUND:                -1.407
REMARK SMILES CCCCCCCCCCCC(=O)[O-]
REMARK SMILES IDX 7 1 8 2 9 3 10 4 11 5 12 6 13 7 14 8 6 9 5 10 4 11 3 12 2 13
REMARK SMILES IDX 1 14
REMARK H PARENT
REMARK Flexibility Score: inf
ROOT
ATOM      1  C   UNL     1       8.800  17.275  29.273  1.00  0.00     0.000 C 
ENDROOT
BRANCH   1   2
ATOM      2  C   UNL     1      10.178  17.767  29.740  1.00  0.00     0.000 C 
BRANCH   2   3
ATOM      3  C   UNL     1      10.217  18.109  31.241  1.00  0.00     0.000 C 
BRANCH   3   4
ATOM      4  C   UNL     1      10.865  19.463  31.583  1.00  0.00     0.006 C 
BRANCH   4   5
ATOM      5  C   UNL     1      12.031  19.819  30.652  1.00  0.00     0.053 C 
BRANCH   5   6
ATOM      6  C   UNL     1      13.339  19.596  31.343  1.00  0.00     0.041 C 
ATOM      7  O   UNL     1      13.904  20.544  31.950  1.00  0.00    -0.550 OA
ATOM      8  O   UNL     1      13.911  18.330  31.361  1.00  0.00    -0.550 OA
ENDBRANCH   5   6
ENDBRANCH   4   5
ENDBRANCH   3   4
ENDBRANCH   2   3
ENDBRANCH   1   2
BRANCH   1   9
ATOM      9  C   UNL     1       7.674  18.030  29.991  1.00  0.00     0.000 C 
BRANCH   9  10
ATOM     10  C   UNL     1       7.218  19.245  29.175  1.00  0.00    -0.000 C 
BRANCH  10  11
ATOM     11  C   UNL     1       7.575  20.555  29.893  1.00  0.00    -0.000 C 
BRANCH  11  12
ATOM     12  C   UNL     1       8.722  21.313  29.207  1.00  0.00    -0.000 C 
BRANCH  12  13
ATOM     13  C   UNL     1       8.890  20.922  27.732  1.00  0.00    -0.003 C 
ATOM     14  C   UNL     1      10.356  20.665  27.395  1.00  0.00     0.004 C 
ENDBRANCH  12  13
ENDBRANCH  11  12
ENDBRANCH  10  11
ENDBRANCH   9  10
ENDBRANCH   1   9
TORSDOF 10
ENDMDL
MODEL 6
REMARK VINA RESULT:    -2.352      1.900      3.667
REMARK INTER + INTRA:          -5.134
REMARK INTER:                  -3.643
REMARK INTRA:                  -1.491
REMARK UNBOUND:                -1.407
REMARK SMILES CCCCCCCCCCCC(=O)[O-]
REMARK SMILES IDX 7 1 8 2 9 3 10 4 11 5 12 6 13 7 14 8 6 9 5 10 4 11 3 12 2 13
REMARK SMILES IDX 1 14
REMARK H PARENT
REMARK Flexibility Score: inf
ROOT
ATOM      1  C   UNL     1      12.715  20.708  29.476  1.00  0.00     0.000 C 
ENDROOT
BRANCH   1   2
ATOM      2  C   UNL     1      11.406  20.490  28.701  1.00  0.00     0.000 C 
BRANCH   2   3
ATOM      3  C   UNL     1      10.871  19.051  28.820  1.00  0.00     0.000 C 
BRANCH   3   4
ATOM      4  C   UNL     1       9.465  18.930  29.435  1.00  0.00     0.006 C 
BRANCH   4   5
ATOM      5  C   UNL     1       9.065  20.161  30.258  1.00  0.00     0.053 C 
BRANCH   5   6
ATOM      6  C   UNL     1       7.940  20.891  29.594  1.00  0.00     0.041 C 
ATOM      7  O   UNL     1       8.182  21.802  28.760  1.00  0.00    -0.550 OA
ATOM      8  O   UNL     1       6.624  20.532  29.860  1.00  0.00    -0.550 OA
ENDBRANCH   5   6
ENDBRANCH   4   5
ENDBRANCH   3   4
ENDBRANCH   2   3
ENDBRANCH   1   2
BRANCH   1   9
ATOM      9  C   UNL     1      13.031  19.503  30.370  1.00  0.00     0.000 C 
BRANCH   9  10
ATOM     10  C   UNL     1      12.746  19.818  31.843  1.00  0.00    -0.000 C 
BRANCH  10  11
ATOM     11  C   UNL     1      12.144  18.601  32.560  1.00  0.00    -0.000 C 
BRANCH  11  12
ATOM     12  C   UNL     1      12.503  17.273  31.874  1.00  0.00    -0.000 C 
BRANCH  12  13
ATOM     13  C   UNL     1      11.292  16.341  31.719  1.00  0.00    -0.003 C 
ATOM     14  C   UNL     1      10.058  16.928  32.397  1.00  0.00     0.004 C 
ENDBRANCH  12  13
ENDBRANCH  11  12
ENDBRANCH  10  11
ENDBRANCH   9  10
ENDBRANCH   1   9
TORSDOF 10
ENDMDL
MODEL 7
REMARK VINA RESULT:    -2.348     11.986     14.042
REMARK INTER + INTRA:          -5.127
REMARK INTER:                  -3.756
REMARK INTRA:                  -1.372
REMARK UNBOUND:                -1.407
REMARK SMILES CCCCCCCCCCCC(=O)[O-]
REMARK SMILES IDX 7 1 8 2 9 3 10 4 11 5 12 6 13 7 14 8 6 9 5 10 4 11 3 12 2 13
REMARK SMILES IDX 1 14
REMARK H PARENT
REMARK Flexibility Score: inf
ROOT
ATOM      1  C   UNL     1      19.061  21.585  39.790  1.00  0.00     0.000 C 
ENDROOT
BRANCH   1   2
ATOM      2  C   UNL     1      19.142  22.951  39.092  1.00  0.00     0.000 C 
BRANCH   2   3
ATOM      3  C   UNL     1      17.861  23.305  38.315  1.00  0.00     0.000 C 
BRANCH   3   4
ATOM      4  C   UNL     1      17.296  24.708  38.597  1.00  0.00     0.006 C 
BRANCH   4   5
ATOM      5  C   UNL     1      15.804  24.691  38.953  1.00  0.00     0.053 C 
BRANCH   5   6
ATOM      6  C   UNL     1      14.999  25.330  37.864  1.00  0.00     0.041 C 
ATOM      7  O   UNL     1      13.894  25.872  38.130  1.00  0.00    -0.550 OA
ATOM      8  O   UNL     1      15.493  25.371  36.567  1.00  0.00    -0.550 OA
ENDBRANCH   5   6
ENDBRANCH   4   5
ENDBRANCH   3   4
ENDBRANCH   2   3
ENDBRANCH   1   2
BRANCH   1   9
ATOM      9  C   UNL     1      19.485  21.693  41.260  1.00  0.00     0.000 C 
BRANCH   9  10
ATOM     10  C   UNL     1      19.200  23.093  41.816  1.00  0.00    -0.000 C 
BRANCH  10  11
ATOM     11  C   UNL     1      17.785  23.172  42.409  1.00  0.00    -0.000 C 
BRANCH  11  12
ATOM     12  C   UNL     1      17.230  24.605  42.427  1.00  0.00    -0.000 C 
BRANCH  12  13
ATOM     13  C   UNL     1      18.281  25.652  42.029  1.00  0.00    -0.003 C 
ATOM     14  C   UNL     1      17.620  26.962  41.611  1.00  0.00     0.004 C 
ENDBRANCH  12  13
ENDBRANCH  11  12
ENDBRANCH  10  11
ENDBRANCH   9  10
ENDBRANCH   1   9
TORSDOF 10
ENDMDL
MODEL 8
REMARK VINA RESULT:    -2.346      1.262      2.625
REMARK INTER + INTRA:          -5.125
REMARK INTER:                  -3.504
REMARK INTRA:                  -1.621
REMARK UNBOUND:                -1.407
REMARK SMILES CCCCCCCCCCCC(=O)[O-]
REMARK SMILES IDX 7 1 8 2 9 3 10 4 11 5 12 6 13 7 14 8 6 9 5 10 4 11 3 12 2 13
REMARK SMILES IDX 1 14
REMARK H PARENT
REMARK Flexibility Score: inf
ROOT
ATOM      1  C   UNL     1       9.670  17.738  28.311  1.00  0.00     0.000 C 
ENDROOT
BRANCH   1   2
ATOM      2  C   UNL     1       8.989  17.648  29.685  1.00  0.00     0.000 C 
BRANCH   2   3
ATOM      3  C   UNL     1       8.122  18.880  30.007  1.00  0.00     0.000 C 
BRANCH   3   4
ATOM      4  C   UNL     1       7.680  19.702  28.783  1.00  0.00     0.006 C 
BRANCH   4   5
ATOM      5  C   UNL     1       7.900  21.209  28.965  1.00  0.00     0.053 C 
BRANCH   5   6
ATOM      6  C   UNL     1       7.948  21.895  27.635  1.00  0.00     0.041 C 
ATOM      7  O   UNL     1       8.701  21.459  26.725  1.00  0.00    -0.550 OA
ATOM      8  O   UNL     1       7.123  22.984  27.384  1.00  0.00    -0.550 OA
ENDBRANCH   5   6
ENDBRANCH   4   5
ENDBRANCH   3   4
ENDBRANCH   2   3
ENDBRANCH   1   2
BRANCH   1   9
ATOM      9  C   UNL     1      11.139  18.154  28.452  1.00  0.00     0.000 C 
BRANCH   9  10
ATOM     10  C   UNL     1      11.323  19.645  28.143  1.00  0.00    -0.000 C 
BRANCH  10  11
ATOM     11  C   UNL     1      11.555  20.449  29.430  1.00  0.00    -0.000 C 
BRANCH  11  12
ATOM     12  C   UNL     1      12.118  19.589  30.573  1.00  0.00    -0.000 C 
BRANCH  12  13
ATOM     13  C   UNL     1      11.265  19.667  31.847  1.00  0.00    -0.003 C 
ATOM     14  C   UNL     1      11.254  18.331  32.584  1.00  0.00     0.004 C 
ENDBRANCH  12  13
ENDBRANCH  11  12
ENDBRANCH  10  11
ENDBRANCH   9  10
ENDBRANCH   1   9
TORSDOF 10
ENDMDL
MODEL 9
REMARK VINA RESULT:    -2.286     12.019     14.064
REMARK INTER + INTRA:          -5.030
REMARK INTER:                  -3.349
REMARK INTRA:                  -1.681
REMARK UNBOUND:                -1.407
REMARK SMILES CCCCCCCCCCCC(=O)[O-]
REMARK SMILES IDX 7 1 8 2 9 3 10 4 11 5 12 6 13 7 14 8 6 9 5 10 4 11 3 12 2 13
REMARK SMILES IDX 1 14
REMARK H PARENT
REMARK Flexibility Score: inf
ROOT
ATOM      1  C   UNL     1      20.884  29.501  23.323  1.00  0.00     0.000 C 
ENDROOT
BRANCH   1   2
ATOM      2  C   UNL     1      20.147  30.798  23.692  1.00  0.00     0.000 C 
BRANCH   2   3
ATOM      3  C   UNL     1      18.681  30.810  23.222  1.00  0.00     0.000 C 
BRANCH   3   4
ATOM      4  C   UNL     1      17.690  31.463  24.201  1.00  0.00     0.006 C 
BRANCH   4   5
ATOM      5  C   UNL     1      18.382  32.316  25.271  1.00  0.00     0.053 C 
BRANCH   5   6
ATOM      6  C   UNL     1      17.513  32.439  26.484  1.00  0.00     0.041 C 
ATOM      7  O   UNL     1      16.576  31.621  26.676  1.00  0.00    -0.550 OA
ATOM      8  O   UNL     1      17.771  33.426  27.427  1.00  0.00    -0.550 OA
ENDBRANCH   5   6
ENDBRANCH   4   5
ENDBRANCH   3   4
ENDBRANCH   2   3
ENDBRANCH   1   2
BRANCH   1   9
ATOM      9  C   UNL     1      19.892  28.388  22.965  1.00  0.00     0.000 C 
BRANCH   9  10
ATOM     10  C   UNL     1      20.257  27.076  23.669  1.00  0.00    -0.000 C 
BRANCH  10  11
ATOM     11  C   UNL     1      19.714  27.052  25.105  1.00  0.00    -0.000 C 
BRANCH  11  12
ATOM     12  C   UNL     1      18.312  27.670  25.219  1.00  0.00    -0.000 C 
BRANCH  12  13
ATOM     13  C   UNL     1      18.104  28.428  26.538  1.00  0.00    -0.003 C 
ATOM     14  C   UNL     1      19.375  29.163  26.955  1.00  0.00     0.004 C 
ENDBRANCH  12  13
ENDBRANCH  11  12
ENDBRANCH  10  11
ENDBRANCH   9  10
ENDBRANCH   1   9
TORSDOF 10
ENDMDL
