MODEL 1
REMARK VINA RESULT:    -4.396      0.000      0.000
REMARK INTER + INTRA:          -5.123
REMARK INTER:                  -5.039
REMARK INTRA:                  -0.084
REMARK UNBOUND:                -0.084
REMARK SMILES C=Cc1ccc(O)c(OC)c1
REMARK SMILES IDX 8 1 6 2 5 3 4 4 3 5 11 6 9 7 10 8 7 9 2 11 1 12
REMARK H PARENT 7 10
REMARK Flexibility Score: inf
ROOT
ATOM      1  C   UNL     1      83.898  31.270  65.744  1.00  0.00     0.161 A 
ATOM      2  C   UNL     1      83.397  31.311  67.057  1.00  0.00     0.157 A 
ATOM      3  C   UNL     1      84.221  31.719  68.108  1.00  0.00     0.051 A 
ATOM      4  C   UNL     1      85.547  32.084  67.868  1.00  0.00     0.012 A 
ATOM      5  C   UNL     1      86.073  32.037  66.564  1.00  0.00    -0.022 A 
ATOM      6  C   UNL     1      85.237  31.639  65.508  1.00  0.00     0.058 A 
ENDROOT
BRANCH   1   7
ATOM      7  O   UNL     1      83.044  30.860  64.707  1.00  0.00    -0.493 OA
ATOM      8  C   UNL     1      82.910  29.516  64.255  1.00  0.00     0.278 C 
ENDBRANCH   1   7
BRANCH   2   9
ATOM      9  O   UNL     1      82.077  30.954  67.337  1.00  0.00    -0.504 OA
ATOM     10  H   UNL     1      81.822  30.024  67.645  1.00  0.00     0.293 HD
ENDBRANCH   2   9
BRANCH   5  11
ATOM     11  C   UNL     1      87.474  32.423  66.253  1.00  0.00     0.000 C 
ATOM     12  C   UNL     1      87.831  33.166  65.204  1.00  0.00     0.009 C 
ENDBRANCH   5  11
TORSDOF 3
ENDMDL
MODEL 2
REMARK VINA RESULT:    -4.019     16.069     17.354
REMARK INTER + INTRA:          -4.691
REMARK INTER:                  -4.617
REMARK INTRA:                  -0.074
REMARK UNBOUND:                -0.084
REMARK SMILES C=Cc1ccc(O)c(OC)c1
REMARK SMILES IDX 8 1 6 2 5 3 4 4 3 5 11 6 9 7 10 8 7 9 2 11 1 12
REMARK H PARENT 7 10
REMARK Flexibility Score: inf
ROOT
ATOM      1  C   UNL     1      75.674  33.966  52.373  1.00  0.00     0.161 A 
ATOM      2  C   UNL     1      75.616  35.310  51.965  1.00  0.00     0.157 A 
ATOM      3  C   UNL     1      74.506  36.093  52.293  1.00  0.00     0.051 A 
ATOM      4  C   UNL     1      73.446  35.551  53.022  1.00  0.00     0.012 A 
ATOM      5  C   UNL     1      73.477  34.204  53.427  1.00  0.00    -0.022 A 
ATOM      6  C   UNL     1      74.600  33.423  53.107  1.00  0.00     0.058 A 
ENDROOT
BRANCH   1   7
ATOM      7  O   UNL     1      76.803  33.205  52.032  1.00  0.00    -0.493 OA
ATOM      8  C   UNL     1      77.023  31.858  52.442  1.00  0.00     0.278 C 
ENDBRANCH   1   7
BRANCH   2   9
ATOM      9  O   UNL     1      76.656  35.888  51.236  1.00  0.00    -0.504 OA
ATOM     10  H   UNL     1      76.819  35.670  50.261  1.00  0.00     0.293 HD
ENDBRANCH   2   9
BRANCH   5  11
ATOM     11  C   UNL     1      72.380  33.580  54.211  1.00  0.00     0.000 C 
ATOM     12  C   UNL     1      72.307  33.597  55.543  1.00  0.00     0.009 C 
ENDBRANCH   5  11
TORSDOF 3
ENDMDL
MODEL 3
REMARK VINA RESULT:    -3.981      2.495      3.972
REMARK INTER + INTRA:          -4.647
REMARK INTER:                  -4.577
REMARK INTRA:                  -0.070
REMARK UNBOUND:                -0.084
REMARK SMILES C=Cc1ccc(O)c(OC)c1
REMARK SMILES IDX 8 1 6 2 5 3 4 4 3 5 11 6 9 7 10 8 7 9 2 11 1 12
REMARK H PARENT 7 10
REMARK Flexibility Score: inf
ROOT
ATOM      1  C   UNL     1      86.449  30.913  66.099  1.00  0.00     0.161 A 
ATOM      2  C   UNL     1      86.218  31.626  67.289  1.00  0.00     0.157 A 
ATOM      3  C   UNL     1      84.916  31.974  67.654  1.00  0.00     0.051 A 
ATOM      4  C   UNL     1      83.834  31.624  66.844  1.00  0.00     0.012 A 
ATOM      5  C   UNL     1      84.043  30.923  65.642  1.00  0.00    -0.022 A 
ATOM      6  C   UNL     1      85.353  30.562  65.285  1.00  0.00     0.058 A 
ENDROOT
BRANCH   1   7
ATOM      7  O   UNL     1      87.768  30.572  65.760  1.00  0.00    -0.493 OA
ATOM      8  C   UNL     1      88.125  29.633  64.750  1.00  0.00     0.278 C 
ENDBRANCH   1   7
BRANCH   2   9
ATOM      9  O   UNL     1      87.273  31.993  68.125  1.00  0.00    -0.504 OA
ATOM     10  H   UNL     1      87.596  31.400  68.880  1.00  0.00     0.293 HD
ENDBRANCH   2   9
BRANCH   5  11
ATOM     11  C   UNL     1      82.928  30.519  64.749  1.00  0.00     0.000 C 
ATOM     12  C   UNL     1      82.893  29.376  64.062  1.00  0.00     0.009 C 
ENDBRANCH   5  11
TORSDOF 3
ENDMDL
MODEL 4
REMARK VINA RESULT:    -3.841      2.619      4.331
REMARK INTER + INTRA:          -4.487
REMARK INTER:                  -4.391
REMARK INTRA:                  -0.096
REMARK UNBOUND:                -0.084
REMARK SMILES C=Cc1ccc(O)c(OC)c1
REMARK SMILES IDX 8 1 6 2 5 3 4 4 3 5 11 6 9 7 10 8 7 9 2 11 1 12
REMARK H PARENT 7 10
REMARK Flexibility Score: inf
ROOT
ATOM      1  C   UNL     1      86.832  32.570  65.661  1.00  0.00     0.161 A 
ATOM      2  C   UNL     1      86.856  32.372  67.053  1.00  0.00     0.157 A 
ATOM      3  C   UNL     1      85.752  31.808  67.698  1.00  0.00     0.051 A 
ATOM      4  C   UNL     1      84.618  31.441  66.972  1.00  0.00     0.012 A 
ATOM      5  C   UNL     1      84.568  31.643  65.580  1.00  0.00    -0.022 A 
ATOM      6  C   UNL     1      85.685  32.197  64.933  1.00  0.00     0.058 A 
ENDROOT
BRANCH   1   7
ATOM      7  O   UNL     1      87.958  33.134  65.040  1.00  0.00    -0.493 OA
ATOM      8  C   UNL     1      88.125  34.525  64.781  1.00  0.00     0.278 C 
ENDBRANCH   1   7
BRANCH   2   9
ATOM      9  O   UNL     1      87.971  32.726  67.813  1.00  0.00    -0.504 OA
ATOM     10  H   UNL     1      88.914  32.670  67.448  1.00  0.00     0.293 HD
ENDBRANCH   2   9
BRANCH   5  11
ATOM     11  C   UNL     1      83.390  31.262  64.760  1.00  0.00     0.000 C 
ATOM     12  C   UNL     1      83.006  30.004  64.537  1.00  0.00     0.009 C 
ENDBRANCH   5  11
TORSDOF 3
ENDMDL
MODEL 5
REMARK VINA RESULT:    -3.841     15.336     17.282
REMARK INTER + INTRA:          -4.487
REMARK INTER:                  -4.410
REMARK INTRA:                  -0.077
REMARK UNBOUND:                -0.084
REMARK SMILES C=Cc1ccc(O)c(OC)c1
REMARK SMILES IDX 8 1 6 2 5 3 4 4 3 5 11 6 9 7 10 8 7 9 2 11 1 12
REMARK H PARENT 7 10
REMARK Flexibility Score: inf
ROOT
ATOM      1  C   UNL     1      78.734  34.270  51.378  1.00  0.00     0.161 A 
ATOM      2  C   UNL     1      79.030  35.127  50.303  1.00  0.00     0.157 A 
ATOM      3  C   UNL     1      78.077  36.048  49.861  1.00  0.00     0.051 A 
ATOM      4  C   UNL     1      76.826  36.124  50.474  1.00  0.00     0.012 A 
ATOM      5  C   UNL     1      76.504  35.266  51.542  1.00  0.00    -0.022 A 
ATOM      6  C   UNL     1      77.468  34.351  51.993  1.00  0.00     0.058 A 
ENDROOT
BRANCH   1   7
ATOM      7  O   UNL     1      79.712  33.357  51.804  1.00  0.00    -0.493 OA
ATOM      8  C   UNL     1      79.464  31.986  52.099  1.00  0.00     0.278 C 
ENDBRANCH   1   7
BRANCH   2   9
ATOM      9  O   UNL     1      80.270  35.081  49.664  1.00  0.00    -0.504 OA
ATOM     10  H   UNL     1      80.488  34.390  48.957  1.00  0.00     0.293 HD
ENDBRANCH   2   9
BRANCH   5  11
ATOM     11  C   UNL     1      75.191  35.312  52.235  1.00  0.00     0.000 C 
ATOM     12  C   UNL     1      74.624  34.265  52.839  1.00  0.00     0.009 C 
ENDBRANCH   5  11
TORSDOF 3
ENDMDL
MODEL 6
REMARK VINA RESULT:    -3.833      1.701      2.887
REMARK INTER + INTRA:          -4.478
REMARK INTER:                  -4.389
REMARK INTRA:                  -0.089
REMARK UNBOUND:                -0.084
REMARK SMILES C=Cc1ccc(O)c(OC)c1
REMARK SMILES IDX 8 1 6 2 5 3 4 4 3 5 11 6 9 7 10 8 7 9 2 11 1 12
REMARK H PARENT 7 10
REMARK Flexibility Score: inf
ROOT
ATOM      1  C   UNL     1      85.217  31.270  65.347  1.00  0.00     0.161 A 
ATOM      2  C   UNL     1      85.876  30.050  65.114  1.00  0.00     0.157 A 
ATOM      3  C   UNL     1      87.265  30.021  64.970  1.00  0.00     0.051 A 
ATOM      4  C   UNL     1      88.011  31.198  65.052  1.00  0.00     0.012 A 
ATOM      5  C   UNL     1      87.370  32.432  65.271  1.00  0.00    -0.022 A 
ATOM      6  C   UNL     1      85.975  32.455  65.428  1.00  0.00     0.058 A 
ENDROOT
BRANCH   1   7
ATOM      7  O   UNL     1      83.821  31.267  65.492  1.00  0.00    -0.493 OA
ATOM      8  C   UNL     1      83.134  31.561  66.706  1.00  0.00     0.278 C 
ENDBRANCH   1   7
BRANCH   2   9
ATOM      9  O   UNL     1      85.165  28.852  65.027  1.00  0.00    -0.504 OA
ATOM     10  H   UNL     1      85.005  28.258  65.831  1.00  0.00     0.293 HD
ENDBRANCH   2   9
BRANCH   5  11
ATOM     11  C   UNL     1      88.117  33.712  65.374  1.00  0.00     0.000 C 
ATOM     12  C   UNL     1      87.760  34.840  64.758  1.00  0.00     0.009 C 
ENDBRANCH   5  11
TORSDOF 3
ENDMDL
MODEL 7
REMARK VINA RESULT:    -3.754     15.838     16.803
REMARK INTER + INTRA:          -4.387
REMARK INTER:                  -4.283
REMARK INTRA:                  -0.104
REMARK UNBOUND:                -0.084
REMARK SMILES C=Cc1ccc(O)c(OC)c1
REMARK SMILES IDX 8 1 6 2 5 3 4 4 3 5 11 6 9 7 10 8 7 9 2 11 1 12
REMARK H PARENT 7 10
REMARK Flexibility Score: inf
ROOT
ATOM      1  C   UNL     1      78.503  33.881  51.633  1.00  0.00     0.161 A 
ATOM      2  C   UNL     1      78.128  32.576  52.000  1.00  0.00     0.157 A 
ATOM      3  C   UNL     1      76.812  32.309  52.386  1.00  0.00     0.051 A 
ATOM      4  C   UNL     1      75.861  33.330  52.416  1.00  0.00     0.012 A 
ATOM      5  C   UNL     1      76.218  34.646  52.067  1.00  0.00    -0.022 A 
ATOM      6  C   UNL     1      77.539  34.908  51.666  1.00  0.00     0.058 A 
ENDROOT
BRANCH   1   7
ATOM      7  O   UNL     1      79.831  34.118  51.245  1.00  0.00    -0.493 OA
ATOM      8  C   UNL     1      80.222  34.629  49.974  1.00  0.00     0.278 C 
ENDBRANCH   1   7
BRANCH   2   9
ATOM      9  O   UNL     1      79.050  31.529  51.981  1.00  0.00    -0.504 OA
ATOM     10  H   UNL     1      79.151  30.911  51.186  1.00  0.00     0.293 HD
ENDBRANCH   2   9
BRANCH   5  11
ATOM     11  C   UNL     1      75.244  35.767  52.074  1.00  0.00     0.000 C 
ATOM     12  C   UNL     1      74.022  35.695  52.606  1.00  0.00     0.009 C 
ENDBRANCH   5  11
TORSDOF 3
ENDMDL
MODEL 8
REMARK VINA RESULT:    -3.597     16.245     17.028
REMARK INTER + INTRA:          -4.207
REMARK INTER:                  -4.106
REMARK INTRA:                  -0.101
REMARK UNBOUND:                -0.084
REMARK SMILES C=Cc1ccc(O)c(OC)c1
REMARK SMILES IDX 8 1 6 2 5 3 4 4 3 5 11 6 9 7 10 8 7 9 2 11 1 12
REMARK H PARENT 7 10
REMARK Flexibility Score: inf
ROOT
ATOM      1  C   UNL     1      75.025  35.021  52.382  1.00  0.00     0.161 A 
ATOM      2  C   UNL     1      74.917  33.663  52.729  1.00  0.00     0.157 A 
ATOM      3  C   UNL     1      76.000  32.803  52.533  1.00  0.00     0.051 A 
ATOM      4  C   UNL     1      77.194  33.279  51.988  1.00  0.00     0.012 A 
ATOM      5  C   UNL     1      77.318  34.631  51.620  1.00  0.00    -0.022 A 
ATOM      6  C   UNL     1      76.232  35.496  51.832  1.00  0.00     0.058 A 
ENDROOT
BRANCH   1   7
ATOM      7  O   UNL     1      73.921  35.863  52.595  1.00  0.00    -0.493 OA
ATOM      8  C   UNL     1      72.907  36.125  51.630  1.00  0.00     0.278 C 
ENDBRANCH   1   7
BRANCH   2   9
ATOM      9  O   UNL     1      73.740  33.150  53.277  1.00  0.00    -0.504 OA
ATOM     10  H   UNL     1      72.830  33.536  53.060  1.00  0.00     0.293 HD
ENDBRANCH   2   9
BRANCH   5  11
ATOM     11  C   UNL     1      78.568  35.191  51.045  1.00  0.00     0.000 C 
ATOM     12  C   UNL     1      79.779  34.657  51.218  1.00  0.00     0.009 C 
ENDBRANCH   5  11
TORSDOF 3
ENDMDL
MODEL 9
REMARK VINA RESULT:    -3.553      1.962      2.392
REMARK INTER + INTRA:          -4.157
REMARK INTER:                  -4.067
REMARK INTRA:                  -0.090
REMARK UNBOUND:                -0.084
REMARK SMILES C=Cc1ccc(O)c(OC)c1
REMARK SMILES IDX 8 1 6 2 5 3 4 4 3 5 11 6 9 7 10 8 7 9 2 11 1 12
REMARK H PARENT 7 10
REMARK Flexibility Score: inf
ROOT
ATOM      1  C   UNL     1      84.375  29.682  64.677  1.00  0.00     0.161 A 
ATOM      2  C   UNL     1      83.595  30.846  64.564  1.00  0.00     0.157 A 
ATOM      3  C   UNL     1      84.124  32.082  64.945  1.00  0.00     0.051 A 
ATOM      4  C   UNL     1      85.424  32.173  65.444  1.00  0.00     0.012 A 
ATOM      5  C   UNL     1      86.217  31.019  65.579  1.00  0.00    -0.022 A 
ATOM      6  C   UNL     1      85.687  29.780  65.182  1.00  0.00     0.058 A 
ENDROOT
BRANCH   1   7
ATOM      7  O   UNL     1      83.819  28.455  64.281  1.00  0.00    -0.493 OA
ATOM      8  C   UNL     1      84.342  27.179  64.638  1.00  0.00     0.278 C 
ENDBRANCH   1   7
BRANCH   2   9
ATOM      9  O   UNL     1      82.291  30.795  64.069  1.00  0.00    -0.504 OA
ATOM     10  H   UNL     1      81.968  31.412  63.333  1.00  0.00     0.293 HD
ENDBRANCH   2   9
BRANCH   5  11
ATOM     11  C   UNL     1      87.609  31.061  66.096  1.00  0.00     0.000 C 
ATOM     12  C   UNL     1      88.114  32.071  66.807  1.00  0.00     0.009 C 
ENDBRANCH   5  11
TORSDOF 3
ENDMDL
