MODEL 1
REMARK VINA RESULT:    -5.901      0.000      0.000
REMARK INTER + INTRA:          -6.541
REMARK INTER:                  -6.419
REMARK INTRA:                  -0.122
REMARK UNBOUND:                -0.122
REMARK SMILES Cc1ccc(C(C)C)c(O)c1
REMARK SMILES IDX 1 1 2 2 11 3 9 4 5 5 4 6 3 7 10 8 6 10 7 11 8 12
REMARK H PARENT 10 9
REMARK Flexibility Score: inf
ROOT
ATOM      1  C   UNL     1     -34.429  67.406 -18.559  1.00  0.00     0.044 C 
ATOM      2  C   UNL     1     -35.062  68.760 -18.681  1.00  0.00    -0.047 A 
ATOM      3  C   UNL     1     -34.272  69.886 -18.949  1.00  0.00     0.049 A 
ATOM      4  C   UNL     1     -34.859  71.152 -19.101  1.00  0.00     0.119 A 
ATOM      5  C   UNL     1     -36.261  71.298 -18.996  1.00  0.00    -0.004 A 
ATOM      6  C   UNL     1     -37.045  70.155 -18.747  1.00  0.00     0.008 A 
ATOM      7  C   UNL     1     -36.452  68.900 -18.598  1.00  0.00     0.004 A 
ENDROOT
BRANCH   4   8
ATOM      8  O   UNL     1     -34.049  72.258 -19.359  1.00  0.00    -0.508 OA
ATOM      9  H   UNL     1     -34.216  73.155 -18.918  1.00  0.00     0.293 HD
ENDBRANCH   4   8
BRANCH   5  10
ATOM     10  C   UNL     1     -36.922  72.660 -19.158  1.00  0.00     0.017 C 
ATOM     11  C   UNL     1     -38.403  72.513 -19.532  1.00  0.00     0.012 C 
ATOM     12  C   UNL     1     -36.754  73.509 -17.893  1.00  0.00     0.012 C 
ENDBRANCH   5  10
TORSDOF 2
ENDMDL
MODEL 2
REMARK VINA RESULT:    -5.759      1.582      2.395
REMARK INTER + INTRA:          -6.387
REMARK INTER:                  -6.230
REMARK INTRA:                  -0.157
REMARK UNBOUND:                -0.122
REMARK SMILES Cc1ccc(C(C)C)c(O)c1
REMARK SMILES IDX 1 1 2 2 11 3 9 4 5 5 4 6 3 7 10 8 6 10 7 11 8 12
REMARK H PARENT 10 9
REMARK Flexibility Score: inf
ROOT
ATOM      1  C   UNL     1     -33.641  67.945 -19.012  1.00  0.00     0.044 C 
ATOM      2  C   UNL     1     -34.559  69.128 -18.920  1.00  0.00    -0.047 A 
ATOM      3  C   UNL     1     -35.915  68.947 -18.616  1.00  0.00     0.049 A 
ATOM      4  C   UNL     1     -36.774  70.050 -18.492  1.00  0.00     0.119 A 
ATOM      5  C   UNL     1     -36.271  71.360 -18.664  1.00  0.00    -0.004 A 
ATOM      6  C   UNL     1     -34.902  71.529 -18.949  1.00  0.00     0.008 A 
ATOM      7  C   UNL     1     -34.056  70.425 -19.070  1.00  0.00     0.004 A 
ENDROOT
BRANCH   4   8
ATOM      8  O   UNL     1     -38.121  69.842 -18.197  1.00  0.00    -0.508 OA
ATOM      9  H   UNL     1     -38.450  68.973 -17.792  1.00  0.00     0.293 HD
ENDBRANCH   4   8
BRANCH   5  10
ATOM     10  C   UNL     1     -37.182  72.572 -18.534  1.00  0.00     0.017 C 
ATOM     11  C   UNL     1     -36.386  73.820 -18.130  1.00  0.00     0.012 C 
ATOM     12  C   UNL     1     -37.967  72.815 -19.829  1.00  0.00     0.012 C 
ENDBRANCH   5  10
TORSDOF 2
ENDMDL
MODEL 3
REMARK VINA RESULT:    -5.549      1.143      4.188
REMARK INTER + INTRA:          -6.158
REMARK INTER:                  -6.195
REMARK INTRA:                   0.037
REMARK UNBOUND:                -0.122
REMARK SMILES Cc1ccc(C(C)C)c(O)c1
REMARK SMILES IDX 1 1 2 2 11 3 9 4 5 5 4 6 3 7 10 8 6 10 7 11 8 12
REMARK H PARENT 10 9
REMARK Flexibility Score: inf
ROOT
ATOM      1  C   UNL     1     -38.819  74.458 -19.796  1.00  0.00     0.044 C 
ATOM      2  C   UNL     1     -37.948  73.281 -19.474  1.00  0.00    -0.047 A 
ATOM      3  C   UNL     1     -36.667  73.475 -18.940  1.00  0.00     0.049 A 
ATOM      4  C   UNL     1     -35.859  72.380 -18.601  1.00  0.00     0.119 A 
ATOM      5  C   UNL     1     -36.339  71.063 -18.785  1.00  0.00    -0.004 A 
ATOM      6  C   UNL     1     -37.637  70.881 -19.303  1.00  0.00     0.008 A 
ATOM      7  C   UNL     1     -38.433  71.978 -19.637  1.00  0.00     0.004 A 
ENDROOT
BRANCH   4   8
ATOM      8  O   UNL     1     -34.584  72.601 -18.079  1.00  0.00    -0.508 OA
ATOM      9  H   UNL     1     -34.348  73.461 -17.597  1.00  0.00     0.293 HD
ENDBRANCH   4   8
BRANCH   5  10
ATOM     10  C   UNL     1     -35.483  69.858 -18.424  1.00  0.00     0.017 C 
ATOM     11  C   UNL     1     -36.296  68.559 -18.504  1.00  0.00     0.012 C 
ATOM     12  C   UNL     1     -34.234  69.782 -19.311  1.00  0.00     0.012 C 
ENDBRANCH   5  10
TORSDOF 2
ENDMDL
MODEL 4
REMARK VINA RESULT:    -4.954      1.987      2.860
REMARK INTER + INTRA:          -5.511
REMARK INTER:                  -5.311
REMARK INTRA:                  -0.200
REMARK UNBOUND:                -0.122
REMARK SMILES Cc1ccc(C(C)C)c(O)c1
REMARK SMILES IDX 1 1 2 2 11 3 9 4 5 5 4 6 3 7 10 8 6 10 7 11 8 12
REMARK H PARENT 10 9
REMARK Flexibility Score: inf
ROOT
ATOM      1  C   UNL     1     -35.009  68.889 -18.744  1.00  0.00     0.044 C 
ATOM      2  C   UNL     1     -35.802  70.159 -18.839  1.00  0.00    -0.047 A 
ATOM      3  C   UNL     1     -37.186  70.112 -19.054  1.00  0.00     0.049 A 
ATOM      4  C   UNL     1     -37.941  71.293 -19.108  1.00  0.00     0.119 A 
ATOM      5  C   UNL     1     -37.310  72.545 -18.932  1.00  0.00    -0.004 A 
ATOM      6  C   UNL     1     -35.922  72.577 -18.696  1.00  0.00     0.008 A 
ATOM      7  C   UNL     1     -35.179  71.397 -18.644  1.00  0.00     0.004 A 
ENDROOT
BRANCH   4   8
ATOM      8  O   UNL     1     -39.316  71.219 -19.332  1.00  0.00    -0.508 OA
ATOM      9  H   UNL     1     -39.882  70.478 -18.935  1.00  0.00     0.293 HD
ENDBRANCH   4   8
BRANCH   5  10
ATOM     10  C   UNL     1     -38.108  73.840 -18.985  1.00  0.00     0.017 C 
ATOM     11  C   UNL     1     -37.598  74.846 -17.944  1.00  0.00     0.012 C 
ATOM     12  C   UNL     1     -38.086  74.446 -20.394  1.00  0.00     0.012 C 
ENDBRANCH   5  10
TORSDOF 2
ENDMDL
MODEL 5
REMARK VINA RESULT:    -4.759      8.827      9.823
REMARK INTER + INTRA:          -5.298
REMARK INTER:                  -5.110
REMARK INTRA:                  -0.188
REMARK UNBOUND:                -0.122
REMARK SMILES Cc1ccc(C(C)C)c(O)c1
REMARK SMILES IDX 1 1 2 2 11 3 9 4 5 5 4 6 3 7 10 8 6 10 7 11 8 12
REMARK H PARENT 10 9
REMARK Flexibility Score: inf
ROOT
ATOM      1  C   UNL     1     -38.160  76.775 -12.738  1.00  0.00     0.044 C 
ATOM      2  C   UNL     1     -38.538  75.523 -12.005  1.00  0.00    -0.047 A 
ATOM      3  C   UNL     1     -37.679  74.984 -11.038  1.00  0.00     0.049 A 
ATOM      4  C   UNL     1     -38.040  73.834 -10.321  1.00  0.00     0.119 A 
ATOM      5  C   UNL     1     -39.286  73.213 -10.561  1.00  0.00    -0.004 A 
ATOM      6  C   UNL     1     -40.150  73.776 -11.521  1.00  0.00     0.008 A 
ATOM      7  C   UNL     1     -39.782  74.921 -12.229  1.00  0.00     0.004 A 
ENDROOT
BRANCH   4   8
ATOM      8  O   UNL     1     -37.162  73.313  -9.370  1.00  0.00    -0.508 OA
ATOM      9  H   UNL     1     -37.494  72.910  -8.502  1.00  0.00     0.293 HD
ENDBRANCH   4   8
BRANCH   5  10
ATOM     10  C   UNL     1     -39.702  71.965  -9.796  1.00  0.00     0.017 C 
ATOM     11  C   UNL     1     -41.224  71.915  -9.605  1.00  0.00     0.012 C 
ATOM     12  C   UNL     1     -39.191  70.696 -10.489  1.00  0.00     0.012 C 
ENDBRANCH   5  10
TORSDOF 2
ENDMDL
MODEL 6
REMARK VINA RESULT:    -4.657      9.021      9.526
REMARK INTER + INTRA:          -5.188
REMARK INTER:                  -4.992
REMARK INTRA:                  -0.196
REMARK UNBOUND:                -0.122
REMARK SMILES Cc1ccc(C(C)C)c(O)c1
REMARK SMILES IDX 1 1 2 2 11 3 9 4 5 5 4 6 3 7 10 8 6 10 7 11 8 12
REMARK H PARENT 10 9
REMARK Flexibility Score: inf
ROOT
ATOM      1  C   UNL     1     -39.189  70.841  -9.598  1.00  0.00     0.044 C 
ATOM      2  C   UNL     1     -39.153  72.278 -10.026  1.00  0.00    -0.047 A 
ATOM      3  C   UNL     1     -37.985  73.035  -9.861  1.00  0.00     0.049 A 
ATOM      4  C   UNL     1     -37.930  74.369 -10.292  1.00  0.00     0.119 A 
ATOM      5  C   UNL     1     -39.056  74.959 -10.910  1.00  0.00    -0.004 A 
ATOM      6  C   UNL     1     -40.217  74.182 -11.088  1.00  0.00     0.008 A 
ATOM      7  C   UNL     1     -40.262  72.855 -10.657  1.00  0.00     0.004 A 
ENDROOT
BRANCH   4   8
ATOM      8  O   UNL     1     -36.758  75.103 -10.108  1.00  0.00    -0.508 OA
ATOM      9  H   UNL     1     -36.350  75.651 -10.855  1.00  0.00     0.293 HD
ENDBRANCH   4   8
BRANCH   5  10
ATOM     10  C   UNL     1     -39.022  76.404 -11.387  1.00  0.00     0.017 C 
ATOM     11  C   UNL     1     -38.541  76.494 -12.841  1.00  0.00     0.012 C 
ATOM     12  C   UNL     1     -40.389  77.076 -11.215  1.00  0.00     0.012 C 
ENDBRANCH   5  10
TORSDOF 2
ENDMDL
MODEL 7
REMARK VINA RESULT:    -4.632      8.592      9.812
REMARK INTER + INTRA:          -5.161
REMARK INTER:                  -4.964
REMARK INTRA:                  -0.197
REMARK UNBOUND:                -0.122
REMARK SMILES Cc1ccc(C(C)C)c(O)c1
REMARK SMILES IDX 1 1 2 2 11 3 9 4 5 5 4 6 3 7 10 8 6 10 7 11 8 12
REMARK H PARENT 10 9
REMARK Flexibility Score: inf
ROOT
ATOM      1  C   UNL     1     -38.428  76.878 -23.813  1.00  0.00     0.044 C 
ATOM      2  C   UNL     1     -37.713  76.156 -24.916  1.00  0.00    -0.047 A 
ATOM      3  C   UNL     1     -38.418  75.299 -25.772  1.00  0.00     0.049 A 
ATOM      4  C   UNL     1     -37.765  74.647 -26.829  1.00  0.00     0.119 A 
ATOM      5  C   UNL     1     -36.385  74.860 -27.046  1.00  0.00    -0.004 A 
ATOM      6  C   UNL     1     -35.692  75.739 -26.191  1.00  0.00     0.008 A 
ATOM      7  C   UNL     1     -36.351  76.384 -25.142  1.00  0.00     0.004 A 
ENDROOT
BRANCH   4   8
ATOM      8  O   UNL     1     -38.489  73.793 -27.661  1.00  0.00    -0.508 OA
ATOM      9  H   UNL     1     -38.191  73.594 -28.609  1.00  0.00     0.293 HD
ENDBRANCH   4   8
BRANCH   5  10
ATOM     10  C   UNL     1     -35.654  74.165 -28.186  1.00  0.00     0.017 C 
ATOM     11  C   UNL     1     -34.991  75.186 -29.119  1.00  0.00     0.012 C 
ATOM     12  C   UNL     1     -34.628  73.159 -27.652  1.00  0.00     0.012 C 
ENDBRANCH   5  10
TORSDOF 2
ENDMDL
MODEL 8
REMARK VINA RESULT:    -4.551      9.671     10.170
REMARK INTER + INTRA:          -5.072
REMARK INTER:                  -4.881
REMARK INTRA:                  -0.191
REMARK UNBOUND:                -0.122
REMARK SMILES Cc1ccc(C(C)C)c(O)c1
REMARK SMILES IDX 1 1 2 2 11 3 9 4 5 5 4 6 3 7 10 8 6 10 7 11 8 12
REMARK H PARENT 10 9
REMARK Flexibility Score: inf
ROOT
ATOM      1  C   UNL     1     -39.627  70.660 -10.010  1.00  0.00     0.044 C 
ATOM      2  C   UNL     1     -39.388  72.132 -10.163  1.00  0.00    -0.047 A 
ATOM      3  C   UNL     1     -40.455  72.994 -10.451  1.00  0.00     0.049 A 
ATOM      4  C   UNL     1     -40.247  74.378 -10.560  1.00  0.00     0.119 A 
ATOM      5  C   UNL     1     -38.955  74.916 -10.366  1.00  0.00    -0.004 A 
ATOM      6  C   UNL     1     -37.895  74.041 -10.056  1.00  0.00     0.008 A 
ATOM      7  C   UNL     1     -38.112  72.667  -9.950  1.00  0.00     0.004 A 
ENDROOT
BRANCH   4   8
ATOM      8  O   UNL     1     -41.325  75.212 -10.857  1.00  0.00    -0.508 OA
ATOM      9  H   UNL     1     -41.762  75.791 -10.149  1.00  0.00     0.293 HD
ENDBRANCH   4   8
BRANCH   5  10
ATOM     10  C   UNL     1     -38.704  76.413 -10.478  1.00  0.00     0.017 C 
ATOM     11  C   UNL     1     -38.929  77.113  -9.130  1.00  0.00     0.012 C 
ATOM     12  C   UNL     1     -37.299  76.699 -11.020  1.00  0.00     0.012 C 
ENDBRANCH   5  10
TORSDOF 2
ENDMDL
MODEL 9
REMARK VINA RESULT:    -4.449      9.232     10.651
REMARK INTER + INTRA:          -4.962
REMARK INTER:                  -4.762
REMARK INTRA:                  -0.200
REMARK UNBOUND:                -0.122
REMARK SMILES Cc1ccc(C(C)C)c(O)c1
REMARK SMILES IDX 1 1 2 2 11 3 9 4 5 5 4 6 3 7 10 8 6 10 7 11 8 12
REMARK H PARENT 10 9
REMARK Flexibility Score: inf
ROOT
ATOM      1  C   UNL     1     -38.587  76.918  -9.518  1.00  0.00     0.044 C 
ATOM      2  C   UNL     1     -39.071  75.524  -9.787  1.00  0.00    -0.047 A 
ATOM      3  C   UNL     1     -39.804  75.242 -10.947  1.00  0.00     0.049 A 
ATOM      4  C   UNL     1     -40.229  73.935 -11.225  1.00  0.00     0.119 A 
ATOM      5  C   UNL     1     -39.908  72.883 -10.338  1.00  0.00    -0.004 A 
ATOM      6  C   UNL     1     -39.153  73.175  -9.185  1.00  0.00     0.008 A 
ATOM      7  C   UNL     1     -38.734  74.480  -8.917  1.00  0.00     0.004 A 
ENDROOT
BRANCH   4   8
ATOM      8  O   UNL     1     -40.965  73.683 -12.383  1.00  0.00    -0.508 OA
ATOM      9  H   UNL     1     -41.791  74.223 -12.618  1.00  0.00     0.293 HD
ENDBRANCH   4   8
BRANCH   5  10
ATOM     10  C   UNL     1     -40.357  71.456 -10.617  1.00  0.00     0.017 C 
ATOM     11  C   UNL     1     -39.258  70.450 -10.251  1.00  0.00     0.012 C 
ATOM     12  C   UNL     1     -41.665  71.134  -9.885  1.00  0.00     0.012 C 
ENDBRANCH   5  10
TORSDOF 2
ENDMDL
