MODEL 1
REMARK VINA RESULT:    23.775      0.000      0.000
REMARK INTER + INTRA:          27.685
REMARK INTER:                  27.944
REMARK INTRA:                  -0.260
REMARK UNBOUND:                -0.260
REMARK SMILES Oc1ccc(-c2[o+]c3cc(O)cc(O)c3cc2O)cc1
REMARK SMILES IDX 6 1 7 2 8 3 9 4 10 5 12 6 13 7 15 8 16 9 17 10 5 11 4 12
REMARK SMILES IDX 3 13 2 14 19 15 20 16 1 17 18 19 11 21 14 23
REMARK H PARENT 1 18 18 20 11 22 14 24
REMARK Flexibility Score: inf
ROOT
ATOM      1  C   UNL     1       9.197   2.153   9.194  1.00  0.00     0.401 A 
ATOM      2  O   UNL     1      10.071   1.311   8.652  1.00  0.00    -0.202 OA
ATOM      3  C   UNL     1      11.016   1.689   7.798  1.00  0.00     0.368 A 
ATOM      4  C   UNL     1      11.888   0.727   7.279  1.00  0.00     0.162 A 
ATOM      5  C   UNL     1      12.887   1.095   6.378  1.00  0.00     0.128 A 
ATOM      6  C   UNL     1      13.019   2.434   5.990  1.00  0.00     0.093 A 
ATOM      7  C   UNL     1      12.157   3.416   6.496  1.00  0.00     0.136 A 
ATOM      8  C   UNL     1      11.141   3.046   7.414  1.00  0.00     0.125 A 
ATOM      9  C   UNL     1      10.242   3.964   7.983  1.00  0.00     0.078 A 
ATOM     10  C   UNL     1       9.269   3.525   8.885  1.00  0.00     0.223 A 
ENDROOT
BRANCH   1  11
ATOM     11  C   UNL     1       8.182   1.607  10.126  1.00  0.00     0.084 A 
ATOM     12  C   UNL     1       8.516   1.248  11.445  1.00  0.00     0.022 A 
ATOM     13  C   UNL     1       7.535   0.756  12.312  1.00  0.00     0.047 A 
ATOM     14  C   UNL     1       6.212   0.629  11.880  1.00  0.00     0.115 A 
ATOM     15  C   UNL     1       6.846   1.496   9.705  1.00  0.00     0.022 A 
ATOM     16  C   UNL     1       5.869   1.003  10.574  1.00  0.00     0.047 A 
BRANCH  14  17
ATOM     17  O   UNL     1       5.247   0.136  12.755  1.00  0.00    -0.508 OA
ATOM     18  H   UNL     1       4.644   0.757  13.283  1.00  0.00     0.293 HD
ENDBRANCH  14  17
ENDBRANCH   1  11
BRANCH  10  19
ATOM     19  O   UNL     1       8.408   4.442   9.487  1.00  0.00    -0.500 OA
ATOM     20  H   UNL     1       8.070   5.259   8.992  1.00  0.00     0.294 HD
ENDBRANCH  10  19
BRANCH   5  21
ATOM     21  O   UNL     1      13.748   0.123   5.873  1.00  0.00    -0.507 OA
ATOM     22  H   UNL     1      13.460  -0.846   5.787  1.00  0.00     0.293 HD
ENDBRANCH   5  21
BRANCH   7  23
ATOM     23  O   UNL     1      12.351   4.729   6.058  1.00  0.00    -0.507 OA
ATOM     24  H   UNL     1      11.630   5.435   6.036  1.00  0.00     0.293 HD
ENDBRANCH   7  23
TORSDOF 5
ENDMDL
MODEL 2
REMARK VINA RESULT:    23.793      1.043      2.862
REMARK INTER + INTRA:          27.706
REMARK INTER:                  27.963
REMARK INTRA:                  -0.257
REMARK UNBOUND:                -0.260
REMARK SMILES Oc1ccc(-c2[o+]c3cc(O)cc(O)c3cc2O)cc1
REMARK SMILES IDX 6 1 7 2 8 3 9 4 10 5 12 6 13 7 15 8 16 9 17 10 5 11 4 12
REMARK SMILES IDX 3 13 2 14 19 15 20 16 1 17 18 19 11 21 14 23
REMARK H PARENT 1 18 18 20 11 22 14 24
REMARK Flexibility Score: inf
ROOT
ATOM      1  C   UNL     1       9.228   1.360   9.291  1.00  0.00     0.401 A 
ATOM      2  O   UNL     1       9.488   2.570   8.806  1.00  0.00    -0.202 OA
ATOM      3  C   UNL     1      10.455   2.812   7.926  1.00  0.00     0.368 A 
ATOM      4  C   UNL     1      10.653   4.120   7.476  1.00  0.00     0.162 A 
ATOM      5  C   UNL     1      11.661   4.403   6.555  1.00  0.00     0.128 A 
ATOM      6  C   UNL     1      12.481   3.373   6.079  1.00  0.00     0.093 A 
ATOM      7  C   UNL     1      12.302   2.054   6.515  1.00  0.00     0.136 A 
ATOM      8  C   UNL     1      11.275   1.762   7.450  1.00  0.00     0.125 A 
ATOM      9  C   UNL     1      11.015   0.468   7.932  1.00  0.00     0.078 A 
ATOM     10  C   UNL     1       9.982   0.256   8.849  1.00  0.00     0.223 A 
ENDROOT
BRANCH   1  11
ATOM     11  C   UNL     1       8.130   1.221  10.276  1.00  0.00     0.084 A 
ATOM     12  C   UNL     1       6.780   1.253   9.879  1.00  0.00     0.022 A 
ATOM     13  C   UNL     1       5.763   1.097  10.825  1.00  0.00     0.047 A 
ATOM     14  C   UNL     1       6.077   0.895  12.172  1.00  0.00     0.115 A 
ATOM     15  C   UNL     1       8.439   0.996  11.628  1.00  0.00     0.022 A 
ATOM     16  C   UNL     1       7.419   0.842  12.571  1.00  0.00     0.047 A 
BRANCH  14  17
ATOM     17  O   UNL     1       5.052   0.742  13.103  1.00  0.00    -0.508 OA
ATOM     18  H   UNL     1       4.603   1.543  13.531  1.00  0.00     0.293 HD
ENDBRANCH  14  17
ENDBRANCH   1  11
BRANCH  10  19
ATOM     19  O   UNL     1       9.691  -1.034   9.290  1.00  0.00    -0.500 OA
ATOM     20  H   UNL     1       8.851  -1.520   8.998  1.00  0.00     0.294 HD
ENDBRANCH  10  19
BRANCH   5  21
ATOM     21  O   UNL     1      11.843   5.714   6.117  1.00  0.00    -0.507 OA
ATOM     22  H   UNL     1      11.435   6.044   5.250  1.00  0.00     0.293 HD
ENDBRANCH   5  21
BRANCH   7  23
ATOM     23  O   UNL     1      13.163   1.082   5.995  1.00  0.00    -0.507 OA
ATOM     24  H   UNL     1      14.147   1.018   6.211  1.00  0.00     0.293 HD
ENDBRANCH   7  23
TORSDOF 5
ENDMDL
MODEL 3
REMARK VINA RESULT:    25.727      4.643      7.533
REMARK INTER + INTRA:          29.980
REMARK INTER:                  30.211
REMARK INTRA:                  -0.232
REMARK UNBOUND:                -0.260
REMARK SMILES Oc1ccc(-c2[o+]c3cc(O)cc(O)c3cc2O)cc1
REMARK SMILES IDX 6 1 7 2 8 3 9 4 10 5 12 6 13 7 15 8 16 9 17 10 5 11 4 12
REMARK SMILES IDX 3 13 2 14 19 15 20 16 1 17 18 19 11 21 14 23
REMARK H PARENT 1 18 18 20 11 22 14 24
REMARK Flexibility Score: inf
ROOT
ATOM      1  C   UNL     1      14.947   2.968   9.195  1.00  0.00     0.401 A 
ATOM      2  O   UNL     1      14.021   3.811   8.747  1.00  0.00    -0.202 OA
ATOM      3  C   UNL     1      13.067   3.460   7.891  1.00  0.00     0.368 A 
ATOM      4  C   UNL     1      12.139   4.420   7.476  1.00  0.00     0.162 A 
ATOM      5  C   UNL     1      11.129   4.081   6.576  1.00  0.00     0.128 A 
ATOM      6  C   UNL     1      11.043   2.773   6.084  1.00  0.00     0.093 A 
ATOM      7  C   UNL     1      11.961   1.793   6.484  1.00  0.00     0.136 A 
ATOM      8  C   UNL     1      12.988   2.134   7.402  1.00  0.00     0.125 A 
ATOM      9  C   UNL     1      13.943   1.215   7.869  1.00  0.00     0.078 A 
ATOM     10  C   UNL     1      14.923   1.624   8.777  1.00  0.00     0.223 A 
ENDROOT
BRANCH   1  11
ATOM     11  C   UNL     1      15.965   3.483  10.140  1.00  0.00     0.084 A 
ATOM     12  C   UNL     1      15.638   3.788  11.475  1.00  0.00     0.022 A 
ATOM     13  C   UNL     1      16.623   4.251  12.353  1.00  0.00     0.047 A 
ATOM     14  C   UNL     1      17.943   4.402  11.917  1.00  0.00     0.115 A 
ATOM     15  C   UNL     1      17.297   3.617   9.715  1.00  0.00     0.022 A 
ATOM     16  C   UNL     1      18.278   4.081  10.595  1.00  0.00     0.047 A 
BRANCH  14  17
ATOM     17  O   UNL     1      18.912   4.866  12.804  1.00  0.00    -0.508 OA
ATOM     18  H   UNL     1      18.732   4.928  13.799  1.00  0.00     0.293 HD
ENDBRANCH  14  17
ENDBRANCH   1  11
BRANCH  10  19
ATOM     19  O   UNL     1      15.841   0.701   9.279  1.00  0.00    -0.500 OA
ATOM     20  H   UNL     1      16.818   0.722   9.010  1.00  0.00     0.294 HD
ENDBRANCH  10  19
BRANCH   5  21
ATOM     21  O   UNL     1      10.213   5.051   6.175  1.00  0.00    -0.507 OA
ATOM     22  H   UNL     1      10.499   5.856   5.630  1.00  0.00     0.293 HD
ENDBRANCH   5  21
BRANCH   7  23
ATOM     23  O   UNL     1      11.810   0.512   5.946  1.00  0.00    -0.507 OA
ATOM     24  H   UNL     1      11.262   0.299   5.126  1.00  0.00     0.293 HD
ENDBRANCH   7  23
TORSDOF 5
ENDMDL
MODEL 4
REMARK VINA RESULT:    25.870      4.872      7.173
REMARK INTER + INTRA:          30.147
REMARK INTER:                  30.417
REMARK INTRA:                  -0.270
REMARK UNBOUND:                -0.260
REMARK SMILES Oc1ccc(-c2[o+]c3cc(O)cc(O)c3cc2O)cc1
REMARK SMILES IDX 6 1 7 2 8 3 9 4 10 5 12 6 13 7 15 8 16 9 17 10 5 11 4 12
REMARK SMILES IDX 3 13 2 14 19 15 20 16 1 17 18 19 11 21 14 23
REMARK H PARENT 1 18 18 20 11 22 14 24
REMARK Flexibility Score: inf
ROOT
ATOM      1  C   UNL     1      14.954   3.779   9.399  1.00  0.00     0.401 A 
ATOM      2  O   UNL     1      14.679   2.592   8.867  1.00  0.00    -0.202 OA
ATOM      3  C   UNL     1      13.706   2.396   7.983  1.00  0.00     0.368 A 
ATOM      4  C   UNL     1      13.492   1.108   7.482  1.00  0.00     0.162 A 
ATOM      5  C   UNL     1      12.476   0.873   6.556  1.00  0.00     0.128 A 
ATOM      6  C   UNL     1      11.664   1.929   6.127  1.00  0.00     0.093 A 
ATOM      7  C   UNL     1      11.858   3.228   6.615  1.00  0.00     0.136 A 
ATOM      8  C   UNL     1      12.893   3.472   7.555  1.00  0.00     0.125 A 
ATOM      9  C   UNL     1      13.168   4.743   8.087  1.00  0.00     0.078 A 
ATOM     10  C   UNL     1      14.208   4.907   9.006  1.00  0.00     0.223 A 
ENDROOT
BRANCH   1  11
ATOM     11  C   UNL     1      16.058   3.868  10.382  1.00  0.00     0.084 A 
ATOM     12  C   UNL     1      17.405   3.872   9.974  1.00  0.00     0.022 A 
ATOM     13  C   UNL     1      18.429   3.979  10.920  1.00  0.00     0.047 A 
ATOM     14  C   UNL     1      18.123   4.096  12.279  1.00  0.00     0.115 A 
ATOM     15  C   UNL     1      15.758   4.006  11.748  1.00  0.00     0.022 A 
ATOM     16  C   UNL     1      16.785   4.112  12.691  1.00  0.00     0.047 A 
BRANCH  14  17
ATOM     17  O   UNL     1      19.155   4.201  13.210  1.00  0.00    -0.508 OA
ATOM     18  H   UNL     1      19.114   3.720  14.101  1.00  0.00     0.293 HD
ENDBRANCH  14  17
ENDBRANCH   1  11
BRANCH  10  19
ATOM     19  O   UNL     1      14.514   6.176   9.498  1.00  0.00    -0.500 OA
ATOM     20  H   UNL     1      14.101   7.013   9.104  1.00  0.00     0.294 HD
ENDBRANCH  10  19
BRANCH   5  21
ATOM     21  O   UNL     1      12.280  -0.417   6.067  1.00  0.00    -0.507 OA
ATOM     22  H   UNL     1      11.392  -0.894   6.172  1.00  0.00     0.293 HD
ENDBRANCH   5  21
BRANCH   7  23
ATOM     23  O   UNL     1      11.004   4.228   6.140  1.00  0.00    -0.507 OA
ATOM     24  H   UNL     1      10.583   4.940   6.718  1.00  0.00     0.293 HD
ENDBRANCH   7  23
TORSDOF 5
ENDMDL
