MODEL 1
REMARK VINA RESULT:    -3.577      0.000      0.000
REMARK INTER + INTRA:          -4.575
REMARK INTER:                  -4.308
REMARK INTRA:                  -0.266
REMARK UNBOUND:                -0.266
REMARK SMILES NC(=O)C[C@@H]([NH3+])C(=O)[O-]
REMARK SMILES IDX 4 1 5 2 6 3 7 7 8 8 9 9 2 10 3 11 1 12
REMARK H PARENT 6 4 6 5 6 6 1 13 1 14
REMARK Flexibility Score: inf
ROOT
ATOM      1  C   UNL     1     128.365 133.304 125.266  1.00  0.00     0.171 C 
ENDROOT
BRANCH   1   2
ATOM      2  C   UNL     1     127.272 134.084 126.023  1.00  0.00     0.237 C 
BRANCH   2   3
ATOM      3  N   UNL     1     125.936 133.809 125.475  1.00  0.00    -0.350 N 
ATOM      4  H   UNL     1     125.355 134.678 125.504  1.00  0.00     0.345 HD
ATOM      5  H   UNL     1     125.457 133.059 126.025  1.00  0.00     0.345 HD
ATOM      6  H   UNL     1     126.013 133.508 124.477  1.00  0.00     0.345 HD
ENDBRANCH   2   3
BRANCH   2   7
ATOM      7  C   UNL     1     127.316 133.735 127.486  1.00  0.00     0.100 C 
ATOM      8  O   UNL     1     127.363 132.532 127.856  1.00  0.00    -0.544 OA
ATOM      9  O   UNL     1     127.324 134.746 128.441  1.00  0.00    -0.544 OA
ENDBRANCH   2   7
ENDBRANCH   1   2
BRANCH   1  10
ATOM     10  C   UNL     1     128.362 133.623 123.800  1.00  0.00     0.223 C 
ATOM     11  O   UNL     1     127.535 133.055 123.038  1.00  0.00    -0.275 OA
ATOM     12  N   UNL     1     129.313 134.538 123.255  1.00  0.00    -0.369 N 
ATOM     13  H   UNL     1     129.315 134.748 122.232  1.00  0.00     0.159 HD
ATOM     14  H   UNL     1     130.022 134.999 123.867  1.00  0.00     0.159 HD
ENDBRANCH   1  10
TORSDOF 4
ENDMDL
MODEL 2
REMARK VINA RESULT:    -3.569      5.434      7.036
REMARK INTER + INTRA:          -4.566
REMARK INTER:                  -4.302
REMARK INTRA:                  -0.265
REMARK UNBOUND:                -0.266
REMARK SMILES NC(=O)C[C@@H]([NH3+])C(=O)[O-]
REMARK SMILES IDX 4 1 5 2 6 3 7 7 8 8 9 9 2 10 3 11 1 12
REMARK H PARENT 6 4 6 5 6 6 1 13 1 14
REMARK Flexibility Score: inf
ROOT
ATOM      1  C   UNL     1     129.572 133.332 130.956  1.00  0.00     0.171 C 
ENDROOT
BRANCH   1   2
ATOM      2  C   UNL     1     130.684 134.081 130.195  1.00  0.00     0.237 C 
BRANCH   2   3
ATOM      3  N   UNL     1     132.007 133.823 130.781  1.00  0.00    -0.350 N 
ATOM      4  H   UNL     1     132.278 134.617 131.407  1.00  0.00     0.345 HD
ATOM      5  H   UNL     1     132.730 133.715 130.033  1.00  0.00     0.345 HD
ATOM      6  H   UNL     1     131.979 132.954 131.361  1.00  0.00     0.345 HD
ENDBRANCH   2   3
BRANCH   2   7
ATOM      7  C   UNL     1     130.670 133.679 128.745  1.00  0.00     0.100 C 
ATOM      8  O   UNL     1     130.601 132.464 128.419  1.00  0.00    -0.544 OA
ATOM      9  O   UNL     1     130.716 134.653 127.754  1.00  0.00    -0.544 OA
ENDBRANCH   2   7
ENDBRANCH   1   2
BRANCH   1  10
ATOM     10  C   UNL     1     129.593 133.647 132.423  1.00  0.00     0.223 C 
ATOM     11  O   UNL     1     130.428 133.075 133.173  1.00  0.00    -0.275 OA
ATOM     12  N   UNL     1     128.650 134.562 132.982  1.00  0.00    -0.369 N 
ATOM     13  H   UNL     1     128.661 134.769 134.005  1.00  0.00     0.159 HD
ATOM     14  H   UNL     1     127.935 135.027 132.379  1.00  0.00     0.159 HD
ENDBRANCH   1  10
TORSDOF 4
ENDMDL
MODEL 3
REMARK VINA RESULT:    -3.552      9.684     10.114
REMARK INTER + INTRA:          -4.545
REMARK INTER:                  -4.275
REMARK INTRA:                  -0.270
REMARK UNBOUND:                -0.266
REMARK SMILES NC(=O)C[C@@H]([NH3+])C(=O)[O-]
REMARK SMILES IDX 4 1 5 2 6 3 7 7 8 8 9 9 2 10 3 11 1 12
REMARK H PARENT 6 4 6 5 6 6 1 13 1 14
REMARK Flexibility Score: inf
ROOT
ATOM      1  C   UNL     1     130.424 123.524 124.845  1.00  0.00     0.171 C 
ENDROOT
BRANCH   1   2
ATOM      2  C   UNL     1     130.253 124.453 126.064  1.00  0.00     0.237 C 
BRANCH   2   3
ATOM      3  N   UNL     1     128.886 124.987 126.147  1.00  0.00    -0.350 N 
ATOM      4  H   UNL     1     128.713 125.644 125.352  1.00  0.00     0.345 HD
ATOM      5  H   UNL     1     128.742 125.497 127.050  1.00  0.00     0.345 HD
ATOM      6  H   UNL     1     128.192 124.209 126.078  1.00  0.00     0.345 HD
ENDBRANCH   2   3
BRANCH   2   7
ATOM      7  C   UNL     1     130.600 123.710 127.325  1.00  0.00     0.100 C 
ATOM      8  O   UNL     1     130.970 122.507 127.277  1.00  0.00    -0.544 OA
ATOM      9  O   UNL     1     130.530 124.356 128.554  1.00  0.00    -0.544 OA
ENDBRANCH   2   7
ENDBRANCH   1   2
BRANCH   1  10
ATOM     10  C   UNL     1     129.698 124.048 123.641  1.00  0.00     0.223 C 
ATOM     11  O   UNL     1     130.010 125.170 123.161  1.00  0.00    -0.275 OA
ATOM     12  N   UNL     1     128.631 123.300 123.055  1.00  0.00    -0.369 N 
ATOM     13  H   UNL     1     128.121 123.674 122.225  1.00  0.00     0.159 HD
ATOM     14  H   UNL     1     128.342 122.380 123.455  1.00  0.00     0.159 HD
ENDBRANCH   1  10
TORSDOF 4
ENDMDL
MODEL 4
REMARK VINA RESULT:    -3.530      1.945      2.151
REMARK INTER + INTRA:          -4.519
REMARK INTER:                  -4.037
REMARK INTRA:                  -0.482
REMARK UNBOUND:                -0.266
REMARK SMILES NC(=O)C[C@@H]([NH3+])C(=O)[O-]
REMARK SMILES IDX 4 1 5 2 6 3 7 7 8 8 9 9 2 10 3 11 1 12
REMARK H PARENT 6 4 6 5 6 6 1 13 1 14
REMARK Flexibility Score: inf
ROOT
ATOM      1  C   UNL     1     127.564 134.445 124.878  1.00  0.00     0.171 C 
ENDROOT
BRANCH   1   2
ATOM      2  C   UNL     1     128.186 133.933 126.192  1.00  0.00     0.237 C 
BRANCH   2   3
ATOM      3  N   UNL     1     129.022 132.745 125.967  1.00  0.00    -0.350 N 
ATOM      4  H   UNL     1     130.013 133.035 125.802  1.00  0.00     0.345 HD
ATOM      5  H   UNL     1     128.681 132.204 125.139  1.00  0.00     0.345 HD
ATOM      6  H   UNL     1     129.004 132.129 126.811  1.00  0.00     0.345 HD
ENDBRANCH   2   3
BRANCH   2   7
ATOM      7  C   UNL     1     128.997 135.026 126.833  1.00  0.00     0.100 C 
ATOM      8  O   UNL     1     129.050 135.131 128.088  1.00  0.00    -0.544 OA
ATOM      9  O   UNL     1     129.710 135.919 126.041  1.00  0.00    -0.544 OA
ENDBRANCH   2   7
ENDBRANCH   1   2
BRANCH   1  10
ATOM     10  C   UNL     1     128.297 133.925 123.676  1.00  0.00     0.223 C 
ATOM     11  O   UNL     1     127.940 132.839 123.147  1.00  0.00    -0.275 OA
ATOM     12  N   UNL     1     129.419 134.634 123.149  1.00  0.00    -0.369 N 
ATOM     13  H   UNL     1     129.934 134.263 122.319  1.00  0.00     0.159 HD
ATOM     14  H   UNL     1     129.744 135.523 123.589  1.00  0.00     0.159 HD
ENDBRANCH   1  10
TORSDOF 4
ENDMDL
MODEL 5
REMARK VINA RESULT:    -3.525      4.971      6.763
REMARK INTER + INTRA:          -4.513
REMARK INTER:                  -4.028
REMARK INTRA:                  -0.485
REMARK UNBOUND:                -0.266
REMARK SMILES NC(=O)C[C@@H]([NH3+])C(=O)[O-]
REMARK SMILES IDX 4 1 5 2 6 3 7 7 8 8 9 9 2 10 3 11 1 12
REMARK H PARENT 6 4 6 5 6 6 1 13 1 14
REMARK Flexibility Score: inf
ROOT
ATOM      1  C   UNL     1     130.440 134.453 131.422  1.00  0.00     0.171 C 
ENDROOT
BRANCH   1   2
ATOM      2  C   UNL     1     129.765 134.031 130.101  1.00  0.00     0.237 C 
BRANCH   2   3
ATOM      3  N   UNL     1     128.897 132.860 130.289  1.00  0.00    -0.350 N 
ATOM      4  H   UNL     1     128.782 132.664 131.310  1.00  0.00     0.345 HD
ATOM      5  H   UNL     1     129.305 132.018 129.822  1.00  0.00     0.345 HD
ATOM      6  H   UNL     1     127.949 133.049 129.889  1.00  0.00     0.345 HD
ENDBRANCH   2   3
BRANCH   2   7
ATOM      7  C   UNL     1     128.974 135.183 129.542  1.00  0.00     0.100 C 
ATOM      8  O   UNL     1     128.864 135.337 128.297  1.00  0.00    -0.544 OA
ATOM      9  O   UNL     1     128.343 136.074 130.401  1.00  0.00    -0.544 OA
ENDBRANCH   2   7
ENDBRANCH   1   2
BRANCH   1  10
ATOM     10  C   UNL     1     129.709 133.914 132.617  1.00  0.00     0.223 C 
ATOM     11  O   UNL     1     130.033 132.795 133.095  1.00  0.00    -0.275 OA
ATOM     12  N   UNL     1     128.625 134.644 133.193  1.00  0.00    -0.369 N 
ATOM     13  H   UNL     1     128.112 134.259 134.017  1.00  0.00     0.159 HD
ATOM     14  H   UNL     1     128.327 135.561 132.794  1.00  0.00     0.159 HD
ENDBRANCH   1  10
TORSDOF 4
ENDMDL
MODEL 6
REMARK VINA RESULT:    -3.525     10.882     12.105
REMARK INTER + INTRA:          -4.512
REMARK INTER:                  -4.028
REMARK INTRA:                  -0.484
REMARK UNBOUND:                -0.266
REMARK SMILES NC(=O)C[C@@H]([NH3+])C(=O)[O-]
REMARK SMILES IDX 4 1 5 2 6 3 7 7 8 8 9 9 2 10 3 11 1 12
REMARK H PARENT 6 4 6 5 6 6 1 13 1 14
REMARK Flexibility Score: inf
ROOT
ATOM      1  C   UNL     1     127.550 123.539 131.425  1.00  0.00     0.171 C 
ENDROOT
BRANCH   1   2
ATOM      2  C   UNL     1     128.211 123.965 130.099  1.00  0.00     0.237 C 
BRANCH   2   3
ATOM      3  N   UNL     1     129.097 125.123 130.285  1.00  0.00    -0.350 N 
ATOM      4  H   UNL     1     129.597 125.043 131.200  1.00  0.00     0.345 HD
ATOM      5  H   UNL     1     128.549 126.015 130.271  1.00  0.00     0.345 HD
ATOM      6  H   UNL     1     129.816 125.150 129.528  1.00  0.00     0.345 HD
ENDBRANCH   2   3
BRANCH   2   7
ATOM      7  C   UNL     1     128.981 122.810 129.517  1.00  0.00     0.100 C 
ATOM      8  O   UNL     1     128.887 122.533 128.292  1.00  0.00    -0.544 OA
ATOM      9  O   UNL     1     129.815 122.052 130.329  1.00  0.00    -0.544 OA
ENDBRANCH   2   7
ENDBRANCH   1   2
BRANCH   1  10
ATOM     10  C   UNL     1     128.300 124.062 132.614  1.00  0.00     0.223 C 
ATOM     11  O   UNL     1     127.979 125.172 133.117  1.00  0.00    -0.275 OA
ATOM     12  N   UNL     1     129.399 123.330 133.158  1.00  0.00    -0.369 N 
ATOM     13  H   UNL     1     129.926 123.704 133.979  1.00  0.00     0.159 HD
ATOM     14  H   UNL     1     129.695 122.421 132.739  1.00  0.00     0.159 HD
ENDBRANCH   1  10
TORSDOF 4
ENDMDL
MODEL 7
REMARK VINA RESULT:    -3.517      9.857     10.348
REMARK INTER + INTRA:          -4.503
REMARK INTER:                  -4.024
REMARK INTRA:                  -0.480
REMARK UNBOUND:                -0.266
REMARK SMILES NC(=O)C[C@@H]([NH3+])C(=O)[O-]
REMARK SMILES IDX 4 1 5 2 6 3 7 7 8 8 9 9 2 10 3 11 1 12
REMARK H PARENT 6 4 6 5 6 6 1 13 1 14
REMARK Flexibility Score: inf
ROOT
ATOM      1  C   UNL     1     130.473 123.563 124.844  1.00  0.00     0.171 C 
ENDROOT
BRANCH   1   2
ATOM      2  C   UNL     1     129.808 124.049 126.148  1.00  0.00     0.237 C 
BRANCH   2   3
ATOM      3  N   UNL     1     128.956 125.223 125.913  1.00  0.00    -0.350 N 
ATOM      4  H   UNL     1     128.084 124.933 125.412  1.00  0.00     0.345 HD
ATOM      5  H   UNL     1     129.459 125.938 125.338  1.00  0.00     0.345 HD
ATOM      6  H   UNL     1     128.675 125.650 126.825  1.00  0.00     0.345 HD
ENDBRANCH   2   3
BRANCH   2   7
ATOM      7  C   UNL     1     129.003 122.934 126.758  1.00  0.00     0.100 C 
ATOM      8  O   UNL     1     128.901 122.829 128.009  1.00  0.00    -0.544 OA
ATOM      9  O   UNL     1     128.350 122.020 125.938  1.00  0.00    -0.544 OA
ENDBRANCH   2   7
ENDBRANCH   1   2
BRANCH   1  10
ATOM     10  C   UNL     1     129.750 124.066 123.630  1.00  0.00     0.223 C 
ATOM     11  O   UNL     1     130.104 125.150 123.095  1.00  0.00    -0.275 OA
ATOM     12  N   UNL     1     128.640 123.343 123.096  1.00  0.00    -0.369 N 
ATOM     13  H   UNL     1     128.132 123.703 122.258  1.00  0.00     0.159 HD
ATOM     14  H   UNL     1     128.317 122.455 123.541  1.00  0.00     0.159 HD
ENDBRANCH   1  10
TORSDOF 4
ENDMDL
MODEL 8
REMARK VINA RESULT:    -3.507     11.835     12.580
REMARK INTER + INTRA:          -4.492
REMARK INTER:                  -4.239
REMARK INTRA:                  -0.252
REMARK UNBOUND:                -0.266
REMARK SMILES NC(=O)C[C@@H]([NH3+])C(=O)[O-]
REMARK SMILES IDX 4 1 5 2 6 3 7 7 8 8 9 9 2 10 3 11 1 12
REMARK H PARENT 6 4 6 5 6 6 1 13 1 14
REMARK Flexibility Score: inf
ROOT
ATOM      1  C   UNL     1     127.392 123.517 131.562  1.00  0.00     0.171 C 
ENDROOT
BRANCH   1   2
ATOM      2  C   UNL     1     125.971 123.222 132.083  1.00  0.00     0.237 C 
BRANCH   2   3
ATOM      3  N   UNL     1     125.255 124.458 132.428  1.00  0.00    -0.350 N 
ATOM      4  H   UNL     1     124.336 124.487 131.930  1.00  0.00     0.345 HD
ATOM      5  H   UNL     1     125.817 125.299 132.161  1.00  0.00     0.345 HD
ATOM      6  H   UNL     1     125.064 124.486 133.456  1.00  0.00     0.345 HD
ENDBRANCH   2   3
BRANCH   2   7
ATOM      7  C   UNL     1     125.200 122.445 131.050  1.00  0.00     0.100 C 
ATOM      8  O   UNL     1     123.950 122.317 131.148  1.00  0.00    -0.544 OA
ATOM      9  O   UNL     1     125.864 121.877 129.969  1.00  0.00    -0.544 OA
ENDBRANCH   2   7
ENDBRANCH   1   2
BRANCH   1  10
ATOM     10  C   UNL     1     128.271 124.086 132.637  1.00  0.00     0.223 C 
ATOM     11  O   UNL     1     127.995 125.206 133.143  1.00  0.00    -0.275 OA
ATOM     12  N   UNL     1     129.439 123.384 133.065  1.00  0.00    -0.369 N 
ATOM     13  H   UNL     1     130.054 123.789 133.805  1.00  0.00     0.159 HD
ATOM     14  H   UNL     1     129.697 122.466 132.640  1.00  0.00     0.159 HD
ENDBRANCH   1  10
TORSDOF 4
ENDMDL
MODEL 9
REMARK VINA RESULT:    -3.485      2.521      3.700
REMARK INTER + INTRA:          -4.465
REMARK INTER:                  -4.059
REMARK INTRA:                  -0.406
REMARK UNBOUND:                -0.266
REMARK SMILES NC(=O)C[C@@H]([NH3+])C(=O)[O-]
REMARK SMILES IDX 4 1 5 2 6 3 7 7 8 8 9 9 2 10 3 11 1 12
REMARK H PARENT 6 4 6 5 6 6 1 13 1 14
REMARK Flexibility Score: inf
ROOT
ATOM      1  C   UNL     1     127.673 133.934 124.864  1.00  0.00     0.171 C 
ENDROOT
BRANCH   1   2
ATOM      2  C   UNL     1     128.616 135.047 124.365  1.00  0.00     0.237 C 
BRANCH   2   3
ATOM      3  N   UNL     1     129.378 134.619 123.183  1.00  0.00    -0.350 N 
ATOM      4  H   UNL     1     129.696 133.630 123.306  1.00  0.00     0.345 HD
ATOM      5  H   UNL     1     130.212 135.232 123.038  1.00  0.00     0.345 HD
ATOM      6  H   UNL     1     128.771 134.657 122.333  1.00  0.00     0.345 HD
ENDBRANCH   2   3
BRANCH   2   7
ATOM      7  C   UNL     1     127.824 136.287 124.053  1.00  0.00     0.100 C 
ATOM      8  O   UNL     1     128.150 137.028 123.088  1.00  0.00    -0.544 OA
ATOM      9  O   UNL     1     126.711 136.612 124.821  1.00  0.00    -0.544 OA
ENDBRANCH   2   7
ENDBRANCH   1   2
BRANCH   1  10
ATOM     10  C   UNL     1     126.704 133.508 123.801  1.00  0.00     0.223 C 
ATOM     11  O   UNL     1     127.120 132.874 122.795  1.00  0.00    -0.275 OA
ATOM     12  N   UNL     1     125.320 133.846 123.902  1.00  0.00    -0.369 N 
ATOM     13  H   UNL     1     124.652 133.558 123.153  1.00  0.00     0.159 HD
ATOM     14  H   UNL     1     124.963 134.393 124.716  1.00  0.00     0.159 HD
ENDBRANCH   1  10
TORSDOF 4
ENDMDL
