MODEL 1
REMARK VINA RESULT:    -3.361      0.000      0.000
REMARK INTER + INTRA:          -4.909
REMARK INTER:                  -4.638
REMARK INTRA:                  -0.271
REMARK UNBOUND:                -0.271
REMARK SMILES CCCCCCCCO
REMARK SMILES IDX 5 1 4 2 3 3 2 4 1 5 6 6 7 7 8 8 9 9
REMARK H PARENT 9 10
REMARK Flexibility Score: inf
ROOT
ATOM      1  C   UNL     1     127.951 143.237 105.220  1.00  0.00     0.000 C 
ENDROOT
BRANCH   1   2
ATOM      2  C   UNL     1     127.364 144.646 105.041  1.00  0.00    -0.000 C 
BRANCH   2   3
ATOM      3  C   UNL     1     127.926 145.653 106.060  1.00  0.00    -0.000 C 
BRANCH   3   4
ATOM      4  C   UNL     1     126.876 146.091 107.093  1.00  0.00    -0.003 C 
ATOM      5  C   UNL     1     127.163 145.554 108.495  1.00  0.00     0.004 C 
ENDBRANCH   3   4
ENDBRANCH   2   3
ENDBRANCH   1   2
BRANCH   1   6
ATOM      6  C   UNL     1     127.278 142.454 106.361  1.00  0.00     0.002 C 
BRANCH   6   7
ATOM      7  C   UNL     1     127.608 140.952 106.322  1.00  0.00     0.028 C 
BRANCH   7   8
ATOM      8  C   UNL     1     127.877 140.347 107.707  1.00  0.00     0.156 C 
BRANCH   8   9
ATOM      9  O   UNL     1     127.062 139.229 107.937  1.00  0.00    -0.396 OA
ATOM     10  H   UNL     1     127.637 138.429 107.816  1.00  0.00     0.210 HD
ENDBRANCH   8   9
ENDBRANCH   7   8
ENDBRANCH   6   7
ENDBRANCH   1   6
TORSDOF 7
ENDMDL
MODEL 2
REMARK VINA RESULT:    -3.345      1.200      1.484
REMARK INTER + INTRA:          -4.887
REMARK INTER:                  -4.620
REMARK INTRA:                  -0.268
REMARK UNBOUND:                -0.271
REMARK SMILES CCCCCCCCO
REMARK SMILES IDX 5 1 4 2 3 3 2 4 1 5 6 6 7 7 8 8 9 9
REMARK H PARENT 9 10
REMARK Flexibility Score: inf
ROOT
ATOM      1  C   UNL     1     128.055 143.155 105.436  1.00  0.00     0.000 C 
ENDROOT
BRANCH   1   2
ATOM      2  C   UNL     1     127.522 144.517 104.964  1.00  0.00    -0.000 C 
BRANCH   2   3
ATOM      3  C   UNL     1     128.125 145.693 105.754  1.00  0.00    -0.000 C 
BRANCH   3   4
ATOM      4  C   UNL     1     129.641 145.550 105.954  1.00  0.00    -0.003 C 
ATOM      5  C   UNL     1     130.063 145.701 107.416  1.00  0.00     0.004 C 
ENDBRANCH   3   4
ENDBRANCH   2   3
ENDBRANCH   1   2
BRANCH   1   6
ATOM      6  C   UNL     1     127.345 142.645 106.702  1.00  0.00     0.002 C 
BRANCH   6   7
ATOM      7  C   UNL     1     126.980 141.153 106.614  1.00  0.00     0.028 C 
BRANCH   7   8
ATOM      8  C   UNL     1     127.709 140.281 107.646  1.00  0.00     0.156 C 
BRANCH   8   9
ATOM      9  O   UNL     1     127.019 139.082 107.874  1.00  0.00    -0.396 OA
ATOM     10  H   UNL     1     127.579 138.545 108.492  1.00  0.00     0.210 HD
ENDBRANCH   8   9
ENDBRANCH   7   8
ENDBRANCH   6   7
ENDBRANCH   1   6
TORSDOF 7
ENDMDL
MODEL 3
REMARK VINA RESULT:    -3.313      1.626      1.874
REMARK INTER + INTRA:          -4.843
REMARK INTER:                  -4.427
REMARK INTRA:                  -0.416
REMARK UNBOUND:                -0.271
REMARK SMILES CCCCCCCCO
REMARK SMILES IDX 5 1 4 2 3 3 2 4 1 5 6 6 7 7 8 8 9 9
REMARK H PARENT 9 10
REMARK Flexibility Score: inf
ROOT
ATOM      1  C   UNL     1     128.151 143.089 105.432  1.00  0.00     0.000 C 
ENDROOT
BRANCH   1   2
ATOM      2  C   UNL     1     127.577 144.424 104.934  1.00  0.00    -0.000 C 
BRANCH   2   3
ATOM      3  C   UNL     1     128.123 145.631 105.719  1.00  0.00    -0.000 C 
BRANCH   3   4
ATOM      4  C   UNL     1     129.604 145.467 106.093  1.00  0.00    -0.003 C 
ATOM      5  C   UNL     1     129.858 145.629 107.592  1.00  0.00     0.004 C 
ENDBRANCH   3   4
ENDBRANCH   2   3
ENDBRANCH   1   2
BRANCH   1   6
ATOM      6  C   UNL     1     127.193 142.347 106.381  1.00  0.00     0.002 C 
BRANCH   6   7
ATOM      7  C   UNL     1     127.592 142.498 107.860  1.00  0.00     0.028 C 
BRANCH   7   8
ATOM      8  C   UNL     1     128.094 141.194 108.495  1.00  0.00     0.156 C 
BRANCH   8   9
ATOM      9  O   UNL     1     127.849 141.177 109.875  1.00  0.00    -0.396 OA
ATOM     10  H   UNL     1     128.062 142.085 110.213  1.00  0.00     0.210 HD
ENDBRANCH   8   9
ENDBRANCH   7   8
ENDBRANCH   6   7
ENDBRANCH   1   6
TORSDOF 7
ENDMDL
MODEL 4
REMARK VINA RESULT:    -3.238      3.094      4.546
REMARK INTER + INTRA:          -4.739
REMARK INTER:                  -4.275
REMARK INTRA:                  -0.464
REMARK UNBOUND:                -0.271
REMARK SMILES CCCCCCCCO
REMARK SMILES IDX 5 1 4 2 3 3 2 4 1 5 6 6 7 7 8 8 9 9
REMARK H PARENT 9 10
REMARK Flexibility Score: inf
ROOT
ATOM      1  C   UNL     1     126.926 145.330 107.367  1.00  0.00     0.000 C 
ENDROOT
BRANCH   1   2
ATOM      2  C   UNL     1     126.893 145.874 105.931  1.00  0.00    -0.000 C 
BRANCH   2   3
ATOM      3  C   UNL     1     127.547 144.914 104.921  1.00  0.00    -0.000 C 
BRANCH   3   4
ATOM      4  C   UNL     1     127.750 143.504 105.496  1.00  0.00    -0.003 C 
ATOM      5  C   UNL     1     129.184 142.999 105.337  1.00  0.00     0.004 C 
ENDBRANCH   3   4
ENDBRANCH   2   3
ENDBRANCH   1   2
BRANCH   1   6
ATOM      6  C   UNL     1     127.390 146.382 108.391  1.00  0.00     0.002 C 
BRANCH   6   7
ATOM      7  C   UNL     1     128.624 145.927 109.189  1.00  0.00     0.028 C 
BRANCH   7   8
ATOM      8  C   UNL     1     129.692 145.241 108.326  1.00  0.00     0.156 C 
BRANCH   8   9
ATOM      9  O   UNL     1     130.412 146.178 107.571  1.00  0.00    -0.396 OA
ATOM     10  H   UNL     1     130.155 146.037 106.623  1.00  0.00     0.210 HD
ENDBRANCH   8   9
ENDBRANCH   7   8
ENDBRANCH   6   7
ENDBRANCH   1   6
TORSDOF 7
ENDMDL
MODEL 5
REMARK VINA RESULT:    -3.210      2.319      3.523
REMARK INTER + INTRA:          -4.701
REMARK INTER:                  -4.110
REMARK INTRA:                  -0.591
REMARK UNBOUND:                -0.271
REMARK SMILES CCCCCCCCO
REMARK SMILES IDX 5 1 4 2 3 3 2 4 1 5 6 6 7 7 8 8 9 9
REMARK H PARENT 9 10
REMARK Flexibility Score: inf
ROOT
ATOM      1  C   UNL     1     129.710 145.355 107.774  1.00  0.00     0.000 C 
ENDROOT
BRANCH   1   2
ATOM      2  C   UNL     1     129.514 145.368 106.250  1.00  0.00    -0.000 C 
BRANCH   2   3
ATOM      3  C   UNL     1     129.047 144.007 105.703  1.00  0.00    -0.000 C 
BRANCH   3   4
ATOM      4  C   UNL     1     127.635 144.070 105.098  1.00  0.00    -0.003 C 
ATOM      5  C   UNL     1     127.084 145.494 105.026  1.00  0.00     0.004 C 
ENDBRANCH   3   4
ENDBRANCH   2   3
ENDBRANCH   1   2
BRANCH   1   6
ATOM      6  C   UNL     1     128.532 145.994 108.530  1.00  0.00     0.002 C 
BRANCH   6   7
ATOM      7  C   UNL     1     127.421 144.982 108.858  1.00  0.00     0.028 C 
BRANCH   7   8
ATOM      8  C   UNL     1     127.950 143.596 109.251  1.00  0.00     0.156 C 
BRANCH   8   9
ATOM      9  O   UNL     1     127.193 142.577 108.655  1.00  0.00    -0.396 OA
ATOM     10  H   UNL     1     127.170 141.826 109.302  1.00  0.00     0.210 HD
ENDBRANCH   8   9
ENDBRANCH   7   8
ENDBRANCH   6   7
ENDBRANCH   1   6
TORSDOF 7
ENDMDL
MODEL 6
REMARK VINA RESULT:    -3.173      2.964      4.503
REMARK INTER + INTRA:          -4.650
REMARK INTER:                  -4.183
REMARK INTRA:                  -0.467
REMARK UNBOUND:                -0.271
REMARK SMILES CCCCCCCCO
REMARK SMILES IDX 5 1 4 2 3 3 2 4 1 5 6 6 7 7 8 8 9 9
REMARK H PARENT 9 10
REMARK Flexibility Score: inf
ROOT
ATOM      1  C   UNL     1     128.060 145.741 106.120  1.00  0.00     0.000 C 
ENDROOT
BRANCH   1   2
ATOM      2  C   UNL     1     127.355 145.026 104.958  1.00  0.00    -0.000 C 
BRANCH   2   3
ATOM      3  C   UNL     1     127.764 143.546 104.840  1.00  0.00    -0.000 C 
BRANCH   3   4
ATOM      4  C   UNL     1     127.375 142.728 106.081  1.00  0.00    -0.003 C 
ATOM      5  C   UNL     1     128.513 141.842 106.587  1.00  0.00     0.004 C 
ENDBRANCH   3   4
ENDBRANCH   2   3
ENDBRANCH   1   2
BRANCH   1   6
ATOM      6  C   UNL     1     129.595 145.658 106.026  1.00  0.00     0.002 C 
BRANCH   6   7
ATOM      7  C   UNL     1     130.269 145.602 107.407  1.00  0.00     0.028 C 
BRANCH   7   8
ATOM      8  C   UNL     1     129.273 145.534 108.573  1.00  0.00     0.156 C 
BRANCH   8   9
ATOM      9  O   UNL     1     129.497 146.569 109.492  1.00  0.00    -0.396 OA
ATOM     10  H   UNL     1     129.503 147.414 108.971  1.00  0.00     0.210 HD
ENDBRANCH   8   9
ENDBRANCH   7   8
ENDBRANCH   6   7
ENDBRANCH   1   6
TORSDOF 7
ENDMDL
MODEL 7
REMARK VINA RESULT:    -3.169      4.457      5.716
REMARK INTER + INTRA:          -4.644
REMARK INTER:                  -4.354
REMARK INTRA:                  -0.290
REMARK UNBOUND:                -0.271
REMARK SMILES CCCCCCCCO
REMARK SMILES IDX 5 1 4 2 3 3 2 4 1 5 6 6 7 7 8 8 9 9
REMARK H PARENT 9 10
REMARK Flexibility Score: inf
ROOT
ATOM      1  C   UNL     1     130.327 145.341 107.253  1.00  0.00     0.000 C 
ENDROOT
BRANCH   1   2
ATOM      2  C   UNL     1     128.801 145.338 107.075  1.00  0.00    -0.000 C 
BRANCH   2   3
ATOM      3  C   UNL     1     128.378 145.534 105.607  1.00  0.00    -0.000 C 
BRANCH   3   4
ATOM      4  C   UNL     1     127.648 144.309 105.037  1.00  0.00    -0.003 C 
ATOM      5  C   UNL     1     127.413 143.219 106.083  1.00  0.00     0.004 C 
ENDBRANCH   3   4
ENDBRANCH   2   3
ENDBRANCH   1   2
BRANCH   1   6
ATOM      6  C   UNL     1     131.065 145.972 106.058  1.00  0.00     0.002 C 
BRANCH   6   7
ATOM      7  C   UNL     1     132.333 146.732 106.481  1.00  0.00     0.028 C 
BRANCH   7   8
ATOM      8  C   UNL     1     132.792 146.411 107.910  1.00  0.00     0.156 C 
BRANCH   8   9
ATOM      9  O   UNL     1     133.952 147.125 108.242  1.00  0.00    -0.396 OA
ATOM     10  H   UNL     1     133.729 148.087 108.152  1.00  0.00     0.210 HD
ENDBRANCH   8   9
ENDBRANCH   7   8
ENDBRANCH   6   7
ENDBRANCH   1   6
TORSDOF 7
ENDMDL
MODEL 8
REMARK VINA RESULT:    -3.139      3.392      4.616
REMARK INTER + INTRA:          -4.603
REMARK INTER:                  -4.195
REMARK INTRA:                  -0.408
REMARK UNBOUND:                -0.271
REMARK SMILES CCCCCCCCO
REMARK SMILES IDX 5 1 4 2 3 3 2 4 1 5 6 6 7 7 8 8 9 9
REMARK H PARENT 9 10
REMARK Flexibility Score: inf
ROOT
ATOM      1  C   UNL     1     127.197 146.256 108.384  1.00  0.00     0.000 C 
ENDROOT
BRANCH   1   2
ATOM      2  C   UNL     1     126.961 145.336 107.176  1.00  0.00    -0.000 C 
BRANCH   2   3
ATOM      3  C   UNL     1     126.910 146.109 105.846  1.00  0.00    -0.000 C 
BRANCH   3   4
ATOM      4  C   UNL     1     127.238 145.220 104.637  1.00  0.00    -0.003 C 
ATOM      5  C   UNL     1     127.893 143.897 105.033  1.00  0.00     0.004 C 
ENDBRANCH   3   4
ENDBRANCH   2   3
ENDBRANCH   1   2
BRANCH   1   6
ATOM      6  C   UNL     1     128.570 146.032 109.043  1.00  0.00     0.002 C 
BRANCH   6   7
ATOM      7  C   UNL     1     129.368 144.898 108.375  1.00  0.00     0.028 C 
BRANCH   7   8
ATOM      8  C   UNL     1     130.819 145.277 108.051  1.00  0.00     0.156 C 
BRANCH   8   9
ATOM      9  O   UNL     1     130.872 146.346 107.144  1.00  0.00    -0.396 OA
ATOM     10  H   UNL     1     130.028 146.319 106.624  1.00  0.00     0.210 HD
ENDBRANCH   8   9
ENDBRANCH   7   8
ENDBRANCH   6   7
ENDBRANCH   1   6
TORSDOF 7
ENDMDL
