MODEL 1
REMARK VINA RESULT:    13.831      0.000      0.000
REMARK INTER + INTRA:          20.096
REMARK INTER:                  19.087
REMARK INTRA:                   1.009
REMARK UNBOUND:                 1.009
REMARK SMILES C=C(CC[C@H](C(=O)[O-])[C@H]1CC[C@]2(C)C3=C(CC[C@]12C)[C@@]1(C)CC[C@H](O)C(C)(C)[C@@H]1CC3)C(C)C
REMARK SMILES IDX 4 1 5 2 6 3 7 4 8 5 9 6 10 7 18 8 11 9 12 10 17 11 19 12
REMARK SMILES IDX 13 13 14 14 16 15 15 16 31 17 20 18 30 19 29 20 22 21 21 22
REMARK SMILES IDX 26 23 23 24 24 25 27 26 28 27 25 28 3 30 2 31 1 32 32 33
REMARK SMILES IDX 33 34 34 35
REMARK H PARENT 25 29
REMARK Flexibility Score: inf
ROOT
ATOM      1  C   UNL     1      26.536  37.655  21.512  1.00  0.00     0.014 C 
ENDROOT
BRANCH   1   2
ATOM      2  C   UNL     1      27.906  37.345  20.829  1.00  0.00     0.039 C 
BRANCH   2   3
ATOM      3  C   UNL     1      27.757  37.036  19.355  1.00  0.00     0.045 C 
ATOM      4  O   UNL     1      26.620  36.979  18.812  1.00  0.00    -0.550 OA
ATOM      5  O   UNL     1      28.888  36.787  18.585  1.00  0.00    -0.550 OA
ENDBRANCH   2   3
BRANCH   2   6
ATOM      6  C   UNL     1      28.718  36.250  21.614  1.00  0.00     0.004 C 
ATOM      7  C   UNL     1      29.119  36.704  23.031  1.00  0.00     0.006 C 
ATOM      8  C   UNL     1      28.051  34.817  21.800  1.00  0.00    -0.020 C 
ATOM      9  C   UNL     1      29.098  35.469  23.905  1.00  0.00     0.012 C 
ATOM     10  C   UNL     1      27.956  34.603  23.361  1.00  0.00    -0.006 C 
ATOM     11  C   UNL     1      29.028  33.763  21.215  1.00  0.00     0.012 C 
ATOM     12  C   UNL     1      26.664  34.621  21.096  1.00  0.00     0.012 C 
ATOM     13  C   UNL     1      26.607  35.153  23.922  1.00  0.00     0.017 C 
ATOM     14  C   UNL     1      28.123  33.139  23.838  1.00  0.00    -0.064 C 
ATOM     15  C   UNL     1      28.579  32.333  21.503  1.00  0.00     0.032 C 
ATOM     16  C   UNL     1      28.251  32.090  22.971  1.00  0.00    -0.064 C 
ATOM     17  C   UNL     1      28.295  32.900  25.337  1.00  0.00     0.032 C 
ATOM     18  C   UNL     1      27.824  30.669  23.420  1.00  0.00    -0.008 C 
ATOM     19  C   UNL     1      27.811  31.535  25.821  1.00  0.00     0.009 C 
ATOM     20  C   UNL     1      28.336  30.427  24.887  1.00  0.00     0.007 C 
ATOM     21  C   UNL     1      28.434  29.576  22.498  1.00  0.00     0.014 C 
ATOM     22  C   UNL     1      26.276  30.655  23.265  1.00  0.00     0.016 C 
ATOM     23  C   UNL     1      28.215  28.952  25.464  1.00  0.00    -0.006 C 
ATOM     24  C   UNL     1      28.174  28.150  22.993  1.00  0.00     0.033 C 
ATOM     25  C   UNL     1      28.758  27.937  24.399  1.00  0.00     0.120 C 
ATOM     26  C   UNL     1      26.774  28.583  25.910  1.00  0.00     0.014 C 
ATOM     27  C   UNL     1      29.124  28.816  26.719  1.00  0.00     0.014 C 
BRANCH  25  28
ATOM     28  O   UNL     1      28.589  26.602  24.812  1.00  0.00    -0.393 OA
ATOM     29  H   UNL     1      28.114  26.598  25.681  1.00  0.00     0.210 HD
ENDBRANCH  25  28
ENDBRANCH   2   6
ENDBRANCH   1   2
BRANCH   1  30
ATOM     30  C   UNL     1      25.675  38.799  20.921  1.00  0.00     0.031 C 
BRANCH  30  31
ATOM     31  C   UNL     1      26.406  39.989  20.295  1.00  0.00    -0.075 C 
ATOM     32  C   UNL     1      26.812  39.976  19.010  1.00  0.00     0.008 C 
BRANCH  31  33
ATOM     33  C   UNL     1      26.871  41.138  21.191  1.00  0.00     0.008 C 
ATOM     34  C   UNL     1      28.394  41.139  21.378  1.00  0.00     0.012 C 
ATOM     35  C   UNL     1      26.388  42.490  20.647  1.00  0.00     0.012 C 
ENDBRANCH  31  33
ENDBRANCH  30  31
ENDBRANCH   1  30
TORSDOF 7
ENDMDL
MODEL 2
REMARK VINA RESULT:    15.698      1.654      2.616
REMARK INTER + INTRA:          22.673
REMARK INTER:                  19.951
REMARK INTRA:                   2.722
REMARK UNBOUND:                 1.009
REMARK SMILES C=C(CC[C@H](C(=O)[O-])[C@H]1CC[C@]2(C)C3=C(CC[C@]12C)[C@@]1(C)CC[C@H](O)C(C)(C)[C@@H]1CC3)C(C)C
REMARK SMILES IDX 4 1 5 2 6 3 7 4 8 5 9 6 10 7 18 8 11 9 12 10 17 11 19 12
REMARK SMILES IDX 13 13 14 14 16 15 15 16 31 17 20 18 30 19 29 20 22 21 21 22
REMARK SMILES IDX 26 23 23 24 24 25 27 26 28 27 25 28 3 30 2 31 1 32 32 33
REMARK SMILES IDX 33 34 34 35
REMARK H PARENT 25 29
REMARK Flexibility Score: inf
ROOT
ATOM      1  C   UNL     1      27.917  40.211  18.675  1.00  0.00     0.014 C 
ENDROOT
BRANCH   1   2
ATOM      2  C   UNL     1      27.635  38.678  18.580  1.00  0.00     0.039 C 
BRANCH   2   3
ATOM      3  C   UNL     1      26.154  38.364  18.597  1.00  0.00     0.045 C 
ATOM      4  O   UNL     1      25.521  38.147  17.528  1.00  0.00    -0.550 OA
ATOM      5  O   UNL     1      25.469  38.336  19.807  1.00  0.00    -0.550 OA
ENDBRANCH   2   3
BRANCH   2   6
ATOM      6  C   UNL     1      28.455  37.863  19.647  1.00  0.00     0.004 C 
ATOM      7  C   UNL     1      28.592  38.606  20.990  1.00  0.00     0.006 C 
ATOM      8  C   UNL     1      27.949  36.401  20.019  1.00  0.00    -0.020 C 
ATOM      9  C   UNL     1      28.598  37.549  22.072  1.00  0.00     0.012 C 
ATOM     10  C   UNL     1      27.661  36.445  21.570  1.00  0.00    -0.006 C 
ATOM     11  C   UNL     1      29.122  35.417  19.762  1.00  0.00     0.012 C 
ATOM     12  C   UNL     1      26.711  35.887  19.207  1.00  0.00     0.012 C 
ATOM     13  C   UNL     1      26.189  36.878  21.855  1.00  0.00     0.017 C 
ATOM     14  C   UNL     1      27.937  35.124  22.331  1.00  0.00    -0.064 C 
ATOM     15  C   UNL     1      28.815  34.008  20.258  1.00  0.00     0.032 C 
ATOM     16  C   UNL     1      28.314  33.973  21.698  1.00  0.00    -0.064 C 
ATOM     17  C   UNL     1      27.922  35.172  23.857  1.00  0.00     0.032 C 
ATOM     18  C   UNL     1      28.006  32.602  22.352  1.00  0.00    -0.008 C 
ATOM     19  C   UNL     1      27.546  33.853  24.529  1.00  0.00     0.009 C 
ATOM     20  C   UNL     1      28.330  32.691  23.888  1.00  0.00     0.007 C 
ATOM     21  C   UNL     1      28.871  31.469  21.730  1.00  0.00     0.014 C 
ATOM     22  C   UNL     1      26.509  32.335  22.021  1.00  0.00     0.016 C 
ATOM     23  C   UNL     1      28.311  31.334  24.714  1.00  0.00    -0.006 C 
ATOM     24  C   UNL     1      28.720  30.126  22.451  1.00  0.00     0.033 C 
ATOM     25  C   UNL     1      29.119  30.243  23.931  1.00  0.00     0.120 C 
ATOM     26  C   UNL     1      26.877  30.840  25.049  1.00  0.00     0.014 C 
ATOM     27  C   UNL     1      29.041  31.548  26.071  1.00  0.00     0.014 C 
BRANCH  25  28
ATOM     28  O   UNL     1      29.059  28.988  24.565  1.00  0.00    -0.393 OA
ATOM     29  H   UNL     1      29.202  28.284  23.884  1.00  0.00     0.210 HD
ENDBRANCH  25  28
ENDBRANCH   2   6
ENDBRANCH   1   2
BRANCH   1  30
ATOM     30  C   UNL     1      26.817  41.114  19.286  1.00  0.00     0.031 C 
BRANCH  30  31
ATOM     31  C   UNL     1      27.265  42.316  20.121  1.00  0.00    -0.075 C 
ATOM     32  C   UNL     1      26.775  43.552  19.904  1.00  0.00     0.008 C 
BRANCH  31  33
ATOM     33  C   UNL     1      28.441  42.161  21.085  1.00  0.00     0.008 C 
ATOM     34  C   UNL     1      28.848  43.500  21.714  1.00  0.00     0.012 C 
ATOM     35  C   UNL     1      28.129  41.122  22.170  1.00  0.00     0.012 C 
ENDBRANCH  31  33
ENDBRANCH  30  31
ENDBRANCH   1  30
TORSDOF 7
ENDMDL
