MODEL 1
REMARK VINA RESULT:    -4.293      0.000      0.000
REMARK INTER + INTRA:          -7.937
REMARK INTER:                  -7.305
REMARK INTRA:                  -0.632
REMARK UNBOUND:                -0.632
REMARK SMILES CCCCCCCCCCCCCC(=O)[O-]
REMARK SMILES IDX 8 1 9 2 10 3 11 4 12 5 13 6 14 7 15 8 16 9 7 10 6 11 5 12
REMARK SMILES IDX 4 13 3 14 2 15 1 16
REMARK H PARENT
REMARK Flexibility Score: inf
ROOT
ATOM      1  C   UNL     1       5.539  -7.396  -8.060  1.00  0.00     0.000 C 
ENDROOT
BRANCH   1   2
ATOM      2  C   UNL     1       5.485  -5.859  -8.020  1.00  0.00     0.000 C 
BRANCH   2   3
ATOM      3  C   UNL     1       6.335  -5.238  -6.892  1.00  0.00     0.000 C 
BRANCH   3   4
ATOM      4  C   UNL     1       7.573  -6.091  -6.563  1.00  0.00     0.000 C 
BRANCH   4   5
ATOM      5  C   UNL     1       8.872  -5.271  -6.547  1.00  0.00     0.006 C 
BRANCH   5   6
ATOM      6  C   UNL     1      10.064  -6.062  -5.993  1.00  0.00     0.053 C 
BRANCH   6   7
ATOM      7  C   UNL     1       9.992  -6.139  -4.501  1.00  0.00     0.041 C 
ATOM      8  O   UNL     1       9.395  -5.243  -3.848  1.00  0.00    -0.550 OA
ATOM      9  O   UNL     1      10.627  -7.176  -3.828  1.00  0.00    -0.550 OA
ENDBRANCH   6   7
ENDBRANCH   5   6
ENDBRANCH   4   5
ENDBRANCH   3   4
ENDBRANCH   2   3
ENDBRANCH   1   2
BRANCH   1  10
ATOM     10  C   UNL     1       5.548  -7.956  -9.492  1.00  0.00     0.000 C 
BRANCH  10  11
ATOM     11  C   UNL     1       6.514  -9.140  -9.657  1.00  0.00    -0.000 C 
BRANCH  11  12
ATOM     12  C   UNL     1       6.382  -9.827 -11.025  1.00  0.00    -0.000 C 
BRANCH  12  13
ATOM     13  C   UNL     1       5.185  -9.269 -11.804  1.00  0.00    -0.000 C 
BRANCH  13  14
ATOM     14  C   UNL     1       5.644  -8.572 -13.094  1.00  0.00    -0.000 C 
BRANCH  14  15
ATOM     15  C   UNL     1       5.003  -7.187 -13.276  1.00  0.00    -0.003 C 
ATOM     16  C   UNL     1       5.318  -6.563 -14.635  1.00  0.00     0.004 C 
ENDBRANCH  14  15
ENDBRANCH  13  14
ENDBRANCH  12  13
ENDBRANCH  11  12
ENDBRANCH  10  11
ENDBRANCH   1  10
TORSDOF 12
ENDMDL
MODEL 2
REMARK VINA RESULT:    -4.248     13.163     14.446
REMARK INTER + INTRA:          -7.859
REMARK INTER:                  -7.233
REMARK INTRA:                  -0.626
REMARK UNBOUND:                -0.632
REMARK SMILES CCCCCCCCCCCCCC(=O)[O-]
REMARK SMILES IDX 8 1 9 2 10 3 11 4 12 5 13 6 14 7 15 8 16 9 7 10 6 11 5 12
REMARK SMILES IDX 4 13 3 14 2 15 1 16
REMARK H PARENT
REMARK Flexibility Score: inf
ROOT
ATOM      1  C   UNL     1       6.741 -19.768 -15.351  1.00  0.00     0.000 C 
ENDROOT
BRANCH   1   2
ATOM      2  C   UNL     1       5.836 -20.860 -14.756  1.00  0.00     0.000 C 
BRANCH   2   3
ATOM      3  C   UNL     1       5.570 -20.688 -13.245  1.00  0.00     0.000 C 
BRANCH   3   4
ATOM      4  C   UNL     1       5.631 -22.028 -12.490  1.00  0.00     0.000 C 
BRANCH   4   5
ATOM      5  C   UNL     1       5.048 -21.937 -11.072  1.00  0.00     0.006 C 
BRANCH   5   6
ATOM      6  C   UNL     1       5.613 -23.009 -10.131  1.00  0.00     0.053 C 
BRANCH   6   7
ATOM      7  C   UNL     1       6.011 -22.400  -8.825  1.00  0.00     0.041 C 
ATOM      8  O   UNL     1       6.364 -23.134  -7.864  1.00  0.00    -0.550 OA
ATOM      9  O   UNL     1       5.944 -21.023  -8.651  1.00  0.00    -0.550 OA
ENDBRANCH   6   7
ENDBRANCH   5   6
ENDBRANCH   4   5
ENDBRANCH   3   4
ENDBRANCH   2   3
ENDBRANCH   1   2
BRANCH   1  10
ATOM     10  C   UNL     1       6.377 -18.357 -14.861  1.00  0.00     0.000 C 
BRANCH  10  11
ATOM     11  C   UNL     1       5.986 -17.415 -16.011  1.00  0.00    -0.000 C 
BRANCH  11  12
ATOM     12  C   UNL     1       5.088 -18.096 -17.055  1.00  0.00    -0.000 C 
BRANCH  12  13
ATOM     13  C   UNL     1       4.984 -17.245 -18.327  1.00  0.00    -0.000 C 
BRANCH  13  14
ATOM     14  C   UNL     1       5.520 -15.827 -18.084  1.00  0.00    -0.000 C 
BRANCH  14  15
ATOM     15  C   UNL     1       6.381 -15.314 -19.250  1.00  0.00    -0.003 C 
ATOM     16  C   UNL     1       6.432 -16.293 -20.423  1.00  0.00     0.004 C 
ENDBRANCH  14  15
ENDBRANCH  13  14
ENDBRANCH  12  13
ENDBRANCH  11  12
ENDBRANCH  10  11
ENDBRANCH   1  10
TORSDOF 12
ENDMDL
MODEL 3
REMARK VINA RESULT:    -3.976     19.541     21.141
REMARK INTER + INTRA:          -7.398
REMARK INTER:                  -6.784
REMARK INTRA:                  -0.613
REMARK UNBOUND:                -0.632
REMARK SMILES CCCCCCCCCCCCCC(=O)[O-]
REMARK SMILES IDX 8 1 9 2 10 3 11 4 12 5 13 6 14 7 15 8 16 9 7 10 6 11 5 12
REMARK SMILES IDX 4 13 3 14 2 15 1 16
REMARK H PARENT
REMARK Flexibility Score: inf
ROOT
ATOM      1  C   UNL     1      18.775 -22.481 -19.473  1.00  0.00     0.000 C 
ENDROOT
BRANCH   1   2
ATOM      2  C   UNL     1      20.171 -22.158 -18.913  1.00  0.00     0.000 C 
BRANCH   2   3
ATOM      3  C   UNL     1      20.592 -20.686 -19.110  1.00  0.00     0.000 C 
BRANCH   3   4
ATOM      4  C   UNL     1      21.275 -20.107 -17.858  1.00  0.00     0.000 C 
BRANCH   4   5
ATOM      5  C   UNL     1      21.212 -18.573 -17.804  1.00  0.00     0.006 C 
BRANCH   5   6
ATOM      6  C   UNL     1      22.430 -17.957 -17.104  1.00  0.00     0.053 C 
BRANCH   6   7
ATOM      7  C   UNL     1      22.496 -16.486 -17.368  1.00  0.00     0.041 C 
ATOM      8  O   UNL     1      23.284 -16.033 -18.241  1.00  0.00    -0.550 OA
ATOM      9  O   UNL     1      21.723 -15.610 -16.617  1.00  0.00    -0.550 OA
ENDBRANCH   6   7
ENDBRANCH   5   6
ENDBRANCH   4   5
ENDBRANCH   3   4
ENDBRANCH   2   3
ENDBRANCH   1   2
BRANCH   1  10
ATOM     10  C   UNL     1      18.529 -23.990 -19.629  1.00  0.00     0.000 C 
BRANCH  10  11
ATOM     11  C   UNL     1      17.133 -24.414 -19.144  1.00  0.00    -0.000 C 
BRANCH  11  12
ATOM     12  C   UNL     1      16.703 -23.680 -17.864  1.00  0.00    -0.000 C 
BRANCH  12  13
ATOM     13  C   UNL     1      15.176 -23.664 -17.728  1.00  0.00    -0.000 C 
BRANCH  13  14
ATOM     14  C   UNL     1      14.513 -24.439 -18.877  1.00  0.00    -0.000 C 
BRANCH  14  15
ATOM     15  C   UNL     1      13.585 -23.556 -19.726  1.00  0.00    -0.003 C 
ATOM     16  C   UNL     1      13.915 -22.068 -19.612  1.00  0.00     0.004 C 
ENDBRANCH  14  15
ENDBRANCH  13  14
ENDBRANCH  12  13
ENDBRANCH  11  12
ENDBRANCH  10  11
ENDBRANCH   1  10
TORSDOF 12
ENDMDL
MODEL 4
REMARK VINA RESULT:    -3.955     19.278     21.503
REMARK INTER + INTRA:          -7.362
REMARK INTER:                  -6.353
REMARK INTRA:                  -1.009
REMARK UNBOUND:                -0.632
REMARK SMILES CCCCCCCCCCCCCC(=O)[O-]
REMARK SMILES IDX 8 1 9 2 10 3 11 4 12 5 13 6 14 7 15 8 16 9 7 10 6 11 5 12
REMARK SMILES IDX 4 13 3 14 2 15 1 16
REMARK H PARENT
REMARK Flexibility Score: inf
ROOT
ATOM      1  C   UNL     1      17.022 -24.001 -18.790  1.00  0.00     0.000 C 
ENDROOT
BRANCH   1   2
ATOM      2  C   UNL     1      16.198 -23.650 -17.540  1.00  0.00     0.000 C 
BRANCH   2   3
ATOM      3  C   UNL     1      14.924 -22.835 -17.847  1.00  0.00     0.000 C 
BRANCH   3   4
ATOM      4  C   UNL     1      14.184 -23.363 -19.089  1.00  0.00     0.000 C 
BRANCH   4   5
ATOM      5  C   UNL     1      13.808 -22.247 -20.075  1.00  0.00     0.006 C 
BRANCH   5   6
ATOM      6  C   UNL     1      14.966 -21.275 -20.337  1.00  0.00     0.053 C 
BRANCH   6   7
ATOM      7  C   UNL     1      14.451 -19.880 -20.497  1.00  0.00     0.041 C 
ATOM      8  O   UNL     1      15.253 -18.910 -20.544  1.00  0.00    -0.550 OA
ATOM      9  O   UNL     1      13.083 -19.645 -20.545  1.00  0.00    -0.550 OA
ENDBRANCH   6   7
ENDBRANCH   5   6
ENDBRANCH   4   5
ENDBRANCH   3   4
ENDBRANCH   2   3
ENDBRANCH   1   2
BRANCH   1  10
ATOM     10  C   UNL     1      18.342 -23.217 -18.875  1.00  0.00     0.000 C 
BRANCH  10  11
ATOM     11  C   UNL     1      18.420 -22.325 -20.124  1.00  0.00    -0.000 C 
BRANCH  11  12
ATOM     12  C   UNL     1      19.423 -21.172 -19.968  1.00  0.00    -0.000 C 
BRANCH  12  13
ATOM     13  C   UNL     1      20.528 -21.539 -18.970  1.00  0.00    -0.000 C 
BRANCH  13  14
ATOM     14  C   UNL     1      21.451 -20.340 -18.706  1.00  0.00    -0.000 C 
BRANCH  14  15
ATOM     15  C   UNL     1      21.438 -19.897 -17.234  1.00  0.00    -0.003 C 
ATOM     16  C   UNL     1      21.106 -18.415 -17.065  1.00  0.00     0.004 C 
ENDBRANCH  14  15
ENDBRANCH  13  14
ENDBRANCH  12  13
ENDBRANCH  11  12
ENDBRANCH  10  11
ENDBRANCH   1  10
TORSDOF 12
ENDMDL
MODEL 5
REMARK VINA RESULT:    -3.932     19.181     21.026
REMARK INTER + INTRA:          -7.322
REMARK INTER:                  -6.264
REMARK INTRA:                  -1.058
REMARK UNBOUND:                -0.632
REMARK SMILES CCCCCCCCCCCCCC(=O)[O-]
REMARK SMILES IDX 8 1 9 2 10 3 11 4 12 5 13 6 14 7 15 8 16 9 7 10 6 11 5 12
REMARK SMILES IDX 4 13 3 14 2 15 1 16
REMARK H PARENT
REMARK Flexibility Score: inf
ROOT
ATOM      1  C   UNL     1      18.057 -23.235 -18.859  1.00  0.00     0.000 C 
ENDROOT
BRANCH   1   2
ATOM      2  C   UNL     1      17.981 -22.556 -20.237  1.00  0.00     0.000 C 
BRANCH   2   3
ATOM      3  C   UNL     1      18.778 -21.236 -20.321  1.00  0.00     0.000 C 
BRANCH   3   4
ATOM      4  C   UNL     1      20.296 -21.468 -20.213  1.00  0.00     0.000 C 
BRANCH   4   5
ATOM      5  C   UNL     1      20.874 -20.995 -18.871  1.00  0.00     0.006 C 
BRANCH   5   6
ATOM      6  C   UNL     1      20.848 -19.468 -18.722  1.00  0.00     0.053 C 
BRANCH   6   7
ATOM      7  C   UNL     1      21.212 -19.072 -17.327  1.00  0.00     0.041 C 
ATOM      8  O   UNL     1      20.812 -17.976 -16.853  1.00  0.00    -0.550 OA
ATOM      9  O   UNL     1      22.034 -19.893 -16.564  1.00  0.00    -0.550 OA
ENDBRANCH   6   7
ENDBRANCH   5   6
ENDBRANCH   4   5
ENDBRANCH   3   4
ENDBRANCH   2   3
ENDBRANCH   1   2
BRANCH   1  10
ATOM     10  C   UNL     1      16.855 -24.152 -18.579  1.00  0.00     0.000 C 
BRANCH  10  11
ATOM     11  C   UNL     1      16.023 -23.683 -17.375  1.00  0.00    -0.000 C 
BRANCH  11  12
ATOM     12  C   UNL     1      14.643 -23.144 -17.783  1.00  0.00    -0.000 C 
BRANCH  12  13
ATOM     13  C   UNL     1      14.134 -23.843 -19.050  1.00  0.00    -0.000 C 
BRANCH  13  14
ATOM     14  C   UNL     1      13.748 -22.818 -20.127  1.00  0.00    -0.000 C 
BRANCH  14  15
ATOM     15  C   UNL     1      14.384 -21.440 -19.885  1.00  0.00    -0.003 C 
ATOM     16  C   UNL     1      13.587 -20.301 -20.520  1.00  0.00     0.004 C 
ENDBRANCH  14  15
ENDBRANCH  13  14
ENDBRANCH  12  13
ENDBRANCH  11  12
ENDBRANCH  10  11
ENDBRANCH   1  10
TORSDOF 12
ENDMDL
MODEL 6
REMARK VINA RESULT:    -3.927     19.074     21.029
REMARK INTER + INTRA:          -7.313
REMARK INTER:                  -6.692
REMARK INTRA:                  -0.621
REMARK UNBOUND:                -0.632
REMARK SMILES CCCCCCCCCCCCCC(=O)[O-]
REMARK SMILES IDX 8 1 9 2 10 3 11 4 12 5 13 6 14 7 15 8 16 9 7 10 6 11 5 12
REMARK SMILES IDX 4 13 3 14 2 15 1 16
REMARK H PARENT
REMARK Flexibility Score: inf
ROOT
ATOM      1  C   UNL     1      19.989 -20.751 -19.954  1.00  0.00     0.000 C 
ENDROOT
BRANCH   1   2
ATOM      2  C   UNL     1      20.613 -19.752 -18.965  1.00  0.00     0.000 C 
BRANCH   2   3
ATOM      3  C   UNL     1      21.411 -20.424 -17.827  1.00  0.00     0.000 C 
BRANCH   3   4
ATOM      4  C   UNL     1      21.855 -19.412 -16.756  1.00  0.00     0.000 C 
BRANCH   4   5
ATOM      5  C   UNL     1      21.471 -17.967 -17.109  1.00  0.00     0.006 C 
BRANCH   5   6
ATOM      6  C   UNL     1      22.692 -17.088 -17.408  1.00  0.00     0.053 C 
BRANCH   6   7
ATOM      7  C   UNL     1      22.416 -15.666 -17.037  1.00  0.00     0.041 C 
ATOM      8  O   UNL     1      23.263 -14.768 -17.289  1.00  0.00    -0.550 OA
ATOM      9  O   UNL     1      21.243 -15.337 -16.368  1.00  0.00    -0.550 OA
ENDBRANCH   6   7
ENDBRANCH   5   6
ENDBRANCH   4   5
ENDBRANCH   3   4
ENDBRANCH   2   3
ENDBRANCH   1   2
BRANCH   1  10
ATOM     10  C   UNL     1      20.139 -22.213 -19.501  1.00  0.00     0.000 C 
BRANCH  10  11
ATOM     11  C   UNL     1      18.835 -22.792 -18.931  1.00  0.00    -0.000 C 
BRANCH  11  12
ATOM     12  C   UNL     1      18.220 -23.870 -19.836  1.00  0.00    -0.000 C 
BRANCH  12  13
ATOM     13  C   UNL     1      16.902 -24.392 -19.250  1.00  0.00    -0.000 C 
BRANCH  13  14
ATOM     14  C   UNL     1      16.610 -23.741 -17.890  1.00  0.00    -0.000 C 
BRANCH  14  15
ATOM     15  C   UNL     1      15.117 -23.778 -17.526  1.00  0.00    -0.003 C 
ATOM     16  C   UNL     1      14.717 -22.669 -16.553  1.00  0.00     0.004 C 
ENDBRANCH  14  15
ENDBRANCH  13  14
ENDBRANCH  12  13
ENDBRANCH  11  12
ENDBRANCH  10  11
ENDBRANCH   1  10
TORSDOF 12
ENDMDL
MODEL 7
REMARK VINA RESULT:    -3.924     14.613     17.041
REMARK INTER + INTRA:          -7.308
REMARK INTER:                  -6.286
REMARK INTRA:                  -1.023
REMARK UNBOUND:                -0.632
REMARK SMILES CCCCCCCCCCCCCC(=O)[O-]
REMARK SMILES IDX 8 1 9 2 10 3 11 4 12 5 13 6 14 7 15 8 16 9 7 10 6 11 5 12
REMARK SMILES IDX 4 13 3 14 2 15 1 16
REMARK H PARENT
REMARK Flexibility Score: inf
ROOT
ATOM      1  C   UNL     1       6.037 -22.504 -12.498  1.00  0.00     0.000 C 
ENDROOT
BRANCH   1   2
ATOM      2  C   UNL     1       5.198 -21.393 -13.150  1.00  0.00     0.000 C 
BRANCH   2   3
ATOM      3  C   UNL     1       6.033 -20.381 -13.963  1.00  0.00     0.000 C 
BRANCH   3   4
ATOM      4  C   UNL     1       5.151 -19.465 -14.830  1.00  0.00     0.000 C 
BRANCH   4   5
ATOM      5  C   UNL     1       5.697 -19.289 -16.255  1.00  0.00     0.006 C 
BRANCH   5   6
ATOM      6  C   UNL     1       5.021 -20.225 -17.266  1.00  0.00     0.053 C 
BRANCH   6   7
ATOM      7  C   UNL     1       5.869 -21.433 -17.507  1.00  0.00     0.041 C 
ATOM      8  O   UNL     1       5.349 -22.500 -17.929  1.00  0.00    -0.550 OA
ATOM      9  O   UNL     1       7.229 -21.396 -17.221  1.00  0.00    -0.550 OA
ENDBRANCH   6   7
ENDBRANCH   5   6
ENDBRANCH   4   5
ENDBRANCH   3   4
ENDBRANCH   2   3
ENDBRANCH   1   2
BRANCH   1  10
ATOM     10  C   UNL     1       5.176 -23.587 -11.827  1.00  0.00     0.000 C 
BRANCH  10  11
ATOM     11  C   UNL     1       5.953 -24.385 -10.767  1.00  0.00    -0.000 C 
BRANCH  11  12
ATOM     12  C   UNL     1       5.096 -24.727  -9.538  1.00  0.00    -0.000 C 
BRANCH  12  13
ATOM     13  C   UNL     1       5.690 -24.110  -8.267  1.00  0.00    -0.000 C 
BRANCH  13  14
ATOM     14  C   UNL     1       6.138 -22.662  -8.516  1.00  0.00    -0.000 C 
BRANCH  14  15
ATOM     15  C   UNL     1       4.976 -21.660  -8.424  1.00  0.00    -0.003 C 
ATOM     16  C   UNL     1       5.050 -20.568  -9.490  1.00  0.00     0.004 C 
ENDBRANCH  14  15
ENDBRANCH  13  14
ENDBRANCH  12  13
ENDBRANCH  11  12
ENDBRANCH  10  11
ENDBRANCH   1  10
TORSDOF 12
ENDMDL
MODEL 8
REMARK VINA RESULT:    -3.911     18.822     21.409
REMARK INTER + INTRA:          -7.287
REMARK INTER:                  -6.594
REMARK INTRA:                  -0.693
REMARK UNBOUND:                -0.632
REMARK SMILES CCCCCCCCCCCCCC(=O)[O-]
REMARK SMILES IDX 8 1 9 2 10 3 11 4 12 5 13 6 14 7 15 8 16 9 7 10 6 11 5 12
REMARK SMILES IDX 4 13 3 14 2 15 1 16
REMARK H PARENT
REMARK Flexibility Score: inf
ROOT
ATOM      1  C   UNL     1      20.558 -20.191 -19.137  1.00  0.00     0.000 C 
ENDROOT
BRANCH   1   2
ATOM      2  C   UNL     1      19.975 -21.324 -19.998  1.00  0.00     0.000 C 
BRANCH   2   3
ATOM      3  C   UNL     1      19.437 -22.514 -19.176  1.00  0.00     0.000 C 
BRANCH   3   4
ATOM      4  C   UNL     1      17.909 -22.659 -19.297  1.00  0.00     0.000 C 
BRANCH   4   5
ATOM      5  C   UNL     1      17.324 -23.646 -18.276  1.00  0.00     0.006 C 
BRANCH   5   6
ATOM      6  C   UNL     1      15.956 -24.194 -18.702  1.00  0.00     0.053 C 
BRANCH   6   7
ATOM      7  C   UNL     1      14.859 -23.313 -18.194  1.00  0.00     0.041 C 
ATOM      8  O   UNL     1      14.917 -22.834 -17.031  1.00  0.00    -0.550 OA
ATOM      9  O   UNL     1      13.748 -23.060 -18.989  1.00  0.00    -0.550 OA
ENDBRANCH   6   7
ENDBRANCH   5   6
ENDBRANCH   4   5
ENDBRANCH   3   4
ENDBRANCH   2   3
ENDBRANCH   1   2
BRANCH   1  10
ATOM     10  C   UNL     1      21.307 -20.708 -17.898  1.00  0.00     0.000 C 
BRANCH  10  11
ATOM     11  C   UNL     1      21.738 -19.575 -16.953  1.00  0.00    -0.000 C 
BRANCH  11  12
ATOM     12  C   UNL     1      22.316 -18.365 -17.703  1.00  0.00    -0.000 C 
BRANCH  12  13
ATOM     13  C   UNL     1      21.738 -17.054 -17.158  1.00  0.00    -0.000 C 
BRANCH  13  14
ATOM     14  C   UNL     1      20.323 -17.268 -16.599  1.00  0.00    -0.000 C 
BRANCH  14  15
ATOM     15  C   UNL     1      19.673 -15.959 -16.122  1.00  0.00    -0.003 C 
ATOM     16  C   UNL     1      18.523 -16.193 -15.142  1.00  0.00     0.004 C 
ENDBRANCH  14  15
ENDBRANCH  13  14
ENDBRANCH  12  13
ENDBRANCH  11  12
ENDBRANCH  10  11
ENDBRANCH   1  10
TORSDOF 12
ENDMDL
MODEL 9
REMARK VINA RESULT:    -3.774      3.568      7.773
REMARK INTER + INTRA:          -7.053
REMARK INTER:                  -6.137
REMARK INTRA:                  -0.917
REMARK UNBOUND:                -0.632
REMARK SMILES CCCCCCCCCCCCCC(=O)[O-]
REMARK SMILES IDX 8 1 9 2 10 3 11 4 12 5 13 6 14 7 15 8 16 9 7 10 6 11 5 12
REMARK SMILES IDX 4 13 3 14 2 15 1 16
REMARK H PARENT
REMARK Flexibility Score: inf
ROOT
ATOM      1  C   UNL     1       7.620  -4.897  -6.618  1.00  0.00     0.000 C 
ENDROOT
BRANCH   1   2
ATOM      2  C   UNL     1       6.151  -4.935  -7.074  1.00  0.00     0.000 C 
BRANCH   2   3
ATOM      3  C   UNL     1       5.746  -6.263  -7.747  1.00  0.00     0.000 C 
BRANCH   3   4
ATOM      4  C   UNL     1       4.875  -6.038  -8.996  1.00  0.00     0.000 C 
BRANCH   4   5
ATOM      5  C   UNL     1       5.222  -6.999 -10.143  1.00  0.00     0.006 C 
BRANCH   5   6
ATOM      6  C   UNL     1       5.892  -8.288  -9.651  1.00  0.00     0.053 C 
BRANCH   6   7
ATOM      7  C   UNL     1       5.991  -9.283 -10.764  1.00  0.00     0.041 C 
ATOM      8  O   UNL     1       6.133 -10.508 -10.509  1.00  0.00    -0.550 OA
ATOM      9  O   UNL     1       5.975  -8.852 -12.085  1.00  0.00    -0.550 OA
ENDBRANCH   6   7
ENDBRANCH   5   6
ENDBRANCH   4   5
ENDBRANCH   3   4
ENDBRANCH   2   3
ENDBRANCH   1   2
BRANCH   1  10
ATOM     10  C   UNL     1       8.221  -6.299  -6.424  1.00  0.00     0.000 C 
BRANCH  10  11
ATOM     11  C   UNL     1       9.757  -6.280  -6.372  1.00  0.00    -0.000 C 
BRANCH  11  12
ATOM     12  C   UNL     1      10.313  -4.987  -5.754  1.00  0.00    -0.000 C 
BRANCH  12  13
ATOM     13  C   UNL     1      10.592  -5.172  -4.257  1.00  0.00    -0.000 C 
BRANCH  13  14
ATOM     14  C   UNL     1      10.534  -6.656  -3.866  1.00  0.00    -0.000 C 
BRANCH  14  15
ATOM     15  C   UNL     1       9.612  -6.914  -2.663  1.00  0.00    -0.003 C 
ATOM     16  C   UNL     1       8.802  -5.681  -2.264  1.00  0.00     0.004 C 
ENDBRANCH  14  15
ENDBRANCH  13  14
ENDBRANCH  12  13
ENDBRANCH  11  12
ENDBRANCH  10  11
ENDBRANCH   1  10
TORSDOF 12
ENDMDL
