MODEL 1
REMARK VINA RESULT:    -4.154      0.000      0.000
REMARK INTER + INTRA:          -6.251
REMARK INTER:                  -5.611
REMARK INTRA:                  -0.640
REMARK UNBOUND:                -0.640
REMARK SMILES O=C[C@H](O)[C@H](O)[C@H](O)CO
REMARK SMILES IDX 7 1 9 2 10 3 5 5 3 6 2 7 1 8 4 9 6 11 8 13
REMARK H PARENT 10 4 4 10 6 12 8 14
REMARK Flexibility Score: inf
ROOT
ATOM      1  C   UNL     1      16.324 -54.725  22.650  1.00  0.00     0.171 C 
ENDROOT
BRANCH   1   2
ATOM      2  C   UNL     1      17.685 -54.057  22.379  1.00  0.00     0.190 C 
BRANCH   2   3
ATOM      3  O   UNL     1      17.856 -52.925  23.187  1.00  0.00    -0.394 OA
ATOM      4  H   UNL     1      16.951 -52.540  23.316  1.00  0.00     0.210 HD
ENDBRANCH   2   3
ENDBRANCH   1   2
BRANCH   1   5
ATOM      5  C   UNL     1      15.109 -53.763  22.609  1.00  0.00     0.181 C 
BRANCH   5   6
ATOM      6  C   UNL     1      13.733 -54.482  22.507  1.00  0.00     0.209 C 
BRANCH   6   7
ATOM      7  C   UNL     1      12.601 -53.684  23.098  1.00  0.00     0.258 C 
ATOM      8  O   UNL     1      12.699 -52.475  23.250  1.00  0.00    -0.300 OA
ENDBRANCH   6   7
BRANCH   6   9
ATOM      9  O   UNL     1      13.792 -55.720  23.169  1.00  0.00    -0.383 OA
ATOM     10  H   UNL     1      13.821 -55.526  24.142  1.00  0.00     0.211 HD
ENDBRANCH   6   9
ENDBRANCH   5   6
BRANCH   5  11
ATOM     11  O   UNL     1      15.271 -52.810  21.588  1.00  0.00    -0.387 OA
ATOM     12  H   UNL     1      14.910 -53.213  20.756  1.00  0.00     0.211 HD
ENDBRANCH   5  11
ENDBRANCH   1   5
BRANCH   1  13
ATOM     13  O   UNL     1      16.355 -55.353  23.907  1.00  0.00    -0.388 OA
ATOM     14  H   UNL     1      15.441 -55.286  24.289  1.00  0.00     0.211 HD
ENDBRANCH   1  13
TORSDOF 8
ENDMDL
MODEL 2
REMARK VINA RESULT:    -4.152      1.792      4.335
REMARK INTER + INTRA:          -6.249
REMARK INTER:                  -5.888
REMARK INTRA:                  -0.361
REMARK UNBOUND:                -0.640
REMARK SMILES O=C[C@H](O)[C@H](O)[C@H](O)CO
REMARK SMILES IDX 7 1 9 2 10 3 5 5 3 6 2 7 1 8 4 9 6 11 8 13
REMARK H PARENT 10 4 4 10 6 12 8 14
REMARK Flexibility Score: inf
ROOT
ATOM      1  C   UNL     1      13.634 -54.108  21.254  1.00  0.00     0.171 C 
ENDROOT
BRANCH   1   2
ATOM      2  C   UNL     1      12.115 -54.364  21.219  1.00  0.00     0.190 C 
BRANCH   2   3
ATOM      3  O   UNL     1      11.841 -55.738  21.180  1.00  0.00    -0.394 OA
ATOM      4  H   UNL     1      12.549 -56.144  20.616  1.00  0.00     0.210 HD
ENDBRANCH   2   3
ENDBRANCH   1   2
BRANCH   1   5
ATOM      5  C   UNL     1      14.293 -54.303  22.643  1.00  0.00     0.181 C 
BRANCH   5   6
ATOM      6  C   UNL     1      15.695 -54.975  22.592  1.00  0.00     0.209 C 
BRANCH   6   7
ATOM      7  C   UNL     1      15.748 -56.169  21.675  1.00  0.00     0.258 C 
ATOM      8  O   UNL     1      16.520 -56.199  20.729  1.00  0.00    -0.300 OA
ENDBRANCH   6   7
BRANCH   6   9
ATOM      9  O   UNL     1      16.073 -55.391  23.879  1.00  0.00    -0.383 OA
ATOM     10  H   UNL     1      16.262 -56.364  23.825  1.00  0.00     0.211 HD
ENDBRANCH   6   9
ENDBRANCH   5   6
BRANCH   5  11
ATOM     11  O   UNL     1      13.423 -54.988  23.509  1.00  0.00    -0.387 OA
ATOM     12  H   UNL     1      12.802 -55.513  22.940  1.00  0.00     0.211 HD
ENDBRANCH   5  11
ENDBRANCH   1   5
BRANCH   1  13
ATOM     13  O   UNL     1      13.896 -52.799  20.814  1.00  0.00    -0.388 OA
ATOM     14  H   UNL     1      14.816 -52.797  20.439  1.00  0.00     0.211 HD
ENDBRANCH   1  13
TORSDOF 8
ENDMDL
MODEL 3
REMARK VINA RESULT:    -4.127      1.816      2.194
REMARK INTER + INTRA:          -6.215
REMARK INTER:                  -5.407
REMARK INTRA:                  -0.807
REMARK UNBOUND:                -0.640
REMARK SMILES O=C[C@H](O)[C@H](O)[C@H](O)CO
REMARK SMILES IDX 7 1 9 2 10 3 5 5 3 6 2 7 1 8 4 9 6 11 8 13
REMARK H PARENT 10 4 4 10 6 12 8 14
REMARK Flexibility Score: inf
ROOT
ATOM      1  C   UNL     1      15.320 -55.773  22.671  1.00  0.00     0.171 C 
ENDROOT
BRANCH   1   2
ATOM      2  C   UNL     1      16.238 -55.633  21.442  1.00  0.00     0.190 C 
BRANCH   2   3
ATOM      3  O   UNL     1      16.665 -54.308  21.285  1.00  0.00    -0.394 OA
ATOM      4  H   UNL     1      15.939 -53.740  21.651  1.00  0.00     0.210 HD
ENDBRANCH   2   3
ENDBRANCH   1   2
BRANCH   1   5
ATOM      5  C   UNL     1      13.997 -54.970  22.588  1.00  0.00     0.181 C 
BRANCH   5   6
ATOM      6  C   UNL     1      13.290 -55.053  21.205  1.00  0.00     0.209 C 
BRANCH   6   7
ATOM      7  C   UNL     1      13.134 -53.713  20.536  1.00  0.00     0.258 C 
ATOM      8  O   UNL     1      14.112 -53.052  20.223  1.00  0.00    -0.300 OA
ENDBRANCH   6   7
BRANCH   6   9
ATOM      9  O   UNL     1      12.014 -55.622  21.354  1.00  0.00    -0.383 OA
ATOM     10  H   UNL     1      11.642 -55.740  20.441  1.00  0.00     0.211 HD
ENDBRANCH   6   9
ENDBRANCH   5   6
BRANCH   5  11
ATOM     11  O   UNL     1      14.203 -53.637  22.984  1.00  0.00    -0.387 OA
ATOM     12  H   UNL     1      13.434 -53.382  23.556  1.00  0.00     0.211 HD
ENDBRANCH   5  11
ENDBRANCH   1   5
BRANCH   1  13
ATOM     13  O   UNL     1      16.018 -55.368  23.822  1.00  0.00    -0.388 OA
ATOM     14  H   UNL     1      16.619 -56.117  24.077  1.00  0.00     0.211 HD
ENDBRANCH   1  13
TORSDOF 8
ENDMDL
MODEL 4
REMARK VINA RESULT:    -4.064      1.684      2.550
REMARK INTER + INTRA:          -6.130
REMARK INTER:                  -5.326
REMARK INTRA:                  -0.805
REMARK UNBOUND:                -0.640
REMARK SMILES O=C[C@H](O)[C@H](O)[C@H](O)CO
REMARK SMILES IDX 7 1 9 2 10 3 5 5 3 6 2 7 1 8 4 9 6 11 8 13
REMARK H PARENT 10 4 4 10 6 12 8 14
REMARK Flexibility Score: inf
ROOT
ATOM      1  C   UNL     1      15.095 -55.405  22.797  1.00  0.00     0.171 C 
ENDROOT
BRANCH   1   2
ATOM      2  C   UNL     1      15.697 -56.015  21.517  1.00  0.00     0.190 C 
BRANCH   2   3
ATOM      3  O   UNL     1      14.699 -56.268  20.567  1.00  0.00    -0.394 OA
ATOM      4  H   UNL     1      14.129 -56.984  20.950  1.00  0.00     0.210 HD
ENDBRANCH   2   3
ENDBRANCH   1   2
BRANCH   1   5
ATOM      5  C   UNL     1      14.448 -54.009  22.608  1.00  0.00     0.181 C 
BRANCH   5   6
ATOM      6  C   UNL     1      12.953 -53.940  23.034  1.00  0.00     0.209 C 
BRANCH   6   7
ATOM      7  C   UNL     1      11.999 -54.020  21.871  1.00  0.00     0.258 C 
ATOM      8  O   UNL     1      12.000 -54.988  21.127  1.00  0.00    -0.300 OA
ENDBRANCH   6   7
BRANCH   6   9
ATOM      9  O   UNL     1      12.708 -52.741  23.723  1.00  0.00    -0.383 OA
ATOM     10  H   UNL     1      13.238 -52.034  23.270  1.00  0.00     0.211 HD
ENDBRANCH   6   9
ENDBRANCH   5   6
BRANCH   5  11
ATOM     11  O   UNL     1      14.630 -53.556  21.290  1.00  0.00    -0.387 OA
ATOM     12  H   UNL     1      15.286 -52.811  21.328  1.00  0.00     0.211 HD
ENDBRANCH   5  11
ENDBRANCH   1   5
BRANCH   1  13
ATOM     13  O   UNL     1      16.094 -55.306  23.780  1.00  0.00    -0.388 OA
ATOM     14  H   UNL     1      16.463 -56.218  23.914  1.00  0.00     0.211 HD
ENDBRANCH   1  13
TORSDOF 8
ENDMDL
MODEL 5
REMARK VINA RESULT:    -4.063      2.236      2.880
REMARK INTER + INTRA:          -6.129
REMARK INTER:                  -5.639
REMARK INTRA:                  -0.490
REMARK UNBOUND:                -0.640
REMARK SMILES O=C[C@H](O)[C@H](O)[C@H](O)CO
REMARK SMILES IDX 7 1 9 2 10 3 5 5 3 6 2 7 1 8 4 9 6 11 8 13
REMARK H PARENT 10 4 4 10 6 12 8 14
REMARK Flexibility Score: inf
ROOT
ATOM      1  C   UNL     1      14.388 -55.541  22.321  1.00  0.00     0.171 C 
ENDROOT
BRANCH   1   2
ATOM      2  C   UNL     1      15.912 -55.540  22.544  1.00  0.00     0.190 C 
BRANCH   2   3
ATOM      3  O   UNL     1      16.217 -55.463  23.910  1.00  0.00    -0.394 OA
ATOM      4  H   UNL     1      16.106 -56.381  24.269  1.00  0.00     0.210 HD
ENDBRANCH   2   3
ENDBRANCH   1   2
BRANCH   1   5
ATOM      5  C   UNL     1      13.901 -54.633  21.163  1.00  0.00     0.181 C 
BRANCH   5   6
ATOM      6  C   UNL     1      12.649 -55.175  20.415  1.00  0.00     0.209 C 
BRANCH   6   7
ATOM      7  C   UNL     1      11.975 -54.137  19.557  1.00  0.00     0.258 C 
ATOM      8  O   UNL     1      12.620 -53.458  18.773  1.00  0.00    -0.300 OA
ENDBRANCH   6   7
BRANCH   6   9
ATOM      9  O   UNL     1      11.711 -55.657  21.342  1.00  0.00    -0.383 OA
ATOM     10  H   UNL     1      11.609 -54.959  22.041  1.00  0.00     0.211 HD
ENDBRANCH   6   9
ENDBRANCH   5   6
BRANCH   5  11
ATOM     11  O   UNL     1      14.956 -54.359  20.275  1.00  0.00    -0.387 OA
ATOM     12  H   UNL     1      14.693 -54.727  19.392  1.00  0.00     0.211 HD
ENDBRANCH   5  11
ENDBRANCH   1   5
BRANCH   1  13
ATOM     13  O   UNL     1      13.743 -55.143  23.505  1.00  0.00    -0.388 OA
ATOM     14  H   UNL     1      14.247 -55.545  24.261  1.00  0.00     0.211 HD
ENDBRANCH   1  13
TORSDOF 8
ENDMDL
MODEL 6
REMARK VINA RESULT:    -4.057      1.584      2.089
REMARK INTER + INTRA:          -6.121
REMARK INTER:                  -5.553
REMARK INTRA:                  -0.568
REMARK UNBOUND:                -0.640
REMARK SMILES O=C[C@H](O)[C@H](O)[C@H](O)CO
REMARK SMILES IDX 7 1 9 2 10 3 5 5 3 6 2 7 1 8 4 9 6 11 8 13
REMARK H PARENT 10 4 4 10 6 12 8 14
REMARK Flexibility Score: inf
ROOT
ATOM      1  C   UNL     1      15.651 -55.285  21.522  1.00  0.00     0.171 C 
ENDROOT
BRANCH   1   2
ATOM      2  C   UNL     1      16.509 -54.346  22.391  1.00  0.00     0.190 C 
BRANCH   2   3
ATOM      3  O   UNL     1      17.114 -55.051  23.440  1.00  0.00    -0.394 OA
ATOM      4  H   UNL     1      16.613 -54.808  24.260  1.00  0.00     0.210 HD
ENDBRANCH   2   3
ENDBRANCH   1   2
BRANCH   1   5
ATOM      5  C   UNL     1      14.235 -55.575  22.082  1.00  0.00     0.181 C 
BRANCH   5   6
ATOM      6  C   UNL     1      13.088 -54.870  21.303  1.00  0.00     0.209 C 
BRANCH   6   7
ATOM      7  C   UNL     1      12.579 -53.629  21.989  1.00  0.00     0.258 C 
ATOM      8  O   UNL     1      13.334 -52.706  22.254  1.00  0.00    -0.300 OA
ENDBRANCH   6   7
BRANCH   6   9
ATOM      9  O   UNL     1      12.010 -55.755  21.137  1.00  0.00    -0.383 OA
ATOM     10  H   UNL     1      11.774 -56.096  22.039  1.00  0.00     0.211 HD
ENDBRANCH   6   9
ENDBRANCH   5   6
BRANCH   5  11
ATOM     11  O   UNL     1      14.181 -55.285  23.456  1.00  0.00    -0.387 OA
ATOM     12  H   UNL     1      14.988 -54.749  23.671  1.00  0.00     0.211 HD
ENDBRANCH   5  11
ENDBRANCH   1   5
BRANCH   1  13
ATOM     13  O   UNL     1      16.324 -56.507  21.350  1.00  0.00    -0.388 OA
ATOM     14  H   UNL     1      17.268 -56.291  21.129  1.00  0.00     0.211 HD
ENDBRANCH   1  13
TORSDOF 8
ENDMDL
MODEL 7
REMARK VINA RESULT:    -4.029      0.998      1.797
REMARK INTER + INTRA:          -6.082
REMARK INTER:                  -5.741
REMARK INTRA:                  -0.342
REMARK UNBOUND:                -0.640
REMARK SMILES O=C[C@H](O)[C@H](O)[C@H](O)CO
REMARK SMILES IDX 7 1 9 2 10 3 5 5 3 6 2 7 1 8 4 9 6 11 8 13
REMARK H PARENT 10 4 4 10 6 12 8 14
REMARK Flexibility Score: inf
ROOT
ATOM      1  C   UNL     1      15.995 -54.826  22.543  1.00  0.00     0.171 C 
ENDROOT
BRANCH   1   2
ATOM      2  C   UNL     1      16.764 -53.502  22.372  1.00  0.00     0.190 C 
BRANCH   2   3
ATOM      3  O   UNL     1      17.567 -53.243  23.490  1.00  0.00    -0.394 OA
ATOM      4  H   UNL     1      17.726 -52.264  23.493  1.00  0.00     0.210 HD
ENDBRANCH   2   3
ENDBRANCH   1   2
BRANCH   1   5
ATOM      5  C   UNL     1      14.462 -54.718  22.338  1.00  0.00     0.181 C 
BRANCH   5   6
ATOM      6  C   UNL     1      13.929 -53.257  22.292  1.00  0.00     0.209 C 
BRANCH   6   7
ATOM      7  C   UNL     1      12.748 -53.027  23.197  1.00  0.00     0.258 C 
ATOM      8  O   UNL     1      11.667 -53.545  22.960  1.00  0.00    -0.300 OA
ENDBRANCH   6   7
BRANCH   6   9
ATOM      9  O   UNL     1      13.550 -52.929  20.980  1.00  0.00    -0.383 OA
ATOM     10  H   UNL     1      13.063 -52.065  21.027  1.00  0.00     0.211 HD
ENDBRANCH   6   9
ENDBRANCH   5   6
BRANCH   5  11
ATOM     11  O   UNL     1      13.782 -55.487  23.299  1.00  0.00    -0.387 OA
ATOM     12  H   UNL     1      14.435 -55.699  24.014  1.00  0.00     0.211 HD
ENDBRANCH   5  11
ENDBRANCH   1   5
BRANCH   1  13
ATOM     13  O   UNL     1      16.240 -55.345  23.826  1.00  0.00    -0.388 OA
ATOM     14  H   UNL     1      15.445 -55.135  24.382  1.00  0.00     0.211 HD
ENDBRANCH   1  13
TORSDOF 8
ENDMDL
MODEL 8
REMARK VINA RESULT:    -3.958      1.648      2.618
REMARK INTER + INTRA:          -5.986
REMARK INTER:                  -5.480
REMARK INTRA:                  -0.506
REMARK UNBOUND:                -0.640
REMARK SMILES O=C[C@H](O)[C@H](O)[C@H](O)CO
REMARK SMILES IDX 7 1 9 2 10 3 5 5 3 6 2 7 1 8 4 9 6 11 8 13
REMARK H PARENT 10 4 4 10 6 12 8 14
REMARK Flexibility Score: inf
ROOT
ATOM      1  C   UNL     1      15.017 -54.034  21.657  1.00  0.00     0.171 C 
ENDROOT
BRANCH   1   2
ATOM      2  C   UNL     1      14.612 -52.875  20.726  1.00  0.00     0.190 C 
BRANCH   2   3
ATOM      3  O   UNL     1      15.389 -52.876  19.560  1.00  0.00    -0.394 OA
ATOM      4  H   UNL     1      16.335 -52.893  19.860  1.00  0.00     0.210 HD
ENDBRANCH   2   3
ENDBRANCH   1   2
BRANCH   1   5
ATOM      5  C   UNL     1      13.885 -55.048  21.961  1.00  0.00     0.181 C 
BRANCH   5   6
ATOM      6  C   UNL     1      12.455 -54.512  21.663  1.00  0.00     0.209 C 
BRANCH   6   7
ATOM      7  C   UNL     1      11.818 -53.831  22.845  1.00  0.00     0.258 C 
ATOM      8  O   UNL     1      12.459 -53.062  23.545  1.00  0.00    -0.300 OA
ENDBRANCH   6   7
BRANCH   6   9
ATOM      9  O   UNL     1      11.623 -55.570  21.262  1.00  0.00    -0.383 OA
ATOM     10  H   UNL     1      12.178 -56.392  21.266  1.00  0.00     0.211 HD
ENDBRANCH   6   9
ENDBRANCH   5   6
BRANCH   5  11
ATOM     11  O   UNL     1      13.993 -55.526  23.279  1.00  0.00    -0.387 OA
ATOM     12  H   UNL     1      14.493 -54.841  23.794  1.00  0.00     0.211 HD
ENDBRANCH   5  11
ENDBRANCH   1   5
BRANCH   1  13
ATOM     13  O   UNL     1      15.490 -53.512  22.873  1.00  0.00    -0.388 OA
ATOM     14  H   UNL     1      14.995 -53.973  23.600  1.00  0.00     0.211 HD
ENDBRANCH   1  13
TORSDOF 8
ENDMDL
MODEL 9
REMARK VINA RESULT:    -3.927      1.846      2.844
REMARK INTER + INTRA:          -5.945
REMARK INTER:                  -5.613
REMARK INTRA:                  -0.332
REMARK UNBOUND:                -0.640
REMARK SMILES O=C[C@H](O)[C@H](O)[C@H](O)CO
REMARK SMILES IDX 7 1 9 2 10 3 5 5 3 6 2 7 1 8 4 9 6 11 8 13
REMARK H PARENT 10 4 4 10 6 12 8 14
REMARK Flexibility Score: inf
ROOT
ATOM      1  C   UNL     1      14.458 -54.885  22.283  1.00  0.00     0.171 C 
ENDROOT
BRANCH   1   2
ATOM      2  C   UNL     1      15.771 -55.651  22.537  1.00  0.00     0.190 C 
BRANCH   2   3
ATOM      3  O   UNL     1      16.260 -55.390  23.824  1.00  0.00    -0.394 OA
ATOM      4  H   UNL     1      15.493 -55.036  24.344  1.00  0.00     0.210 HD
ENDBRANCH   2   3
ENDBRANCH   1   2
BRANCH   1   5
ATOM      5  C   UNL     1      14.639 -53.389  21.920  1.00  0.00     0.181 C 
BRANCH   5   6
ATOM      6  C   UNL     1      13.790 -52.924  20.702  1.00  0.00     0.209 C 
BRANCH   6   7
ATOM      7  C   UNL     1      13.027 -54.046  20.048  1.00  0.00     0.258 C 
ATOM      8  O   UNL     1      11.805 -54.056  20.048  1.00  0.00    -0.300 OA
ENDBRANCH   6   7
BRANCH   6   9
ATOM      9  O   UNL     1      14.623 -52.336  19.736  1.00  0.00    -0.383 OA
ATOM     10  H   UNL     1      14.126 -51.564  19.358  1.00  0.00     0.211 HD
ENDBRANCH   6   9
ENDBRANCH   5   6
BRANCH   5  11
ATOM     11  O   UNL     1      16.001 -53.086  21.746  1.00  0.00    -0.387 OA
ATOM     12  H   UNL     1      16.506 -53.927  21.898  1.00  0.00     0.211 HD
ENDBRANCH   5  11
ENDBRANCH   1   5
BRANCH   1  13
ATOM     13  O   UNL     1      13.639 -54.974  23.422  1.00  0.00    -0.388 OA
ATOM     14  H   UNL     1      14.158 -54.607  24.184  1.00  0.00     0.211 HD
ENDBRANCH   1  13
TORSDOF 8
ENDMDL
