MODEL 1
REMARK VINA RESULT:    -3.701      0.000      0.000
REMARK INTER + INTRA:          -5.996
REMARK INTER:                  -5.648
REMARK INTRA:                  -0.348
REMARK UNBOUND:                -0.348
REMARK SMILES CC1=CCC[C@@H](C)C(=O)C[C@H](C(C)C)C(=O)C1
REMARK SMILES IDX 8 1 9 2 6 3 7 4 5 5 4 6 3 7 2 8 1 9 10 11 11 12 15 13 16 14
REMARK SMILES IDX 17 15 12 17 13 18 14 19
REMARK H PARENT
REMARK Flexibility Score: 70.00
ROOT
ATOM      1  C   UNL     1      -3.334   0.368  28.284  1.00  0.00     0.136 C 
ATOM      2  O   UNL     1      -3.609  -0.823  28.250  1.00  0.00    -0.299 OA
ENDROOT
BRANCH   1   3
ATOM      3  C   UNL     1      -2.113   0.834  27.492  1.00  0.00     0.053 C 
ATOM      4  C   UNL     1      -2.217   0.294  26.056  1.00  0.00     0.016 C 
BRANCH   3   5
ATOM      5  C   UNL     1      -0.721   0.461  28.064  1.00  0.00     0.015 C 
BRANCH   5   6
ATOM      6  C   UNL     1      -0.251   1.210  29.325  1.00  0.00     0.028 C 
BRANCH   6   7
ATOM      7  C   UNL     1      -0.428   2.709  29.280  1.00  0.00    -0.028 C 
ATOM      8  C   UNL     1      -1.065   3.493  30.189  1.00  0.00    -0.070 CG0
ATOM      9  C   UNL     1      -1.001   4.984  29.959  1.00  0.00     0.039 C 
ATOM     10  G   UNL     1      -1.935   2.997  31.341  1.00  0.00     0.000 G0
ENDBRANCH   6   7
ENDBRANCH   5   6
ENDBRANCH   3   5
ENDBRANCH   1   3
BRANCH   1  11
ATOM     11  C   UNL     1      -4.230   1.268  29.109  1.00  0.00     0.087 C 
BRANCH  11  12
ATOM     12  C   UNL     1      -3.860   1.329  30.622  1.00  0.00     0.066 C 
BRANCH  12  13
ATOM     13  C   UNL     1      -3.384   2.718  31.040  1.00  0.00     0.140 C 
ATOM     14  O   UNL     1      -4.182   3.645  31.034  1.00  0.00    -0.299 OA
BRANCH  13  15
ATOM     15  C   UNL     1      -1.936   3.010  31.358  1.00  0.00     0.106 CG0
ATOM     16  G   UNL     1      -1.077   3.480  30.187  1.00  0.00     0.000 G0
ENDBRANCH  13  15
ENDBRANCH  12  13
BRANCH  12  17
ATOM     17  C   UNL     1      -4.960   0.786  31.593  1.00  0.00    -0.006 C 
ATOM     18  C   UNL     1      -5.128  -0.741  31.490  1.00  0.00     0.008 C 
ATOM     19  C   UNL     1      -4.635   1.148  33.056  1.00  0.00     0.008 C 
ENDBRANCH  12  17
ENDBRANCH  11  12
ENDBRANCH   1  11
TORSDOF 1
ENDMDL
MODEL 2
REMARK VINA RESULT:    -3.633     10.362     11.802
REMARK INTER + INTRA:          -5.893
REMARK INTER:                  -5.666
REMARK INTRA:                  -0.227
REMARK UNBOUND:                -0.348
REMARK SMILES CC1=CCC[C@@H](C)C(=O)C[C@H](C(C)C)C(=O)C1
REMARK SMILES IDX 8 1 9 2 6 3 7 4 5 5 4 6 3 7 2 8 1 9 10 11 11 12 15 13 16 14
REMARK SMILES IDX 17 15 12 17 13 18 14 19
REMARK H PARENT
REMARK Flexibility Score: 70.00
ROOT
ATOM      1  C   UNL     1     -10.134   9.381  32.413  1.00  0.00     0.136 C 
ATOM      2  O   UNL     1     -10.394   9.966  33.454  1.00  0.00    -0.299 OA
ENDROOT
BRANCH   1   3
ATOM      3  C   UNL     1      -8.805   8.630  32.337  1.00  0.00     0.053 C 
ATOM      4  C   UNL     1      -8.150   8.637  33.728  1.00  0.00     0.016 C 
BRANCH   3   5
ATOM      5  C   UNL     1      -7.772   9.134  31.297  1.00  0.00     0.015 C 
BRANCH   5   6
ATOM      6  C   UNL     1      -7.912   8.617  29.853  1.00  0.00     0.028 C 
BRANCH   6   7
ATOM      7  C   UNL     1      -7.656   9.646  28.779  1.00  0.00    -0.028 C 
ATOM      8  C   UNL     1      -8.522  10.583  28.308  1.00  0.00    -0.070 CG0
ATOM      9  C   UNL     1      -7.973  11.567  27.303  1.00  0.00     0.039 C 
ATOM     10  G   UNL     1     -10.017  10.646  28.610  1.00  0.00     0.000 G0
ENDBRANCH   6   7
ENDBRANCH   5   6
ENDBRANCH   3   5
ENDBRANCH   1   3
BRANCH   1  11
ATOM     11  C   UNL     1     -11.155   9.457  31.297  1.00  0.00     0.087 C 
BRANCH  11  12
ATOM     12  C   UNL     1     -11.486  10.906  30.828  1.00  0.00     0.066 C 
BRANCH  12  13
ATOM     13  C   UNL     1     -10.448  11.442  29.846  1.00  0.00     0.140 C 
ATOM     14  O   UNL     1      -9.992  12.564  30.018  1.00  0.00    -0.299 OA
BRANCH  13  15
ATOM     15  C   UNL     1     -10.042  10.676  28.609  1.00  0.00     0.106 CG0
ATOM     16  G   UNL     1      -8.542  10.608  28.330  1.00  0.00     0.000 G0
ENDBRANCH  13  15
ENDBRANCH  12  13
BRANCH  12  17
ATOM     17  C   UNL     1     -12.941  11.109  30.291  1.00  0.00    -0.006 C 
ATOM     18  C   UNL     1     -13.892   9.983  30.735  1.00  0.00     0.008 C 
ATOM     19  C   UNL     1     -13.522  12.458  30.762  1.00  0.00     0.008 C 
ENDBRANCH  12  17
ENDBRANCH  11  12
ENDBRANCH   1  11
TORSDOF 1
ENDMDL
MODEL 3
REMARK VINA RESULT:    -3.625      1.487      4.140
REMARK INTER + INTRA:          -5.880
REMARK INTER:                  -5.806
REMARK INTRA:                  -0.074
REMARK UNBOUND:                -0.348
REMARK SMILES CC1=CCC[C@@H](C)C(=O)C[C@H](C(C)C)C(=O)C1
REMARK SMILES IDX 8 1 9 2 6 3 7 4 5 5 4 6 3 7 2 8 1 9 10 11 11 12 15 13 16 14
REMARK SMILES IDX 17 15 12 17 13 18 14 19
REMARK H PARENT
REMARK Flexibility Score: 70.00
ROOT
ATOM      1  C   UNL     1      -4.176   0.213  29.665  1.00  0.00     0.136 C 
ATOM      2  O   UNL     1      -5.160   0.695  29.124  1.00  0.00    -0.299 OA
ENDROOT
BRANCH   1   3
ATOM      3  C   UNL     1      -4.127   0.236  31.192  1.00  0.00     0.053 C 
ATOM      4  C   UNL     1      -5.440  -0.347  31.741  1.00  0.00     0.016 C 
BRANCH   3   5
ATOM      5  C   UNL     1      -3.873   1.609  31.865  1.00  0.00     0.015 C 
BRANCH   5   6
ATOM      6  C   UNL     1      -2.545   2.320  31.542  1.00  0.00     0.028 C 
BRANCH   6   7
ATOM      7  C   UNL     1      -2.644   3.419  30.512  1.00  0.00    -0.028 C 
ATOM      8  C   UNL     1      -1.961   3.517  29.340  1.00  0.00    -0.070 CG0
ATOM      9  C   UNL     1      -2.332   4.669  28.436  1.00  0.00     0.039 C 
ATOM     10  G   UNL     1      -0.780   2.646  28.920  1.00  0.00     0.000 G0
ENDBRANCH   6   7
ENDBRANCH   5   6
ENDBRANCH   3   5
ENDBRANCH   1   3
BRANCH   1  11
ATOM     11  C   UNL     1      -3.099  -0.362  28.769  1.00  0.00     0.087 C 
BRANCH  11  12
ATOM     12  C   UNL     1      -2.310   0.703  27.949  1.00  0.00     0.066 C 
BRANCH  12  13
ATOM     13  C   UNL     1      -1.069   1.194  28.690  1.00  0.00     0.140 C 
ATOM     14  O   UNL     1      -0.327   0.374  29.212  1.00  0.00    -0.299 OA
BRANCH  13  15
ATOM     15  C   UNL     1      -0.781   2.663  28.891  1.00  0.00     0.106 CG0
ATOM     16  G   UNL     1      -1.965   3.521  29.330  1.00  0.00     0.000 G0
ENDBRANCH  13  15
ENDBRANCH  12  13
BRANCH  12  17
ATOM     17  C   UNL     1      -1.972   0.287  26.479  1.00  0.00    -0.006 C 
ATOM     18  C   UNL     1      -1.357  -1.122  26.397  1.00  0.00     0.008 C 
ATOM     19  C   UNL     1      -3.230   0.328  25.589  1.00  0.00     0.008 C 
ENDBRANCH  12  17
ENDBRANCH  11  12
ENDBRANCH   1  11
TORSDOF 1
ENDMDL
MODEL 4
REMARK VINA RESULT:    -3.613      1.758      4.126
REMARK INTER + INTRA:          -5.862
REMARK INTER:                  -5.314
REMARK INTRA:                  -0.548
REMARK UNBOUND:                -0.348
REMARK SMILES CC1=CCC[C@@H](C)C(=O)C[C@H](C(C)C)C(=O)C1
REMARK SMILES IDX 8 1 9 2 6 3 7 4 5 5 4 6 3 7 2 8 1 9 10 11 11 12 15 13 16 14
REMARK SMILES IDX 17 15 12 17 13 18 14 19
REMARK H PARENT
REMARK Flexibility Score: 70.00
ROOT
ATOM      1  C   UNL     1      -3.332  -0.366  29.829  1.00  0.00     0.136 C 
ATOM      2  O   UNL     1      -3.172  -1.093  28.859  1.00  0.00    -0.299 OA
ENDROOT
BRANCH   1   3
ATOM      3  C   UNL     1      -4.751  -0.222  30.378  1.00  0.00     0.053 C 
ATOM      4  C   UNL     1      -5.507   0.817  29.533  1.00  0.00     0.016 C 
BRANCH   3   5
ATOM      5  C   UNL     1      -4.889   0.157  31.875  1.00  0.00     0.015 C 
BRANCH   5   6
ATOM      6  C   UNL     1      -5.083   1.648  32.211  1.00  0.00     0.028 C 
BRANCH   6   7
ATOM      7  C   UNL     1      -4.177   2.181  33.295  1.00  0.00    -0.028 C 
ATOM      8  C   UNL     1      -3.161   3.074  33.158  1.00  0.00    -0.070 CG0
ATOM      9  C   UNL     1      -2.481   3.524  34.429  1.00  0.00     0.039 C 
ATOM     10  G   UNL     1      -2.573   3.559  31.836  1.00  0.00     0.000 G0
ENDBRANCH   6   7
ENDBRANCH   5   6
ENDBRANCH   3   5
ENDBRANCH   1   3
BRANCH   1  11
ATOM     11  C   UNL     1      -2.106   0.321  30.393  1.00  0.00     0.087 C 
BRANCH  11  12
ATOM     12  C   UNL     1      -1.956   1.813  29.969  1.00  0.00     0.066 C 
BRANCH  12  13
ATOM     13  C   UNL     1      -1.580   2.709  31.147  1.00  0.00     0.140 C 
ATOM     14  O   UNL     1      -0.448   2.645  31.604  1.00  0.00    -0.299 OA
BRANCH  13  15
ATOM     15  C   UNL     1      -2.591   3.596  31.836  1.00  0.00     0.106 CG0
ATOM     16  G   UNL     1      -3.140   3.076  33.162  1.00  0.00     0.000 G0
ENDBRANCH  13  15
ENDBRANCH  12  13
BRANCH  12  17
ATOM     17  C   UNL     1      -1.017   2.059  28.742  1.00  0.00    -0.006 C 
ATOM     18  C   UNL     1      -0.052   0.885  28.500  1.00  0.00     0.008 C 
ATOM     19  C   UNL     1      -1.836   2.296  27.457  1.00  0.00     0.008 C 
ENDBRANCH  12  17
ENDBRANCH  11  12
ENDBRANCH   1  11
TORSDOF 1
ENDMDL
MODEL 5
REMARK VINA RESULT:    -3.427     10.384     12.369
REMARK INTER + INTRA:          -5.578
REMARK INTER:                  -5.154
REMARK INTRA:                  -0.425
REMARK UNBOUND:                -0.348
REMARK SMILES CC1=CCC[C@@H](C)C(=O)C[C@H](C(C)C)C(=O)C1
REMARK SMILES IDX 8 1 9 2 6 3 7 4 5 5 4 6 3 7 2 8 1 9 10 11 11 12 15 13 16 14
REMARK SMILES IDX 17 15 12 17 13 18 14 19
REMARK H PARENT
REMARK Flexibility Score: 70.00
ROOT
ATOM      1  C   UNL     1     -10.439   8.477  33.780  1.00  0.00     0.136 C 
ATOM      2  O   UNL     1      -9.729   7.945  34.621  1.00  0.00    -0.299 OA
ENDROOT
BRANCH   1   3
ATOM      3  C   UNL     1     -11.828   7.881  33.550  1.00  0.00     0.053 C 
ATOM      4  C   UNL     1     -12.364   7.341  34.887  1.00  0.00     0.016 C 
BRANCH   3   5
ATOM      5  C   UNL     1     -11.946   6.766  32.480  1.00  0.00     0.015 C 
BRANCH   5   6
ATOM      6  C   UNL     1     -12.476   7.172  31.092  1.00  0.00     0.028 C 
BRANCH   6   7
ATOM      7  C   UNL     1     -13.436   8.337  31.091  1.00  0.00    -0.028 C 
ATOM      8  C   UNL     1     -13.262   9.551  30.502  1.00  0.00    -0.070 CG0
ATOM      9  C   UNL     1     -14.432  10.504  30.560  1.00  0.00     0.039 C 
ATOM     10  G   UNL     1     -11.958  10.073  29.904  1.00  0.00     0.000 G0
ENDBRANCH   6   7
ENDBRANCH   5   6
ENDBRANCH   3   5
ENDBRANCH   1   3
BRANCH   1  11
ATOM     11  C   UNL     1      -9.874   9.675  33.046  1.00  0.00     0.087 C 
BRANCH  11  12
ATOM     12  C   UNL     1      -9.911   9.551  31.492  1.00  0.00     0.066 C 
BRANCH  12  13
ATOM     13  C   UNL     1     -10.895  10.533  30.862  1.00  0.00     0.140 C 
ATOM     14  O   UNL     1     -10.879  11.702  31.223  1.00  0.00    -0.299 OA
BRANCH  13  15
ATOM     15  C   UNL     1     -11.958  10.091  29.885  1.00  0.00     0.106 CG0
ATOM     16  G   UNL     1     -13.242   9.541  30.500  1.00  0.00     0.000 G0
ENDBRANCH  13  15
ENDBRANCH  12  13
BRANCH  12  17
ATOM     17  C   UNL     1      -8.513   9.613  30.793  1.00  0.00    -0.006 C 
ATOM     18  C   UNL     1      -7.358   9.311  31.764  1.00  0.00     0.008 C 
ATOM     19  C   UNL     1      -8.438   8.620  29.616  1.00  0.00     0.008 C 
ENDBRANCH  12  17
ENDBRANCH  11  12
ENDBRANCH   1  11
TORSDOF 1
ENDMDL
MODEL 6
REMARK VINA RESULT:    -3.340     10.252     11.621
REMARK INTER + INTRA:          -5.445
REMARK INTER:                  -5.127
REMARK INTRA:                  -0.318
REMARK UNBOUND:                -0.348
REMARK SMILES CC1=CCC[C@@H](C)C(=O)C[C@H](C(C)C)C(=O)C1
REMARK SMILES IDX 8 1 9 2 6 3 7 4 5 5 4 6 3 7 2 8 1 9 10 11 11 12 15 13 16 14
REMARK SMILES IDX 17 15 12 17 13 18 14 19
REMARK H PARENT
REMARK Flexibility Score: 70.00
ROOT
ATOM      1  C   UNL     1     -13.470   1.715  28.436  1.00  0.00     0.136 C 
ATOM      2  O   UNL     1     -14.374   0.894  28.485  1.00  0.00    -0.299 OA
ENDROOT
BRANCH   1   3
ATOM      3  C   UNL     1     -12.241   1.466  29.308  1.00  0.00     0.053 C 
ATOM      4  C   UNL     1     -12.683   0.753  30.598  1.00  0.00     0.016 C 
BRANCH   3   5
ATOM      5  C   UNL     1     -11.389   2.703  29.691  1.00  0.00     0.015 C 
BRANCH   5   6
ATOM      6  C   UNL     1     -12.053   3.770  30.582  1.00  0.00     0.028 C 
BRANCH   6   7
ATOM      7  C   UNL     1     -11.702   5.198  30.238  1.00  0.00    -0.028 C 
ATOM      8  C   UNL     1     -12.546   6.179  29.821  1.00  0.00    -0.070 CG0
ATOM      9  C   UNL     1     -11.950   7.556  29.651  1.00  0.00     0.039 C 
ATOM     10  G   UNL     1     -14.000   5.983  29.397  1.00  0.00     0.000 G0
ENDBRANCH   6   7
ENDBRANCH   5   6
ENDBRANCH   3   5
ENDBRANCH   1   3
BRANCH   1  11
ATOM     11  C   UNL     1     -13.656   2.902  27.513  1.00  0.00     0.087 C 
BRANCH  11  12
ATOM     12  C   UNL     1     -14.764   3.899  27.967  1.00  0.00     0.066 C 
BRANCH  12  13
ATOM     13  C   UNL     1     -14.241   5.330  28.067  1.00  0.00     0.140 C 
ATOM     14  O   UNL     1     -13.912   5.914  27.044  1.00  0.00    -0.299 OA
BRANCH  13  15
ATOM     15  C   UNL     1     -14.016   6.013  29.396  1.00  0.00     0.106 CG0
ATOM     16  G   UNL     1     -12.560   6.184  29.819  1.00  0.00     0.000 G0
ENDBRANCH  13  15
ENDBRANCH  12  13
BRANCH  12  17
ATOM     17  C   UNL     1     -16.091   3.832  27.141  1.00  0.00    -0.006 C 
ATOM     18  C   UNL     1     -15.859   3.344  25.700  1.00  0.00     0.008 C 
ATOM     19  C   UNL     1     -17.117   2.901  27.817  1.00  0.00     0.008 C 
ENDBRANCH  12  17
ENDBRANCH  11  12
ENDBRANCH   1  11
TORSDOF 1
ENDMDL
MODEL 7
REMARK VINA RESULT:    -3.319      9.707     11.419
REMARK INTER + INTRA:          -5.412
REMARK INTER:                  -5.290
REMARK INTRA:                  -0.123
REMARK UNBOUND:                -0.348
REMARK SMILES CC1=CCC[C@@H](C)C(=O)C[C@H](C(C)C)C(=O)C1
REMARK SMILES IDX 8 1 9 2 6 3 7 4 5 5 4 6 3 7 2 8 1 9 10 11 11 12 15 13 16 14
REMARK SMILES IDX 17 15 12 17 13 18 14 19
REMARK H PARENT
REMARK Flexibility Score: 70.00
ROOT
ATOM      1  C   UNL     1     -11.895   4.419  30.359  1.00  0.00     0.136 C 
ATOM      2  O   UNL     1     -11.514   4.755  31.471  1.00  0.00    -0.299 OA
ENDROOT
BRANCH   1   3
ATOM      3  C   UNL     1     -12.721   5.426  29.560  1.00  0.00     0.053 C 
ATOM      4  C   UNL     1     -12.500   6.829  30.151  1.00  0.00     0.016 C 
BRANCH   3   5
ATOM      5  C   UNL     1     -14.245   5.162  29.461  1.00  0.00     0.015 C 
BRANCH   5   6
ATOM      6  C   UNL     1     -14.856   5.067  28.050  1.00  0.00     0.028 C 
BRANCH   6   7
ATOM      7  C   UNL     1     -14.018   4.319  27.041  1.00  0.00    -0.028 C 
ATOM      8  C   UNL     1     -13.815   2.977  26.969  1.00  0.00    -0.070 CG0
ATOM      9  C   UNL     1     -13.018   2.476  25.788  1.00  0.00     0.039 C 
ATOM     10  G   UNL     1     -14.212   1.956  28.033  1.00  0.00     0.000 G0
ENDBRANCH   6   7
ENDBRANCH   5   6
ENDBRANCH   3   5
ENDBRANCH   1   3
BRANCH   1  11
ATOM     11  C   UNL     1     -11.510   3.035  29.880  1.00  0.00     0.087 C 
BRANCH  11  12
ATOM     12  C   UNL     1     -12.599   1.947  30.121  1.00  0.00     0.066 C 
BRANCH  12  13
ATOM     13  C   UNL     1     -13.096   1.333  28.814  1.00  0.00     0.140 C 
ATOM     14  O   UNL     1     -12.509   0.364  28.353  1.00  0.00    -0.299 OA
BRANCH  13  15
ATOM     15  C   UNL     1     -14.223   1.946  28.015  1.00  0.00     0.106 CG0
ATOM     16  G   UNL     1     -13.814   2.983  26.972  1.00  0.00     0.000 G0
ENDBRANCH  13  15
ENDBRANCH  12  13
BRANCH  12  17
ATOM     17  C   UNL     1     -12.211   0.843  31.159  1.00  0.00    -0.006 C 
ATOM     18  C   UNL     1     -11.894   1.431  32.546  1.00  0.00     0.008 C 
ATOM     19  C   UNL     1     -13.340  -0.196  31.311  1.00  0.00     0.008 C 
ENDBRANCH  12  17
ENDBRANCH  11  12
ENDBRANCH   1  11
TORSDOF 1
ENDMDL
MODEL 8
REMARK VINA RESULT:    -3.176     10.441     11.956
REMARK INTER + INTRA:          -5.195
REMARK INTER:                  -5.006
REMARK INTRA:                  -0.189
REMARK UNBOUND:                -0.348
REMARK SMILES CC1=CCC[C@@H](C)C(=O)C[C@H](C(C)C)C(=O)C1
REMARK SMILES IDX 8 1 9 2 6 3 7 4 5 5 4 6 3 7 2 8 1 9 10 11 11 12 15 13 16 14
REMARK SMILES IDX 17 15 12 17 13 18 14 19
REMARK H PARENT
REMARK Flexibility Score: 70.00
ROOT
ATOM      1  C   UNL     1     -11.972   7.543  33.458  1.00  0.00     0.136 C 
ATOM      2  O   UNL     1     -12.730   7.481  34.415  1.00  0.00    -0.299 OA
ENDROOT
BRANCH   1   3
ATOM      3  C   UNL     1     -10.500   7.841  33.741  1.00  0.00     0.053 C 
ATOM      4  C   UNL     1     -10.382   9.264  34.312  1.00  0.00     0.016 C 
BRANCH   3   5
ATOM      5  C   UNL     1      -9.514   7.699  32.553  1.00  0.00     0.015 C 
BRANCH   5   6
ATOM      6  C   UNL     1      -8.745   8.961  32.117  1.00  0.00     0.028 C 
BRANCH   6   7
ATOM      7  C   UNL     1      -8.744   9.226  30.631  1.00  0.00    -0.028 C 
ATOM      8  C   UNL     1      -9.724   9.819  29.898  1.00  0.00    -0.070 CG0
ATOM      9  C   UNL     1      -9.420  10.064  28.439  1.00  0.00     0.039 C 
ATOM     10  G   UNL     1     -11.134  10.141  30.386  1.00  0.00     0.000 G0
ENDBRANCH   6   7
ENDBRANCH   5   6
ENDBRANCH   3   5
ENDBRANCH   1   3
BRANCH   1  11
ATOM     11  C   UNL     1     -12.566   7.319  32.083  1.00  0.00     0.087 C 
BRANCH  11  12
ATOM     12  C   UNL     1     -13.068   8.618  31.382  1.00  0.00     0.066 C 
BRANCH  12  13
ATOM     13  C   UNL     1     -12.157   9.036  30.231  1.00  0.00     0.140 C 
ATOM     14  O   UNL     1     -12.187   8.398  29.188  1.00  0.00    -0.299 OA
BRANCH  13  15
ATOM     15  C   UNL     1     -11.142  10.147  30.372  1.00  0.00     0.106 CG0
ATOM     16  G   UNL     1      -9.731   9.827  29.885  1.00  0.00     0.000 G0
ENDBRANCH  13  15
ENDBRANCH  12  13
BRANCH  12  17
ATOM     17  C   UNL     1     -14.569   8.592  30.943  1.00  0.00    -0.006 C 
ATOM     18  C   UNL     1     -15.495   8.067  32.055  1.00  0.00     0.008 C 
ATOM     19  C   UNL     1     -15.048   9.997  30.526  1.00  0.00     0.008 C 
ENDBRANCH  12  17
ENDBRANCH  11  12
ENDBRANCH   1  11
TORSDOF 1
ENDMDL
MODEL 9
REMARK VINA RESULT:    -3.089     16.777     18.147
REMARK INTER + INTRA:          -5.063
REMARK INTER:                  -4.751
REMARK INTRA:                  -0.312
REMARK UNBOUND:                -0.348
REMARK SMILES CC1=CCC[C@@H](C)C(=O)C[C@H](C(C)C)C(=O)C1
REMARK SMILES IDX 8 1 9 2 6 3 7 4 5 5 4 6 3 7 2 8 1 9 10 11 11 12 15 13 16 14
REMARK SMILES IDX 17 15 12 17 13 18 14 19
REMARK H PARENT
REMARK Flexibility Score: 70.00
ROOT
ATOM      1  C   UNL     1     -15.651   7.629  22.988  1.00  0.00     0.136 C 
ATOM      2  O   UNL     1     -14.951   8.612  23.183  1.00  0.00    -0.299 OA
ENDROOT
BRANCH   1   3
ATOM      3  C   UNL     1     -14.971   6.375  22.441  1.00  0.00     0.053 C 
ATOM      4  C   UNL     1     -13.787   6.014  23.354  1.00  0.00     0.016 C 
BRANCH   3   5
ATOM      5  C   UNL     1     -14.471   6.429  20.975  1.00  0.00     0.015 C 
BRANCH   5   6
ATOM      6  C   UNL     1     -15.203   5.549  19.945  1.00  0.00     0.028 C 
BRANCH   6   7
ATOM      7  C   UNL     1     -16.194   6.278  19.071  1.00  0.00    -0.028 C 
ATOM      8  C   UNL     1     -17.462   6.650  19.392  1.00  0.00    -0.070 CG0
ATOM      9  C   UNL     1     -18.205   7.472  18.365  1.00  0.00     0.039 C 
ATOM     10  G   UNL     1     -18.234   6.208  20.632  1.00  0.00     0.000 G0
ENDBRANCH   6   7
ENDBRANCH   5   6
ENDBRANCH   3   5
ENDBRANCH   1   3
BRANCH   1  11
ATOM     11  C   UNL     1     -17.127   7.751  23.306  1.00  0.00     0.087 C 
BRANCH  11  12
ATOM     12  C   UNL     1     -17.982   8.368  22.159  1.00  0.00     0.066 C 
BRANCH  12  13
ATOM     13  C   UNL     1     -18.844   7.320  21.459  1.00  0.00     0.140 C 
ATOM     14  O   UNL     1     -20.053   7.327  21.644  1.00  0.00    -0.299 OA
BRANCH  13  15
ATOM     15  C   UNL     1     -18.243   6.210  20.628  1.00  0.00     0.106 CG0
ATOM     16  G   UNL     1     -17.470   6.649  19.388  1.00  0.00     0.000 G0
ENDBRANCH  13  15
ENDBRANCH  12  13
BRANCH  12  17
ATOM     17  C   UNL     1     -18.824   9.622  22.565  1.00  0.00    -0.006 C 
ATOM     18  C   UNL     1     -18.209  10.378  23.757  1.00  0.00     0.008 C 
ATOM     19  C   UNL     1     -18.966  10.600  21.382  1.00  0.00     0.008 C 
ENDBRANCH  12  17
ENDBRANCH  11  12
ENDBRANCH   1  11
TORSDOF 1
ENDMDL
