MODEL 1
REMARK VINA RESULT:    -4.600      0.000      0.000
REMARK INTER + INTRA:          -5.409
REMARK INTER:                  -5.273
REMARK INTRA:                  -0.136
REMARK UNBOUND:                -0.136
REMARK SMILES O=C([O-])C=Cc1ccc(O)cc1
REMARK SMILES IDX 6 1 7 2 12 3 8 4 11 5 9 6 5 7 4 8 2 9 1 10 3 11 10 12
REMARK H PARENT 10 13
REMARK Flexibility Score: inf
ROOT
ATOM      1  C   UNL     1     -31.310 -20.800 -33.115  1.00  0.00    -0.025 A 
ATOM      2  C   UNL     1     -30.811 -21.488 -31.995  1.00  0.00     0.012 A 
ATOM      3  C   UNL     1     -31.848 -19.509 -32.935  1.00  0.00     0.012 A 
ATOM      4  C   UNL     1     -30.825 -20.893 -30.730  1.00  0.00     0.047 A 
ATOM      5  C   UNL     1     -31.861 -18.918 -31.668  1.00  0.00     0.047 A 
ATOM      6  C   UNL     1     -31.348 -19.604 -30.564  1.00  0.00     0.115 A 
ENDROOT
BRANCH   1   7
ATOM      7  C   UNL     1     -31.283 -21.479 -34.435  1.00  0.00     0.010 C 
ATOM      8  C   UNL     1     -32.314 -22.169 -34.939  1.00  0.00     0.025 C 
BRANCH   8   9
ATOM      9  C   UNL     1     -32.254 -22.821 -36.259  1.00  0.00     0.064 C 
ATOM     10  O   UNL     1     -32.928 -23.857 -36.506  1.00  0.00    -0.545 OA
ATOM     11  O   UNL     1     -31.442 -22.284 -37.248  1.00  0.00    -0.545 OA
ENDBRANCH   8   9
ENDBRANCH   1   7
BRANCH   6  12
ATOM     12  O   UNL     1     -31.367 -19.000 -29.310  1.00  0.00    -0.508 OA
ATOM     13  H   UNL     1     -31.683 -18.046 -29.186  1.00  0.00     0.293 HD
ENDBRANCH   6  12
TORSDOF 3
ENDMDL
MODEL 2
REMARK VINA RESULT:    -4.425      1.962      5.971
REMARK INTER + INTRA:          -5.207
REMARK INTER:                  -5.068
REMARK INTRA:                  -0.139
REMARK UNBOUND:                -0.136
REMARK SMILES O=C([O-])C=Cc1ccc(O)cc1
REMARK SMILES IDX 6 1 7 2 12 3 8 4 11 5 9 6 5 7 4 8 2 9 1 10 3 11 10 12
REMARK H PARENT 10 13
REMARK Flexibility Score: inf
ROOT
ATOM      1  C   UNL     1     -32.196 -21.870 -35.323  1.00  0.00    -0.025 A 
ATOM      2  C   UNL     1     -33.502 -21.374 -35.484  1.00  0.00     0.012 A 
ATOM      3  C   UNL     1     -31.531 -22.407 -36.444  1.00  0.00     0.012 A 
ATOM      4  C   UNL     1     -34.120 -21.390 -36.738  1.00  0.00     0.047 A 
ATOM      5  C   UNL     1     -32.153 -22.421 -37.697  1.00  0.00     0.047 A 
ATOM      6  C   UNL     1     -33.445 -21.911 -37.848  1.00  0.00     0.115 A 
ENDROOT
BRANCH   1   7
ATOM      7  C   UNL     1     -31.587 -21.841 -33.970  1.00  0.00     0.010 C 
ATOM      8  C   UNL     1     -31.270 -20.713 -33.320  1.00  0.00     0.025 C 
BRANCH   8   9
ATOM      9  C   UNL     1     -30.676 -20.723 -31.972  1.00  0.00     0.064 C 
ATOM     10  O   UNL     1     -30.871 -21.684 -31.180  1.00  0.00    -0.545 OA
ATOM     11  O   UNL     1     -29.886 -19.655 -31.567  1.00  0.00    -0.545 OA
ENDBRANCH   8   9
ENDBRANCH   1   7
BRANCH   6  12
ATOM     12  O   UNL     1     -34.050 -21.932 -39.102  1.00  0.00    -0.508 OA
ATOM     13  H   UNL     1     -34.602 -22.724 -39.411  1.00  0.00     0.293 HD
ENDBRANCH   6  12
TORSDOF 3
ENDMDL
MODEL 3
REMARK VINA RESULT:    -4.323      1.904      5.939
REMARK INTER + INTRA:          -5.090
REMARK INTER:                  -4.954
REMARK INTRA:                  -0.137
REMARK UNBOUND:                -0.136
REMARK SMILES O=C([O-])C=Cc1ccc(O)cc1
REMARK SMILES IDX 6 1 7 2 12 3 8 4 11 5 9 6 5 7 4 8 2 9 1 10 3 11 10 12
REMARK H PARENT 10 13
REMARK Flexibility Score: inf
ROOT
ATOM      1  C   UNL     1     -32.239 -21.880 -35.182  1.00  0.00    -0.025 A 
ATOM      2  C   UNL     1     -31.501 -22.594 -36.143  1.00  0.00     0.012 A 
ATOM      3  C   UNL     1     -33.452 -21.274 -35.571  1.00  0.00     0.012 A 
ATOM      4  C   UNL     1     -31.974 -22.723 -37.452  1.00  0.00     0.047 A 
ATOM      5  C   UNL     1     -33.921 -21.405 -36.881  1.00  0.00     0.047 A 
ATOM      6  C   UNL     1     -33.187 -22.131 -37.824  1.00  0.00     0.115 A 
ENDROOT
BRANCH   1   7
ATOM      7  C   UNL     1     -31.690 -21.762 -33.808  1.00  0.00     0.010 C 
ATOM      8  C   UNL     1     -30.936 -20.735 -33.393  1.00  0.00     0.025 C 
BRANCH   8   9
ATOM      9  C   UNL     1     -30.418 -20.647 -32.017  1.00  0.00     0.064 C 
ATOM     10  O   UNL     1     -29.676 -19.693 -31.659  1.00  0.00    -0.545 OA
ATOM     11  O   UNL     1     -30.753 -21.631 -31.098  1.00  0.00    -0.545 OA
ENDBRANCH   8   9
ENDBRANCH   1   7
BRANCH   6  12
ATOM     12  O   UNL     1     -33.669 -22.253 -39.125  1.00  0.00    -0.508 OA
ATOM     13  H   UNL     1     -34.168 -21.497 -39.577  1.00  0.00     0.293 HD
ENDBRANCH   6  12
TORSDOF 3
ENDMDL
MODEL 4
REMARK VINA RESULT:    -3.831      1.466      1.976
REMARK INTER + INTRA:          -4.527
REMARK INTER:                  -4.386
REMARK INTRA:                  -0.140
REMARK UNBOUND:                -0.136
REMARK SMILES O=C([O-])C=Cc1ccc(O)cc1
REMARK SMILES IDX 6 1 7 2 12 3 8 4 11 5 9 6 5 7 4 8 2 9 1 10 3 11 10 12
REMARK H PARENT 10 13
REMARK Flexibility Score: inf
ROOT
ATOM      1  C   UNL     1     -31.309 -20.979 -33.811  1.00  0.00    -0.025 A 
ATOM      2  C   UNL     1     -31.994 -20.089 -32.965  1.00  0.00     0.012 A 
ATOM      3  C   UNL     1     -29.917 -21.136 -33.647  1.00  0.00     0.012 A 
ATOM      4  C   UNL     1     -31.312 -19.391 -31.964  1.00  0.00     0.047 A 
ATOM      5  C   UNL     1     -29.239 -20.435 -32.645  1.00  0.00     0.047 A 
ATOM      6  C   UNL     1     -29.932 -19.564 -31.800  1.00  0.00     0.115 A 
ENDROOT
BRANCH   1   7
ATOM      7  C   UNL     1     -32.075 -21.690 -34.865  1.00  0.00     0.010 C 
ATOM      8  C   UNL     1     -31.551 -22.071 -36.038  1.00  0.00     0.025 C 
BRANCH   8   9
ATOM      9  C   UNL     1     -32.340 -22.784 -37.056  1.00  0.00     0.064 C 
ATOM     10  O   UNL     1     -33.353 -22.254 -37.586  1.00  0.00    -0.545 OA
ATOM     11  O   UNL     1     -31.962 -24.063 -37.440  1.00  0.00    -0.545 OA
ENDBRANCH   8   9
ENDBRANCH   1   7
BRANCH   6  12
ATOM     12  O   UNL     1     -29.242 -18.875 -30.806  1.00  0.00    -0.508 OA
ATOM     13  H   UNL     1     -29.691 -18.155 -30.253  1.00  0.00     0.293 HD
ENDBRANCH   6  12
TORSDOF 3
ENDMDL
MODEL 5
REMARK VINA RESULT:    -3.607      1.393      1.612
REMARK INTER + INTRA:          -4.270
REMARK INTER:                  -4.120
REMARK INTRA:                  -0.151
REMARK UNBOUND:                -0.136
REMARK SMILES O=C([O-])C=Cc1ccc(O)cc1
REMARK SMILES IDX 6 1 7 2 12 3 8 4 11 5 9 6 5 7 4 8 2 9 1 10 3 11 10 12
REMARK H PARENT 10 13
REMARK Flexibility Score: inf
ROOT
ATOM      1  C   UNL     1     -31.261 -21.150 -32.534  1.00  0.00    -0.025 A 
ATOM      2  C   UNL     1     -31.197 -22.423 -31.941  1.00  0.00     0.012 A 
ATOM      3  C   UNL     1     -31.012 -20.015 -31.734  1.00  0.00     0.012 A 
ATOM      4  C   UNL     1     -30.868 -22.563 -30.590  1.00  0.00     0.047 A 
ATOM      5  C   UNL     1     -30.684 -20.161 -30.382  1.00  0.00     0.047 A 
ATOM      6  C   UNL     1     -30.608 -21.432 -29.807  1.00  0.00     0.115 A 
ENDROOT
BRANCH   1   7
ATOM      7  C   UNL     1     -31.624 -21.052 -33.970  1.00  0.00     0.010 C 
ATOM      8  C   UNL     1     -32.109 -22.074 -34.687  1.00  0.00     0.025 C 
BRANCH   8   9
ATOM      9  C   UNL     1     -32.469 -21.937 -36.108  1.00  0.00     0.064 C 
ATOM     10  O   UNL     1     -33.640 -21.629 -36.458  1.00  0.00    -0.545 OA
ATOM     11  O   UNL     1     -31.501 -22.148 -37.080  1.00  0.00    -0.545 OA
ENDBRANCH   8   9
ENDBRANCH   1   7
BRANCH   6  12
ATOM     12  O   UNL     1     -30.279 -21.559 -28.460  1.00  0.00    -0.508 OA
ATOM     13  H   UNL     1     -29.768 -22.363 -28.114  1.00  0.00     0.293 HD
ENDBRANCH   6  12
TORSDOF 3
ENDMDL
MODEL 6
REMARK VINA RESULT:    -2.717      4.987      6.807
REMARK INTER + INTRA:          -3.250
REMARK INTER:                  -3.115
REMARK INTRA:                  -0.136
REMARK UNBOUND:                -0.136
REMARK SMILES O=C([O-])C=Cc1ccc(O)cc1
REMARK SMILES IDX 6 1 7 2 12 3 8 4 11 5 9 6 5 7 4 8 2 9 1 10 3 11 10 12
REMARK H PARENT 10 13
REMARK Flexibility Score: inf
ROOT
ATOM      1  C   UNL     1     -32.472 -24.535 -38.119  1.00  0.00    -0.025 A 
ATOM      2  C   UNL     1     -32.243 -23.545 -39.091  1.00  0.00     0.012 A 
ATOM      3  C   UNL     1     -32.857 -24.137 -36.822  1.00  0.00     0.012 A 
ATOM      4  C   UNL     1     -32.420 -22.192 -38.784  1.00  0.00     0.047 A 
ATOM      5  C   UNL     1     -33.032 -22.783 -36.520  1.00  0.00     0.047 A 
ATOM      6  C   UNL     1     -32.818 -21.808 -37.498  1.00  0.00     0.115 A 
ENDROOT
BRANCH   1   7
ATOM      7  C   UNL     1     -32.261 -25.956 -38.489  1.00  0.00     0.010 C 
ATOM      8  C   UNL     1     -33.247 -26.860 -38.568  1.00  0.00     0.025 C 
BRANCH   8   9
ATOM      9  C   UNL     1     -33.001 -28.261 -38.950  1.00  0.00     0.064 C 
ATOM     10  O   UNL     1     -33.954 -29.067 -39.122  1.00  0.00    -0.545 OA
ATOM     11  O   UNL     1     -31.696 -28.701 -39.125  1.00  0.00    -0.545 OA
ENDBRANCH   8   9
ENDBRANCH   1   7
BRANCH   6  12
ATOM     12  O   UNL     1     -32.998 -20.464 -37.181  1.00  0.00    -0.508 OA
ATOM     13  H   UNL     1     -33.878 -20.120 -36.814  1.00  0.00     0.293 HD
ENDBRANCH   6  12
TORSDOF 3
ENDMDL
MODEL 7
REMARK VINA RESULT:    -2.683      1.609      1.692
REMARK INTER + INTRA:          -3.210
REMARK INTER:                  -3.058
REMARK INTRA:                  -0.153
REMARK UNBOUND:                -0.136
REMARK SMILES O=C([O-])C=Cc1ccc(O)cc1
REMARK SMILES IDX 6 1 7 2 12 3 8 4 11 5 9 6 5 7 4 8 2 9 1 10 3 11 10 12
REMARK H PARENT 10 13
REMARK Flexibility Score: inf
ROOT
ATOM      1  C   UNL     1     -30.123 -20.511 -33.054  1.00  0.00    -0.025 A 
ATOM      2  C   UNL     1     -30.831 -20.804 -31.874  1.00  0.00     0.012 A 
ATOM      3  C   UNL     1     -29.014 -19.643 -32.983  1.00  0.00     0.012 A 
ATOM      4  C   UNL     1     -30.425 -20.265 -30.650  1.00  0.00     0.047 A 
ATOM      5  C   UNL     1     -28.613 -19.107 -31.756  1.00  0.00     0.047 A 
ATOM      6  C   UNL     1     -29.313 -19.417 -30.587  1.00  0.00     0.115 A 
ENDROOT
BRANCH   1   7
ATOM      7  C   UNL     1     -30.599 -21.099 -34.331  1.00  0.00     0.010 C 
ATOM      8  C   UNL     1     -31.695 -21.862 -34.438  1.00  0.00     0.025 C 
BRANCH   8   9
ATOM      9  C   UNL     1     -32.142 -22.420 -35.725  1.00  0.00     0.064 C 
ATOM     10  O   UNL     1     -32.971 -23.368 -35.773  1.00  0.00    -0.545 OA
ATOM     11  O   UNL     1     -31.642 -21.891 -36.908  1.00  0.00    -0.545 OA
ENDBRANCH   8   9
ENDBRANCH   1   7
BRANCH   6  12
ATOM     12  O   UNL     1     -28.899 -18.875 -29.373  1.00  0.00    -0.508 OA
ATOM     13  H   UNL     1     -28.622 -17.904 -29.294  1.00  0.00     0.293 HD
ENDBRANCH   6  12
TORSDOF 3
ENDMDL
MODEL 8
REMARK VINA RESULT:    -2.382      1.797      2.692
REMARK INTER + INTRA:          -2.866
REMARK INTER:                  -2.715
REMARK INTRA:                  -0.151
REMARK UNBOUND:                -0.136
REMARK SMILES O=C([O-])C=Cc1ccc(O)cc1
REMARK SMILES IDX 6 1 7 2 12 3 8 4 11 5 9 6 5 7 4 8 2 9 1 10 3 11 10 12
REMARK H PARENT 10 13
REMARK Flexibility Score: inf
ROOT
ATOM      1  C   UNL     1     -32.372 -21.538 -35.338  1.00  0.00    -0.025 A 
ATOM      2  C   UNL     1     -31.314 -21.780 -34.444  1.00  0.00     0.012 A 
ATOM      3  C   UNL     1     -33.248 -20.463 -35.079  1.00  0.00     0.012 A 
ATOM      4  C   UNL     1     -31.117 -20.953 -33.334  1.00  0.00     0.047 A 
ATOM      5  C   UNL     1     -33.047 -19.640 -33.966  1.00  0.00     0.047 A 
ATOM      6  C   UNL     1     -31.982 -19.879 -33.094  1.00  0.00     0.115 A 
ENDROOT
BRANCH   1   7
ATOM      7  C   UNL     1     -32.546 -22.450 -36.496  1.00  0.00     0.010 C 
ATOM      8  C   UNL     1     -31.697 -23.442 -36.797  1.00  0.00     0.025 C 
BRANCH   8   9
ATOM      9  C   UNL     1     -31.908 -24.334 -37.950  1.00  0.00     0.064 C 
ATOM     10  O   UNL     1     -31.662 -23.951 -39.125  1.00  0.00    -0.545 OA
ATOM     11  O   UNL     1     -32.386 -25.620 -37.738  1.00  0.00    -0.545 OA
ENDBRANCH   8   9
ENDBRANCH   1   7
BRANCH   6  12
ATOM     12  O   UNL     1     -31.796 -19.049 -31.992  1.00  0.00    -0.508 OA
ATOM     13  H   UNL     1     -32.582 -18.673 -31.473  1.00  0.00     0.293 HD
ENDBRANCH   6  12
TORSDOF 3
ENDMDL
