MODEL 1
REMARK VINA RESULT:    -7.346      0.000      0.000
REMARK INTER + INTRA:          -7.775
REMARK INTER:                  -7.775
REMARK INTRA:                   0.000
REMARK UNBOUND:                 0.000
REMARK SMILES CC1(C)[C@H](O)CC[C@]2(C)[C@@H]1CC[C@@]1(C)[C@@H]2C=CC2=C(O)C(=O)C(=O)[C@]21C
REMARK SMILES IDX 1 1 2 2 10 3 11 4 12 5 13 6 15 7 8 8 7 9 6 10 4 11 9 12
REMARK SMILES IDX 16 13 17 14 18 15 19 16 21 17 22 18 23 19 24 20 25 21 26 22
REMARK SMILES IDX 14 23 3 24 5 25 20 27
REMARK H PARENT 5 26 20 28
REMARK Flexibility Score: inf
ROOT
ATOM      1  C   UNL     1      21.813  35.158  12.077  1.00  0.00     0.014 C 
ATOM      2  C   UNL     1      21.722  33.625  11.854  1.00  0.00    -0.006 C 
ATOM      3  C   UNL     1      22.778  33.080  10.798  1.00  0.00     0.004 C 
ATOM      4  C   UNL     1      22.663  33.729   9.397  1.00  0.00     0.005 C 
ATOM      5  C   UNL     1      23.468  32.956   8.351  1.00  0.00     0.009 C 
ATOM      6  C   UNL     1      24.984  32.784   8.687  1.00  0.00    -0.009 C 
ATOM      7  C   UNL     1      25.155  32.235  10.188  1.00  0.00     0.025 C 
ATOM      8  C   UNL     1      24.274  33.015  11.285  1.00  0.00    -0.022 C 
ATOM      9  C   UNL     1      24.292  32.271  12.666  1.00  0.00     0.010 C 
ATOM     10  C   UNL     1      23.341  32.866  13.713  1.00  0.00     0.033 C 
ATOM     11  C   UNL     1      21.895  32.863  13.209  1.00  0.00     0.120 C 
ATOM     12  C   UNL     1      24.913  34.430  11.521  1.00  0.00     0.012 C 
ATOM     13  C   UNL     1      25.021  30.702  10.288  1.00  0.00    -0.022 C 
ATOM     14  C   UNL     1      24.927  29.874   9.248  1.00  0.00     0.005 C 
ATOM     15  C   UNL     1      25.026  30.398   7.895  1.00  0.00     0.012 C 
ATOM     16  C   UNL     1      24.482  29.853   6.803  1.00  0.00     0.171 C 
ATOM     17  C   UNL     1      24.601  30.774   5.701  1.00  0.00     0.264 C 
ATOM     18  O   UNL     1      24.191  30.586   4.526  1.00  0.00    -0.282 OA
ATOM     19  C   UNL     1      25.257  31.963   6.201  1.00  0.00     0.217 C 
ATOM     20  O   UNL     1      25.540  32.968   5.496  1.00  0.00    -0.289 OA
ATOM     21  C   UNL     1      25.628  31.760   7.655  1.00  0.00     0.069 C 
ATOM     22  C   UNL     1      27.167  31.647   7.762  1.00  0.00     0.026 C 
ATOM     23  C   UNL     1      25.698  34.157   8.506  1.00  0.00     0.013 C 
ATOM     24  C   UNL     1      20.282  33.327  11.348  1.00  0.00     0.014 C 
ENDROOT
BRANCH  11  25
ATOM     25  O   UNL     1      21.076  33.421  14.210  1.00  0.00    -0.393 OA
ATOM     26  H   UNL     1      20.349  32.772  14.400  1.00  0.00     0.210 HD
ENDBRANCH  11  25
BRANCH  16  27
ATOM     27  O   UNL     1      23.836  28.619   6.732  1.00  0.00    -0.504 OA
ATOM     28  H   UNL     1      23.895  27.937   7.477  1.00  0.00     0.293 HD
ENDBRANCH  16  27
TORSDOF 2
ENDMDL
MODEL 2
REMARK VINA RESULT:    -6.932      1.667      6.594
REMARK INTER + INTRA:          -7.338
REMARK INTER:                  -7.338
REMARK INTRA:                   0.000
REMARK UNBOUND:                 0.000
REMARK SMILES CC1(C)[C@H](O)CC[C@]2(C)[C@@H]1CC[C@@]1(C)[C@@H]2C=CC2=C(O)C(=O)C(=O)[C@]21C
REMARK SMILES IDX 1 1 2 2 10 3 11 4 12 5 13 6 15 7 8 8 7 9 6 10 4 11 9 12
REMARK SMILES IDX 16 13 17 14 18 15 19 16 21 17 22 18 23 19 24 20 25 21 26 22
REMARK SMILES IDX 14 23 3 24 5 25 20 27
REMARK H PARENT 5 26 20 28
REMARK Flexibility Score: inf
ROOT
ATOM      1  C   UNL     1      26.341  30.617   7.721  1.00  0.00     0.014 C 
ATOM      2  C   UNL     1      25.103  31.406   7.219  1.00  0.00    -0.006 C 
ATOM      3  C   UNL     1      24.506  32.398   8.309  1.00  0.00     0.004 C 
ATOM      4  C   UNL     1      24.075  31.705   9.625  1.00  0.00     0.005 C 
ATOM      5  C   UNL     1      23.227  32.632  10.497  1.00  0.00     0.009 C 
ATOM      6  C   UNL     1      23.905  33.993  10.860  1.00  0.00    -0.009 C 
ATOM      7  C   UNL     1      24.488  34.686   9.532  1.00  0.00     0.025 C 
ATOM      8  C   UNL     1      25.342  33.703   8.588  1.00  0.00    -0.022 C 
ATOM      9  C   UNL     1      25.656  34.371   7.204  1.00  0.00     0.010 C 
ATOM     10  C   UNL     1      26.323  33.432   6.190  1.00  0.00     0.033 C 
ATOM     11  C   UNL     1      25.450  32.204   5.920  1.00  0.00     0.120 C 
ATOM     12  C   UNL     1      26.721  33.421   9.283  1.00  0.00     0.012 C 
ATOM     13  C   UNL     1      23.425  35.492   8.758  1.00  0.00    -0.022 C 
ATOM     14  C   UNL     1      22.188  35.738   9.188  1.00  0.00     0.005 C 
ATOM     15  C   UNL     1      21.783  35.296  10.513  1.00  0.00     0.012 C 
ATOM     16  C   UNL     1      20.535  35.010  10.894  1.00  0.00     0.171 C 
ATOM     17  C   UNL     1      20.565  34.391  12.196  1.00  0.00     0.264 C 
ATOM     18  O   UNL     1      19.568  33.989  12.852  1.00  0.00    -0.282 OA
ATOM     19  C   UNL     1      21.951  34.297  12.598  1.00  0.00     0.217 C 
ATOM     20  O   UNL     1      22.342  33.823  13.698  1.00  0.00    -0.289 OA
ATOM     21  C   UNL     1      22.826  34.941  11.543  1.00  0.00     0.069 C 
ATOM     22  C   UNL     1      23.418  36.248  12.121  1.00  0.00     0.026 C 
ATOM     23  C   UNL     1      25.035  33.729  11.899  1.00  0.00     0.013 C 
ATOM     24  C   UNL     1      24.025  30.355   6.830  1.00  0.00     0.014 C 
ENDROOT
BRANCH  11  25
ATOM     25  O   UNL     1      26.116  31.383   4.987  1.00  0.00    -0.393 OA
ATOM     26  H   UNL     1      25.975  31.776   4.087  1.00  0.00     0.210 HD
ENDBRANCH  11  25
BRANCH  16  27
ATOM     27  O   UNL     1      19.377  35.206  10.142  1.00  0.00    -0.504 OA
ATOM     28  H   UNL     1      19.071  34.541   9.443  1.00  0.00     0.293 HD
ENDBRANCH  16  27
TORSDOF 2
ENDMDL
MODEL 3
REMARK VINA RESULT:    -6.869      1.949      6.702
REMARK INTER + INTRA:          -7.271
REMARK INTER:                  -7.271
REMARK INTRA:                   0.000
REMARK UNBOUND:                 0.000
REMARK SMILES CC1(C)[C@H](O)CC[C@]2(C)[C@@H]1CC[C@@]1(C)[C@@H]2C=CC2=C(O)C(=O)C(=O)[C@]21C
REMARK SMILES IDX 1 1 2 2 10 3 11 4 12 5 13 6 15 7 8 8 7 9 6 10 4 11 9 12
REMARK SMILES IDX 16 13 17 14 18 15 19 16 21 17 22 18 23 19 24 20 25 21 26 22
REMARK SMILES IDX 14 23 3 24 5 25 20 27
REMARK H PARENT 5 26 20 28
REMARK Flexibility Score: inf
ROOT
ATOM      1  C   UNL     1      26.619  33.995   7.153  1.00  0.00     0.014 C 
ATOM      2  C   UNL     1      26.626  33.189   8.479  1.00  0.00    -0.006 C 
ATOM      3  C   UNL     1      25.332  33.433   9.369  1.00  0.00     0.004 C 
ATOM      4  C   UNL     1      25.104  34.913   9.763  1.00  0.00     0.005 C 
ATOM      5  C   UNL     1      24.052  35.047  10.864  1.00  0.00     0.009 C 
ATOM      6  C   UNL     1      22.664  34.412  10.525  1.00  0.00    -0.009 C 
ATOM      7  C   UNL     1      22.864  32.912   9.983  1.00  0.00     0.025 C 
ATOM      8  C   UNL     1      24.003  32.758   8.858  1.00  0.00    -0.022 C 
ATOM      9  C   UNL     1      24.318  31.250   8.567  1.00  0.00     0.010 C 
ATOM     10  C   UNL     1      25.510  31.026   7.626  1.00  0.00     0.033 C 
ATOM     11  C   UNL     1      26.784  31.660   8.191  1.00  0.00     0.120 C 
ATOM     12  C   UNL     1      23.466  33.380   7.519  1.00  0.00     0.012 C 
ATOM     13  C   UNL     1      22.994  31.875  11.117  1.00  0.00    -0.022 C 
ATOM     14  C   UNL     1      22.811  32.131  12.412  1.00  0.00     0.005 C 
ATOM     15  C   UNL     1      22.387  33.456  12.834  1.00  0.00     0.012 C 
ATOM     16  C   UNL     1      22.633  34.014  14.023  1.00  0.00     0.171 C 
ATOM     17  C   UNL     1      22.258  35.406  13.982  1.00  0.00     0.264 C 
ATOM     18  O   UNL     1      22.359  36.232  14.927  1.00  0.00    -0.282 OA
ATOM     19  C   UNL     1      21.766  35.682  12.650  1.00  0.00     0.217 C 
ATOM     20  O   UNL     1      21.333  36.802  12.270  1.00  0.00    -0.289 OA
ATOM     21  C   UNL     1      21.767  34.403  11.838  1.00  0.00     0.069 C 
ATOM     22  C   UNL     1      20.301  33.974  11.592  1.00  0.00     0.026 C 
ATOM     23  C   UNL     1      21.950  35.303   9.464  1.00  0.00     0.013 C 
ATOM     24  C   UNL     1      27.890  33.633   9.270  1.00  0.00     0.014 C 
ENDROOT
BRANCH  11  25
ATOM     25  O   UNL     1      27.836  31.424   7.285  1.00  0.00    -0.393 OA
ATOM     26  H   UNL     1      27.432  31.191   6.409  1.00  0.00     0.210 HD
ENDBRANCH  11  25
BRANCH  16  27
ATOM     27  O   UNL     1      23.220  33.389  15.122  1.00  0.00    -0.504 OA
ATOM     28  H   UNL     1      23.433  33.889  15.975  1.00  0.00     0.293 HD
ENDBRANCH  16  27
TORSDOF 2
ENDMDL
MODEL 4
REMARK VINA RESULT:    -6.788      1.906      3.094
REMARK INTER + INTRA:          -7.185
REMARK INTER:                  -7.185
REMARK INTRA:                   0.000
REMARK UNBOUND:                 0.000
REMARK SMILES CC1(C)[C@H](O)CC[C@]2(C)[C@@H]1CC[C@@]1(C)[C@@H]2C=CC2=C(O)C(=O)C(=O)[C@]21C
REMARK SMILES IDX 1 1 2 2 10 3 11 4 12 5 13 6 15 7 8 8 7 9 6 10 4 11 9 12
REMARK SMILES IDX 16 13 17 14 18 15 19 16 21 17 22 18 23 19 24 20 25 21 26 22
REMARK SMILES IDX 14 23 3 24 5 25 20 27
REMARK H PARENT 5 26 20 28
REMARK Flexibility Score: inf
ROOT
ATOM      1  C   UNL     1      20.683  33.925  12.490  1.00  0.00     0.014 C 
ATOM      2  C   UNL     1      22.196  33.868  12.829  1.00  0.00    -0.006 C 
ATOM      3  C   UNL     1      23.101  33.444  11.594  1.00  0.00     0.004 C 
ATOM      4  C   UNL     1      22.741  32.064  10.991  1.00  0.00     0.005 C 
ATOM      5  C   UNL     1      23.825  31.567  10.034  1.00  0.00     0.009 C 
ATOM      6  C   UNL     1      24.159  32.542   8.859  1.00  0.00    -0.009 C 
ATOM      7  C   UNL     1      24.411  34.023   9.429  1.00  0.00     0.025 C 
ATOM      8  C   UNL     1      23.297  34.532  10.472  1.00  0.00    -0.022 C 
ATOM      9  C   UNL     1      23.739  35.863  11.175  1.00  0.00     0.010 C 
ATOM     10  C   UNL     1      22.803  36.320  12.302  1.00  0.00     0.033 C 
ATOM     11  C   UNL     1      22.685  35.246  13.387  1.00  0.00     0.120 C 
ATOM     12  C   UNL     1      21.980  34.850   9.678  1.00  0.00     0.012 C 
ATOM     13  C   UNL     1      25.851  34.237   9.934  1.00  0.00    -0.022 C 
ATOM     14  C   UNL     1      26.849  33.365   9.791  1.00  0.00     0.005 C 
ATOM     15  C   UNL     1      26.633  32.136   9.046  1.00  0.00     0.012 C 
ATOM     16  C   UNL     1      27.298  30.989   9.218  1.00  0.00     0.171 C 
ATOM     17  C   UNL     1      26.650  29.945   8.465  1.00  0.00     0.264 C 
ATOM     18  O   UNL     1      27.007  28.739   8.404  1.00  0.00    -0.282 OA
ATOM     19  C   UNL     1      25.501  30.533   7.812  1.00  0.00     0.217 C 
ATOM     20  O   UNL     1      24.716  29.905   7.052  1.00  0.00    -0.289 OA
ATOM     21  C   UNL     1      25.459  32.018   8.107  1.00  0.00     0.069 C 
ATOM     22  C   UNL     1      25.784  32.790   6.807  1.00  0.00     0.026 C 
ATOM     23  C   UNL     1      22.979  32.524   7.841  1.00  0.00     0.013 C 
ATOM     24  C   UNL     1      22.364  32.831  13.976  1.00  0.00     0.014 C 
ENDROOT
BRANCH  11  25
ATOM     25  O   UNL     1      21.815  35.721  14.388  1.00  0.00    -0.393 OA
ATOM     26  H   UNL     1      21.777  36.710  14.309  1.00  0.00     0.210 HD
ENDBRANCH  11  25
BRANCH  16  27
ATOM     27  O   UNL     1      28.405  30.794  10.043  1.00  0.00    -0.504 OA
ATOM     28  H   UNL     1      28.384  30.158  10.829  1.00  0.00     0.293 HD
ENDBRANCH  16  27
TORSDOF 2
ENDMDL
MODEL 5
REMARK VINA RESULT:    -6.553      2.348      6.567
REMARK INTER + INTRA:          -6.936
REMARK INTER:                  -6.936
REMARK INTRA:                   0.000
REMARK UNBOUND:                 0.000
REMARK SMILES CC1(C)[C@H](O)CC[C@]2(C)[C@@H]1CC[C@@]1(C)[C@@H]2C=CC2=C(O)C(=O)C(=O)[C@]21C
REMARK SMILES IDX 1 1 2 2 10 3 11 4 12 5 13 6 15 7 8 8 7 9 6 10 4 11 9 12
REMARK SMILES IDX 16 13 17 14 18 15 19 16 21 17 22 18 23 19 24 20 25 21 26 22
REMARK SMILES IDX 14 23 3 24 5 25 20 27
REMARK H PARENT 5 26 20 28
REMARK Flexibility Score: inf
ROOT
ATOM      1  C   UNL     1      26.437  31.249   8.326  1.00  0.00     0.014 C 
ATOM      2  C   UNL     1      26.118  32.729   7.987  1.00  0.00    -0.006 C 
ATOM      3  C   UNL     1      25.052  33.383   8.968  1.00  0.00     0.004 C 
ATOM      4  C   UNL     1      23.692  32.645   9.005  1.00  0.00     0.005 C 
ATOM      5  C   UNL     1      22.617  33.481   9.700  1.00  0.00     0.009 C 
ATOM      6  C   UNL     1      22.971  33.926  11.156  1.00  0.00    -0.009 C 
ATOM      7  C   UNL     1      24.438  34.580  11.187  1.00  0.00     0.025 C 
ATOM      8  C   UNL     1      25.564  33.727  10.418  1.00  0.00    -0.022 C 
ATOM      9  C   UNL     1      26.896  34.542  10.269  1.00  0.00     0.010 C 
ATOM     10  C   UNL     1      27.959  33.856   9.401  1.00  0.00     0.033 C 
ATOM     11  C   UNL     1      27.427  33.586   7.991  1.00  0.00     0.120 C 
ATOM     12  C   UNL     1      25.898  32.456  11.276  1.00  0.00     0.012 C 
ATOM     13  C   UNL     1      24.441  36.072  10.797  1.00  0.00    -0.022 C 
ATOM     14  C   UNL     1      23.350  36.811  10.597  1.00  0.00     0.005 C 
ATOM     15  C   UNL     1      22.035  36.235  10.822  1.00  0.00     0.012 C 
ATOM     16  C   UNL     1      20.901  36.618  10.227  1.00  0.00     0.171 C 
ATOM     17  C   UNL     1      19.860  35.668  10.531  1.00  0.00     0.264 C 
ATOM     18  O   UNL     1      18.667  35.716  10.130  1.00  0.00    -0.282 OA
ATOM     19  C   UNL     1      20.444  34.637  11.361  1.00  0.00     0.217 C 
ATOM     20  O   UNL     1      19.809  33.656  11.829  1.00  0.00    -0.289 OA
ATOM     21  C   UNL     1      21.890  34.983  11.650  1.00  0.00     0.069 C 
ATOM     22  C   UNL     1      22.020  35.359  13.145  1.00  0.00     0.026 C 
ATOM     23  C   UNL     1      22.888  32.684  12.094  1.00  0.00     0.013 C 
ATOM     24  C   UNL     1      25.568  32.751   6.533  1.00  0.00     0.014 C 
ENDROOT
BRANCH  11  25
ATOM     25  O   UNL     1      28.444  32.956   7.246  1.00  0.00    -0.393 OA
ATOM     26  H   UNL     1      29.250  32.903   7.823  1.00  0.00     0.210 HD
ENDBRANCH  11  25
BRANCH  16  27
ATOM     27  O   UNL     1      20.741  37.718   9.387  1.00  0.00    -0.504 OA
ATOM     28  H   UNL     1      21.393  37.924   8.640  1.00  0.00     0.293 HD
ENDBRANCH  16  27
TORSDOF 2
ENDMDL
MODEL 6
REMARK VINA RESULT:    -6.539      2.121      3.531
REMARK INTER + INTRA:          -6.922
REMARK INTER:                  -6.922
REMARK INTRA:                   0.000
REMARK UNBOUND:                 0.000
REMARK SMILES CC1(C)[C@H](O)CC[C@]2(C)[C@@H]1CC[C@@]1(C)[C@@H]2C=CC2=C(O)C(=O)C(=O)[C@]21C
REMARK SMILES IDX 1 1 2 2 10 3 11 4 12 5 13 6 15 7 8 8 7 9 6 10 4 11 9 12
REMARK SMILES IDX 16 13 17 14 18 15 19 16 21 17 22 18 23 19 24 20 25 21 26 22
REMARK SMILES IDX 14 23 3 24 5 25 20 27
REMARK H PARENT 5 26 20 28
REMARK Flexibility Score: inf
ROOT
ATOM      1  C   UNL     1      22.152  35.640  10.962  1.00  0.00     0.014 C 
ATOM      2  C   UNL     1      23.594  35.165  11.287  1.00  0.00    -0.006 C 
ATOM      3  C   UNL     1      24.169  34.133  10.224  1.00  0.00     0.004 C 
ATOM      4  C   UNL     1      23.316  32.851  10.062  1.00  0.00     0.005 C 
ATOM      5  C   UNL     1      24.068  31.770   9.285  1.00  0.00     0.009 C 
ATOM      6  C   UNL     1      24.567  32.207   7.870  1.00  0.00    -0.009 C 
ATOM      7  C   UNL     1      25.347  33.608   7.972  1.00  0.00     0.025 C 
ATOM      8  C   UNL     1      24.581  34.735   8.828  1.00  0.00    -0.022 C 
ATOM      9  C   UNL     1      25.506  35.972   9.099  1.00  0.00     0.010 C 
ATOM     10  C   UNL     1      24.900  37.013  10.050  1.00  0.00     0.033 C 
ATOM     11  C   UNL     1      24.561  36.388  11.405  1.00  0.00     0.120 C 
ATOM     12  C   UNL     1      23.359  35.251   7.989  1.00  0.00     0.012 C 
ATOM     13  C   UNL     1      26.826  33.446   8.376  1.00  0.00    -0.022 C 
ATOM     14  C   UNL     1      27.465  32.282   8.487  1.00  0.00     0.005 C 
ATOM     15  C   UNL     1      26.780  31.046   8.143  1.00  0.00     0.012 C 
ATOM     16  C   UNL     1      27.053  29.836   8.642  1.00  0.00     0.171 C 
ATOM     17  C   UNL     1      26.021  28.913   8.239  1.00  0.00     0.264 C 
ATOM     18  O   UNL     1      25.959  27.691   8.536  1.00  0.00    -0.282 OA
ATOM     19  C   UNL     1      25.060  29.654   7.453  1.00  0.00     0.217 C 
ATOM     20  O   UNL     1      24.035  29.150   6.922  1.00  0.00    -0.289 OA
ATOM     21  C   UNL     1      25.535  31.084   7.294  1.00  0.00     0.069 C 
ATOM     22  C   UNL     1      25.946  31.307   5.820  1.00  0.00     0.026 C 
ATOM     23  C   UNL     1      23.340  32.314   6.915  1.00  0.00     0.013 C 
ATOM     24  C   UNL     1      23.542  34.492  12.688  1.00  0.00     0.014 C 
ENDROOT
BRANCH  11  25
ATOM     25  O   UNL     1      24.009  37.390  12.229  1.00  0.00    -0.393 OA
ATOM     26  H   UNL     1      23.758  38.154  11.647  1.00  0.00     0.210 HD
ENDBRANCH  11  25
BRANCH  16  27
ATOM     27  O   UNL     1      28.121  29.509   9.476  1.00  0.00    -0.504 OA
ATOM     28  H   UNL     1      28.873  28.904   9.175  1.00  0.00     0.293 HD
ENDBRANCH  16  27
TORSDOF 2
ENDMDL
MODEL 7
REMARK VINA RESULT:    -6.486      3.025      5.352
REMARK INTER + INTRA:          -6.865
REMARK INTER:                  -6.865
REMARK INTRA:                   0.000
REMARK UNBOUND:                 0.000
REMARK SMILES CC1(C)[C@H](O)CC[C@]2(C)[C@@H]1CC[C@@]1(C)[C@@H]2C=CC2=C(O)C(=O)C(=O)[C@]21C
REMARK SMILES IDX 1 1 2 2 10 3 11 4 12 5 13 6 15 7 8 8 7 9 6 10 4 11 9 12
REMARK SMILES IDX 16 13 17 14 18 15 19 16 21 17 22 18 23 19 24 20 25 21 26 22
REMARK SMILES IDX 14 23 3 24 5 25 20 27
REMARK H PARENT 5 26 20 28
REMARK Flexibility Score: inf
ROOT
ATOM      1  C   UNL     1      25.795  33.820   6.837  1.00  0.00     0.014 C 
ATOM      2  C   UNL     1      24.919  32.549   6.992  1.00  0.00    -0.006 C 
ATOM      3  C   UNL     1      25.447  31.555   8.114  1.00  0.00     0.004 C 
ATOM      4  C   UNL     1      26.895  31.057   7.885  1.00  0.00     0.005 C 
ATOM      5  C   UNL     1      27.235  29.876   8.796  1.00  0.00     0.009 C 
ATOM      6  C   UNL     1      27.047  30.151  10.323  1.00  0.00    -0.009 C 
ATOM      7  C   UNL     1      25.600  30.796  10.591  1.00  0.00     0.025 C 
ATOM      8  C   UNL     1      25.219  32.008   9.605  1.00  0.00    -0.022 C 
ATOM      9  C   UNL     1      23.710  32.412   9.752  1.00  0.00     0.010 C 
ATOM     10  C   UNL     1      23.234  33.449   8.726  1.00  0.00     0.033 C 
ATOM     11  C   UNL     1      23.435  32.940   7.296  1.00  0.00     0.120 C 
ATOM     12  C   UNL     1      26.070  33.264  10.009  1.00  0.00     0.012 C 
ATOM     13  C   UNL     1      24.482  29.740  10.706  1.00  0.00    -0.022 C 
ATOM     14  C   UNL     1      24.677  28.422  10.739  1.00  0.00     0.005 C 
ATOM     15  C   UNL     1      26.030  27.891  10.742  1.00  0.00     0.012 C 
ATOM     16  C   UNL     1      26.401  26.691  10.285  1.00  0.00     0.171 C 
ATOM     17  C   UNL     1      27.840  26.620  10.246  1.00  0.00     0.264 C 
ATOM     18  O   UNL     1      28.527  25.637   9.862  1.00  0.00    -0.282 OA
ATOM     19  C   UNL     1      28.348  27.894  10.706  1.00  0.00     0.217 C 
ATOM     20  O   UNL     1      29.571  28.173  10.818  1.00  0.00    -0.289 OA
ATOM     21  C   UNL     1      27.190  28.780  11.115  1.00  0.00     0.069 C 
ATOM     22  C   UNL     1      27.213  28.945  12.653  1.00  0.00     0.026 C 
ATOM     23  C   UNL     1      28.184  31.102  10.806  1.00  0.00     0.013 C 
ATOM     24  C   UNL     1      24.923  31.827   5.615  1.00  0.00     0.014 C 
ENDROOT
BRANCH  11  25
ATOM     25  O   UNL     1      22.982  33.933   6.405  1.00  0.00    -0.393 OA
ATOM     26  H   UNL     1      23.096  34.812   6.851  1.00  0.00     0.210 HD
ENDBRANCH  11  25
BRANCH  16  27
ATOM     27  O   UNL     1      25.551  25.677   9.845  1.00  0.00    -0.504 OA
ATOM     28  H   UNL     1      24.741  25.867   9.268  1.00  0.00     0.293 HD
ENDBRANCH  16  27
TORSDOF 2
ENDMDL
MODEL 8
REMARK VINA RESULT:    -6.482      1.952      3.529
REMARK INTER + INTRA:          -6.861
REMARK INTER:                  -6.861
REMARK INTRA:                   0.000
REMARK UNBOUND:                 0.000
REMARK SMILES CC1(C)[C@H](O)CC[C@]2(C)[C@@H]1CC[C@@]1(C)[C@@H]2C=CC2=C(O)C(=O)C(=O)[C@]21C
REMARK SMILES IDX 1 1 2 2 10 3 11 4 12 5 13 6 15 7 8 8 7 9 6 10 4 11 9 12
REMARK SMILES IDX 16 13 17 14 18 15 19 16 21 17 22 18 23 19 24 20 25 21 26 22
REMARK SMILES IDX 14 23 3 24 5 25 20 27
REMARK H PARENT 5 26 20 28
REMARK Flexibility Score: inf
ROOT
ATOM      1  C   UNL     1      22.714  35.461  14.259  1.00  0.00     0.014 C 
ATOM      2  C   UNL     1      22.525  35.798  12.755  1.00  0.00    -0.006 C 
ATOM      3  C   UNL     1      23.199  34.736  11.784  1.00  0.00     0.004 C 
ATOM      4  C   UNL     1      24.722  34.560  11.999  1.00  0.00     0.005 C 
ATOM      5  C   UNL     1      25.367  33.785  10.849  1.00  0.00     0.009 C 
ATOM      6  C   UNL     1      24.745  32.377  10.578  1.00  0.00    -0.009 C 
ATOM      7  C   UNL     1      23.146  32.493  10.479  1.00  0.00     0.025 C 
ATOM      8  C   UNL     1      22.467  33.346  11.662  1.00  0.00    -0.022 C 
ATOM      9  C   UNL     1      20.953  33.633  11.363  1.00  0.00     0.010 C 
ATOM     10  C   UNL     1      20.283  34.582  12.365  1.00  0.00     0.033 C 
ATOM     11  C   UNL     1      21.005  35.932  12.411  1.00  0.00     0.120 C 
ATOM     12  C   UNL     1      22.520  32.498  12.981  1.00  0.00     0.012 C 
ATOM     13  C   UNL     1      22.657  32.911   9.078  1.00  0.00    -0.022 C 
ATOM     14  C   UNL     1      23.434  33.024   8.000  1.00  0.00     0.005 C 
ATOM     15  C   UNL     1      24.841  32.667   8.082  1.00  0.00     0.012 C 
ATOM     16  C   UNL     1      25.819  33.163   7.319  1.00  0.00     0.171 C 
ATOM     17  C   UNL     1      27.094  32.746   7.848  1.00  0.00     0.264 C 
ATOM     18  O   UNL     1      28.226  33.036   7.379  1.00  0.00    -0.282 OA
ATOM     19  C   UNL     1      26.832  31.953   9.029  1.00  0.00     0.217 C 
ATOM     20  O   UNL     1      27.725  31.410   9.733  1.00  0.00    -0.289 OA
ATOM     21  C   UNL     1      25.337  31.806   9.217  1.00  0.00     0.069 C 
ATOM     22  C   UNL     1      24.945  30.337   8.931  1.00  0.00     0.026 C 
ATOM     23  C   UNL     1      25.170  31.411  11.725  1.00  0.00     0.013 C 
ATOM     24  C   UNL     1      23.166  37.195  12.521  1.00  0.00     0.014 C 
ENDROOT
BRANCH  11  25
ATOM     25  O   UNL     1      20.346  36.754  13.347  1.00  0.00    -0.393 OA
ATOM     26  H   UNL     1      19.617  37.229  12.870  1.00  0.00     0.210 HD
ENDBRANCH  11  25
BRANCH  16  27
ATOM     27  O   UNL     1      25.661  34.006   6.220  1.00  0.00    -0.504 OA
ATOM     28  H   UNL     1      25.863  34.997   6.268  1.00  0.00     0.293 HD
ENDBRANCH  16  27
TORSDOF 2
ENDMDL
MODEL 9
REMARK VINA RESULT:    -6.465      2.673      4.023
REMARK INTER + INTRA:          -6.843
REMARK INTER:                  -6.843
REMARK INTRA:                   0.000
REMARK UNBOUND:                 0.000
REMARK SMILES CC1(C)[C@H](O)CC[C@]2(C)[C@@H]1CC[C@@]1(C)[C@@H]2C=CC2=C(O)C(=O)C(=O)[C@]21C
REMARK SMILES IDX 1 1 2 2 10 3 11 4 12 5 13 6 15 7 8 8 7 9 6 10 4 11 9 12
REMARK SMILES IDX 16 13 17 14 18 15 19 16 21 17 22 18 23 19 24 20 25 21 26 22
REMARK SMILES IDX 14 23 3 24 5 25 20 27
REMARK H PARENT 5 26 20 28
REMARK Flexibility Score: inf
ROOT
ATOM      1  C   UNL     1      25.313  36.450  13.044  1.00  0.00     0.014 C 
ATOM      2  C   UNL     1      26.357  35.324  12.819  1.00  0.00    -0.006 C 
ATOM      3  C   UNL     1      26.290  34.686  11.365  1.00  0.00     0.004 C 
ATOM      4  C   UNL     1      24.913  34.078  11.004  1.00  0.00     0.005 C 
ATOM      5  C   UNL     1      24.993  33.209   9.749  1.00  0.00     0.009 C 
ATOM      6  C   UNL     1      25.553  33.935   8.483  1.00  0.00    -0.009 C 
ATOM      7  C   UNL     1      26.921  34.695   8.847  1.00  0.00     0.025 C 
ATOM      8  C   UNL     1      26.856  35.574  10.193  1.00  0.00    -0.022 C 
ATOM      9  C   UNL     1      28.281  36.071  10.620  1.00  0.00     0.010 C 
ATOM     10  C   UNL     1      28.319  36.775  11.983  1.00  0.00     0.033 C 
ATOM     11  C   UNL     1      27.803  35.854  13.092  1.00  0.00     0.120 C 
ATOM     12  C   UNL     1      25.991  36.853   9.909  1.00  0.00     0.012 C 
ATOM     13  C   UNL     1      28.156  33.773   8.790  1.00  0.00    -0.022 C 
ATOM     14  C   UNL     1      28.152  32.518   8.343  1.00  0.00     0.005 C 
ATOM     15  C   UNL     1      26.933  31.951   7.790  1.00  0.00     0.012 C 
ATOM     16  C   UNL     1      26.612  30.654   7.771  1.00  0.00     0.171 C 
ATOM     17  C   UNL     1      25.238  30.509   7.356  1.00  0.00     0.264 C 
ATOM     18  O   UNL     1      24.607  29.427   7.234  1.00  0.00    -0.282 OA
ATOM     19  C   UNL     1      24.714  31.838   7.130  1.00  0.00     0.217 C 
ATOM     20  O   UNL     1      23.542  32.082   6.736  1.00  0.00    -0.289 OA
ATOM     21  C   UNL     1      25.813  32.857   7.343  1.00  0.00     0.069 C 
ATOM     22  C   UNL     1      26.190  33.472   5.974  1.00  0.00     0.026 C 
ATOM     23  C   UNL     1      24.477  34.933   7.959  1.00  0.00     0.013 C 
ATOM     24  C   UNL     1      26.071  34.224  13.881  1.00  0.00     0.014 C 
ENDROOT
BRANCH  11  25
ATOM     25  O   UNL     1      27.860  36.556  14.313  1.00  0.00    -0.393 OA
ATOM     26  H   UNL     1      27.074  37.160  14.351  1.00  0.00     0.210 HD
ENDBRANCH  11  25
BRANCH  16  27
ATOM     27  O   UNL     1      27.434  29.595   8.152  1.00  0.00    -0.504 OA
ATOM     28  H   UNL     1      27.561  29.334   9.122  1.00  0.00     0.293 HD
ENDBRANCH  16  27
TORSDOF 2
ENDMDL
