MODEL 1
REMARK VINA RESULT:    -4.835      0.000      0.000
REMARK INTER + INTRA:          -6.694
REMARK INTER:                  -6.248
REMARK INTRA:                  -0.446
REMARK UNBOUND:                -0.446
REMARK SMILES CCO[C@@H]1O[C@H](CO)[C@@H](O)[C@H](O)[C@@H]1O
REMARK SMILES IDX 4 1 13 2 11 3 9 4 6 5 5 6 3 7 2 8 1 9 14 10 12 12 7 14 8 15
REMARK SMILES IDX 10 17
REMARK H PARENT 14 11 12 13 8 16 10 18
REMARK Flexibility Score: inf
ROOT
ATOM      1  C   UNL     1      15.832  26.562  51.928  1.00  0.00     0.281 C 
ATOM      2  C   UNL     1      16.421  25.139  51.938  1.00  0.00     0.202 C 
ATOM      3  C   UNL     1      15.380  24.007  51.829  1.00  0.00     0.179 C 
ATOM      4  C   UNL     1      14.411  24.340  50.678  1.00  0.00     0.177 C 
ATOM      5  C   UNL     1      13.827  25.768  50.843  1.00  0.00     0.178 C 
ATOM      6  O   UNL     1      14.843  26.786  50.932  1.00  0.00    -0.341 OA
ENDROOT
BRANCH   1   7
ATOM      7  O   UNL     1      15.288  26.867  53.221  1.00  0.00    -0.350 OA
BRANCH   7   8
ATOM      8  C   UNL     1      15.767  28.093  53.714  1.00  0.00     0.160 C 
ATOM      9  C   UNL     1      16.106  27.960  55.192  1.00  0.00     0.035 C 
ENDBRANCH   7   8
ENDBRANCH   1   7
BRANCH   2  10
ATOM     10  O   UNL     1      17.198  24.906  53.081  1.00  0.00    -0.385 OA
ATOM     11  H   UNL     1      16.596  24.450  53.729  1.00  0.00     0.211 HD
ENDBRANCH   2  10
BRANCH   3  12
ATOM     12  O   UNL     1      14.668  23.875  53.029  1.00  0.00    -0.387 OA
ATOM     13  H   UNL     1      15.115  23.170  53.589  1.00  0.00     0.211 HD
ENDBRANCH   3  12
BRANCH   5  14
ATOM     14  C   UNL     1      12.743  25.920  51.973  1.00  0.00     0.191 C 
BRANCH  14  15
ATOM     15  O   UNL     1      11.951  24.752  52.145  1.00  0.00    -0.394 OA
ATOM     16  H   UNL     1      11.828  24.371  51.233  1.00  0.00     0.210 HD
ENDBRANCH  14  15
ENDBRANCH   5  14
BRANCH   4  17
ATOM     17  O   UNL     1      15.081  24.242  49.446  1.00  0.00    -0.387 OA
ATOM     18  H   UNL     1      15.341  23.285  49.321  1.00  0.00     0.211 HD
ENDBRANCH   4  17
TORSDOF 7
ENDMDL
MODEL 2
REMARK VINA RESULT:    -4.537      1.448      2.067
REMARK INTER + INTRA:          -6.309
REMARK INTER:                  -5.867
REMARK INTRA:                  -0.442
REMARK UNBOUND:                -0.446
REMARK SMILES CCO[C@@H]1O[C@H](CO)[C@@H](O)[C@H](O)[C@@H]1O
REMARK SMILES IDX 4 1 13 2 11 3 9 4 6 5 5 6 3 7 2 8 1 9 14 10 12 12 7 14 8 15
REMARK SMILES IDX 10 17
REMARK H PARENT 14 11 12 13 8 16 10 18
REMARK Flexibility Score: inf
ROOT
ATOM      1  C   UNL     1      16.183  25.985  53.156  1.00  0.00     0.281 C 
ATOM      2  C   UNL     1      15.691  24.576  52.774  1.00  0.00     0.202 C 
ATOM      3  C   UNL     1      14.605  24.544  51.680  1.00  0.00     0.179 C 
ATOM      4  C   UNL     1      15.051  25.452  50.519  1.00  0.00     0.177 C 
ATOM      5  C   UNL     1      15.434  26.864  51.035  1.00  0.00     0.178 C 
ATOM      6  O   UNL     1      16.457  26.835  52.050  1.00  0.00    -0.341 OA
ENDROOT
BRANCH   1   7
ATOM      7  O   UNL     1      15.222  26.613  54.018  1.00  0.00    -0.350 OA
BRANCH   7   8
ATOM      8  C   UNL     1      15.796  27.015  55.236  1.00  0.00     0.160 C 
ATOM      9  C   UNL     1      16.012  28.523  55.233  1.00  0.00     0.035 C 
ENDBRANCH   7   8
ENDBRANCH   1   7
BRANCH   2  10
ATOM     10  O   UNL     1      15.206  23.876  53.888  1.00  0.00    -0.385 OA
ATOM     11  H   UNL     1      15.677  23.000  53.883  1.00  0.00     0.211 HD
ENDBRANCH   2  10
BRANCH   3  12
ATOM     12  O   UNL     1      13.378  24.990  52.190  1.00  0.00    -0.387 OA
ATOM     13  H   UNL     1      12.688  24.276  52.034  1.00  0.00     0.211 HD
ENDBRANCH   3  12
BRANCH   5  14
ATOM     14  C   UNL     1      14.220  27.774  51.452  1.00  0.00     0.191 C 
BRANCH  14  15
ATOM     15  O   UNL     1      14.616  28.940  52.164  1.00  0.00    -0.394 OA
ATOM     16  H   UNL     1      14.390  29.709  51.571  1.00  0.00     0.210 HD
ENDBRANCH  14  15
ENDBRANCH   5  14
BRANCH   4  17
ATOM     17  O   UNL     1      16.151  24.877  49.858  1.00  0.00    -0.387 OA
ATOM     18  H   UNL     1      16.104  25.155  48.898  1.00  0.00     0.211 HD
ENDBRANCH   4  17
TORSDOF 7
ENDMDL
MODEL 3
REMARK VINA RESULT:    -4.504      1.581      2.573
REMARK INTER + INTRA:          -6.267
REMARK INTER:                  -5.761
REMARK INTRA:                  -0.505
REMARK UNBOUND:                -0.446
REMARK SMILES CCO[C@@H]1O[C@H](CO)[C@@H](O)[C@H](O)[C@@H]1O
REMARK SMILES IDX 4 1 13 2 11 3 9 4 6 5 5 6 3 7 2 8 1 9 14 10 12 12 7 14 8 15
REMARK SMILES IDX 10 17
REMARK H PARENT 14 11 12 13 8 16 10 18
REMARK Flexibility Score: inf
ROOT
ATOM      1  C   UNL     1      16.354  25.246  51.981  1.00  0.00     0.281 C 
ATOM      2  C   UNL     1      15.156  24.304  52.208  1.00  0.00     0.202 C 
ATOM      3  C   UNL     1      13.802  24.847  51.706  1.00  0.00     0.179 C 
ATOM      4  C   UNL     1      13.989  25.386  50.276  1.00  0.00     0.177 C 
ATOM      5  C   UNL     1      15.172  26.388  50.212  1.00  0.00     0.178 C 
ATOM      6  O   UNL     1      16.412  25.826  50.685  1.00  0.00    -0.341 OA
ENDROOT
BRANCH   1   7
ATOM      7  O   UNL     1      16.344  26.285  52.972  1.00  0.00    -0.350 OA
BRANCH   7   8
ATOM      8  C   UNL     1      17.645  26.661  53.347  1.00  0.00     0.160 C 
ATOM      9  C   UNL     1      18.522  25.424  53.480  1.00  0.00     0.035 C 
ENDBRANCH   7   8
ENDBRANCH   1   7
BRANCH   2  10
ATOM     10  O   UNL     1      15.013  23.962  53.560  1.00  0.00    -0.385 OA
ATOM     11  H   UNL     1      15.385  23.043  53.646  1.00  0.00     0.211 HD
ENDBRANCH   2  10
BRANCH   3  12
ATOM     12  O   UNL     1      13.341  25.869  52.546  1.00  0.00    -0.387 OA
ATOM     13  H   UNL     1      13.720  25.724  53.466  1.00  0.00     0.211 HD
ENDBRANCH   3  12
BRANCH   5  14
ATOM     14  C   UNL     1      14.887  27.799  50.846  1.00  0.00     0.191 C 
BRANCH  14  15
ATOM     15  O   UNL     1      16.047  28.616  50.931  1.00  0.00    -0.394 OA
ATOM     16  H   UNL     1      16.821  27.988  50.934  1.00  0.00     0.210 HD
ENDBRANCH  14  15
ENDBRANCH   5  14
BRANCH   4  17
ATOM     17  O   UNL     1      14.224  24.320  49.390  1.00  0.00    -0.387 OA
ATOM     18  H   UNL     1      13.489  23.654  49.521  1.00  0.00     0.211 HD
ENDBRANCH   4  17
TORSDOF 7
ENDMDL
MODEL 4
REMARK VINA RESULT:    -4.432      1.811      3.495
REMARK INTER + INTRA:          -6.173
REMARK INTER:                  -5.726
REMARK INTRA:                  -0.447
REMARK UNBOUND:                -0.446
REMARK SMILES CCO[C@@H]1O[C@H](CO)[C@@H](O)[C@H](O)[C@@H]1O
REMARK SMILES IDX 4 1 13 2 11 3 9 4 6 5 5 6 3 7 2 8 1 9 14 10 12 12 7 14 8 15
REMARK SMILES IDX 10 17
REMARK H PARENT 14 11 12 13 8 16 10 18
REMARK Flexibility Score: inf
ROOT
ATOM      1  C   UNL     1      16.004  26.959  51.068  1.00  0.00     0.281 C 
ATOM      2  C   UNL     1      15.599  27.066  52.551  1.00  0.00     0.202 C 
ATOM      3  C   UNL     1      14.630  25.970  53.038  1.00  0.00     0.179 C 
ATOM      4  C   UNL     1      15.159  24.602  52.569  1.00  0.00     0.177 C 
ATOM      5  C   UNL     1      15.441  24.610  51.044  1.00  0.00     0.178 C 
ATOM      6  O   UNL     1      16.358  25.648  50.645  1.00  0.00    -0.341 OA
ENDROOT
BRANCH   1   7
ATOM      7  O   UNL     1      14.941  27.458  50.242  1.00  0.00    -0.350 OA
BRANCH   7   8
ATOM      8  C   UNL     1      15.392  28.447  49.352  1.00  0.00     0.160 C 
ATOM      9  C   UNL     1      15.009  28.074  47.926  1.00  0.00     0.035 C 
ENDBRANCH   7   8
ENDBRANCH   1   7
BRANCH   2  10
ATOM     10  O   UNL     1      15.030  28.313  52.844  1.00  0.00    -0.385 OA
ATOM     11  H   UNL     1      14.105  28.280  52.480  1.00  0.00     0.211 HD
ENDBRANCH   2  10
BRANCH   3  12
ATOM     12  O   UNL     1      13.344  26.186  52.524  1.00  0.00    -0.387 OA
ATOM     13  H   UNL     1      13.429  26.619  51.620  1.00  0.00     0.211 HD
ENDBRANCH   3  12
BRANCH   5  14
ATOM     14  C   UNL     1      14.162  24.574  50.129  1.00  0.00     0.191 C 
BRANCH  14  15
ATOM     15  O   UNL     1      14.461  24.720  48.746  1.00  0.00    -0.394 OA
ATOM     16  H   UNL     1      14.746  23.818  48.434  1.00  0.00     0.210 HD
ENDBRANCH  14  15
ENDBRANCH   5  14
BRANCH   4  17
ATOM     17  O   UNL     1      16.338  24.282  53.266  1.00  0.00    -0.387 OA
ATOM     18  H   UNL     1      16.705  25.133  53.641  1.00  0.00     0.211 HD
ENDBRANCH   4  17
TORSDOF 7
ENDMDL
MODEL 5
REMARK VINA RESULT:    -4.386      8.711     10.702
REMARK INTER + INTRA:          -6.114
REMARK INTER:                  -5.693
REMARK INTRA:                  -0.421
REMARK UNBOUND:                -0.446
REMARK SMILES CCO[C@@H]1O[C@H](CO)[C@@H](O)[C@H](O)[C@@H]1O
REMARK SMILES IDX 4 1 13 2 11 3 9 4 6 5 5 6 3 7 2 8 1 9 14 10 12 12 7 14 8 15
REMARK SMILES IDX 10 17
REMARK H PARENT 14 11 12 13 8 16 10 18
REMARK Flexibility Score: inf
ROOT
ATOM      1  C   UNL     1      21.811  32.068  53.296  1.00  0.00     0.281 C 
ATOM      2  C   UNL     1      21.751  30.653  52.691  1.00  0.00     0.202 C 
ATOM      3  C   UNL     1      23.074  30.157  52.073  1.00  0.00     0.179 C 
ATOM      4  C   UNL     1      24.215  30.428  53.072  1.00  0.00     0.177 C 
ATOM      5  C   UNL     1      24.209  31.910  53.531  1.00  0.00     0.178 C 
ATOM      6  O   UNL     1      22.952  32.317  54.106  1.00  0.00    -0.341 OA
ENDROOT
BRANCH   1   7
ATOM      7  O   UNL     1      21.747  33.044  52.245  1.00  0.00    -0.350 OA
BRANCH   7   8
ATOM      8  C   UNL     1      20.730  33.988  52.470  1.00  0.00     0.160 C 
ATOM      9  C   UNL     1      21.128  35.329  51.870  1.00  0.00     0.035 C 
ENDBRANCH   7   8
ENDBRANCH   1   7
BRANCH   2  10
ATOM     10  O   UNL     1      20.749  30.547  51.716  1.00  0.00    -0.385 OA
ATOM     11  H   UNL     1      20.605  31.470  51.375  1.00  0.00     0.211 HD
ENDBRANCH   2  10
BRANCH   3  12
ATOM     12  O   UNL     1      23.332  30.818  50.865  1.00  0.00    -0.387 OA
ATOM     13  H   UNL     1      23.062  30.215  50.106  1.00  0.00     0.211 HD
ENDBRANCH   3  12
BRANCH   5  14
ATOM     14  C   UNL     1      24.726  32.941  52.462  1.00  0.00     0.191 C 
BRANCH  14  15
ATOM     15  O   UNL     1      25.747  32.412  51.625  1.00  0.00    -0.394 OA
ATOM     16  H   UNL     1      25.285  32.100  50.799  1.00  0.00     0.210 HD
ENDBRANCH  14  15
ENDBRANCH   5  14
BRANCH   4  17
ATOM     17  O   UNL     1      24.080  29.586  54.191  1.00  0.00    -0.387 OA
ATOM     18  H   UNL     1      25.001  29.366  54.513  1.00  0.00     0.211 HD
ENDBRANCH   4  17
TORSDOF 7
ENDMDL
MODEL 6
REMARK VINA RESULT:    -4.316      1.419      3.279
REMARK INTER + INTRA:          -6.024
REMARK INTER:                  -5.598
REMARK INTRA:                  -0.426
REMARK UNBOUND:                -0.446
REMARK SMILES CCO[C@@H]1O[C@H](CO)[C@@H](O)[C@H](O)[C@@H]1O
REMARK SMILES IDX 4 1 13 2 11 3 9 4 6 5 5 6 3 7 2 8 1 9 14 10 12 12 7 14 8 15
REMARK SMILES IDX 10 17
REMARK H PARENT 14 11 12 13 8 16 10 18
REMARK Flexibility Score: inf
ROOT
ATOM      1  C   UNL     1      15.715  25.369  53.353  1.00  0.00     0.281 C 
ATOM      2  C   UNL     1      14.631  26.404  52.994  1.00  0.00     0.202 C 
ATOM      3  C   UNL     1      14.059  26.273  51.568  1.00  0.00     0.179 C 
ATOM      4  C   UNL     1      13.706  24.796  51.313  1.00  0.00     0.177 C 
ATOM      5  C   UNL     1      14.914  23.876  51.632  1.00  0.00     0.178 C 
ATOM      6  O   UNL     1      15.403  24.034  52.978  1.00  0.00    -0.341 OA
ENDROOT
BRANCH   1   7
ATOM      7  O   UNL     1      16.964  25.754  52.759  1.00  0.00    -0.350 OA
BRANCH   7   8
ATOM      8  C   UNL     1      18.039  25.580  53.647  1.00  0.00     0.160 C 
ATOM      9  C   UNL     1      19.356  25.667  52.887  1.00  0.00     0.035 C 
ENDBRANCH   7   8
ENDBRANCH   1   7
BRANCH   2  10
ATOM     10  O   UNL     1      15.093  27.718  53.158  1.00  0.00    -0.385 OA
ATOM     11  H   UNL     1      14.826  28.203  52.332  1.00  0.00     0.211 HD
ENDBRANCH   2  10
BRANCH   3  12
ATOM     12  O   UNL     1      14.994  26.711  50.620  1.00  0.00    -0.387 OA
ATOM     13  H   UNL     1      15.688  27.268  51.089  1.00  0.00     0.211 HD
ENDBRANCH   3  12
BRANCH   5  14
ATOM     14  C   UNL     1      16.080  23.914  50.576  1.00  0.00     0.191 C 
BRANCH  14  15
ATOM     15  O   UNL     1      15.630  24.215  49.261  1.00  0.00    -0.394 OA
ATOM     16  H   UNL     1      16.235  24.933  48.926  1.00  0.00     0.210 HD
ENDBRANCH  14  15
ENDBRANCH   5  14
BRANCH   4  17
ATOM     17  O   UNL     1      12.606  24.424  52.106  1.00  0.00    -0.387 OA
ATOM     18  H   UNL     1      12.424  25.177  52.738  1.00  0.00     0.211 HD
ENDBRANCH   4  17
TORSDOF 7
ENDMDL
MODEL 7
REMARK VINA RESULT:    -4.312      8.298     10.106
REMARK INTER + INTRA:          -6.018
REMARK INTER:                  -5.602
REMARK INTRA:                  -0.416
REMARK UNBOUND:                -0.446
REMARK SMILES CCO[C@@H]1O[C@H](CO)[C@@H](O)[C@H](O)[C@@H]1O
REMARK SMILES IDX 4 1 13 2 11 3 9 4 6 5 5 6 3 7 2 8 1 9 14 10 12 12 7 14 8 15
REMARK SMILES IDX 10 17
REMARK H PARENT 14 11 12 13 8 16 10 18
REMARK Flexibility Score: inf
ROOT
ATOM      1  C   UNL     1      22.622  31.935  52.949  1.00  0.00     0.281 C 
ATOM      2  C   UNL     1      21.216  31.330  52.780  1.00  0.00     0.202 C 
ATOM      3  C   UNL     1      21.180  29.967  52.060  1.00  0.00     0.179 C 
ATOM      4  C   UNL     1      22.248  29.052  52.687  1.00  0.00     0.177 C 
ATOM      5  C   UNL     1      23.632  29.754  52.715  1.00  0.00     0.178 C 
ATOM      6  O   UNL     1      23.608  31.018  53.405  1.00  0.00    -0.341 OA
ENDROOT
BRANCH   1   7
ATOM      7  O   UNL     1      23.048  32.519  51.709  1.00  0.00    -0.350 OA
BRANCH   7   8
ATOM      8  C   UNL     1      23.326  33.890  51.846  1.00  0.00     0.160 C 
ATOM      9  C   UNL     1      24.697  34.078  52.482  1.00  0.00     0.035 C 
ENDBRANCH   7   8
ENDBRANCH   1   7
BRANCH   2  10
ATOM     10  O   UNL     1      20.354  32.203  52.101  1.00  0.00    -0.385 OA
ATOM     11  H   UNL     1      19.445  32.023  52.464  1.00  0.00     0.211 HD
ENDBRANCH   2  10
BRANCH   3  12
ATOM     12  O   UNL     1      21.433  30.126  50.691  1.00  0.00    -0.387 OA
ATOM     13  H   UNL     1      22.249  29.590  50.451  1.00  0.00     0.211 HD
ENDBRANCH   3  12
BRANCH   5  14
ATOM     14  C   UNL     1      24.354  29.859  51.321  1.00  0.00     0.191 C 
BRANCH  14  15
ATOM     15  O   UNL     1      25.482  30.724  51.343  1.00  0.00    -0.394 OA
ATOM     16  H   UNL     1      26.062  30.432  50.587  1.00  0.00     0.210 HD
ENDBRANCH  14  15
ENDBRANCH   5  14
BRANCH   4  17
ATOM     17  O   UNL     1      21.869  28.703  53.996  1.00  0.00    -0.387 OA
ATOM     18  H   UNL     1      22.551  29.088  54.618  1.00  0.00     0.211 HD
ENDBRANCH   4  17
TORSDOF 7
ENDMDL
MODEL 8
REMARK VINA RESULT:    -4.268      1.729      4.202
REMARK INTER + INTRA:          -5.961
REMARK INTER:                  -5.453
REMARK INTRA:                  -0.508
REMARK UNBOUND:                -0.446
REMARK SMILES CCO[C@@H]1O[C@H](CO)[C@@H](O)[C@H](O)[C@@H]1O
REMARK SMILES IDX 4 1 13 2 11 3 9 4 6 5 5 6 3 7 2 8 1 9 14 10 12 12 7 14 8 15
REMARK SMILES IDX 10 17
REMARK H PARENT 14 11 12 13 8 16 10 18
REMARK Flexibility Score: inf
ROOT
ATOM      1  C   UNL     1      14.856  25.710  52.278  1.00  0.00     0.281 C 
ATOM      2  C   UNL     1      15.381  25.230  53.645  1.00  0.00     0.202 C 
ATOM      3  C   UNL     1      16.570  26.039  54.202  1.00  0.00     0.179 C 
ATOM      4  C   UNL     1      16.243  27.539  54.081  1.00  0.00     0.177 C 
ATOM      5  C   UNL     1      15.814  27.898  52.634  1.00  0.00     0.178 C 
ATOM      6  O   UNL     1      14.696  27.118  52.168  1.00  0.00    -0.341 OA
ENDROOT
BRANCH   1   7
ATOM      7  O   UNL     1      15.729  25.244  51.237  1.00  0.00    -0.350 OA
BRANCH   7   8
ATOM      8  C   UNL     1      15.010  24.760  50.131  1.00  0.00     0.160 C 
ATOM      9  C   UNL     1      13.865  23.875  50.606  1.00  0.00     0.035 C 
ENDBRANCH   7   8
ENDBRANCH   1   7
BRANCH   2  10
ATOM     10  O   UNL     1      15.751  23.878  53.613  1.00  0.00    -0.385 OA
ATOM     11  H   UNL     1      15.355  23.470  54.429  1.00  0.00     0.211 HD
ENDBRANCH   2  10
BRANCH   3  12
ATOM     12  O   UNL     1      17.741  25.747  53.489  1.00  0.00    -0.387 OA
ATOM     13  H   UNL     1      17.533  25.778  52.506  1.00  0.00     0.211 HD
ENDBRANCH   3  12
BRANCH   5  14
ATOM     14  C   UNL     1      16.983  27.936  51.582  1.00  0.00     0.191 C 
BRANCH  14  15
ATOM     15  O   UNL     1      16.521  27.997  50.238  1.00  0.00    -0.394 OA
ATOM     16  H   UNL     1      16.745  27.114  49.835  1.00  0.00     0.210 HD
ENDBRANCH  14  15
ENDBRANCH   5  14
BRANCH   4  17
ATOM     17  O   UNL     1      15.213  27.877  54.977  1.00  0.00    -0.387 OA
ATOM     18  H   UNL     1      14.533  28.405  54.468  1.00  0.00     0.211 HD
ENDBRANCH   4  17
TORSDOF 7
ENDMDL
MODEL 9
REMARK VINA RESULT:    -4.209      1.863      3.954
REMARK INTER + INTRA:          -5.885
REMARK INTER:                  -5.412
REMARK INTRA:                  -0.473
REMARK UNBOUND:                -0.446
REMARK SMILES CCO[C@@H]1O[C@H](CO)[C@@H](O)[C@H](O)[C@@H]1O
REMARK SMILES IDX 4 1 13 2 11 3 9 4 6 5 5 6 3 7 2 8 1 9 14 10 12 12 7 14 8 15
REMARK SMILES IDX 10 17
REMARK H PARENT 14 11 12 13 8 16 10 18
REMARK Flexibility Score: inf
ROOT
ATOM      1  C   UNL     1      15.612  25.763  50.206  1.00  0.00     0.281 C 
ATOM      2  C   UNL     1      16.215  26.910  51.038  1.00  0.00     0.202 C 
ATOM      3  C   UNL     1      15.341  27.382  52.218  1.00  0.00     0.179 C 
ATOM      4  C   UNL     1      14.864  26.144  53.001  1.00  0.00     0.177 C 
ATOM      5  C   UNL     1      14.199  25.112  52.053  1.00  0.00     0.178 C 
ATOM      6  O   UNL     1      15.062  24.701  50.974  1.00  0.00    -0.341 OA
ENDROOT
BRANCH   1   7
ATOM      7  O   UNL     1      14.608  26.285  49.322  1.00  0.00    -0.350 OA
BRANCH   7   8
ATOM      8  C   UNL     1      14.371  25.427  48.235  1.00  0.00     0.160 C 
ATOM      9  C   UNL     1      15.601  25.375  47.339  1.00  0.00     0.035 C 
ENDBRANCH   7   8
ENDBRANCH   1   7
BRANCH   2  10
ATOM     10  O   UNL     1      16.513  28.027  50.244  1.00  0.00    -0.385 OA
ATOM     11  H   UNL     1      16.912  27.665  49.408  1.00  0.00     0.211 HD
ENDBRANCH   2  10
BRANCH   3  12
ATOM     12  O   UNL     1      14.237  28.108  51.754  1.00  0.00    -0.387 OA
ATOM     13  H   UNL     1      13.648  28.332  52.538  1.00  0.00     0.211 HD
ENDBRANCH   3  12
BRANCH   5  14
ATOM     14  C   UNL     1      12.764  25.502  51.541  1.00  0.00     0.191 C 
BRANCH  14  15
ATOM     15  O   UNL     1      11.986  26.174  52.523  1.00  0.00    -0.394 OA
ATOM     16  H   UNL     1      11.359  26.761  52.017  1.00  0.00     0.210 HD
ENDBRANCH  14  15
ENDBRANCH   5  14
BRANCH   4  17
ATOM     17  O   UNL     1      15.952  25.548  53.662  1.00  0.00    -0.387 OA
ATOM     18  H   UNL     1      15.928  24.569  53.457  1.00  0.00     0.211 HD
ENDBRANCH   4  17
TORSDOF 7
ENDMDL
