MODEL 1
REMARK VINA RESULT:    -4.158      0.000      0.000
REMARK INTER + INTRA:          -6.566
REMARK INTER:                  -5.616
REMARK INTRA:                  -0.950
REMARK UNBOUND:                -0.950
REMARK SMILES CC(=O)CCC=C(C)CCC=C(C)C
REMARK SMILES IDX 7 1 6 2 8 3 9 4 10 5 11 6 13 7 12 8 14 9 5 10 4 11 2 12 3 13
REMARK SMILES IDX 1 14
REMARK H PARENT
REMARK Flexibility Score: inf
ROOT
ATOM      1  C   UNL     1      10.179 -29.308  13.638  1.00  0.00    -0.077 C 
ATOM      2  C   UNL     1       9.144 -29.531  14.478  1.00  0.00    -0.028 C 
ATOM      3  C   UNL     1      11.494 -28.755  14.137  1.00  0.00     0.039 C 
ENDROOT
BRANCH   1   4
ATOM      4  C   UNL     1      10.019 -29.621  12.164  1.00  0.00     0.034 C 
BRANCH   4   5
ATOM      5  C   UNL     1       9.699 -31.103  11.925  1.00  0.00     0.032 C 
BRANCH   5   6
ATOM      6  C   UNL     1      10.805 -32.004  12.423  1.00  0.00    -0.028 C 
ATOM      7  C   UNL     1       9.350 -33.138  14.117  1.00  0.00     0.039 C 
ATOM      8  C   UNL     1      10.655 -32.942  13.383  1.00  0.00    -0.080 C 
ATOM      9  C   UNL     1      11.842 -33.801  13.737  1.00  0.00     0.039 C 
ENDBRANCH   5   6
ENDBRANCH   4   5
ENDBRANCH   1   4
BRANCH   2  10
ATOM     10  C   UNL     1       9.214 -29.257  15.961  1.00  0.00     0.035 C 
BRANCH  10  11
ATOM     11  C   UNL     1       8.086 -29.973  16.711  1.00  0.00     0.079 C 
BRANCH  11  12
ATOM     12  C   UNL     1       8.174 -29.704  18.190  1.00  0.00     0.130 C 
ATOM     13  O   UNL     1       7.385 -30.248  18.948  1.00  0.00    -0.300 OA
ATOM     14  C   UNL     1       9.219 -28.789  18.759  1.00  0.00     0.087 C 
ENDBRANCH  11  12
ENDBRANCH  10  11
ENDBRANCH   2  10
TORSDOF 6
ENDMDL
MODEL 2
REMARK VINA RESULT:    -4.035      1.625      2.752
REMARK INTER + INTRA:          -6.400
REMARK INTER:                  -5.422
REMARK INTRA:                  -0.978
REMARK UNBOUND:                -0.950
REMARK SMILES CC(=O)CCC=C(C)CCC=C(C)C
REMARK SMILES IDX 7 1 6 2 8 3 9 4 10 5 11 6 13 7 12 8 14 9 5 10 4 11 2 12 3 13
REMARK SMILES IDX 1 14
REMARK H PARENT
REMARK Flexibility Score: inf
ROOT
ATOM      1  C   UNL     1       6.999 -30.418  13.504  1.00  0.00    -0.077 C 
ATOM      2  C   UNL     1       7.288 -29.830  14.686  1.00  0.00    -0.028 C 
ATOM      3  C   UNL     1       6.579 -31.868  13.428  1.00  0.00     0.039 C 
ENDROOT
BRANCH   1   4
ATOM      4  C   UNL     1       7.096 -29.607  12.228  1.00  0.00     0.034 C 
BRANCH   4   5
ATOM      5  C   UNL     1       8.526 -29.110  11.973  1.00  0.00     0.032 C 
BRANCH   5   6
ATOM      6  C   UNL     1       9.523 -30.244  11.974  1.00  0.00    -0.028 C 
ATOM      7  C   UNL     1      10.894 -29.262  13.827  1.00  0.00     0.039 C 
ATOM      8  C   UNL     1      10.572 -30.341  12.821  1.00  0.00    -0.080 C 
ATOM      9  C   UNL     1      11.452 -31.562  12.734  1.00  0.00     0.039 C 
ENDBRANCH   5   6
ENDBRANCH   4   5
ENDBRANCH   1   4
BRANCH   2  10
ATOM     10  C   UNL     1       7.212 -30.556  16.007  1.00  0.00     0.035 C 
BRANCH  10  11
ATOM     11  C   UNL     1       8.443 -30.266  16.871  1.00  0.00     0.079 C 
BRANCH  11  12
ATOM     12  C   UNL     1       8.054 -29.527  18.124  1.00  0.00     0.130 C 
ATOM     13  O   UNL     1       6.879 -29.487  18.459  1.00  0.00    -0.300 OA
ATOM     14  C   UNL     1       9.079 -28.844  18.981  1.00  0.00     0.087 C 
ENDBRANCH  11  12
ENDBRANCH  10  11
ENDBRANCH   2  10
TORSDOF 6
ENDMDL
MODEL 3
REMARK VINA RESULT:    -3.946      1.923      3.235
REMARK INTER + INTRA:          -6.280
REMARK INTER:                  -5.164
REMARK INTRA:                  -1.116
REMARK UNBOUND:                -0.950
REMARK SMILES CC(=O)CCC=C(C)CCC=C(C)C
REMARK SMILES IDX 7 1 6 2 8 3 9 4 10 5 11 6 13 7 12 8 14 9 5 10 4 11 2 12 3 13
REMARK SMILES IDX 1 14
REMARK H PARENT
REMARK Flexibility Score: inf
ROOT
ATOM      1  C   UNL     1       6.409 -30.828  15.094  1.00  0.00    -0.077 C 
ATOM      2  C   UNL     1       6.768 -29.767  15.851  1.00  0.00    -0.028 C 
ATOM      3  C   UNL     1       6.350 -32.223  15.672  1.00  0.00     0.039 C 
ENDROOT
BRANCH   1   4
ATOM      4  C   UNL     1       6.058 -30.615  13.636  1.00  0.00     0.034 C 
BRANCH   4   5
ATOM      5  C   UNL     1       7.197 -29.931  12.867  1.00  0.00     0.032 C 
BRANCH   5   6
ATOM      6  C   UNL     1       8.364 -30.864  12.644  1.00  0.00    -0.028 C 
ATOM      7  C   UNL     1       9.962 -29.456  13.962  1.00  0.00     0.039 C 
ATOM      8  C   UNL     1       9.601 -30.680  13.155  1.00  0.00    -0.080 C 
ATOM      9  C   UNL     1      10.650 -31.728  12.886  1.00  0.00     0.039 C 
ENDBRANCH   5   6
ENDBRANCH   4   5
ENDBRANCH   1   4
BRANCH   2  10
ATOM     10  C   UNL     1       7.126 -29.882  17.312  1.00  0.00     0.035 C 
BRANCH  10  11
ATOM     11  C   UNL     1       8.618 -30.180  17.497  1.00  0.00     0.079 C 
BRANCH  11  12
ATOM     12  C   UNL     1       9.317 -29.017  18.150  1.00  0.00     0.130 C 
ATOM     13  O   UNL     1       9.191 -28.839  19.353  1.00  0.00    -0.300 OA
ATOM     14  C   UNL     1      10.177 -28.076  17.360  1.00  0.00     0.087 C 
ENDBRANCH  11  12
ENDBRANCH  10  11
ENDBRANCH   2  10
TORSDOF 6
ENDMDL
MODEL 4
REMARK VINA RESULT:    -3.870      1.402      1.992
REMARK INTER + INTRA:          -6.178
REMARK INTER:                  -5.022
REMARK INTRA:                  -1.156
REMARK UNBOUND:                -0.950
REMARK SMILES CC(=O)CCC=C(C)CCC=C(C)C
REMARK SMILES IDX 7 1 6 2 8 3 9 4 10 5 11 6 13 7 12 8 14 9 5 10 4 11 2 12 3 13
REMARK SMILES IDX 1 14
REMARK H PARENT
REMARK Flexibility Score: inf
ROOT
ATOM      1  C   UNL     1       9.389 -29.491  14.678  1.00  0.00    -0.077 C 
ATOM      2  C   UNL     1       8.171 -29.897  14.256  1.00  0.00    -0.028 C 
ATOM      3  C   UNL     1       9.617 -29.031  16.098  1.00  0.00     0.039 C 
ENDROOT
BRANCH   1   4
ATOM      4  C   UNL     1      10.553 -29.499  13.706  1.00  0.00     0.034 C 
BRANCH   4   5
ATOM      5  C   UNL     1      10.426 -30.626  12.671  1.00  0.00     0.032 C 
BRANCH   5   6
ATOM      6  C   UNL     1      11.334 -31.789  12.994  1.00  0.00    -0.028 C 
ATOM      7  C   UNL     1       9.487 -33.184  13.953  1.00  0.00     0.039 C 
ATOM      8  C   UNL     1      10.921 -32.954  13.539  1.00  0.00    -0.080 C 
ATOM      9  C   UNL     1      11.940 -34.045  13.755  1.00  0.00     0.039 C 
ENDBRANCH   5   6
ENDBRANCH   4   5
ENDBRANCH   1   4
BRANCH   2  10
ATOM     10  C   UNL     1       6.959 -29.930  15.152  1.00  0.00     0.035 C 
BRANCH  10  11
ATOM     11  C   UNL     1       6.639 -31.360  15.601  1.00  0.00     0.079 C 
BRANCH  11  12
ATOM     12  C   UNL     1       7.082 -31.585  17.023  1.00  0.00     0.130 C 
ATOM     13  O   UNL     1       7.005 -30.669  17.828  1.00  0.00    -0.300 OA
ATOM     14  C   UNL     1       7.607 -32.915  17.478  1.00  0.00     0.087 C 
ENDBRANCH  11  12
ENDBRANCH  10  11
ENDBRANCH   2  10
TORSDOF 6
ENDMDL
MODEL 5
REMARK VINA RESULT:    -3.867      2.272      5.595
REMARK INTER + INTRA:          -6.173
REMARK INTER:                  -4.985
REMARK INTRA:                  -1.188
REMARK UNBOUND:                -0.950
REMARK SMILES CC(=O)CCC=C(C)CCC=C(C)C
REMARK SMILES IDX 7 1 6 2 8 3 9 4 10 5 11 6 13 7 12 8 14 9 5 10 4 11 2 12 3 13
REMARK SMILES IDX 1 14
REMARK H PARENT
REMARK Flexibility Score: inf
ROOT
ATOM      1  C   UNL     1       7.299 -31.489  15.186  1.00  0.00    -0.077 C 
ATOM      2  C   UNL     1       7.272 -30.565  14.201  1.00  0.00    -0.028 C 
ATOM      3  C   UNL     1       8.183 -32.711  15.095  1.00  0.00     0.039 C 
ENDROOT
BRANCH   1   4
ATOM      4  C   UNL     1       6.426 -31.296  16.410  1.00  0.00     0.034 C 
BRANCH   4   5
ATOM      5  C   UNL     1       6.446 -29.843  16.904  1.00  0.00     0.032 C 
BRANCH   5   6
ATOM      6  C   UNL     1       7.337 -29.672  18.111  1.00  0.00    -0.028 C 
ATOM      7  C   UNL     1       9.318 -28.950  16.759  1.00  0.00     0.039 C 
ATOM      8  C   UNL     1       8.617 -29.243  18.064  1.00  0.00    -0.080 C 
ATOM      9  C   UNL     1       9.364 -29.073  19.362  1.00  0.00     0.039 C 
ENDBRANCH   5   6
ENDBRANCH   4   5
ENDBRANCH   1   4
BRANCH   2  10
ATOM     10  C   UNL     1       8.111 -30.668  12.952  1.00  0.00     0.035 C 
BRANCH  10  11
ATOM     11  C   UNL     1       9.088 -29.493  12.840  1.00  0.00     0.079 C 
BRANCH  11  12
ATOM     12  C   UNL     1      10.486 -29.925  13.198  1.00  0.00     0.130 C 
ATOM     13  O   UNL     1      11.250 -29.121  13.713  1.00  0.00    -0.300 OA
ATOM     14  C   UNL     1      10.961 -31.325  12.948  1.00  0.00     0.087 C 
ENDBRANCH  11  12
ENDBRANCH  10  11
ENDBRANCH   2  10
TORSDOF 6
ENDMDL
MODEL 6
REMARK VINA RESULT:    -3.733      2.678      5.368
REMARK INTER + INTRA:          -5.992
REMARK INTER:                  -4.547
REMARK INTRA:                  -1.445
REMARK UNBOUND:                -0.950
REMARK SMILES CC(=O)CCC=C(C)CCC=C(C)C
REMARK SMILES IDX 7 1 6 2 8 3 9 4 10 5 11 6 13 7 12 8 14 9 5 10 4 11 2 12 3 13
REMARK SMILES IDX 1 14
REMARK H PARENT
REMARK Flexibility Score: inf
ROOT
ATOM      1  C   UNL     1       7.765 -32.894  14.525  1.00  0.00    -0.077 C 
ATOM      2  C   UNL     1       6.905 -32.059  13.902  1.00  0.00    -0.028 C 
ATOM      3  C   UNL     1       9.171 -33.101  14.014  1.00  0.00     0.039 C 
ENDROOT
BRANCH   1   4
ATOM      4  C   UNL     1       7.310 -33.638  15.765  1.00  0.00     0.034 C 
BRANCH   4   5
ATOM      5  C   UNL     1       6.590 -32.713  16.756  1.00  0.00     0.032 C 
BRANCH   5   6
ATOM      6  C   UNL     1       7.540 -31.730  17.397  1.00  0.00    -0.028 C 
ATOM      7  C   UNL     1       6.167 -29.732  16.767  1.00  0.00     0.039 C 
ATOM      8  C   UNL     1       7.348 -30.393  17.437  1.00  0.00    -0.080 C 
ATOM      9  C   UNL     1       8.362 -29.544  18.161  1.00  0.00     0.039 C 
ENDBRANCH   5   6
ENDBRANCH   4   5
ENDBRANCH   1   4
BRANCH   2  10
ATOM     10  C   UNL     1       7.271 -31.271  12.668  1.00  0.00     0.035 C 
BRANCH  10  11
ATOM     11  C   UNL     1       7.479 -29.789  12.998  1.00  0.00     0.079 C 
BRANCH  11  12
ATOM     12  C   UNL     1       8.941 -29.486  13.198  1.00  0.00     0.130 C 
ATOM     13  O   UNL     1       9.635 -29.207  12.231  1.00  0.00    -0.300 OA
ATOM     14  C   UNL     1       9.566 -29.510  14.562  1.00  0.00     0.087 C 
ENDBRANCH  11  12
ENDBRANCH  10  11
ENDBRANCH   2  10
TORSDOF 6
ENDMDL
MODEL 7
REMARK VINA RESULT:    -3.667      2.597      4.958
REMARK INTER + INTRA:          -5.903
REMARK INTER:                  -5.007
REMARK INTRA:                  -0.896
REMARK UNBOUND:                -0.950
REMARK SMILES CC(=O)CCC=C(C)CCC=C(C)C
REMARK SMILES IDX 7 1 6 2 8 3 9 4 10 5 11 6 13 7 12 8 14 9 5 10 4 11 2 12 3 13
REMARK SMILES IDX 1 14
REMARK H PARENT
REMARK Flexibility Score: inf
ROOT
ATOM      1  C   UNL     1       9.288 -29.136  16.278  1.00  0.00    -0.077 C 
ATOM      2  C   UNL     1       9.389 -29.560  14.999  1.00  0.00    -0.028 C 
ATOM      3  C   UNL     1      10.339 -28.245  16.898  1.00  0.00     0.039 C 
ENDROOT
BRANCH   1   4
ATOM      4  C   UNL     1       8.094 -29.562  17.110  1.00  0.00     0.034 C 
BRANCH   4   5
ATOM      5  C   UNL     1       7.012 -30.234  16.255  1.00  0.00     0.032 C 
BRANCH   5   6
ATOM      6  C   UNL     1       6.582 -31.562  16.834  1.00  0.00    -0.028 C 
ATOM      7  C   UNL     1       8.046 -32.896  15.300  1.00  0.00     0.039 C 
ATOM      8  C   UNL     1       7.061 -32.762  16.437  1.00  0.00    -0.080 C 
ATOM      9  C   UNL     1       6.573 -33.998  17.147  1.00  0.00     0.039 C 
ENDBRANCH   5   6
ENDBRANCH   4   5
ENDBRANCH   1   4
BRANCH   2  10
ATOM     10  C   UNL     1      10.535 -29.181  14.094  1.00  0.00     0.035 C 
BRANCH  10  11
ATOM     11  C   UNL     1      10.237 -29.549  12.637  1.00  0.00     0.079 C 
BRANCH  11  12
ATOM     12  C   UNL     1      10.257 -31.043  12.448  1.00  0.00     0.130 C 
ATOM     13  O   UNL     1       9.247 -31.614  12.062  1.00  0.00    -0.300 OA
ATOM     14  C   UNL     1      11.494 -31.849  12.714  1.00  0.00     0.087 C 
ENDBRANCH  11  12
ENDBRANCH  10  11
ENDBRANCH   2  10
TORSDOF 6
ENDMDL
MODEL 8
REMARK VINA RESULT:    -3.637      1.870      3.248
REMARK INTER + INTRA:          -5.863
REMARK INTER:                  -4.769
REMARK INTRA:                  -1.094
REMARK UNBOUND:                -0.950
REMARK SMILES CC(=O)CCC=C(C)CCC=C(C)C
REMARK SMILES IDX 7 1 6 2 8 3 9 4 10 5 11 6 13 7 12 8 14 9 5 10 4 11 2 12 3 13
REMARK SMILES IDX 1 14
REMARK H PARENT
REMARK Flexibility Score: inf
ROOT
ATOM      1  C   UNL     1       7.507 -32.345  15.922  1.00  0.00    -0.077 C 
ATOM      2  C   UNL     1       7.518 -31.113  15.367  1.00  0.00    -0.028 C 
ATOM      3  C   UNL     1       7.698 -32.540  17.408  1.00  0.00     0.039 C 
ENDROOT
BRANCH   1   4
ATOM      4  C   UNL     1       7.298 -33.556  15.037  1.00  0.00     0.034 C 
BRANCH   4   5
ATOM      5  C   UNL     1       7.991 -33.398  13.677  1.00  0.00     0.032 C 
BRANCH   5   6
ATOM      6  C   UNL     1       9.402 -33.937  13.700  1.00  0.00    -0.028 C 
ATOM      7  C   UNL     1      10.450 -31.686  13.373  1.00  0.00     0.039 C 
ATOM      8  C   UNL     1      10.515 -33.178  13.596  1.00  0.00    -0.080 C 
ATOM      9  C   UNL     1      11.857 -33.857  13.688  1.00  0.00     0.039 C 
ENDBRANCH   5   6
ENDBRANCH   4   5
ENDBRANCH   1   4
BRANCH   2  10
ATOM     10  C   UNL     1       7.711 -29.850  16.170  1.00  0.00     0.035 C 
BRANCH  10  11
ATOM     11  C   UNL     1       9.139 -29.313  16.026  1.00  0.00     0.079 C 
BRANCH  11  12
ATOM     12  C   UNL     1       9.586 -28.639  17.296  1.00  0.00     0.130 C 
ATOM     13  O   UNL     1      10.340 -27.678  17.233  1.00  0.00    -0.300 OA
ATOM     14  C   UNL     1       9.118 -29.112  18.641  1.00  0.00     0.087 C 
ENDBRANCH  11  12
ENDBRANCH  10  11
ENDBRANCH   2  10
TORSDOF 6
ENDMDL
MODEL 9
REMARK VINA RESULT:    -3.407      2.644      4.760
REMARK INTER + INTRA:          -5.552
REMARK INTER:                  -4.370
REMARK INTRA:                  -1.183
REMARK UNBOUND:                -0.950
REMARK SMILES CC(=O)CCC=C(C)CCC=C(C)C
REMARK SMILES IDX 7 1 6 2 8 3 9 4 10 5 11 6 13 7 12 8 14 9 5 10 4 11 2 12 3 13
REMARK SMILES IDX 1 14
REMARK H PARENT
REMARK Flexibility Score: inf
ROOT
ATOM      1  C   UNL     1       7.320 -31.202  16.602  1.00  0.00    -0.077 C 
ATOM      2  C   UNL     1       8.544 -30.828  16.169  1.00  0.00    -0.028 C 
ATOM      3  C   UNL     1       6.134 -30.269  16.512  1.00  0.00     0.039 C 
ENDROOT
BRANCH   1   4
ATOM      4  C   UNL     1       7.130 -32.585  17.191  1.00  0.00     0.034 C 
BRANCH   4   5
ATOM      5  C   UNL     1       6.449 -33.540  16.200  1.00  0.00     0.032 C 
BRANCH   5   6
ATOM      6  C   UNL     1       7.343 -33.864  15.027  1.00  0.00    -0.028 C 
ATOM      7  C   UNL     1       6.054 -32.430  13.429  1.00  0.00     0.039 C 
ATOM      8  C   UNL     1       7.197 -33.349  13.787  1.00  0.00    -0.080 C 
ATOM      9  C   UNL     1       8.203 -33.729  12.730  1.00  0.00     0.039 C 
ENDBRANCH   5   6
ENDBRANCH   4   5
ENDBRANCH   1   4
BRANCH   2  10
ATOM     10  C   UNL     1       8.826 -29.476  15.562  1.00  0.00     0.035 C 
BRANCH  10  11
ATOM     11  C   UNL     1       8.972 -29.569  14.040  1.00  0.00     0.079 C 
BRANCH  11  12
ATOM     12  C   UNL     1      10.413 -29.770  13.653  1.00  0.00     0.130 C 
ATOM     13  O   UNL     1      11.232 -28.900  13.913  1.00  0.00    -0.300 OA
ATOM     14  C   UNL     1      10.872 -31.021  12.963  1.00  0.00     0.087 C 
ENDBRANCH  11  12
ENDBRANCH  10  11
ENDBRANCH   2  10
TORSDOF 6
ENDMDL
