MODEL 1
REMARK VINA RESULT:    -4.725      0.000      0.000
REMARK INTER + INTRA:          -8.645
REMARK INTER:                  -7.488
REMARK INTRA:                  -1.157
REMARK UNBOUND:                -1.157
REMARK SMILES CCCCCCCCCCCC(=O)[O-]
REMARK SMILES IDX 7 1 8 2 9 3 10 4 11 5 12 6 13 7 14 8 6 9 5 10 4 11 3 12 2 13
REMARK SMILES IDX 1 14
REMARK H PARENT
REMARK Flexibility Score: inf
ROOT
ATOM      1  C   UNL     1     118.726 178.909 125.206  1.00  0.00     0.000 C 
ENDROOT
BRANCH   1   2
ATOM      2  C   UNL     1     118.565 178.549 126.694  1.00  0.00     0.000 C 
BRANCH   2   3
ATOM      3  C   UNL     1     117.208 178.931 127.311  1.00  0.00     0.000 C 
BRANCH   3   4
ATOM      4  C   UNL     1     116.262 179.610 126.305  1.00  0.00     0.006 C 
BRANCH   4   5
ATOM      5  C   UNL     1     115.010 178.767 126.026  1.00  0.00     0.053 C 
BRANCH   5   6
ATOM      6  C   UNL     1     115.298 177.631 125.094  1.00  0.00     0.041 C 
ATOM      7  O   UNL     1     115.265 177.810 123.848  1.00  0.00    -0.550 OA
ATOM      8  O   UNL     1     115.631 176.381 125.600  1.00  0.00    -0.550 OA
ENDBRANCH   5   6
ENDBRANCH   4   5
ENDBRANCH   3   4
ENDBRANCH   2   3
ENDBRANCH   1   2
BRANCH   1   9
ATOM      9  C   UNL     1     119.019 177.683 124.323  1.00  0.00     0.000 C 
BRANCH   9  10
ATOM     10  C   UNL     1     120.013 176.707 124.974  1.00  0.00    -0.000 C 
BRANCH  10  11
ATOM     11  C   UNL     1     121.473 177.172 124.832  1.00  0.00    -0.000 C 
BRANCH  11  12
ATOM     12  C   UNL     1     122.217 177.199 126.177  1.00  0.00    -0.000 C 
BRANCH  12  13
ATOM     13  C   UNL     1     122.129 178.565 126.875  1.00  0.00    -0.003 C 
ATOM     14  C   UNL     1     121.884 178.401 128.373  1.00  0.00     0.004 C 
ENDBRANCH  12  13
ENDBRANCH  11  12
ENDBRANCH  10  11
ENDBRANCH   9  10
ENDBRANCH   1   9
TORSDOF 10
ENDMDL
MODEL 2
REMARK VINA RESULT:    -4.635      1.724      2.204
REMARK INTER + INTRA:          -8.502
REMARK INTER:                  -7.070
REMARK INTRA:                  -1.433
REMARK UNBOUND:                -1.157
REMARK SMILES CCCCCCCCCCCC(=O)[O-]
REMARK SMILES IDX 7 1 8 2 9 3 10 4 11 5 12 6 13 7 14 8 6 9 5 10 4 11 3 12 2 13
REMARK SMILES IDX 1 14
REMARK H PARENT
REMARK Flexibility Score: inf
ROOT
ATOM      1  C   UNL     1     118.696 178.268 124.202  1.00  0.00     0.000 C 
ENDROOT
BRANCH   1   2
ATOM      2  C   UNL     1     118.795 179.190 125.432  1.00  0.00     0.000 C 
BRANCH   2   3
ATOM      3  C   UNL     1     117.700 178.975 126.492  1.00  0.00     0.000 C 
BRANCH   3   4
ATOM      4  C   UNL     1     118.213 178.244 127.745  1.00  0.00     0.006 C 
BRANCH   4   5
ATOM      5  C   UNL     1     118.233 176.721 127.561  1.00  0.00     0.053 C 
BRANCH   5   6
ATOM      6  C   UNL     1     116.857 176.165 127.357  1.00  0.00     0.041 C 
ATOM      7  O   UNL     1     115.939 176.434 128.175  1.00  0.00    -0.550 OA
ATOM      8  O   UNL     1     116.582 175.373 126.250  1.00  0.00    -0.550 OA
ENDBRANCH   5   6
ENDBRANCH   4   5
ENDBRANCH   3   4
ENDBRANCH   2   3
ENDBRANCH   1   2
BRANCH   1   9
ATOM      9  C   UNL     1     120.061 177.709 123.763  1.00  0.00     0.000 C 
BRANCH   9  10
ATOM     10  C   UNL     1     120.521 176.522 124.625  1.00  0.00    -0.000 C 
BRANCH  10  11
ATOM     11  C   UNL     1     122.052 176.370 124.648  1.00  0.00    -0.000 C 
BRANCH  11  12
ATOM     12  C   UNL     1     122.726 177.330 125.642  1.00  0.00    -0.000 C 
BRANCH  12  13
ATOM     13  C   UNL     1     121.882 177.560 126.906  1.00  0.00    -0.003 C 
ATOM     14  C   UNL     1     121.993 179.006 127.383  1.00  0.00     0.004 C 
ENDBRANCH  12  13
ENDBRANCH  11  12
ENDBRANCH  10  11
ENDBRANCH   9  10
ENDBRANCH   1   9
TORSDOF 10
ENDMDL
MODEL 3
REMARK VINA RESULT:    -4.604      1.834      3.156
REMARK INTER + INTRA:          -8.453
REMARK INTER:                  -7.242
REMARK INTRA:                  -1.211
REMARK UNBOUND:                -1.157
REMARK SMILES CCCCCCCCCCCC(=O)[O-]
REMARK SMILES IDX 7 1 8 2 9 3 10 4 11 5 12 6 13 7 14 8 6 9 5 10 4 11 3 12 2 13
REMARK SMILES IDX 1 14
REMARK H PARENT
REMARK Flexibility Score: inf
ROOT
ATOM      1  C   UNL     1     120.744 177.281 126.370  1.00  0.00     0.000 C 
ENDROOT
BRANCH   1   2
ATOM      2  C   UNL     1     119.821 177.969 125.346  1.00  0.00     0.000 C 
BRANCH   2   3
ATOM      3  C   UNL     1     118.950 179.101 125.918  1.00  0.00     0.000 C 
BRANCH   3   4
ATOM      4  C   UNL     1     117.918 178.604 126.946  1.00  0.00     0.006 C 
BRANCH   4   5
ATOM      5  C   UNL     1     116.519 179.180 126.689  1.00  0.00     0.053 C 
BRANCH   5   6
ATOM      6  C   UNL     1     115.584 178.148 126.138  1.00  0.00     0.041 C 
ATOM      7  O   UNL     1     115.941 177.419 125.175  1.00  0.00    -0.550 OA
ATOM      8  O   UNL     1     114.328 177.971 126.705  1.00  0.00    -0.550 OA
ENDBRANCH   5   6
ENDBRANCH   4   5
ENDBRANCH   3   4
ENDBRANCH   2   3
ENDBRANCH   1   2
BRANCH   1   9
ATOM      9  C   UNL     1     121.963 178.141 126.748  1.00  0.00     0.000 C 
BRANCH   9  10
ATOM     10  C   UNL     1     121.880 178.689 128.182  1.00  0.00    -0.000 C 
BRANCH  10  11
ATOM     11  C   UNL     1     121.457 177.614 129.199  1.00  0.00    -0.000 C 
BRANCH  11  12
ATOM     12  C   UNL     1     120.138 177.961 129.909  1.00  0.00    -0.000 C 
BRANCH  12  13
ATOM     13  C   UNL     1     119.185 176.760 130.005  1.00  0.00    -0.003 C 
ATOM     14  C   UNL     1     119.882 175.471 129.581  1.00  0.00     0.004 C 
ENDBRANCH  12  13
ENDBRANCH  11  12
ENDBRANCH  10  11
ENDBRANCH   9  10
ENDBRANCH   1   9
TORSDOF 10
ENDMDL
MODEL 4
REMARK VINA RESULT:    -4.575      1.429      2.807
REMARK INTER + INTRA:          -8.406
REMARK INTER:                  -6.973
REMARK INTRA:                  -1.434
REMARK UNBOUND:                -1.157
REMARK SMILES CCCCCCCCCCCC(=O)[O-]
REMARK SMILES IDX 7 1 8 2 9 3 10 4 11 5 12 6 13 7 14 8 6 9 5 10 4 11 3 12 2 13
REMARK SMILES IDX 1 14
REMARK H PARENT
REMARK Flexibility Score: inf
ROOT
ATOM      1  C   UNL     1     120.928 176.945 124.379  1.00  0.00     0.000 C 
ENDROOT
BRANCH   1   2
ATOM      2  C   UNL     1     119.729 177.899 124.222  1.00  0.00     0.000 C 
BRANCH   2   3
ATOM      3  C   UNL     1     118.678 177.809 125.342  1.00  0.00     0.000 C 
BRANCH   3   4
ATOM      4  C   UNL     1     118.301 179.183 125.923  1.00  0.00     0.006 C 
BRANCH   4   5
ATOM      5  C   UNL     1     117.253 179.073 127.039  1.00  0.00     0.053 C 
BRANCH   5   6
ATOM      6  C   UNL     1     115.981 178.449 126.551  1.00  0.00     0.041 C 
ATOM      7  O   UNL     1     115.536 177.408 127.100  1.00  0.00    -0.550 OA
ATOM      8  O   UNL     1     115.274 179.034 125.508  1.00  0.00    -0.550 OA
ENDBRANCH   5   6
ENDBRANCH   4   5
ENDBRANCH   3   4
ENDBRANCH   2   3
ENDBRANCH   1   2
BRANCH   1   9
ATOM      9  C   UNL     1     121.382 176.792 125.841  1.00  0.00     0.000 C 
BRANCH   9  10
ATOM     10  C   UNL     1     122.352 177.901 126.281  1.00  0.00    -0.000 C 
BRANCH  10  11
ATOM     11  C   UNL     1     121.813 178.717 127.468  1.00  0.00    -0.000 C 
BRANCH  11  12
ATOM     12  C   UNL     1     121.552 177.849 128.711  1.00  0.00    -0.000 C 
BRANCH  12  13
ATOM     13  C   UNL     1     120.088 177.903 129.173  1.00  0.00    -0.003 C 
ATOM     14  C   UNL     1     119.405 176.550 128.992  1.00  0.00     0.004 C 
ENDBRANCH  12  13
ENDBRANCH  11  12
ENDBRANCH  10  11
ENDBRANCH   9  10
ENDBRANCH   1   9
TORSDOF 10
ENDMDL
MODEL 5
REMARK VINA RESULT:    -4.568      1.331      2.905
REMARK INTER + INTRA:          -8.396
REMARK INTER:                  -7.078
REMARK INTRA:                  -1.318
REMARK UNBOUND:                -1.157
REMARK SMILES CCCCCCCCCCCC(=O)[O-]
REMARK SMILES IDX 7 1 8 2 9 3 10 4 11 5 12 6 13 7 14 8 6 9 5 10 4 11 3 12 2 13
REMARK SMILES IDX 1 14
REMARK H PARENT
REMARK Flexibility Score: inf
ROOT
ATOM      1  C   UNL     1     119.237 177.277 128.242  1.00  0.00     0.000 C 
ENDROOT
BRANCH   1   2
ATOM      2  C   UNL     1     118.162 178.269 127.761  1.00  0.00     0.000 C 
BRANCH   2   3
ATOM      3  C   UNL     1     118.059 178.422 126.233  1.00  0.00     0.000 C 
BRANCH   3   4
ATOM      4  C   UNL     1     117.775 177.091 125.515  1.00  0.00     0.006 C 
BRANCH   4   5
ATOM      5  C   UNL     1     116.404 176.510 125.890  1.00  0.00     0.053 C 
BRANCH   5   6
ATOM      6  C   UNL     1     115.284 177.414 125.476  1.00  0.00     0.041 C 
ATOM      7  O   UNL     1     114.477 177.856 126.336  1.00  0.00    -0.550 OA
ATOM      8  O   UNL     1     115.146 177.789 124.146  1.00  0.00    -0.550 OA
ENDBRANCH   5   6
ENDBRANCH   4   5
ENDBRANCH   3   4
ENDBRANCH   2   3
ENDBRANCH   1   2
BRANCH   1   9
ATOM      9  C   UNL     1     120.198 177.891 129.275  1.00  0.00     0.000 C 
BRANCH   9  10
ATOM     10  C   UNL     1     121.642 177.991 128.756  1.00  0.00    -0.000 C 
BRANCH  10  11
ATOM     11  C   UNL     1     121.726 178.665 127.375  1.00  0.00    -0.000 C 
BRANCH  11  12
ATOM     12  C   UNL     1     122.449 177.794 126.336  1.00  0.00    -0.000 C 
BRANCH  12  13
ATOM     13  C   UNL     1     121.503 177.257 125.251  1.00  0.00    -0.003 C 
ATOM     14  C   UNL     1     121.326 175.746 125.377  1.00  0.00     0.004 C 
ENDBRANCH  12  13
ENDBRANCH  11  12
ENDBRANCH  10  11
ENDBRANCH   9  10
ENDBRANCH   1   9
TORSDOF 10
ENDMDL
MODEL 6
REMARK VINA RESULT:    -4.568      1.593      3.219
REMARK INTER + INTRA:          -8.395
REMARK INTER:                  -6.848
REMARK INTRA:                  -1.548
REMARK UNBOUND:                -1.157
REMARK SMILES CCCCCCCCCCCC(=O)[O-]
REMARK SMILES IDX 7 1 8 2 9 3 10 4 11 5 12 6 13 7 14 8 6 9 5 10 4 11 3 12 2 13
REMARK SMILES IDX 1 14
REMARK H PARENT
REMARK Flexibility Score: inf
ROOT
ATOM      1  C   UNL     1     121.633 178.250 128.754  1.00  0.00     0.000 C 
ENDROOT
BRANCH   1   2
ATOM      2  C   UNL     1     120.445 177.271 128.797  1.00  0.00     0.000 C 
BRANCH   2   3
ATOM      3  C   UNL     1     119.058 177.931 128.708  1.00  0.00     0.000 C 
BRANCH   3   4
ATOM      4  C   UNL     1     118.225 177.420 127.519  1.00  0.00     0.006 C 
BRANCH   4   5
ATOM      5  C   UNL     1     118.290 178.370 126.314  1.00  0.00     0.053 C 
BRANCH   5   6
ATOM      6  C   UNL     1     117.594 177.801 125.117  1.00  0.00     0.041 C 
ATOM      7  O   UNL     1     118.069 177.978 123.965  1.00  0.00    -0.550 OA
ATOM      8  O   UNL     1     116.435 177.051 125.274  1.00  0.00    -0.550 OA
ENDBRANCH   5   6
ENDBRANCH   4   5
ENDBRANCH   3   4
ENDBRANCH   2   3
ENDBRANCH   1   2
BRANCH   1   9
ATOM      9  C   UNL     1     121.970 178.718 127.328  1.00  0.00     0.000 C 
BRANCH   9  10
ATOM     10  C   UNL     1     122.468 177.574 126.429  1.00  0.00    -0.000 C 
BRANCH  10  11
ATOM     11  C   UNL     1     121.549 177.333 125.219  1.00  0.00    -0.000 C 
BRANCH  11  12
ATOM     12  C   UNL     1     121.500 175.855 124.800  1.00  0.00    -0.000 C 
BRANCH  12  13
ATOM     13  C   UNL     1     120.210 175.153 125.251  1.00  0.00    -0.003 C 
ATOM     14  C   UNL     1     120.443 174.341 126.521  1.00  0.00     0.004 C 
ENDBRANCH  12  13
ENDBRANCH  11  12
ENDBRANCH  10  11
ENDBRANCH   9  10
ENDBRANCH   1   9
TORSDOF 10
ENDMDL
MODEL 7
REMARK VINA RESULT:    -4.482      2.135      4.031
REMARK INTER + INTRA:          -8.259
REMARK INTER:                  -6.735
REMARK INTRA:                  -1.524
REMARK UNBOUND:                -1.157
REMARK SMILES CCCCCCCCCCCC(=O)[O-]
REMARK SMILES IDX 7 1 8 2 9 3 10 4 11 5 12 6 13 7 14 8 6 9 5 10 4 11 3 12 2 13
REMARK SMILES IDX 1 14
REMARK H PARENT
REMARK Flexibility Score: inf
ROOT
ATOM      1  C   UNL     1     121.953 178.285 128.186  1.00  0.00     0.000 C 
ENDROOT
BRANCH   1   2
ATOM      2  C   UNL     1     121.150 177.806 129.410  1.00  0.00     0.000 C 
BRANCH   2   3
ATOM      3  C   UNL     1     119.622 177.940 129.275  1.00  0.00     0.000 C 
BRANCH   3   4
ATOM      4  C   UNL     1     118.882 176.610 129.499  1.00  0.00     0.006 C 
BRANCH   4   5
ATOM      5  C   UNL     1     118.555 175.899 128.178  1.00  0.00     0.053 C 
BRANCH   5   6
ATOM      6  C   UNL     1     117.088 175.635 128.034  1.00  0.00     0.041 C 
ATOM      7  O   UNL     1     116.620 175.254 126.929  1.00  0.00    -0.550 OA
ATOM      8  O   UNL     1     116.242 175.784 129.125  1.00  0.00    -0.550 OA
ENDBRANCH   5   6
ENDBRANCH   4   5
ENDBRANCH   3   4
ENDBRANCH   2   3
ENDBRANCH   1   2
BRANCH   1   9
ATOM      9  C   UNL     1     121.054 178.710 127.011  1.00  0.00     0.000 C 
BRANCH   9  10
ATOM     10  C   UNL     1     121.011 177.660 125.888  1.00  0.00    -0.000 C 
BRANCH  10  11
ATOM     11  C   UNL     1     119.774 177.815 124.985  1.00  0.00    -0.000 C 
BRANCH  11  12
ATOM     12  C   UNL     1     118.877 178.989 125.412  1.00  0.00    -0.000 C 
BRANCH  12  13
ATOM     13  C   UNL     1     117.426 178.559 125.676  1.00  0.00    -0.003 C 
ATOM     14  C   UNL     1     116.909 179.148 126.985  1.00  0.00     0.004 C 
ENDBRANCH  12  13
ENDBRANCH  11  12
ENDBRANCH  10  11
ENDBRANCH   9  10
ENDBRANCH   1   9
TORSDOF 10
ENDMDL
MODEL 8
REMARK VINA RESULT:    -4.471      1.654      2.122
REMARK INTER + INTRA:          -8.242
REMARK INTER:                  -6.676
REMARK INTRA:                  -1.566
REMARK UNBOUND:                -1.157
REMARK SMILES CCCCCCCCCCCC(=O)[O-]
REMARK SMILES IDX 7 1 8 2 9 3 10 4 11 5 12 6 13 7 14 8 6 9 5 10 4 11 3 12 2 13
REMARK SMILES IDX 1 14
REMARK H PARENT
REMARK Flexibility Score: inf
ROOT
ATOM      1  C   UNL     1     119.100 176.449 128.519  1.00  0.00     0.000 C 
ENDROOT
BRANCH   1   2
ATOM      2  C   UNL     1     118.012 177.059 127.616  1.00  0.00     0.000 C 
BRANCH   2   3
ATOM      3  C   UNL     1     118.177 178.562 127.328  1.00  0.00     0.000 C 
BRANCH   3   4
ATOM      4  C   UNL     1     117.666 178.965 125.934  1.00  0.00     0.006 C 
BRANCH   4   5
ATOM      5  C   UNL     1     117.183 177.756 125.121  1.00  0.00     0.053 C 
BRANCH   5   6
ATOM      6  C   UNL     1     115.736 177.873 124.751  1.00  0.00     0.041 C 
ATOM      7  O   UNL     1     115.389 177.855 123.542  1.00  0.00    -0.550 OA
ATOM      8  O   UNL     1     114.769 177.974 125.744  1.00  0.00    -0.550 OA
ENDBRANCH   5   6
ENDBRANCH   4   5
ENDBRANCH   3   4
ENDBRANCH   2   3
ENDBRANCH   1   2
BRANCH   1   9
ATOM      9  C   UNL     1     119.888 175.323 127.826  1.00  0.00     0.000 C 
BRANCH   9  10
ATOM     10  C   UNL     1     119.725 175.338 126.297  1.00  0.00    -0.000 C 
BRANCH  10  11
ATOM     11  C   UNL     1     121.008 175.783 125.574  1.00  0.00    -0.000 C 
BRANCH  11  12
ATOM     12  C   UNL     1     121.183 177.311 125.569  1.00  0.00    -0.000 C 
BRANCH  12  13
ATOM     13  C   UNL     1     122.355 177.775 126.448  1.00  0.00    -0.003 C 
ATOM     14  C   UNL     1     121.925 178.897 127.389  1.00  0.00     0.004 C 
ENDBRANCH  12  13
ENDBRANCH  11  12
ENDBRANCH  10  11
ENDBRANCH   9  10
ENDBRANCH   1   9
TORSDOF 10
ENDMDL
MODEL 9
REMARK VINA RESULT:    -4.454      1.931      3.382
REMARK INTER + INTRA:          -8.214
REMARK INTER:                  -6.482
REMARK INTRA:                  -1.732
REMARK UNBOUND:                -1.157
REMARK SMILES CCCCCCCCCCCC(=O)[O-]
REMARK SMILES IDX 7 1 8 2 9 3 10 4 11 5 12 6 13 7 14 8 6 9 5 10 4 11 3 12 2 13
REMARK SMILES IDX 1 14
REMARK H PARENT
REMARK Flexibility Score: inf
ROOT
ATOM      1  C   UNL     1     120.630 178.543 126.802  1.00  0.00     0.000 C 
ENDROOT
BRANCH   1   2
ATOM      2  C   UNL     1     119.297 178.948 126.146  1.00  0.00     0.000 C 
BRANCH   2   3
ATOM      3  C   UNL     1     119.010 178.273 124.792  1.00  0.00     0.000 C 
BRANCH   3   4
ATOM      4  C   UNL     1     117.550 177.809 124.651  1.00  0.00     0.006 C 
BRANCH   4   5
ATOM      5  C   UNL     1     116.675 178.283 125.820  1.00  0.00     0.053 C 
BRANCH   5   6
ATOM      6  C   UNL     1     115.516 177.365 126.059  1.00  0.00     0.041 C 
ATOM      7  O   UNL     1     115.644 176.126 125.877  1.00  0.00    -0.550 OA
ATOM      8  O   UNL     1     114.304 177.873 126.508  1.00  0.00    -0.550 OA
ENDBRANCH   5   6
ENDBRANCH   4   5
ENDBRANCH   3   4
ENDBRANCH   2   3
ENDBRANCH   1   2
BRANCH   1   9
ATOM      9  C   UNL     1     120.441 177.866 128.170  1.00  0.00     0.000 C 
BRANCH   9  10
ATOM     10  C   UNL     1     118.974 177.858 128.631  1.00  0.00    -0.000 C 
BRANCH  10  11
ATOM     11  C   UNL     1     118.364 176.445 128.627  1.00  0.00    -0.000 C 
BRANCH  11  12
ATOM     12  C   UNL     1     119.320 175.392 128.041  1.00  0.00    -0.000 C 
BRANCH  12  13
ATOM     13  C   UNL     1     118.899 174.926 126.639  1.00  0.00    -0.003 C 
ATOM     14  C   UNL     1     120.107 174.814 125.713  1.00  0.00     0.004 C 
ENDBRANCH  12  13
ENDBRANCH  11  12
ENDBRANCH  10  11
ENDBRANCH   9  10
ENDBRANCH   1   9
TORSDOF 10
ENDMDL
