MODEL 1
REMARK VINA RESULT:    -5.003      0.000      0.000
REMARK INTER + INTRA:          -8.400
REMARK INTER:                  -7.051
REMARK INTRA:                  -1.350
REMARK UNBOUND:                -1.350
REMARK SMILES COc1c(O[C@@H]2O[C@@H](C(=O)[O-])[C@H](O)[C@@H](O)[C@H]2O)cc(O)c2c(=O)cc(-c3ccccc3)oc12
REMARK SMILES IDX 5 1 6 2 8 3 12 4 7 5 14 6 16 7 9 8 10 9 11 10 13 11 15 13
REMARK SMILES IDX 17 15 4 17 3 18 18 19 33 20 19 21 21 22 32 23 22 24 25 25
REMARK SMILES IDX 24 26 23 27 2 28 1 29 20 30 26 32 27 33 31 34 28 35 30 36
REMARK SMILES IDX 29 37
REMARK H PARENT 13 12 15 14 17 16 20 31
REMARK Flexibility Score: inf
ROOT
ATOM      1  O   UNL     1      -9.608  -7.048  12.972  1.00  0.00    -0.458 OA
ENDROOT
BRANCH   1   2
ATOM      2  C   UNL     1      -9.246  -6.906  14.364  1.00  0.00     0.339 C 
ATOM      3  C   UNL     1      -7.093  -6.236  13.659  1.00  0.00     0.199 C 
ATOM      4  C   UNL     1      -6.515  -7.702  13.825  1.00  0.00     0.180 C 
ATOM      5  O   UNL     1      -8.232  -5.928  14.485  1.00  0.00    -0.328 OA
ATOM      6  C   UNL     1      -7.582  -8.786  14.151  1.00  0.00     0.181 C 
ATOM      7  C   UNL     1      -8.725  -8.212  15.014  1.00  0.00     0.214 C 
BRANCH   3   8
ATOM      8  C   UNL     1      -6.040  -5.188  14.019  1.00  0.00     0.073 C 
ATOM      9  O   UNL     1      -4.850  -5.312  13.602  1.00  0.00    -0.547 OA
ATOM     10  O   UNL     1      -6.309  -4.195  14.971  1.00  0.00    -0.547 OA
ENDBRANCH   3   8
BRANCH   4  11
ATOM     11  O   UNL     1      -5.802  -8.043  12.654  1.00  0.00    -0.387 OA
ATOM     12  H   UNL     1      -5.770  -9.036  12.629  1.00  0.00     0.211 HD
ENDBRANCH   4  11
BRANCH   6  13
ATOM     13  O   UNL     1      -7.008  -9.924  14.752  1.00  0.00    -0.387 OA
ATOM     14  H   UNL     1      -7.037 -10.677  14.092  1.00  0.00     0.211 HD
ENDBRANCH   6  13
BRANCH   7  15
ATOM     15  O   UNL     1      -8.256  -7.949  16.312  1.00  0.00    -0.384 OA
ATOM     16  H   UNL     1      -7.280  -8.097  16.336  1.00  0.00     0.211 HD
ENDBRANCH   7  15
ENDBRANCH   1   2
BRANCH   1  17
ATOM     17  C   UNL     1     -10.176  -8.157  12.339  1.00  0.00     0.172 A 
ATOM     18  C   UNL     1      -9.535  -8.646  11.200  1.00  0.00     0.205 A 
ATOM     19  C   UNL     1     -11.333  -8.785  12.818  1.00  0.00     0.097 A 
ATOM     20  C   UNL     1     -10.096  -9.704  10.463  1.00  0.00     0.188 A 
ATOM     21  C   UNL     1     -11.877  -9.880  12.150  1.00  0.00     0.134 A 
ATOM     22  C   UNL     1     -11.302 -10.328  10.925  1.00  0.00     0.111 A 
ATOM     23  O   UNL     1      -9.532 -10.116   9.331  1.00  0.00    -0.452 OA
ATOM     24  C   UNL     1     -11.864 -11.324  10.098  1.00  0.00     0.197 A 
ATOM     25  C   UNL     1     -10.019 -11.085   8.562  1.00  0.00     0.138 A 
ATOM     26  C   UNL     1     -11.213 -11.720   8.942  1.00  0.00     0.100 A 
ATOM     27  O   UNL     1     -12.980 -11.860  10.360  1.00  0.00    -0.289 OA
BRANCH  18  28
ATOM     28  O   UNL     1      -8.320  -8.004  10.875  1.00  0.00    -0.490 OA
ATOM     29  C   UNL     1      -8.136  -6.983   9.875  1.00  0.00     0.278 C 
ENDBRANCH  18  28
BRANCH  21  30
ATOM     30  O   UNL     1     -12.979 -10.506  12.750  1.00  0.00    -0.507 OA
ATOM     31  H   UNL     1     -13.899 -10.499  12.338  1.00  0.00     0.293 HD
ENDBRANCH  21  30
BRANCH  25  32
ATOM     32  C   UNL     1      -9.323 -11.449   7.302  1.00  0.00     0.017 A 
ATOM     33  C   UNL     1      -9.468 -12.721   6.701  1.00  0.00     0.012 A 
ATOM     34  C   UNL     1      -8.503 -10.494   6.675  1.00  0.00     0.012 A 
ATOM     35  C   UNL     1      -8.841 -13.013   5.485  1.00  0.00     0.001 A 
ATOM     36  C   UNL     1      -7.860 -10.800   5.473  1.00  0.00     0.001 A 
ATOM     37  C   UNL     1      -8.031 -12.052   4.875  1.00  0.00     0.000 A 
ENDBRANCH  25  32
ENDBRANCH   1  17
TORSDOF 9
ENDMDL
MODEL 2
REMARK VINA RESULT:    -4.839      0.918      1.257
REMARK INTER + INTRA:          -8.169
REMARK INTER:                  -6.811
REMARK INTRA:                  -1.358
REMARK UNBOUND:                -1.350
REMARK SMILES COc1c(O[C@@H]2O[C@@H](C(=O)[O-])[C@H](O)[C@@H](O)[C@H]2O)cc(O)c2c(=O)cc(-c3ccccc3)oc12
REMARK SMILES IDX 5 1 6 2 8 3 12 4 7 5 14 6 16 7 9 8 10 9 11 10 13 11 15 13
REMARK SMILES IDX 17 15 4 17 3 18 18 19 33 20 19 21 21 22 32 23 22 24 25 25
REMARK SMILES IDX 24 26 23 27 2 28 1 29 20 30 26 32 27 33 31 34 28 35 30 36
REMARK SMILES IDX 29 37
REMARK H PARENT 13 12 15 14 17 16 20 31
REMARK Flexibility Score: inf
ROOT
ATOM      1  O   UNL     1      -8.755  -6.942  13.650  1.00  0.00    -0.458 OA
ENDROOT
BRANCH   1   2
ATOM      2  C   UNL     1      -8.305  -6.934  15.023  1.00  0.00     0.339 C 
ATOM      3  C   UNL     1      -6.131  -6.454  14.230  1.00  0.00     0.199 C 
ATOM      4  C   UNL     1      -5.712  -7.982  14.272  1.00  0.00     0.180 C 
ATOM      5  O   UNL     1      -7.183  -6.081  15.142  1.00  0.00    -0.328 OA
ATOM      6  C   UNL     1      -6.874  -8.964  14.596  1.00  0.00     0.181 C 
ATOM      7  C   UNL     1      -7.898  -8.329  15.560  1.00  0.00     0.214 C 
BRANCH   3   8
ATOM      8  C   UNL     1      -4.950  -5.553  14.589  1.00  0.00     0.073 C 
ATOM      9  O   UNL     1      -3.763  -5.973  14.451  1.00  0.00    -0.547 OA
ATOM     10  O   UNL     1      -5.149  -4.338  15.261  1.00  0.00    -0.547 OA
ENDBRANCH   3   8
BRANCH   4  11
ATOM     11  O   UNL     1      -5.106  -8.318  13.041  1.00  0.00    -0.387 OA
ATOM     12  H   UNL     1      -5.359  -7.599  12.403  1.00  0.00     0.211 HD
ENDBRANCH   4  11
BRANCH   6  13
ATOM     13  O   UNL     1      -6.399 -10.195  15.091  1.00  0.00    -0.387 OA
ATOM     14  H   UNL     1      -7.184 -10.801  15.229  1.00  0.00     0.211 HD
ENDBRANCH   6  13
BRANCH   7  15
ATOM     15  O   UNL     1      -7.333  -8.206  16.841  1.00  0.00    -0.384 OA
ATOM     16  H   UNL     1      -6.621  -7.523  16.813  1.00  0.00     0.211 HD
ENDBRANCH   7  15
ENDBRANCH   1   2
BRANCH   1  17
ATOM     17  C   UNL     1      -9.498  -7.927  12.994  1.00  0.00     0.172 A 
ATOM     18  C   UNL     1      -8.987  -8.429  11.797  1.00  0.00     0.205 A 
ATOM     19  C   UNL     1     -10.705  -8.422  13.505  1.00  0.00     0.097 A 
ATOM     20  C   UNL     1      -9.723  -9.357  11.039  1.00  0.00     0.188 A 
ATOM     21  C   UNL     1     -11.424  -9.394  12.813  1.00  0.00     0.134 A 
ATOM     22  C   UNL     1     -10.977  -9.841  11.536  1.00  0.00     0.111 A 
ATOM     23  O   UNL     1      -9.277  -9.773   9.857  1.00  0.00    -0.452 OA
ATOM     24  C   UNL     1     -11.710 -10.703  10.692  1.00  0.00     0.197 A 
ATOM     25  C   UNL     1      -9.928 -10.621   9.068  1.00  0.00     0.138 A 
ATOM     26  C   UNL     1     -11.177 -11.113   9.482  1.00  0.00     0.100 A 
ATOM     27  O   UNL     1     -12.874 -11.101  10.989  1.00  0.00    -0.289 OA
BRANCH  18  28
ATOM     28  O   UNL     1      -7.714  -7.935  11.436  1.00  0.00    -0.490 OA
ATOM     29  C   UNL     1      -7.442  -6.893  10.479  1.00  0.00     0.278 C 
ENDBRANCH  18  28
BRANCH  21  30
ATOM     30  O   UNL     1     -12.571  -9.902  13.442  1.00  0.00    -0.507 OA
ATOM     31  H   UNL     1     -12.837 -10.872  13.385  1.00  0.00     0.293 HD
ENDBRANCH  21  30
BRANCH  25  32
ATOM     32  C   UNL     1      -9.352 -10.999   7.752  1.00  0.00     0.017 A 
ATOM     33  C   UNL     1      -8.523 -10.123   7.013  1.00  0.00     0.012 A 
ATOM     34  C   UNL     1      -9.626 -12.275   7.228  1.00  0.00     0.012 A 
ATOM     35  C   UNL     1      -7.952 -10.530   5.802  1.00  0.00     0.001 A 
ATOM     36  C   UNL     1      -9.071 -12.666   6.007  1.00  0.00     0.001 A 
ATOM     37  C   UNL     1      -8.233 -11.801   5.297  1.00  0.00     0.000 A 
ENDBRANCH  25  32
ENDBRANCH   1  17
TORSDOF 9
ENDMDL
MODEL 3
REMARK VINA RESULT:    -4.832      2.411      4.641
REMARK INTER + INTRA:          -8.158
REMARK INTER:                  -6.869
REMARK INTRA:                  -1.290
REMARK UNBOUND:                -1.350
REMARK SMILES COc1c(O[C@@H]2O[C@@H](C(=O)[O-])[C@H](O)[C@@H](O)[C@H]2O)cc(O)c2c(=O)cc(-c3ccccc3)oc12
REMARK SMILES IDX 5 1 6 2 8 3 12 4 7 5 14 6 16 7 9 8 10 9 11 10 13 11 15 13
REMARK SMILES IDX 17 15 4 17 3 18 18 19 33 20 19 21 21 22 32 23 22 24 25 25
REMARK SMILES IDX 24 26 23 27 2 28 1 29 20 30 26 32 27 33 31 34 28 35 30 36
REMARK SMILES IDX 29 37
REMARK H PARENT 13 12 15 14 17 16 20 31
REMARK Flexibility Score: inf
ROOT
ATOM      1  O   UNL     1      -7.838  -8.703  12.813  1.00  0.00    -0.458 OA
ENDROOT
BRANCH   1   2
ATOM      2  C   UNL     1      -7.608  -7.328  13.193  1.00  0.00     0.339 C 
ATOM      3  C   UNL     1      -5.352  -7.604  12.549  1.00  0.00     0.199 C 
ATOM      4  C   UNL     1      -4.902  -7.921  14.035  1.00  0.00     0.180 C 
ATOM      5  O   UNL     1      -6.543  -6.803  12.426  1.00  0.00    -0.328 OA
ATOM      6  C   UNL     1      -6.073  -8.068  15.049  1.00  0.00     0.181 C 
ATOM      7  C   UNL     1      -7.252  -7.140  14.689  1.00  0.00     0.214 C 
BRANCH   3   8
ATOM      8  C   UNL     1      -4.267  -6.829  11.802  1.00  0.00     0.073 C 
ATOM      9  O   UNL     1      -4.575  -6.083  10.825  1.00  0.00    -0.547 OA
ATOM     10  O   UNL     1      -2.909  -7.078  12.044  1.00  0.00    -0.547 OA
ENDBRANCH   3   8
BRANCH   4  11
ATOM     11  O   UNL     1      -4.102  -9.084  14.028  1.00  0.00    -0.387 OA
ATOM     12  H   UNL     1      -4.023  -9.372  14.976  1.00  0.00     0.211 HD
ENDBRANCH   4  11
BRANCH   6  13
ATOM     13  O   UNL     1      -5.646  -7.864  16.377  1.00  0.00    -0.387 OA
ATOM     14  H   UNL     1      -5.980  -6.969  16.680  1.00  0.00     0.211 HD
ENDBRANCH   6  13
BRANCH   7  15
ATOM     15  O   UNL     1      -6.898  -5.803  14.935  1.00  0.00    -0.384 OA
ATOM     16  H   UNL     1      -5.930  -5.693  14.777  1.00  0.00     0.211 HD
ENDBRANCH   7  15
ENDBRANCH   1   2
BRANCH   1  17
ATOM     17  C   UNL     1      -8.634  -9.187  11.772  1.00  0.00     0.172 A 
ATOM     18  C   UNL     1      -9.791  -9.885  12.118  1.00  0.00     0.205 A 
ATOM     19  C   UNL     1      -8.316  -8.977  10.423  1.00  0.00     0.097 A 
ATOM     20  C   UNL     1     -10.594 -10.475  11.124  1.00  0.00     0.188 A 
ATOM     21  C   UNL     1      -9.129  -9.488   9.414  1.00  0.00     0.134 A 
ATOM     22  C   UNL     1     -10.255 -10.297   9.743  1.00  0.00     0.111 A 
ATOM     23  O   UNL     1     -11.650 -11.212  11.455  1.00  0.00    -0.452 OA
ATOM     24  C   UNL     1     -11.046 -10.985   8.797  1.00  0.00     0.197 A 
ATOM     25  C   UNL     1     -12.437 -11.828  10.578  1.00  0.00     0.138 A 
ATOM     26  C   UNL     1     -12.145 -11.719   9.209  1.00  0.00     0.100 A 
ATOM     27  O   UNL     1     -10.767 -10.982   7.562  1.00  0.00    -0.289 OA
BRANCH  18  28
ATOM     28  O   UNL     1     -10.066  -9.940  13.501  1.00  0.00    -0.490 OA
ATOM     29  C   UNL     1     -10.979  -9.093  14.225  1.00  0.00     0.278 C 
ENDBRANCH  18  28
BRANCH  21  30
ATOM     30  O   UNL     1      -8.790  -9.151   8.095  1.00  0.00    -0.507 OA
ATOM     31  H   UNL     1      -9.427  -8.678   7.474  1.00  0.00     0.293 HD
ENDBRANCH  21  30
BRANCH  25  32
ATOM     32  C   UNL     1     -13.576 -12.651  11.058  1.00  0.00     0.017 A 
ATOM     33  C   UNL     1     -14.319 -12.310  12.212  1.00  0.00     0.012 A 
ATOM     34  C   UNL     1     -13.940 -13.801  10.334  1.00  0.00     0.012 A 
ATOM     35  C   UNL     1     -15.421 -13.077  12.606  1.00  0.00     0.001 A 
ATOM     36  C   UNL     1     -15.027 -14.576  10.747  1.00  0.00     0.001 A 
ATOM     37  C   UNL     1     -15.769 -14.215  11.875  1.00  0.00     0.000 A 
ENDBRANCH  25  32
ENDBRANCH   1  17
TORSDOF 9
ENDMDL
MODEL 4
REMARK VINA RESULT:    -4.761      2.371      4.701
REMARK INTER + INTRA:          -8.059
REMARK INTER:                  -6.771
REMARK INTRA:                  -1.288
REMARK UNBOUND:                -1.350
REMARK SMILES COc1c(O[C@@H]2O[C@@H](C(=O)[O-])[C@H](O)[C@@H](O)[C@H]2O)cc(O)c2c(=O)cc(-c3ccccc3)oc12
REMARK SMILES IDX 5 1 6 2 8 3 12 4 7 5 14 6 16 7 9 8 10 9 11 10 13 11 15 13
REMARK SMILES IDX 17 15 4 17 3 18 18 19 33 20 19 21 21 22 32 23 22 24 25 25
REMARK SMILES IDX 24 26 23 27 2 28 1 29 20 30 26 32 27 33 31 34 28 35 30 36
REMARK SMILES IDX 29 37
REMARK H PARENT 13 12 15 14 17 16 20 31
REMARK Flexibility Score: inf
ROOT
ATOM      1  O   UNL     1      -7.889  -8.768  13.136  1.00  0.00    -0.458 OA
ENDROOT
BRANCH   1   2
ATOM      2  C   UNL     1      -7.331  -7.453  13.357  1.00  0.00     0.339 C 
ATOM      3  C   UNL     1      -5.528  -8.487  14.480  1.00  0.00     0.199 C 
ATOM      4  C   UNL     1      -6.202  -8.263  15.898  1.00  0.00     0.180 C 
ATOM      5  O   UNL     1      -5.924  -7.553  13.458  1.00  0.00    -0.328 OA
ATOM      6  C   UNL     1      -7.653  -7.704  15.844  1.00  0.00     0.181 C 
ATOM      7  C   UNL     1      -7.850  -6.758  14.641  1.00  0.00     0.214 C 
BRANCH   3   8
ATOM      8  C   UNL     1      -4.008  -8.362  14.572  1.00  0.00     0.073 C 
ATOM      9  O   UNL     1      -3.310  -8.282  13.517  1.00  0.00    -0.547 OA
ATOM     10  O   UNL     1      -3.343  -8.536  15.794  1.00  0.00    -0.547 OA
ENDBRANCH   3   8
BRANCH   4  11
ATOM     11  O   UNL     1      -6.164  -9.479  16.614  1.00  0.00    -0.387 OA
ATOM     12  H   UNL     1      -7.102  -9.806  16.654  1.00  0.00     0.211 HD
ENDBRANCH   4  11
BRANCH   6  13
ATOM     13  O   UNL     1      -8.021  -7.080  17.053  1.00  0.00    -0.387 OA
ATOM     14  H   UNL     1      -8.819  -6.501  16.877  1.00  0.00     0.211 HD
ENDBRANCH   6  13
BRANCH   7  15
ATOM     15  O   UNL     1      -7.147  -5.560  14.857  1.00  0.00    -0.384 OA
ATOM     16  H   UNL     1      -6.186  -5.764  14.946  1.00  0.00     0.211 HD
ENDBRANCH   7  15
ENDBRANCH   1   2
BRANCH   1  17
ATOM     17  C   UNL     1      -8.646  -9.209  12.048  1.00  0.00     0.172 A 
ATOM     18  C   UNL     1      -9.820  -9.912  12.324  1.00  0.00     0.205 A 
ATOM     19  C   UNL     1      -8.275  -8.955  10.721  1.00  0.00     0.097 A 
ATOM     20  C   UNL     1     -10.586 -10.461  11.281  1.00  0.00     0.188 A 
ATOM     21  C   UNL     1      -9.050  -9.426   9.664  1.00  0.00     0.134 A 
ATOM     22  C   UNL     1     -10.192 -10.238   9.920  1.00  0.00     0.111 A 
ATOM     23  O   UNL     1     -11.659 -11.202  11.544  1.00  0.00    -0.452 OA
ATOM     24  C   UNL     1     -10.950 -10.887   8.921  1.00  0.00     0.197 A 
ATOM     25  C   UNL     1     -12.413 -11.782  10.616  1.00  0.00     0.138 A 
ATOM     26  C   UNL     1     -12.068 -11.628   9.264  1.00  0.00     0.100 A 
ATOM     27  O   UNL     1     -10.623 -10.843   7.699  1.00  0.00    -0.289 OA
BRANCH  18  28
ATOM     28  O   UNL     1     -10.149 -10.013  13.693  1.00  0.00    -0.490 OA
ATOM     29  C   UNL     1     -11.080  -9.180  14.412  1.00  0.00     0.278 C 
ENDBRANCH  18  28
BRANCH  21  30
ATOM     30  O   UNL     1      -8.658  -9.045   8.372  1.00  0.00    -0.507 OA
ATOM     31  H   UNL     1      -8.003  -8.300   8.200  1.00  0.00     0.293 HD
ENDBRANCH  21  30
BRANCH  25  32
ATOM     32  C   UNL     1     -13.575 -12.614  11.022  1.00  0.00     0.017 A 
ATOM     33  C   UNL     1     -13.948 -13.782  10.319  1.00  0.00     0.012 A 
ATOM     34  C   UNL     1     -14.324 -12.235  12.151  1.00  0.00     0.012 A 
ATOM     35  C   UNL     1     -15.016 -14.572  10.760  1.00  0.00     0.001 A 
ATOM     36  C   UNL     1     -15.403 -13.016  12.572  1.00  0.00     0.001 A 
ATOM     37  C   UNL     1     -15.747 -14.183  11.883  1.00  0.00     0.000 A 
ENDBRANCH  25  32
ENDBRANCH   1  17
TORSDOF 9
ENDMDL
MODEL 5
REMARK VINA RESULT:    -4.516      4.441      6.298
REMARK INTER + INTRA:          -7.714
REMARK INTER:                  -6.575
REMARK INTRA:                  -1.139
REMARK UNBOUND:                -1.350
REMARK SMILES COc1c(O[C@@H]2O[C@@H](C(=O)[O-])[C@H](O)[C@@H](O)[C@H]2O)cc(O)c2c(=O)cc(-c3ccccc3)oc12
REMARK SMILES IDX 5 1 6 2 8 3 12 4 7 5 14 6 16 7 9 8 10 9 11 10 13 11 15 13
REMARK SMILES IDX 17 15 4 17 3 18 18 19 33 20 19 21 21 22 32 23 22 24 25 25
REMARK SMILES IDX 24 26 23 27 2 28 1 29 20 30 26 32 27 33 31 34 28 35 30 36
REMARK SMILES IDX 29 37
REMARK H PARENT 13 12 15 14 17 16 20 31
REMARK Flexibility Score: inf
ROOT
ATOM      1  O   UNL     1      -7.199  -8.027  11.249  1.00  0.00    -0.458 OA
ENDROOT
BRANCH   1   2
ATOM      2  C   UNL     1      -8.464  -7.493  11.700  1.00  0.00     0.339 C 
ATOM      3  C   UNL     1      -7.704  -7.770  13.920  1.00  0.00     0.199 C 
ATOM      4  C   UNL     1      -8.430  -9.171  14.060  1.00  0.00     0.180 C 
ATOM      5  O   UNL     1      -8.286  -6.870  12.957  1.00  0.00    -0.328 OA
ATOM      6  C   UNL     1      -9.060  -9.709  12.742  1.00  0.00     0.181 C 
ATOM      7  C   UNL     1      -9.578  -8.559  11.853  1.00  0.00     0.214 C 
BRANCH   3   8
ATOM      8  C   UNL     1      -7.725  -7.009  15.245  1.00  0.00     0.073 C 
ATOM      9  O   UNL     1      -7.942  -7.625  16.331  1.00  0.00    -0.547 OA
ATOM     10  O   UNL     1      -7.709  -5.607  15.271  1.00  0.00    -0.547 OA
ENDBRANCH   3   8
BRANCH   4  11
ATOM     11  O   UNL     1      -7.513 -10.106  14.590  1.00  0.00    -0.387 OA
ATOM     12  H   UNL     1      -7.219 -10.669  13.824  1.00  0.00     0.211 HD
ENDBRANCH   4  11
BRANCH   6  13
ATOM     13  O   UNL     1     -10.070 -10.659  12.992  1.00  0.00    -0.387 OA
ATOM     14  H   UNL     1     -10.929 -10.312  12.609  1.00  0.00     0.211 HD
ENDBRANCH   6  13
BRANCH   7  15
ATOM     15  O   UNL     1     -10.718  -7.982  12.438  1.00  0.00    -0.384 OA
ATOM     16  H   UNL     1     -10.468  -7.585  13.306  1.00  0.00     0.211 HD
ENDBRANCH   7  15
ENDBRANCH   1   2
BRANCH   1  17
ATOM     17  C   UNL     1      -6.755  -8.191   9.934  1.00  0.00     0.172 A 
ATOM     18  C   UNL     1      -5.381  -8.100   9.704  1.00  0.00     0.205 A 
ATOM     19  C   UNL     1      -7.629  -8.456   8.872  1.00  0.00     0.097 A 
ATOM     20  C   UNL     1      -4.870  -8.168   8.395  1.00  0.00     0.188 A 
ATOM     21  C   UNL     1      -7.147  -8.598   7.573  1.00  0.00     0.134 A 
ATOM     22  C   UNL     1      -5.763  -8.401   7.298  1.00  0.00     0.111 A 
ATOM     23  O   UNL     1      -3.572  -7.997   8.164  1.00  0.00    -0.452 OA
ATOM     24  C   UNL     1      -5.204  -8.371   6.002  1.00  0.00     0.197 A 
ATOM     25  C   UNL     1      -3.018  -8.014   6.956  1.00  0.00     0.138 A 
ATOM     26  C   UNL     1      -3.840  -8.209   5.834  1.00  0.00     0.100 A 
ATOM     27  O   UNL     1      -5.921  -8.458   4.962  1.00  0.00    -0.289 OA
BRANCH  18  28
ATOM     28  O   UNL     1      -4.589  -7.940  10.862  1.00  0.00    -0.490 OA
ATOM     29  C   UNL     1      -3.969  -6.720  11.310  1.00  0.00     0.278 C 
ENDBRANCH  18  28
BRANCH  21  30
ATOM     30  O   UNL     1      -8.079  -8.956   6.587  1.00  0.00    -0.507 OA
ATOM     31  H   UNL     1      -8.125  -9.882   6.193  1.00  0.00     0.293 HD
ENDBRANCH  21  30
BRANCH  25  32
ATOM     32  C   UNL     1      -1.558  -7.784   6.809  1.00  0.00     0.017 A 
ATOM     33  C   UNL     1      -0.797  -8.405   5.791  1.00  0.00     0.012 A 
ATOM     34  C   UNL     1      -0.911  -6.911   7.701  1.00  0.00     0.012 A 
ATOM     35  C   UNL     1       0.567  -8.125   5.647  1.00  0.00     0.001 A 
ATOM     36  C   UNL     1       0.456  -6.654   7.565  1.00  0.00     0.001 A 
ATOM     37  C   UNL     1       1.193  -7.254   6.540  1.00  0.00     0.000 A 
ENDBRANCH  25  32
ENDBRANCH   1  17
TORSDOF 9
ENDMDL
MODEL 6
REMARK VINA RESULT:    -4.514      2.683      5.366
REMARK INTER + INTRA:          -7.711
REMARK INTER:                  -6.635
REMARK INTRA:                  -1.076
REMARK UNBOUND:                -1.350
REMARK SMILES COc1c(O[C@@H]2O[C@@H](C(=O)[O-])[C@H](O)[C@@H](O)[C@H]2O)cc(O)c2c(=O)cc(-c3ccccc3)oc12
REMARK SMILES IDX 5 1 6 2 8 3 12 4 7 5 14 6 16 7 9 8 10 9 11 10 13 11 15 13
REMARK SMILES IDX 17 15 4 17 3 18 18 19 33 20 19 21 21 22 32 23 22 24 25 25
REMARK SMILES IDX 24 26 23 27 2 28 1 29 20 30 26 32 27 33 31 34 28 35 30 36
REMARK SMILES IDX 29 37
REMARK H PARENT 13 12 15 14 17 16 20 31
REMARK Flexibility Score: inf
ROOT
ATOM      1  O   UNL     1      -7.166  -7.812  10.596  1.00  0.00    -0.458 OA
ENDROOT
BRANCH   1   2
ATOM      2  C   UNL     1      -6.285  -6.758  10.146  1.00  0.00     0.339 C 
ATOM      3  C   UNL     1      -4.471  -8.236  10.472  1.00  0.00     0.199 C 
ATOM      4  C   UNL     1      -4.172  -7.649  11.914  1.00  0.00     0.180 C 
ATOM      5  O   UNL     1      -5.130  -7.330   9.566  1.00  0.00    -0.328 OA
ATOM      6  C   UNL     1      -5.228  -6.629  12.430  1.00  0.00     0.181 C 
ATOM      7  C   UNL     1      -5.825  -5.800  11.274  1.00  0.00     0.214 C 
BRANCH   3   8
ATOM      8  C   UNL     1      -3.176  -8.638   9.767  1.00  0.00     0.073 C 
ATOM      9  O   UNL     1      -3.211  -9.111   8.592  1.00  0.00    -0.547 OA
ATOM     10  O   UNL     1      -1.961  -8.687  10.465  1.00  0.00    -0.547 OA
ENDBRANCH   3   8
BRANCH   4  11
ATOM     11  O   UNL     1      -4.036  -8.724  12.820  1.00  0.00    -0.387 OA
ATOM     12  H   UNL     1      -3.142  -8.618  13.243  1.00  0.00     0.211 HD
ENDBRANCH   4  11
BRANCH   6  13
ATOM     13  O   UNL     1      -4.705  -5.798  13.441  1.00  0.00    -0.387 OA
ATOM     14  H   UNL     1      -4.713  -4.854  13.106  1.00  0.00     0.211 HD
ENDBRANCH   6  13
BRANCH   7  15
ATOM     15  O   UNL     1      -4.859  -4.906  10.781  1.00  0.00    -0.384 OA
ATOM     16  H   UNL     1      -4.651  -4.242  11.481  1.00  0.00     0.211 HD
ENDBRANCH   7  15
ENDBRANCH   1   2
BRANCH   1  17
ATOM     17  C   UNL     1      -8.028  -8.599   9.827  1.00  0.00     0.172 A 
ATOM     18  C   UNL     1      -9.156  -9.123  10.460  1.00  0.00     0.205 A 
ATOM     19  C   UNL     1      -7.803  -8.854   8.468  1.00  0.00     0.097 A 
ATOM     20  C   UNL     1     -10.020  -9.995   9.773  1.00  0.00     0.188 A 
ATOM     21  C   UNL     1      -8.678  -9.656   7.740  1.00  0.00     0.134 A 
ATOM     22  C   UNL     1      -9.776 -10.290   8.391  1.00  0.00     0.111 A 
ATOM     23  O   UNL     1     -11.048 -10.562  10.397  1.00  0.00    -0.452 OA
ATOM     24  C   UNL     1     -10.625 -11.238   7.781  1.00  0.00     0.197 A 
ATOM     25  C   UNL     1     -11.889 -11.420   9.827  1.00  0.00     0.138 A 
ATOM     26  C   UNL     1     -11.690 -11.776   8.483  1.00  0.00     0.100 A 
ATOM     27  O   UNL     1     -10.430 -11.649   6.600  1.00  0.00    -0.289 OA
BRANCH  18  28
ATOM     28  O   UNL     1      -9.337  -8.712  11.798  1.00  0.00    -0.490 OA
ATOM     29  C   UNL     1      -9.123  -9.516  12.975  1.00  0.00     0.278 C 
ENDBRANCH  18  28
BRANCH  21  30
ATOM     30  O   UNL     1      -8.430  -9.780   6.365  1.00  0.00    -0.507 OA
ATOM     31  H   UNL     1      -7.525 -10.024   5.996  1.00  0.00     0.293 HD
ENDBRANCH  21  30
BRANCH  25  32
ATOM     32  C   UNL     1     -12.990 -12.017  10.626  1.00  0.00     0.017 A 
ATOM     33  C   UNL     1     -13.526 -11.377  11.767  1.00  0.00     0.012 A 
ATOM     34  C   UNL     1     -13.527 -13.254  10.228  1.00  0.00     0.012 A 
ATOM     35  C   UNL     1     -14.599 -11.941  12.465  1.00  0.00     0.001 A 
ATOM     36  C   UNL     1     -14.584 -13.823  10.944  1.00  0.00     0.001 A 
ATOM     37  C   UNL     1     -15.122 -13.169  12.056  1.00  0.00     0.000 A 
ENDBRANCH  25  32
ENDBRANCH   1  17
TORSDOF 9
ENDMDL
MODEL 7
REMARK VINA RESULT:    -4.369      2.721      7.237
REMARK INTER + INTRA:          -7.506
REMARK INTER:                  -6.206
REMARK INTRA:                  -1.300
REMARK UNBOUND:                -1.350
REMARK SMILES COc1c(O[C@@H]2O[C@@H](C(=O)[O-])[C@H](O)[C@@H](O)[C@H]2O)cc(O)c2c(=O)cc(-c3ccccc3)oc12
REMARK SMILES IDX 5 1 6 2 8 3 12 4 7 5 14 6 16 7 9 8 10 9 11 10 13 11 15 13
REMARK SMILES IDX 17 15 4 17 3 18 18 19 33 20 19 21 21 22 32 23 22 24 25 25
REMARK SMILES IDX 24 26 23 27 2 28 1 29 20 30 26 32 27 33 31 34 28 35 30 36
REMARK SMILES IDX 29 37
REMARK H PARENT 13 12 15 14 17 16 20 31
REMARK Flexibility Score: inf
ROOT
ATOM      1  O   UNL     1     -12.154 -10.665  11.305  1.00  0.00    -0.458 OA
ENDROOT
BRANCH   1   2
ATOM      2  C   UNL     1     -13.515 -10.254  11.046  1.00  0.00     0.339 C 
ATOM      3  C   UNL     1     -14.222 -12.377  11.805  1.00  0.00     0.199 C 
ATOM      4  C   UNL     1     -14.286 -12.952  10.329  1.00  0.00     0.180 C 
ATOM      5  O   UNL     1     -14.386 -10.950  11.915  1.00  0.00    -0.328 OA
ATOM      6  C   UNL     1     -13.725 -11.996   9.237  1.00  0.00     0.181 C 
ATOM      7  C   UNL     1     -13.984 -10.517   9.594  1.00  0.00     0.214 C 
BRANCH   3   8
ATOM      8  C   UNL     1     -15.327 -12.977  12.674  1.00  0.00     0.073 C 
ATOM      9  O   UNL     1     -16.123 -13.835  12.189  1.00  0.00    -0.547 OA
ATOM     10  O   UNL     1     -15.611 -12.453  13.942  1.00  0.00    -0.547 OA
ENDBRANCH   3   8
BRANCH   4  11
ATOM     11  O   UNL     1     -13.611 -14.192  10.298  1.00  0.00    -0.387 OA
ATOM     12  H   UNL     1     -14.288 -14.882  10.531  1.00  0.00     0.211 HD
ENDBRANCH   4  11
BRANCH   6  13
ATOM     13  O   UNL     1     -14.225 -12.310   7.958  1.00  0.00    -0.387 OA
ATOM     14  H   UNL     1     -13.463 -12.285   7.308  1.00  0.00     0.211 HD
ENDBRANCH   6  13
BRANCH   7  15
ATOM     15  O   UNL     1     -15.355 -10.232   9.472  1.00  0.00    -0.384 OA
ATOM     16  H   UNL     1     -15.767 -10.249  10.369  1.00  0.00     0.211 HD
ENDBRANCH   7  15
ENDBRANCH   1   2
BRANCH   1  17
ATOM     17  C   UNL     1     -11.056  -9.859  11.620  1.00  0.00     0.172 A 
ATOM     18  C   UNL     1     -10.040  -9.757  10.670  1.00  0.00     0.205 A 
ATOM     19  C   UNL     1     -10.963  -9.155  12.828  1.00  0.00     0.097 A 
ATOM     20  C   UNL     1      -8.867  -9.035  10.953  1.00  0.00     0.188 A 
ATOM     21  C   UNL     1      -9.845  -8.373  13.110  1.00  0.00     0.134 A 
ATOM     22  C   UNL     1      -8.747  -8.341  12.203  1.00  0.00     0.111 A 
ATOM     23  O   UNL     1      -7.861  -9.006  10.083  1.00  0.00    -0.452 OA
ATOM     24  C   UNL     1      -7.513  -7.707  12.466  1.00  0.00     0.197 A 
ATOM     25  C   UNL     1      -6.710  -8.374  10.291  1.00  0.00     0.138 A 
ATOM     26  C   UNL     1      -6.515  -7.698  11.507  1.00  0.00     0.100 A 
ATOM     27  O   UNL     1      -7.267  -7.161  13.580  1.00  0.00    -0.289 OA
BRANCH  18  28
ATOM     28  O   UNL     1     -10.292 -10.421   9.450  1.00  0.00    -0.490 OA
ATOM     29  C   UNL     1     -10.581  -9.799   8.183  1.00  0.00     0.278 C 
ENDBRANCH  18  28
BRANCH  21  30
ATOM     30  O   UNL     1      -9.876  -7.627  14.298  1.00  0.00    -0.507 OA
ATOM     31  H   UNL     1      -9.045  -7.251  14.725  1.00  0.00     0.293 HD
ENDBRANCH  21  30
BRANCH  25  32
ATOM     32  C   UNL     1      -5.640  -8.429   9.262  1.00  0.00     0.017 A 
ATOM     33  C   UNL     1      -4.289  -8.680   9.594  1.00  0.00     0.012 A 
ATOM     34  C   UNL     1      -5.982  -8.239   7.912  1.00  0.00     0.012 A 
ATOM     35  C   UNL     1      -3.314  -8.778   8.594  1.00  0.00     0.001 A 
ATOM     36  C   UNL     1      -5.000  -8.315   6.921  1.00  0.00     0.001 A 
ATOM     37  C   UNL     1      -3.671  -8.588   7.258  1.00  0.00     0.000 A 
ENDBRANCH  25  32
ENDBRANCH   1  17
TORSDOF 9
ENDMDL
MODEL 8
REMARK VINA RESULT:    -4.297      3.289      6.613
REMARK INTER + INTRA:          -7.405
REMARK INTER:                  -6.312
REMARK INTRA:                  -1.093
REMARK UNBOUND:                -1.350
REMARK SMILES COc1c(O[C@@H]2O[C@@H](C(=O)[O-])[C@H](O)[C@@H](O)[C@H]2O)cc(O)c2c(=O)cc(-c3ccccc3)oc12
REMARK SMILES IDX 5 1 6 2 8 3 12 4 7 5 14 6 16 7 9 8 10 9 11 10 13 11 15 13
REMARK SMILES IDX 17 15 4 17 3 18 18 19 33 20 19 21 21 22 32 23 22 24 25 25
REMARK SMILES IDX 24 26 23 27 2 28 1 29 20 30 26 32 27 33 31 34 28 35 30 36
REMARK SMILES IDX 29 37
REMARK H PARENT 13 12 15 14 17 16 20 31
REMARK Flexibility Score: inf
ROOT
ATOM      1  O   UNL     1      -9.028  -8.669  11.955  1.00  0.00    -0.458 OA
ENDROOT
BRANCH   1   2
ATOM      2  C   UNL     1      -9.560  -9.590  12.934  1.00  0.00     0.339 C 
ATOM      3  C   UNL     1     -11.058 -10.366  11.279  1.00  0.00     0.199 C 
ATOM      4  C   UNL     1     -12.214  -9.410  11.789  1.00  0.00     0.180 C 
ATOM      5  O   UNL     1     -10.078 -10.727  12.271  1.00  0.00    -0.328 OA
ATOM      6  C   UNL     1     -11.780  -8.399  12.890  1.00  0.00     0.181 C 
ATOM      7  C   UNL     1     -10.692  -8.995  13.807  1.00  0.00     0.214 C 
BRANCH   3   8
ATOM      8  C   UNL     1     -11.627 -11.692  10.776  1.00  0.00     0.073 C 
ATOM      9  O   UNL     1     -11.110 -12.268   9.772  1.00  0.00    -0.547 OA
ATOM     10  O   UNL     1     -12.839 -12.191  11.274  1.00  0.00    -0.547 OA
ENDBRANCH   3   8
BRANCH   4  11
ATOM     11  O   UNL     1     -12.763  -8.731  10.679  1.00  0.00    -0.387 OA
ATOM     12  H   UNL     1     -12.722  -7.762  10.900  1.00  0.00     0.211 HD
ENDBRANCH   4  11
BRANCH   6  13
ATOM     13  O   UNL     1     -12.880  -7.930  13.635  1.00  0.00    -0.387 OA
ATOM     14  H   UNL     1     -12.614  -7.075  14.085  1.00  0.00     0.211 HD
ENDBRANCH   6  13
BRANCH   7  15
ATOM     15  O   UNL     1     -11.251  -9.996  14.619  1.00  0.00    -0.384 OA
ATOM     16  H   UNL     1     -10.530 -10.432  15.133  1.00  0.00     0.211 HD
ENDBRANCH   7  15
ENDBRANCH   1   2
BRANCH   1  17
ATOM     17  C   UNL     1      -7.708  -8.234  11.812  1.00  0.00     0.172 A 
ATOM     18  C   UNL     1      -7.130  -8.340  10.546  1.00  0.00     0.205 A 
ATOM     19  C   UNL     1      -6.975  -7.691  12.875  1.00  0.00     0.097 A 
ATOM     20  C   UNL     1      -5.780  -8.003  10.347  1.00  0.00     0.188 A 
ATOM     21  C   UNL     1      -5.656  -7.282  12.694  1.00  0.00     0.134 A 
ATOM     22  C   UNL     1      -5.011  -7.482  11.439  1.00  0.00     0.111 A 
ATOM     23  O   UNL     1      -5.203  -8.182   9.161  1.00  0.00    -0.452 OA
ATOM     24  C   UNL     1      -3.640  -7.245  11.201  1.00  0.00     0.197 A 
ATOM     25  C   UNL     1      -3.926  -7.920   8.903  1.00  0.00     0.138 A 
ATOM     26  C   UNL     1      -3.109  -7.434   9.937  1.00  0.00     0.100 A 
ATOM     27  O   UNL     1      -2.852  -6.888  12.125  1.00  0.00    -0.289 OA
BRANCH  18  28
ATOM     28  O   UNL     1      -7.996  -8.798   9.529  1.00  0.00    -0.490 OA
ATOM     29  C   UNL     1      -8.651  -7.986   8.535  1.00  0.00     0.278 C 
ENDBRANCH  18  28
BRANCH  21  30
ATOM     30  O   UNL     1      -5.029  -6.663  13.785  1.00  0.00    -0.507 OA
ATOM     31  H   UNL     1      -4.328  -5.948  13.675  1.00  0.00     0.293 HD
ENDBRANCH  21  30
BRANCH  25  32
ATOM     32  C   UNL     1      -3.376  -8.184   7.549  1.00  0.00     0.017 A 
ATOM     33  C   UNL     1      -4.174  -8.693   6.498  1.00  0.00     0.012 A 
ATOM     34  C   UNL     1      -2.021  -7.907   7.297  1.00  0.00     0.012 A 
ATOM     35  C   UNL     1      -3.638  -8.879   5.219  1.00  0.00     0.001 A 
ATOM     36  C   UNL     1      -1.486  -8.118   6.023  1.00  0.00     0.001 A 
ATOM     37  C   UNL     1      -2.290  -8.597   4.985  1.00  0.00     0.000 A 
ENDBRANCH  25  32
ENDBRANCH   1  17
TORSDOF 9
ENDMDL
MODEL 9
REMARK VINA RESULT:    -4.294      3.552      5.078
REMARK INTER + INTRA:          -7.400
REMARK INTER:                  -5.987
REMARK INTRA:                  -1.413
REMARK UNBOUND:                -1.350
REMARK SMILES COc1c(O[C@@H]2O[C@@H](C(=O)[O-])[C@H](O)[C@@H](O)[C@H]2O)cc(O)c2c(=O)cc(-c3ccccc3)oc12
REMARK SMILES IDX 5 1 6 2 8 3 12 4 7 5 14 6 16 7 9 8 10 9 11 10 13 11 15 13
REMARK SMILES IDX 17 15 4 17 3 18 18 19 33 20 19 21 21 22 32 23 22 24 25 25
REMARK SMILES IDX 24 26 23 27 2 28 1 29 20 30 26 32 27 33 31 34 28 35 30 36
REMARK SMILES IDX 29 37
REMARK H PARENT 13 12 15 14 17 16 20 31
REMARK Flexibility Score: inf
ROOT
ATOM      1  O   UNL     1      -4.409  -5.688   9.750  1.00  0.00    -0.458 OA
ENDROOT
BRANCH   1   2
ATOM      2  C   UNL     1      -3.775  -5.307  10.992  1.00  0.00     0.339 C 
ATOM      3  C   UNL     1      -1.808  -6.368  10.226  1.00  0.00     0.199 C 
ATOM      4  C   UNL     1      -2.154  -7.707  11.001  1.00  0.00     0.180 C 
ATOM      5  O   UNL     1      -2.383  -5.171  10.782  1.00  0.00    -0.328 OA
ATOM      6  C   UNL     1      -3.564  -7.728  11.659  1.00  0.00     0.181 C 
ATOM      7  C   UNL     1      -3.983  -6.323  12.142  1.00  0.00     0.214 C 
BRANCH   3   8
ATOM      8  C   UNL     1      -0.299  -6.121  10.210  1.00  0.00     0.073 C 
ATOM      9  O   UNL     1       0.466  -6.892   9.558  1.00  0.00    -0.547 OA
ATOM     10  O   UNL     1       0.284  -5.176  11.066  1.00  0.00    -0.547 OA
ENDBRANCH   3   8
BRANCH   4  11
ATOM     11  O   UNL     1      -2.003  -8.796  10.115  1.00  0.00    -0.387 OA
ATOM     12  H   UNL     1      -2.800  -8.780   9.520  1.00  0.00     0.211 HD
ENDBRANCH   4  11
BRANCH   6  13
ATOM     13  O   UNL     1      -3.643  -8.673  12.701  1.00  0.00    -0.387 OA
ATOM     14  H   UNL     1      -3.395  -9.570  12.331  1.00  0.00     0.211 HD
ENDBRANCH   6  13
BRANCH   7  15
ATOM     15  O   UNL     1      -3.212  -5.954  13.257  1.00  0.00    -0.384 OA
ATOM     16  H   UNL     1      -3.595  -6.371  14.065  1.00  0.00     0.211 HD
ENDBRANCH   7  15
ENDBRANCH   1   2
BRANCH   1  17
ATOM     17  C   UNL     1      -5.721  -6.129   9.554  1.00  0.00     0.172 A 
ATOM     18  C   UNL     1      -5.898  -7.348   8.899  1.00  0.00     0.205 A 
ATOM     19  C   UNL     1      -6.832  -5.404  10.003  1.00  0.00     0.097 A 
ATOM     20  C   UNL     1      -7.189  -7.812   8.590  1.00  0.00     0.188 A 
ATOM     21  C   UNL     1      -8.125  -5.871   9.775  1.00  0.00     0.134 A 
ATOM     22  C   UNL     1      -8.333  -7.057   9.013  1.00  0.00     0.111 A 
ATOM     23  O   UNL     1      -7.359  -8.931   7.892  1.00  0.00    -0.452 OA
ATOM     24  C   UNL     1      -9.598  -7.527   8.599  1.00  0.00     0.197 A 
ATOM     25  C   UNL     1      -8.543  -9.416   7.533  1.00  0.00     0.138 A 
ATOM     26  C   UNL     1      -9.704  -8.711   7.890  1.00  0.00     0.100 A 
ATOM     27  O   UNL     1     -10.660  -6.878   8.827  1.00  0.00    -0.289 OA
BRANCH  18  28
ATOM     28  O   UNL     1      -4.707  -8.041   8.590  1.00  0.00    -0.490 OA
ATOM     29  C   UNL     1      -4.057  -8.091   7.305  1.00  0.00     0.278 C 
ENDBRANCH  18  28
BRANCH  21  30
ATOM     30  O   UNL     1      -9.175  -5.133  10.341  1.00  0.00    -0.507 OA
ATOM     31  H   UNL     1      -9.736  -5.482  11.101  1.00  0.00     0.293 HD
ENDBRANCH  21  30
BRANCH  25  32
ATOM     32  C   UNL     1      -8.618 -10.663   6.728  1.00  0.00     0.017 A 
ATOM     33  C   UNL     1      -7.819 -10.867   5.579  1.00  0.00     0.012 A 
ATOM     34  C   UNL     1      -9.503 -11.680   7.128  1.00  0.00     0.012 A 
ATOM     35  C   UNL     1      -7.876 -12.075   4.875  1.00  0.00     0.001 A 
ATOM     36  C   UNL     1      -9.571 -12.875   6.406  1.00  0.00     0.001 A 
ATOM     37  C   UNL     1      -8.758 -13.076   5.286  1.00  0.00     0.000 A 
ENDBRANCH  25  32
ENDBRANCH   1  17
TORSDOF 9
ENDMDL
