MODEL 1
REMARK VINA RESULT:    -7.456      0.000      0.000
REMARK INTER + INTRA:          -9.082
REMARK INTER:                  -8.764
REMARK INTRA:                  -0.318
REMARK UNBOUND:                -0.318
REMARK SMILES O=c1cc(-c2ccc(O)c(O)c2)oc2cc(O)cc(O)c12
REMARK SMILES IDX 4 1 3 2 2 3 1 4 21 5 19 6 18 7 16 8 15 9 14 10 13 11 5 12
REMARK SMILES IDX 6 13 7 14 8 15 12 16 10 17 9 18 11 20 20 22 17 24
REMARK H PARENT 9 19 11 21 20 23 17 25
REMARK Flexibility Score: inf
ROOT
ATOM      1  C   UNL     1     124.184 120.838 121.359  1.00  0.00     0.138 A 
ATOM      2  C   UNL     1     124.687 121.786 122.260  1.00  0.00     0.100 A 
ATOM      3  C   UNL     1     125.894 122.429 121.984  1.00  0.00     0.197 A 
ATOM      4  O   UNL     1     126.288 123.320 122.781  1.00  0.00    -0.289 OA
ATOM      5  C   UNL     1     126.616 122.097 120.813  1.00  0.00     0.107 A 
ATOM      6  C   UNL     1     127.877 122.658 120.449  1.00  0.00     0.134 A 
ATOM      7  C   UNL     1     128.442 122.339 119.208  1.00  0.00     0.093 A 
ATOM      8  C   UNL     1     127.822 121.434 118.346  1.00  0.00     0.123 A 
ATOM      9  C   UNL     1     126.616 120.838 118.715  1.00  0.00     0.094 A 
ATOM     10  C   UNL     1     126.010 121.162 119.932  1.00  0.00     0.146 A 
ATOM     11  O   UNL     1     124.854 120.584 120.240  1.00  0.00    -0.456 OA
ENDROOT
BRANCH   1  12
ATOM     12  C   UNL     1     122.906 120.124 121.605  1.00  0.00     0.021 A 
ATOM     13  C   UNL     1     122.133 120.365 122.757  1.00  0.00     0.016 A 
ATOM     14  C   UNL     1     120.938 119.671 122.967  1.00  0.00     0.051 A 
ATOM     15  C   UNL     1     120.498 118.721 122.041  1.00  0.00     0.157 A 
ATOM     16  C   UNL     1     122.464 119.157 120.683  1.00  0.00     0.062 A 
ATOM     17  C   UNL     1     121.265 118.461 120.894  1.00  0.00     0.158 A 
BRANCH  15  18
ATOM     18  O   UNL     1     119.303 118.046 122.279  1.00  0.00    -0.504 OA
ATOM     19  H   UNL     1     119.281 117.071 122.557  1.00  0.00     0.293 HD
ENDBRANCH  15  18
BRANCH  17  20
ATOM     20  O   UNL     1     120.834 117.511 119.967  1.00  0.00    -0.504 OA
ATOM     21  H   UNL     1     120.170 117.744 119.239  1.00  0.00     0.293 HD
ENDBRANCH  17  20
ENDBRANCH   1  12
BRANCH   6  22
ATOM     22  O   UNL     1     128.621 123.507 121.274  1.00  0.00    -0.507 OA
ATOM     23  H   UNL     1     129.555 123.830 121.075  1.00  0.00     0.293 HD
ENDBRANCH   6  22
BRANCH   8  24
ATOM     24  O   UNL     1     128.421 121.128 117.126  1.00  0.00    -0.508 OA
ATOM     25  H   UNL     1     128.058 121.490 116.251  1.00  0.00     0.293 HD
ENDBRANCH   8  24
TORSDOF 5
ENDMDL
MODEL 2
REMARK VINA RESULT:    -7.263      2.353      6.744
REMARK INTER + INTRA:          -8.855
REMARK INTER:                  -8.541
REMARK INTRA:                  -0.314
REMARK UNBOUND:                -0.318
REMARK SMILES O=c1cc(-c2ccc(O)c(O)c2)oc2cc(O)cc(O)c12
REMARK SMILES IDX 4 1 3 2 2 3 1 4 21 5 19 6 18 7 16 8 15 9 14 10 13 11 5 12
REMARK SMILES IDX 6 13 7 14 8 15 12 16 10 17 9 18 11 20 20 22 17 24
REMARK H PARENT 9 19 11 21 20 23 17 25
REMARK Flexibility Score: inf
ROOT
ATOM      1  C   UNL     1     125.894 120.952 122.353  1.00  0.00     0.138 A 
ATOM      2  C   UNL     1     126.377 121.157 123.652  1.00  0.00     0.100 A 
ATOM      3  C   UNL     1     125.621 120.733 124.745  1.00  0.00     0.197 A 
ATOM      4  O   UNL     1     126.110 120.875 125.895  1.00  0.00    -0.289 OA
ATOM      5  C   UNL     1     124.359 120.128 124.535  1.00  0.00     0.107 A 
ATOM      6  C   UNL     1     123.484 119.694 125.575  1.00  0.00     0.134 A 
ATOM      7  C   UNL     1     122.311 119.003 125.246  1.00  0.00     0.093 A 
ATOM      8  C   UNL     1     121.953 118.783 123.915  1.00  0.00     0.123 A 
ATOM      9  C   UNL     1     122.775 119.252 122.890  1.00  0.00     0.094 A 
ATOM     10  C   UNL     1     123.968 119.915 123.187  1.00  0.00     0.146 A 
ATOM     11  O   UNL     1     124.731 120.332 122.181  1.00  0.00    -0.456 OA
ENDROOT
BRANCH   1  12
ATOM     12  C   UNL     1     126.657 121.383 121.154  1.00  0.00     0.021 A 
ATOM     13  C   UNL     1     127.685 122.342 121.237  1.00  0.00     0.016 A 
ATOM     14  C   UNL     1     128.380 122.738 120.091  1.00  0.00     0.051 A 
ATOM     15  C   UNL     1     128.058 122.194 118.845  1.00  0.00     0.157 A 
ATOM     16  C   UNL     1     126.329 120.850 119.894  1.00  0.00     0.062 A 
ATOM     17  C   UNL     1     127.026 121.246 118.744  1.00  0.00     0.158 A 
BRANCH  15  18
ATOM     18  O   UNL     1     128.770 122.608 117.720  1.00  0.00    -0.504 OA
ATOM     19  H   UNL     1     129.263 121.954 117.124  1.00  0.00     0.293 HD
ENDBRANCH  15  18
BRANCH  17  20
ATOM     20  O   UNL     1     126.697 120.702 117.503  1.00  0.00    -0.504 OA
ATOM     21  H   UNL     1     126.683 121.268 116.662  1.00  0.00     0.293 HD
ENDBRANCH  17  20
ENDBRANCH   1  12
BRANCH   6  22
ATOM     22  O   UNL     1     123.704 119.936 126.934  1.00  0.00    -0.507 OA
ATOM     23  H   UNL     1     124.472 119.561 127.469  1.00  0.00     0.293 HD
ENDBRANCH   6  22
BRANCH   8  24
ATOM     24  O   UNL     1     120.771 118.106 123.625  1.00  0.00    -0.508 OA
ATOM     25  H   UNL     1     120.514 117.872 122.673  1.00  0.00     0.293 HD
ENDBRANCH   8  24
TORSDOF 5
ENDMDL
MODEL 3
REMARK VINA RESULT:    -7.160      1.258      2.034
REMARK INTER + INTRA:          -8.734
REMARK INTER:                  -8.439
REMARK INTRA:                  -0.294
REMARK UNBOUND:                -0.318
REMARK SMILES O=c1cc(-c2ccc(O)c(O)c2)oc2cc(O)cc(O)c12
REMARK SMILES IDX 4 1 3 2 2 3 1 4 21 5 19 6 18 7 16 8 15 9 14 10 13 11 5 12
REMARK SMILES IDX 6 13 7 14 8 15 12 16 10 17 9 18 11 20 20 22 17 24
REMARK H PARENT 9 19 11 21 20 23 17 25
REMARK Flexibility Score: inf
ROOT
ATOM      1  C   UNL     1     124.163 120.072 120.028  1.00  0.00     0.138 A 
ATOM      2  C   UNL     1     124.510 120.559 121.296  1.00  0.00     0.100 A 
ATOM      3  C   UNL     1     125.710 121.252 121.464  1.00  0.00     0.197 A 
ATOM      4  O   UNL     1     125.964 121.731 122.599  1.00  0.00    -0.289 OA
ATOM      5  C   UNL     1     126.579 121.431 120.362  1.00  0.00     0.107 A 
ATOM      6  C   UNL     1     127.845 122.085 120.424  1.00  0.00     0.134 A 
ATOM      7  C   UNL     1     128.568 122.305 119.245  1.00  0.00     0.093 A 
ATOM      8  C   UNL     1     128.098 121.843 118.015  1.00  0.00     0.123 A 
ATOM      9  C   UNL     1     126.886 121.153 117.951  1.00  0.00     0.094 A 
ATOM     10  C   UNL     1     126.127 120.948 119.105  1.00  0.00     0.146 A 
ATOM     11  O   UNL     1     124.971 120.301 118.998  1.00  0.00    -0.456 OA
ENDROOT
BRANCH   1  12
ATOM     12  C   UNL     1     122.900 119.328 119.794  1.00  0.00     0.021 A 
ATOM     13  C   UNL     1     122.525 118.892 118.508  1.00  0.00     0.016 A 
ATOM     14  C   UNL     1     121.325 118.202 118.314  1.00  0.00     0.051 A 
ATOM     15  C   UNL     1     120.475 117.943 119.393  1.00  0.00     0.157 A 
ATOM     16  C   UNL     1     122.033 119.075 120.873  1.00  0.00     0.062 A 
ATOM     17  C   UNL     1     120.829 118.382 120.679  1.00  0.00     0.158 A 
BRANCH  15  18
ATOM     18  O   UNL     1     119.286 117.252 119.168  1.00  0.00    -0.504 OA
ATOM     19  H   UNL     1     118.964 117.024 118.235  1.00  0.00     0.293 HD
ENDBRANCH  15  18
BRANCH  17  20
ATOM     20  O   UNL     1     119.984 118.131 121.760  1.00  0.00    -0.504 OA
ATOM     21  H   UNL     1     120.158 117.368 122.403  1.00  0.00     0.293 HD
ENDBRANCH  17  20
ENDBRANCH   1  12
BRANCH   6  22
ATOM     22  O   UNL     1     128.447 122.512 121.613  1.00  0.00    -0.507 OA
ATOM     23  H   UNL     1     128.136 123.295 122.166  1.00  0.00     0.293 HD
ENDBRANCH   6  22
BRANCH   8  24
ATOM     24  O   UNL     1     128.850 122.066 116.865  1.00  0.00    -0.508 OA
ATOM     25  H   UNL     1     128.487 121.849 115.944  1.00  0.00     0.293 HD
ENDBRANCH   8  24
TORSDOF 5
ENDMDL
MODEL 4
REMARK VINA RESULT:    -7.118      6.352      7.949
REMARK INTER + INTRA:          -8.684
REMARK INTER:                  -8.391
REMARK INTRA:                  -0.293
REMARK UNBOUND:                -0.318
REMARK SMILES O=c1cc(-c2ccc(O)c(O)c2)oc2cc(O)cc(O)c12
REMARK SMILES IDX 4 1 3 2 2 3 1 4 21 5 19 6 18 7 16 8 15 9 14 10 13 11 5 12
REMARK SMILES IDX 6 13 7 14 8 15 12 16 10 17 9 18 11 20 20 22 17 24
REMARK H PARENT 9 19 11 21 20 23 17 25
REMARK Flexibility Score: inf
ROOT
ATOM      1  C   UNL     1     119.792 121.406 116.073  1.00  0.00     0.138 A 
ATOM      2  C   UNL     1     119.112 120.647 117.035  1.00  0.00     0.100 A 
ATOM      3  C   UNL     1     119.837 119.862 117.933  1.00  0.00     0.197 A 
ATOM      4  O   UNL     1     119.201 119.241 118.824  1.00  0.00    -0.289 OA
ATOM      5  C   UNL     1     121.248 119.814 117.845  1.00  0.00     0.107 A 
ATOM      6  C   UNL     1     122.087 119.017 118.680  1.00  0.00     0.134 A 
ATOM      7  C   UNL     1     123.478 119.139 118.578  1.00  0.00     0.093 A 
ATOM      8  C   UNL     1     124.060 119.983 117.631  1.00  0.00     0.123 A 
ATOM      9  C   UNL     1     123.249 120.725 116.772  1.00  0.00     0.094 A 
ATOM     10  C   UNL     1     121.858 120.651 116.873  1.00  0.00     0.146 A 
ATOM     11  O   UNL     1     121.120 121.387 116.047  1.00  0.00    -0.456 OA
ENDROOT
BRANCH   1  12
ATOM     12  C   UNL     1     119.071 122.258 115.094  1.00  0.00     0.021 A 
ATOM     13  C   UNL     1     119.740 122.888 114.026  1.00  0.00     0.016 A 
ATOM     14  C   UNL     1     119.038 123.693 113.125  1.00  0.00     0.051 A 
ATOM     15  C   UNL     1     117.663 123.892 113.276  1.00  0.00     0.157 A 
ATOM     16  C   UNL     1     117.689 122.474 115.247  1.00  0.00     0.062 A 
ATOM     17  C   UNL     1     116.984 123.281 114.343  1.00  0.00     0.158 A 
BRANCH  15  18
ATOM     18  O   UNL     1     116.991 124.700 112.360  1.00  0.00    -0.504 OA
ATOM     19  H   UNL     1     117.253 125.665 112.200  1.00  0.00     0.293 HD
ENDBRANCH  15  18
BRANCH  17  20
ATOM     20  O   UNL     1     115.613 123.479 114.502  1.00  0.00    -0.504 OA
ATOM     21  H   UNL     1     115.205 123.669 115.410  1.00  0.00     0.293 HD
ENDBRANCH  17  20
ENDBRANCH   1  12
BRANCH   6  22
ATOM     22  O   UNL     1     121.609 118.080 119.601  1.00  0.00    -0.507 OA
ATOM     23  H   UNL     1     120.804 117.491 119.459  1.00  0.00     0.293 HD
ENDBRANCH   6  22
BRANCH   8  24
ATOM     24  O   UNL     1     125.448 120.067 117.547  1.00  0.00    -0.508 OA
ATOM     25  H   UNL     1     125.931 119.997 116.659  1.00  0.00     0.293 HD
ENDBRANCH   8  24
TORSDOF 5
ENDMDL
MODEL 5
REMARK VINA RESULT:    -7.105      8.929     14.365
REMARK INTER + INTRA:          -8.670
REMARK INTER:                  -8.404
REMARK INTRA:                  -0.266
REMARK UNBOUND:                -0.318
REMARK SMILES O=c1cc(-c2ccc(O)c(O)c2)oc2cc(O)cc(O)c12
REMARK SMILES IDX 4 1 3 2 2 3 1 4 21 5 19 6 18 7 16 8 15 9 14 10 13 11 5 12
REMARK SMILES IDX 6 13 7 14 8 15 12 16 10 17 9 18 11 20 20 22 17 24
REMARK H PARENT 9 19 11 21 20 23 17 25
REMARK Flexibility Score: inf
ROOT
ATOM      1  C   UNL     1     112.947 117.011 121.472  1.00  0.00     0.138 A 
ATOM      2  C   UNL     1     112.535 116.048 122.404  1.00  0.00     0.100 A 
ATOM      3  C   UNL     1     111.425 115.250 122.126  1.00  0.00     0.197 A 
ATOM      4  O   UNL     1     111.118 114.353 122.954  1.00  0.00    -0.289 OA
ATOM      5  C   UNL     1     110.707 115.437 120.922  1.00  0.00     0.107 A 
ATOM      6  C   UNL     1     109.537 114.709 120.552  1.00  0.00     0.134 A 
ATOM      7  C   UNL     1     108.977 114.901 119.282  1.00  0.00     0.093 A 
ATOM      8  C   UNL     1     109.509 115.836 118.394  1.00  0.00     0.123 A 
ATOM      9  C   UNL     1     110.620 116.593 118.767  1.00  0.00     0.094 A 
ATOM     10  C   UNL     1     111.221 116.400 120.013  1.00  0.00     0.146 A 
ATOM     11  O   UNL     1     112.288 117.130 120.324  1.00  0.00    -0.456 OA
ENDROOT
BRANCH   1  12
ATOM     12  C   UNL     1     114.120 117.888 121.717  1.00  0.00     0.021 A 
ATOM     13  C   UNL     1     115.244 117.874 120.869  1.00  0.00     0.016 A 
ATOM     14  C   UNL     1     116.339 118.703 121.129  1.00  0.00     0.051 A 
ATOM     15  C   UNL     1     116.337 119.551 122.240  1.00  0.00     0.157 A 
ATOM     16  C   UNL     1     114.130 118.734 122.841  1.00  0.00     0.062 A 
ATOM     17  C   UNL     1     115.228 119.567 123.102  1.00  0.00     0.158 A 
BRANCH  15  18
ATOM     18  O   UNL     1     117.443 120.366 122.472  1.00  0.00    -0.504 OA
ATOM     19  H   UNL     1     117.348 121.331 122.768  1.00  0.00     0.293 HD
ENDBRANCH  15  18
BRANCH  17  20
ATOM     20  O   UNL     1     115.221 120.408 124.214  1.00  0.00    -0.504 OA
ATOM     21  H   UNL     1     114.531 120.308 124.951  1.00  0.00     0.293 HD
ENDBRANCH  17  20
ENDBRANCH   1  12
BRANCH   6  22
ATOM     22  O   UNL     1     108.875 113.812 121.396  1.00  0.00    -0.507 OA
ATOM     23  H   UNL     1     108.565 114.023 122.331  1.00  0.00     0.293 HD
ENDBRANCH   6  22
BRANCH   8  24
ATOM     24  O   UNL     1     108.917 116.011 117.146  1.00  0.00    -0.508 OA
ATOM     25  H   UNL     1     108.883 115.261 116.465  1.00  0.00     0.293 HD
ENDBRANCH   8  24
TORSDOF 5
ENDMDL
MODEL 6
REMARK VINA RESULT:    -7.047      9.544     13.193
REMARK INTER + INTRA:          -8.601
REMARK INTER:                  -8.291
REMARK INTRA:                  -0.310
REMARK UNBOUND:                -0.318
REMARK SMILES O=c1cc(-c2ccc(O)c(O)c2)oc2cc(O)cc(O)c12
REMARK SMILES IDX 4 1 3 2 2 3 1 4 21 5 19 6 18 7 16 8 15 9 14 10 13 11 5 12
REMARK SMILES IDX 6 13 7 14 8 15 12 16 10 17 9 18 11 20 20 22 17 24
REMARK H PARENT 9 19 11 21 20 23 17 25
REMARK Flexibility Score: inf
ROOT
ATOM      1  C   UNL     1     112.036 116.591 122.522  1.00  0.00     0.138 A 
ATOM      2  C   UNL     1     111.501 116.820 123.797  1.00  0.00     0.100 A 
ATOM      3  C   UNL     1     112.330 117.274 124.822  1.00  0.00     0.197 A 
ATOM      4  O   UNL     1     111.808 117.529 125.938  1.00  0.00    -0.289 OA
ATOM      5  C   UNL     1     113.710 117.472 124.576  1.00  0.00     0.107 A 
ATOM      6  C   UNL     1     114.658 117.894 125.556  1.00  0.00     0.134 A 
ATOM      7  C   UNL     1     115.975 118.167 125.168  1.00  0.00     0.093 A 
ATOM      8  C   UNL     1     116.393 117.978 123.851  1.00  0.00     0.123 A 
ATOM      9  C   UNL     1     115.488 117.513 122.896  1.00  0.00     0.094 A 
ATOM     10  C   UNL     1     114.158 117.264 123.244  1.00  0.00     0.146 A 
ATOM     11  O   UNL     1     113.324 116.837 122.302  1.00  0.00    -0.456 OA
ENDROOT
BRANCH   1  12
ATOM     12  C   UNL     1     111.199 116.107 121.395  1.00  0.00     0.021 A 
ATOM     13  C   UNL     1     110.020 115.369 121.613  1.00  0.00     0.016 A 
ATOM     14  C   UNL     1     109.256 114.916 120.534  1.00  0.00     0.051 A 
ATOM     15  C   UNL     1     109.658 115.182 119.222  1.00  0.00     0.157 A 
ATOM     16  C   UNL     1     111.605 116.358 120.072  1.00  0.00     0.062 A 
ATOM     17  C   UNL     1     110.839 115.905 118.988  1.00  0.00     0.158 A 
BRANCH  15  18
ATOM     18  O   UNL     1     108.875 114.717 118.166  1.00  0.00    -0.504 OA
ATOM     19  H   UNL     1     108.809 115.214 117.286  1.00  0.00     0.293 HD
ENDBRANCH  15  18
BRANCH  17  20
ATOM     20  O   UNL     1     111.247 116.170 117.681  1.00  0.00    -0.504 OA
ATOM     21  H   UNL     1     112.226 116.289 117.445  1.00  0.00     0.293 HD
ENDBRANCH  17  20
ENDBRANCH   1  12
BRANCH   6  22
ATOM     22  O   UNL     1     114.366 118.034 126.916  1.00  0.00    -0.507 OA
ATOM     23  H   UNL     1     114.614 117.368 127.630  1.00  0.00     0.293 HD
ENDBRANCH   6  22
BRANCH   8  24
ATOM     24  O   UNL     1     117.715 118.245 123.504  1.00  0.00    -0.508 OA
ATOM     25  H   UNL     1     117.962 119.041 122.927  1.00  0.00     0.293 HD
ENDBRANCH   8  24
TORSDOF 5
ENDMDL
MODEL 7
REMARK VINA RESULT:    -7.022      8.524     14.143
REMARK INTER + INTRA:          -8.571
REMARK INTER:                  -8.254
REMARK INTRA:                  -0.318
REMARK UNBOUND:                -0.318
REMARK SMILES O=c1cc(-c2ccc(O)c(O)c2)oc2cc(O)cc(O)c12
REMARK SMILES IDX 4 1 3 2 2 3 1 4 21 5 19 6 18 7 16 8 15 9 14 10 13 11 5 12
REMARK SMILES IDX 6 13 7 14 8 15 12 16 10 17 9 18 11 20 20 22 17 24
REMARK H PARENT 9 19 11 21 20 23 17 25
REMARK Flexibility Score: inf
ROOT
ATOM      1  C   UNL     1     113.256 116.736 121.268  1.00  0.00     0.138 A 
ATOM      2  C   UNL     1     112.784 115.872 122.266  1.00  0.00     0.100 A 
ATOM      3  C   UNL     1     111.587 115.181 122.072  1.00  0.00     0.197 A 
ATOM      4  O   UNL     1     111.223 114.367 122.959  1.00  0.00    -0.289 OA
ATOM      5  C   UNL     1     110.845 115.381 120.885  1.00  0.00     0.107 A 
ATOM      6  C   UNL     1     109.591 114.763 120.597  1.00  0.00     0.134 A 
ATOM      7  C   UNL     1     109.004 114.947 119.338  1.00  0.00     0.093 A 
ATOM      8  C   UNL     1     109.594 115.773 118.382  1.00  0.00     0.123 A 
ATOM      9  C   UNL     1     110.792 116.426 118.673  1.00  0.00     0.094 A 
ATOM     10  C   UNL     1     111.419 116.236 119.906  1.00  0.00     0.146 A 
ATOM     11  O   UNL     1     112.568 116.864 120.139  1.00  0.00    -0.456 OA
ENDROOT
BRANCH   1  12
ATOM     12  C   UNL     1     114.522 117.495 121.423  1.00  0.00     0.021 A 
ATOM     13  C   UNL     1     115.247 117.489 122.631  1.00  0.00     0.016 A 
ATOM     14  C   UNL     1     116.430 118.222 122.752  1.00  0.00     0.051 A 
ATOM     15  C   UNL     1     116.908 118.978 121.679  1.00  0.00     0.157 A 
ATOM     16  C   UNL     1     115.001 118.271 120.351  1.00  0.00     0.062 A 
ATOM     17  C   UNL     1     116.190 119.005 120.472  1.00  0.00     0.158 A 
BRANCH  15  18
ATOM     18  O   UNL     1     118.092 119.698 121.830  1.00  0.00    -0.504 OA
ATOM     19  H   UNL     1     119.001 119.255 121.779  1.00  0.00     0.293 HD
ENDBRANCH  15  18
BRANCH  17  20
ATOM     20  O   UNL     1     116.658 119.762 119.398  1.00  0.00    -0.504 OA
ATOM     21  H   UNL     1     116.024 120.237 118.767  1.00  0.00     0.293 HD
ENDBRANCH  17  20
ENDBRANCH   1  12
BRANCH   6  22
ATOM     22  O   UNL     1     108.875 113.985 121.512  1.00  0.00    -0.507 OA
ATOM     23  H   UNL     1     107.999 113.526 121.317  1.00  0.00     0.293 HD
ENDBRANCH   6  22
BRANCH   8  24
ATOM     24  O   UNL     1     108.974 115.944 117.147  1.00  0.00    -0.508 OA
ATOM     25  H   UNL     1     109.169 115.329 116.365  1.00  0.00     0.293 HD
ENDBRANCH   8  24
TORSDOF 5
ENDMDL
MODEL 8
REMARK VINA RESULT:    -6.995      1.350      7.285
REMARK INTER + INTRA:          -8.540
REMARK INTER:                  -8.252
REMARK INTRA:                  -0.288
REMARK UNBOUND:                -0.318
REMARK SMILES O=c1cc(-c2ccc(O)c(O)c2)oc2cc(O)cc(O)c12
REMARK SMILES IDX 4 1 3 2 2 3 1 4 21 5 19 6 18 7 16 8 15 9 14 10 13 11 5 12
REMARK SMILES IDX 6 13 7 14 8 15 12 16 10 17 9 18 11 20 20 22 17 24
REMARK H PARENT 9 19 11 21 20 23 17 25
REMARK Flexibility Score: inf
ROOT
ATOM      1  C   UNL     1     124.207 120.544 120.648  1.00  0.00     0.138 A 
ATOM      2  C   UNL     1     123.972 119.821 119.471  1.00  0.00     0.100 A 
ATOM      3  C   UNL     1     122.838 119.013 119.372  1.00  0.00     0.197 A 
ATOM      4  O   UNL     1     122.622 118.426 118.281  1.00  0.00    -0.289 OA
ATOM      5  C   UNL     1     121.952 118.907 120.470  1.00  0.00     0.107 A 
ATOM      6  C   UNL     1     120.787 118.083 120.497  1.00  0.00     0.134 A 
ATOM      7  C   UNL     1     119.922 118.147 121.597  1.00  0.00     0.093 A 
ATOM      8  C   UNL     1     120.210 118.959 122.694  1.00  0.00     0.123 A 
ATOM      9  C   UNL     1     121.375 119.728 122.701  1.00  0.00     0.094 A 
ATOM     10  C   UNL     1     122.240 119.711 121.605  1.00  0.00     0.146 A 
ATOM     11  O   UNL     1     123.331 120.470 121.645  1.00  0.00    -0.456 OA
ENDROOT
BRANCH   1  12
ATOM     12  C   UNL     1     125.397 121.418 120.807  1.00  0.00     0.021 A 
ATOM     13  C   UNL     1     125.388 122.531 121.669  1.00  0.00     0.016 A 
ATOM     14  C   UNL     1     126.519 123.342 121.791  1.00  0.00     0.051 A 
ATOM     15  C   UNL     1     127.673 123.064 121.053  1.00  0.00     0.157 A 
ATOM     16  C   UNL     1     126.557 121.152 120.057  1.00  0.00     0.062 A 
ATOM     17  C   UNL     1     127.693 121.965 120.180  1.00  0.00     0.158 A 
BRANCH  15  18
ATOM     18  O   UNL     1     128.786 123.892 121.198  1.00  0.00    -0.504 OA
ATOM     19  H   UNL     1     129.708 123.612 120.885  1.00  0.00     0.293 HD
ENDBRANCH  15  18
BRANCH  17  20
ATOM     20  O   UNL     1     128.840 121.684 119.437  1.00  0.00    -0.504 OA
ATOM     21  H   UNL     1     129.029 122.149 118.557  1.00  0.00     0.293 HD
ENDBRANCH  17  20
ENDBRANCH   1  12
BRANCH   6  22
ATOM     22  O   UNL     1     120.450 117.173 119.491  1.00  0.00    -0.507 OA
ATOM     23  H   UNL     1     120.136 116.229 119.649  1.00  0.00     0.293 HD
ENDBRANCH   6  22
BRANCH   8  24
ATOM     24  O   UNL     1     119.334 118.986 123.777  1.00  0.00    -0.508 OA
ATOM     25  H   UNL     1     119.655 119.207 124.712  1.00  0.00     0.293 HD
ENDBRANCH   8  24
TORSDOF 5
ENDMDL
MODEL 9
REMARK VINA RESULT:    -6.729      1.986      3.636
REMARK INTER + INTRA:          -8.227
REMARK INTER:                  -7.919
REMARK INTRA:                  -0.308
REMARK UNBOUND:                -0.318
REMARK SMILES O=c1cc(-c2ccc(O)c(O)c2)oc2cc(O)cc(O)c12
REMARK SMILES IDX 4 1 3 2 2 3 1 4 21 5 19 6 18 7 16 8 15 9 14 10 13 11 5 12
REMARK SMILES IDX 6 13 7 14 8 15 12 16 10 17 9 18 11 20 20 22 17 24
REMARK H PARENT 9 19 11 21 20 23 17 25
REMARK Flexibility Score: inf
ROOT
ATOM      1  C   UNL     1     123.655 119.642 119.794  1.00  0.00     0.138 A 
ATOM      2  C   UNL     1     124.498 120.165 118.804  1.00  0.00     0.100 A 
ATOM      3  C   UNL     1     125.730 120.712 119.164  1.00  0.00     0.197 A 
ATOM      4  O   UNL     1     126.490 121.116 118.247  1.00  0.00    -0.289 OA
ATOM      5  C   UNL     1     126.106 120.761 120.528  1.00  0.00     0.107 A 
ATOM      6  C   UNL     1     127.320 121.332 121.015  1.00  0.00     0.134 A 
ATOM      7  C   UNL     1     127.638 121.219 122.375  1.00  0.00     0.093 A 
ATOM      8  C   UNL     1     126.760 120.611 123.272  1.00  0.00     0.123 A 
ATOM      9  C   UNL     1     125.545 120.099 122.815  1.00  0.00     0.094 A 
ATOM     10  C   UNL     1     125.215 120.165 121.459  1.00  0.00     0.146 A 
ATOM     11  O   UNL     1     124.055 119.651 121.062  1.00  0.00    -0.456 OA
ENDROOT
BRANCH   1  12
ATOM     12  C   UNL     1     122.334 119.050 119.467  1.00  0.00     0.021 A 
ATOM     13  C   UNL     1     122.064 118.496 118.201  1.00  0.00     0.016 A 
ATOM     14  C   UNL     1     120.808 117.955 117.916  1.00  0.00     0.051 A 
ATOM     15  C   UNL     1     119.797 117.964 118.882  1.00  0.00     0.157 A 
ATOM     16  C   UNL     1     121.308 119.069 120.429  1.00  0.00     0.062 A 
ATOM     17  C   UNL     1     120.047 118.525 120.145  1.00  0.00     0.158 A 
BRANCH  15  18
ATOM     18  O   UNL     1     118.555 117.416 118.568  1.00  0.00    -0.504 OA
ATOM     19  H   UNL     1     118.231 116.548 118.977  1.00  0.00     0.293 HD
ENDBRANCH  15  18
BRANCH  17  20
ATOM     20  O   UNL     1     119.042 118.541 121.112  1.00  0.00    -0.504 OA
ATOM     21  H   UNL     1     118.086 118.785 120.880  1.00  0.00     0.293 HD
ENDBRANCH  17  20
ENDBRANCH   1  12
BRANCH   6  22
ATOM     22  O   UNL     1     128.228 122.035 120.218  1.00  0.00    -0.507 OA
ATOM     23  H   UNL     1     128.289 123.040 120.164  1.00  0.00     0.293 HD
ENDBRANCH   6  22
BRANCH   8  24
ATOM     24  O   UNL     1     127.102 120.531 124.620  1.00  0.00    -0.508 OA
ATOM     25  H   UNL     1     128.049 120.328 124.915  1.00  0.00     0.293 HD
ENDBRANCH   8  24
TORSDOF 5
ENDMDL
