MODEL 1
REMARK VINA RESULT:    -5.434      0.000      0.000
REMARK INTER + INTRA:          -6.272
REMARK INTER:                  -6.070
REMARK INTRA:                  -0.203
REMARK UNBOUND:                -0.203
REMARK SMILES CC(C)c1ccc(C(=O)[O-])cc1
REMARK SMILES IDX 7 1 6 2 11 3 5 4 12 5 4 6 8 7 9 8 10 9 2 10 1 11 3 12
REMARK H PARENT
REMARK Flexibility Score: inf
ROOT
ATOM      1  C   UNL     1     -11.059  16.297 -11.955  1.00  0.00    -0.003 A 
ATOM      2  C   UNL     1     -12.429  16.310 -11.643  1.00  0.00     0.010 A 
ATOM      3  C   UNL     1     -10.132  16.653 -10.962  1.00  0.00     0.010 A 
ATOM      4  C   UNL     1     -12.863  16.670 -10.365  1.00  0.00     0.004 A 
ATOM      5  C   UNL     1     -10.566  17.014  -9.683  1.00  0.00     0.004 A 
ATOM      6  C   UNL     1     -11.938  17.026  -9.370  1.00  0.00    -0.045 A 
ENDROOT
BRANCH   1   7
ATOM      7  C   UNL     1     -10.596  15.916 -13.307  1.00  0.00     0.071 C 
ATOM      8  O   UNL     1     -10.604  16.754 -14.248  1.00  0.00    -0.545 OA
ATOM      9  O   UNL     1     -10.144  14.625 -13.560  1.00  0.00    -0.545 OA
ENDBRANCH   1   7
BRANCH   6  10
ATOM     10  C   UNL     1     -12.422  17.416  -7.986  1.00  0.00     0.013 C 
ATOM     11  C   UNL     1     -12.717  16.176  -7.133  1.00  0.00     0.012 C 
ATOM     12  C   UNL     1     -11.418  18.340  -7.289  1.00  0.00     0.012 C 
ENDBRANCH   6  10
TORSDOF 2
ENDMDL
MODEL 2
REMARK VINA RESULT:    -5.426      0.069      1.399
REMARK INTER + INTRA:          -6.263
REMARK INTER:                  -6.059
REMARK INTRA:                  -0.204
REMARK UNBOUND:                -0.203
REMARK SMILES CC(C)c1ccc(C(=O)[O-])cc1
REMARK SMILES IDX 7 1 6 2 11 3 5 4 12 5 4 6 8 7 9 8 10 9 2 10 1 11 3 12
REMARK H PARENT
REMARK Flexibility Score: inf
ROOT
ATOM      1  C   UNL     1     -11.051  16.299 -11.958  1.00  0.00    -0.003 A 
ATOM      2  C   UNL     1     -10.123  16.689 -10.978  1.00  0.00     0.010 A 
ATOM      3  C   UNL     1     -12.418  16.300 -11.639  1.00  0.00     0.010 A 
ATOM      4  C   UNL     1     -10.553  17.073  -9.706  1.00  0.00     0.004 A 
ATOM      5  C   UNL     1     -12.849  16.684 -10.366  1.00  0.00     0.004 A 
ATOM      6  C   UNL     1     -11.920  17.076  -9.384  1.00  0.00    -0.045 A 
ENDROOT
BRANCH   1   7
ATOM      7  C   UNL     1     -10.599  15.891 -13.307  1.00  0.00     0.071 C 
ATOM      8  O   UNL     1     -10.596  16.717 -14.260  1.00  0.00    -0.545 OA
ATOM      9  O   UNL     1     -10.170  14.589 -13.543  1.00  0.00    -0.545 OA
ENDBRANCH   1   7
BRANCH   6  10
ATOM     10  C   UNL     1     -12.375  17.495  -7.998  1.00  0.00     0.013 C 
ATOM     11  C   UNL     1     -12.633  16.272  -7.109  1.00  0.00     0.012 C 
ATOM     12  C   UNL     1     -11.365  18.446  -7.349  1.00  0.00     0.012 C 
ENDBRANCH   6  10
TORSDOF 2
ENDMDL
MODEL 3
REMARK VINA RESULT:    -5.371      1.676      2.482
REMARK INTER + INTRA:          -6.202
REMARK INTER:                  -5.991
REMARK INTRA:                  -0.211
REMARK UNBOUND:                -0.203
REMARK SMILES CC(C)c1ccc(C(=O)[O-])cc1
REMARK SMILES IDX 7 1 6 2 11 3 5 4 12 5 4 6 8 7 9 8 10 9 2 10 1 11 3 12
REMARK H PARENT
REMARK Flexibility Score: inf
ROOT
ATOM      1  C   UNL     1     -10.549  17.795 -10.876  1.00  0.00    -0.003 A 
ATOM      2  C   UNL     1     -10.301  18.149  -9.539  1.00  0.00     0.010 A 
ATOM      3  C   UNL     1     -11.708  17.063 -11.182  1.00  0.00     0.010 A 
ATOM      4  C   UNL     1     -11.193  17.780  -8.530  1.00  0.00     0.004 A 
ATOM      5  C   UNL     1     -12.601  16.694 -10.172  1.00  0.00     0.004 A 
ATOM      6  C   UNL     1     -12.353  17.049  -8.833  1.00  0.00    -0.045 A 
ENDROOT
BRANCH   1   7
ATOM      7  C   UNL     1      -9.606  18.184 -11.948  1.00  0.00     0.071 C 
ATOM      8  O   UNL     1      -9.888  17.972 -13.158  1.00  0.00    -0.545 OA
ATOM      9  O   UNL     1      -8.393  18.789 -11.635  1.00  0.00    -0.545 OA
ENDBRANCH   1   7
BRANCH   6  10
ATOM     10  C   UNL     1     -13.314  16.653  -7.728  1.00  0.00     0.013 C 
ATOM     11  C   UNL     1     -12.715  15.554  -6.842  1.00  0.00     0.012 C 
ATOM     12  C   UNL     1     -13.728  17.870  -6.893  1.00  0.00     0.012 C 
ENDBRANCH   6  10
TORSDOF 2
ENDMDL
MODEL 4
REMARK VINA RESULT:    -5.262      1.388      2.323
REMARK INTER + INTRA:          -6.080
REMARK INTER:                  -5.876
REMARK INTRA:                  -0.204
REMARK UNBOUND:                -0.203
REMARK SMILES CC(C)c1ccc(C(=O)[O-])cc1
REMARK SMILES IDX 7 1 6 2 11 3 5 4 12 5 4 6 8 7 9 8 10 9 2 10 1 11 3 12
REMARK H PARENT
REMARK Flexibility Score: inf
ROOT
ATOM      1  C   UNL     1     -10.908  17.511 -11.046  1.00  0.00    -0.003 A 
ATOM      2  C   UNL     1     -10.348  18.003  -9.856  1.00  0.00     0.010 A 
ATOM      3  C   UNL     1     -12.118  16.800 -10.986  1.00  0.00     0.010 A 
ATOM      4  C   UNL     1     -10.984  17.790  -8.631  1.00  0.00     0.004 A 
ATOM      5  C   UNL     1     -12.755  16.588  -9.759  1.00  0.00     0.004 A 
ATOM      6  C   UNL     1     -12.195  17.081  -8.567  1.00  0.00    -0.045 A 
ENDROOT
BRANCH   1   7
ATOM      7  C   UNL     1     -10.237  17.733 -12.346  1.00  0.00     0.071 C 
ATOM      8  O   UNL     1      -9.976  18.901 -12.741  1.00  0.00    -0.545 OA
ATOM      9  O   UNL     1      -9.885  16.655 -13.151  1.00  0.00    -0.545 OA
ENDBRANCH   1   7
BRANCH   6  10
ATOM     10  C   UNL     1     -12.875  16.857  -7.230  1.00  0.00     0.013 C 
ATOM     11  C   UNL     1     -13.803  18.026  -6.878  1.00  0.00     0.012 C 
ATOM     12  C   UNL     1     -13.634  15.526  -7.211  1.00  0.00     0.012 C 
ENDBRANCH   6  10
TORSDOF 2
ENDMDL
MODEL 5
REMARK VINA RESULT:    -5.228      3.434      4.992
REMARK INTER + INTRA:          -6.042
REMARK INTER:                  -5.826
REMARK INTRA:                  -0.215
REMARK UNBOUND:                -0.203
REMARK SMILES CC(C)c1ccc(C(=O)[O-])cc1
REMARK SMILES IDX 7 1 6 2 11 3 5 4 12 5 4 6 8 7 9 8 10 9 2 10 1 11 3 12
REMARK H PARENT
REMARK Flexibility Score: inf
ROOT
ATOM      1  C   UNL     1     -12.463  16.973  -8.485  1.00  0.00    -0.003 A 
ATOM      2  C   UNL     1     -12.802  16.571  -9.788  1.00  0.00     0.010 A 
ATOM      3  C   UNL     1     -11.323  17.770  -8.294  1.00  0.00     0.010 A 
ATOM      4  C   UNL     1     -12.018  16.959 -10.877  1.00  0.00     0.004 A 
ATOM      5  C   UNL     1     -10.538  18.158  -9.384  1.00  0.00     0.004 A 
ATOM      6  C   UNL     1     -10.878  17.757 -10.689  1.00  0.00    -0.045 A 
ENDROOT
BRANCH   1   7
ATOM      7  C   UNL     1     -13.291  16.564  -7.329  1.00  0.00     0.071 C 
ATOM      8  O   UNL     1     -13.736  17.424  -6.523  1.00  0.00    -0.545 OA
ATOM      9  O   UNL     1     -13.590  15.222  -7.116  1.00  0.00    -0.545 OA
ENDBRANCH   1   7
BRANCH   6  10
ATOM     10  C   UNL     1     -10.034  18.171 -11.881  1.00  0.00     0.013 C 
ATOM     11  C   UNL     1      -8.602  18.514 -11.452  1.00  0.00     0.012 C 
ATOM     12  C   UNL     1     -10.041  17.089 -12.966  1.00  0.00     0.012 C 
ENDBRANCH   6  10
TORSDOF 2
ENDMDL
MODEL 6
REMARK VINA RESULT:    -5.131      3.446      5.245
REMARK INTER + INTRA:          -5.934
REMARK INTER:                  -5.713
REMARK INTRA:                  -0.221
REMARK UNBOUND:                -0.203
REMARK SMILES CC(C)c1ccc(C(=O)[O-])cc1
REMARK SMILES IDX 7 1 6 2 11 3 5 4 12 5 4 6 8 7 9 8 10 9 2 10 1 11 3 12
REMARK H PARENT
REMARK Flexibility Score: inf
ROOT
ATOM      1  C   UNL     1     -12.203  16.985  -8.463  1.00  0.00    -0.003 A 
ATOM      2  C   UNL     1     -11.046  17.780  -8.419  1.00  0.00     0.010 A 
ATOM      3  C   UNL     1     -12.701  16.577  -9.711  1.00  0.00     0.010 A 
ATOM      4  C   UNL     1     -10.399  18.158  -9.598  1.00  0.00     0.004 A 
ATOM      5  C   UNL     1     -12.054  16.955 -10.891  1.00  0.00     0.004 A 
ATOM      6  C   UNL     1     -10.894  17.751 -10.847  1.00  0.00    -0.045 A 
ENDROOT
BRANCH   1   7
ATOM      7  C   UNL     1     -12.891  16.583  -7.216  1.00  0.00     0.071 C 
ATOM      8  O   UNL     1     -13.734  15.646  -7.222  1.00  0.00    -0.545 OA
ATOM      9  O   UNL     1     -12.616  17.234  -6.018  1.00  0.00    -0.545 OA
ENDBRANCH   1   7
BRANCH   6  10
ATOM     10  C   UNL     1     -10.183  18.169 -12.121  1.00  0.00     0.013 C 
ATOM     11  C   UNL     1      -8.734  18.583 -11.834  1.00  0.00     0.012 C 
ATOM     12  C   UNL     1     -10.241  17.060 -13.176  1.00  0.00     0.012 C 
ENDBRANCH   6  10
TORSDOF 2
ENDMDL
MODEL 7
REMARK VINA RESULT:    -4.794      1.576      2.548
REMARK INTER + INTRA:          -5.557
REMARK INTER:                  -5.345
REMARK INTRA:                  -0.212
REMARK UNBOUND:                -0.203
REMARK SMILES CC(C)c1ccc(C(=O)[O-])cc1
REMARK SMILES IDX 7 1 6 2 11 3 5 4 12 5 4 6 8 7 9 8 10 9 2 10 1 11 3 12
REMARK H PARENT
REMARK Flexibility Score: inf
ROOT
ATOM      1  C   UNL     1     -11.287  17.191 -10.280  1.00  0.00    -0.003 A 
ATOM      2  C   UNL     1     -10.540  18.087  -9.498  1.00  0.00     0.010 A 
ATOM      3  C   UNL     1     -12.468  16.647  -9.751  1.00  0.00     0.010 A 
ATOM      4  C   UNL     1     -10.966  18.433  -8.213  1.00  0.00     0.004 A 
ATOM      5  C   UNL     1     -12.895  16.993  -8.466  1.00  0.00     0.004 A 
ATOM      6  C   UNL     1     -12.148  17.892  -7.682  1.00  0.00    -0.045 A 
ENDROOT
BRANCH   1   7
ATOM      7  C   UNL     1     -10.838  16.822 -11.641  1.00  0.00     0.071 C 
ATOM      8  O   UNL     1     -11.459  15.950 -12.307  1.00  0.00    -0.545 OA
ATOM      9  O   UNL     1      -9.723  17.432 -12.206  1.00  0.00    -0.545 OA
ENDBRANCH   1   7
BRANCH   6  10
ATOM     10  C   UNL     1     -12.600  18.275  -6.285  1.00  0.00     0.013 C 
ATOM     11  C   UNL     1     -14.113  18.085  -6.122  1.00  0.00     0.012 C 
ATOM     12  C   UNL     1     -11.826  17.492  -5.219  1.00  0.00     0.012 C 
ENDBRANCH   6  10
TORSDOF 2
ENDMDL
MODEL 8
REMARK VINA RESULT:    -4.606      2.342      3.738
REMARK INTER + INTRA:          -5.347
REMARK INTER:                  -5.132
REMARK INTRA:                  -0.215
REMARK UNBOUND:                -0.203
REMARK SMILES CC(C)c1ccc(C(=O)[O-])cc1
REMARK SMILES IDX 7 1 6 2 11 3 5 4 12 5 4 6 8 7 9 8 10 9 2 10 1 11 3 12
REMARK H PARENT
REMARK Flexibility Score: inf
ROOT
ATOM      1  C   UNL     1     -11.755  17.352  -8.833  1.00  0.00    -0.003 A 
ATOM      2  C   UNL     1     -11.005  18.445  -8.367  1.00  0.00     0.010 A 
ATOM      3  C   UNL     1     -12.446  16.555  -7.906  1.00  0.00     0.010 A 
ATOM      4  C   UNL     1     -10.946  18.734  -7.001  1.00  0.00     0.004 A 
ATOM      5  C   UNL     1     -12.388  16.845  -6.540  1.00  0.00     0.004 A 
ATOM      6  C   UNL     1     -11.637  17.939  -6.072  1.00  0.00    -0.045 A 
ENDROOT
BRANCH   1   7
ATOM      7  C   UNL     1     -11.819  17.042 -10.279  1.00  0.00     0.071 C 
ATOM      8  O   UNL     1     -12.900  16.669 -10.808  1.00  0.00    -0.545 OA
ATOM      9  O   UNL     1     -10.685  17.158 -11.075  1.00  0.00    -0.545 OA
ENDBRANCH   1   7
BRANCH   6  10
ATOM     10  C   UNL     1     -11.565  18.264  -4.591  1.00  0.00     0.013 C 
ATOM     11  C   UNL     1     -11.153  17.033  -3.775  1.00  0.00     0.012 C 
ATOM     12  C   UNL     1     -10.621  19.442  -4.329  1.00  0.00     0.012 C 
ENDBRANCH   6  10
TORSDOF 2
ENDMDL
MODEL 9
REMARK VINA RESULT:    -4.572      4.336      5.918
REMARK INTER + INTRA:          -5.309
REMARK INTER:                  -5.093
REMARK INTRA:                  -0.216
REMARK UNBOUND:                -0.203
REMARK SMILES CC(C)c1ccc(C(=O)[O-])cc1
REMARK SMILES IDX 7 1 6 2 11 3 5 4 12 5 4 6 8 7 9 8 10 9 2 10 1 11 3 12
REMARK H PARENT
REMARK Flexibility Score: inf
ROOT
ATOM      1  C   UNL     1     -12.802  18.256  -6.641  1.00  0.00    -0.003 A 
ATOM      2  C   UNL     1     -13.208  17.089  -7.309  1.00  0.00     0.010 A 
ATOM      3  C   UNL     1     -11.676  18.952  -7.109  1.00  0.00     0.010 A 
ATOM      4  C   UNL     1     -12.503  16.628  -8.423  1.00  0.00     0.004 A 
ATOM      5  C   UNL     1     -10.970  18.490  -8.225  1.00  0.00     0.004 A 
ATOM      6  C   UNL     1     -11.377  17.322  -8.895  1.00  0.00    -0.045 A 
ENDROOT
BRANCH   1   7
ATOM      7  C   UNL     1     -13.545  18.748  -5.459  1.00  0.00     0.071 C 
ATOM      8  O   UNL     1     -14.768  18.482  -5.315  1.00  0.00    -0.545 OA
ATOM      9  O   UNL     1     -12.903  19.512  -4.490  1.00  0.00    -0.545 OA
ENDBRANCH   1   7
BRANCH   6  10
ATOM     10  C   UNL     1     -10.620  16.810 -10.106  1.00  0.00     0.013 C 
ATOM     11  C   UNL     1     -11.554  16.643 -11.312  1.00  0.00     0.012 C 
ATOM     12  C   UNL     1      -9.437  17.723 -10.446  1.00  0.00     0.012 C 
ENDBRANCH   6  10
TORSDOF 2
ENDMDL
