MODEL 1
REMARK VINA RESULT:    -6.163      0.000      0.000
REMARK INTER + INTRA:          -7.682
REMARK INTER:                  -7.604
REMARK INTRA:                  -0.078
REMARK UNBOUND:                -0.078
REMARK SMILES COc1cc(-c2oc3cc(O)cc(O)c3c(=O)c2O)ccc1O
REMARK SMILES IDX 6 1 18 2 16 3 17 4 15 5 13 6 12 7 10 8 9 9 8 10 7 11 5 12
REMARK SMILES IDX 3 13 22 14 4 15 21 16 20 17 2 18 1 19 23 20 19 22 14 24
REMARK SMILES IDX 11 26
REMARK H PARENT 23 21 19 23 14 25 11 27
REMARK Flexibility Score: inf
ROOT
ATOM      1  C   UNL     1       4.495   1.177   8.089  1.00  0.00     0.180 A 
ATOM      2  C   UNL     1       4.852   0.832   9.403  1.00  0.00     0.208 A 
ATOM      3  C   UNL     1       4.575  -0.466   9.865  1.00  0.00     0.238 A 
ATOM      4  O   UNL     1       4.847  -0.753  11.061  1.00  0.00    -0.285 OA
ATOM      5  C   UNL     1       3.959  -1.404   9.003  1.00  0.00     0.111 A 
ATOM      6  C   UNL     1       3.668  -2.757   9.352  1.00  0.00     0.134 A 
ATOM      7  C   UNL     1       2.939  -3.558   8.466  1.00  0.00     0.093 A 
ATOM      8  C   UNL     1       2.547  -3.075   7.214  1.00  0.00     0.123 A 
ATOM      9  C   UNL     1       2.878  -1.776   6.840  1.00  0.00     0.094 A 
ATOM     10  C   UNL     1       3.573  -0.940   7.718  1.00  0.00     0.146 A 
ATOM     11  O   UNL     1       3.860   0.295   7.326  1.00  0.00    -0.452 OA
ENDROOT
BRANCH   1  12
ATOM     12  C   UNL     1       4.776   2.516   7.522  1.00  0.00     0.025 A 
ATOM     13  C   UNL     1       4.147   4.866   7.272  1.00  0.00     0.161 A 
ATOM     14  C   UNL     1       5.240   5.061   6.416  1.00  0.00     0.157 A 
ATOM     15  C   UNL     1       3.916   3.587   7.816  1.00  0.00     0.062 A 
ATOM     16  C   UNL     1       6.089   3.990   6.104  1.00  0.00     0.051 A 
ATOM     17  C   UNL     1       5.856   2.726   6.646  1.00  0.00     0.016 A 
BRANCH  13  18
ATOM     18  O   UNL     1       3.316   5.961   7.554  1.00  0.00    -0.493 OA
ATOM     19  C   UNL     1       2.532   6.649   6.584  1.00  0.00     0.278 C 
ENDBRANCH  13  18
BRANCH  14  20
ATOM     20  O   UNL     1       5.475   6.324   5.875  1.00  0.00    -0.504 OA
ATOM     21  H   UNL     1       6.273   6.882   6.157  1.00  0.00     0.293 HD
ENDBRANCH  14  20
ENDBRANCH   1  12
BRANCH   2  22
ATOM     22  O   UNL     1       5.440   1.780  10.245  1.00  0.00    -0.502 OA
ATOM     23  H   UNL     1       6.242   1.568  10.826  1.00  0.00     0.293 HD
ENDBRANCH   2  22
BRANCH   6  24
ATOM     24  O   UNL     1       4.093  -3.365  10.538  1.00  0.00    -0.507 OA
ATOM     25  H   UNL     1       5.030  -3.696  10.709  1.00  0.00     0.293 HD
ENDBRANCH   6  24
BRANCH   8  26
ATOM     26  O   UNL     1       1.836  -3.884   6.331  1.00  0.00    -0.508 OA
ATOM     27  H   UNL     1       2.055  -3.911   5.342  1.00  0.00     0.293 HD
ENDBRANCH   8  26
TORSDOF 6
ENDMDL
MODEL 2
REMARK VINA RESULT:    -6.060      0.843      2.036
REMARK INTER + INTRA:          -7.555
REMARK INTER:                  -7.181
REMARK INTRA:                  -0.375
REMARK UNBOUND:                -0.078
REMARK SMILES COc1cc(-c2oc3cc(O)cc(O)c3c(=O)c2O)ccc1O
REMARK SMILES IDX 6 1 18 2 16 3 17 4 15 5 13 6 12 7 10 8 9 9 8 10 7 11 5 12
REMARK SMILES IDX 3 13 22 14 4 15 21 16 20 17 2 18 1 19 23 20 19 22 14 24
REMARK SMILES IDX 11 26
REMARK H PARENT 23 21 19 23 14 25 11 27
REMARK Flexibility Score: inf
ROOT
ATOM      1  C   UNL     1       4.438   1.069   8.095  1.00  0.00     0.180 A 
ATOM      2  C   UNL     1       4.801   0.753   9.415  1.00  0.00     0.208 A 
ATOM      3  C   UNL     1       4.536  -0.537   9.903  1.00  0.00     0.238 A 
ATOM      4  O   UNL     1       4.814  -0.798  11.104  1.00  0.00    -0.285 OA
ATOM      5  C   UNL     1       3.926  -1.497   9.062  1.00  0.00     0.111 A 
ATOM      6  C   UNL     1       3.647  -2.845   9.439  1.00  0.00     0.134 A 
ATOM      7  C   UNL     1       2.924  -3.670   8.570  1.00  0.00     0.093 A 
ATOM      8  C   UNL     1       2.525  -3.216   7.310  1.00  0.00     0.123 A 
ATOM      9  C   UNL     1       2.844  -1.921   6.910  1.00  0.00     0.094 A 
ATOM     10  C   UNL     1       3.534  -1.063   7.769  1.00  0.00     0.146 A 
ATOM     11  O   UNL     1       3.809   0.167   7.351  1.00  0.00    -0.452 OA
ENDROOT
BRANCH   1  12
ATOM     12  C   UNL     1       4.706   2.399   7.501  1.00  0.00     0.025 A 
ATOM     13  C   UNL     1       6.268   3.943   6.425  1.00  0.00     0.161 A 
ATOM     14  C   UNL     1       5.275   4.933   6.419  1.00  0.00     0.157 A 
ATOM     15  C   UNL     1       5.979   2.679   6.975  1.00  0.00     0.062 A 
ATOM     16  C   UNL     1       4.011   4.664   6.961  1.00  0.00     0.051 A 
ATOM     17  C   UNL     1       3.730   3.410   7.504  1.00  0.00     0.016 A 
BRANCH  13  18
ATOM     18  O   UNL     1       7.523   4.254   5.880  1.00  0.00    -0.493 OA
ATOM     19  C   UNL     1       8.653   3.388   5.913  1.00  0.00     0.278 C 
ENDBRANCH  13  18
BRANCH  14  20
ATOM     20  O   UNL     1       5.553   6.186   5.875  1.00  0.00    -0.504 OA
ATOM     21  H   UNL     1       5.684   7.002   6.462  1.00  0.00     0.293 HD
ENDBRANCH  14  20
ENDBRANCH   1  12
BRANCH   2  22
ATOM     22  O   UNL     1       5.383   1.723  10.236  1.00  0.00    -0.502 OA
ATOM     23  H   UNL     1       5.291   1.708  11.245  1.00  0.00     0.293 HD
ENDBRANCH   2  22
BRANCH   6  24
ATOM     24  O   UNL     1       4.081  -3.426  10.635  1.00  0.00    -0.507 OA
ATOM     25  H   UNL     1       3.523  -4.035  11.213  1.00  0.00     0.293 HD
ENDBRANCH   6  24
BRANCH   8  26
ATOM     26  O   UNL     1       1.818  -4.049   6.445  1.00  0.00    -0.508 OA
ATOM     27  H   UNL     1       1.442  -3.705   5.569  1.00  0.00     0.293 HD
ENDBRANCH   8  26
TORSDOF 6
ENDMDL
MODEL 3
REMARK VINA RESULT:    -5.764      1.493      7.177
REMARK INTER + INTRA:          -7.190
REMARK INTER:                  -6.916
REMARK INTRA:                  -0.273
REMARK UNBOUND:                -0.078
REMARK SMILES COc1cc(-c2oc3cc(O)cc(O)c3c(=O)c2O)ccc1O
REMARK SMILES IDX 6 1 18 2 16 3 17 4 15 5 13 6 12 7 10 8 9 9 8 10 7 11 5 12
REMARK SMILES IDX 3 13 22 14 4 15 21 16 20 17 2 18 1 19 23 20 19 22 14 24
REMARK SMILES IDX 11 26
REMARK H PARENT 23 21 19 23 14 25 11 27
REMARK Flexibility Score: inf
ROOT
ATOM      1  C   UNL     1       4.507   1.742   7.651  1.00  0.00     0.180 A 
ATOM      2  C   UNL     1       5.807   2.155   7.316  1.00  0.00     0.208 A 
ATOM      3  C   UNL     1       5.997   3.443   6.787  1.00  0.00     0.238 A 
ATOM      4  O   UNL     1       7.157   3.788   6.438  1.00  0.00    -0.285 OA
ATOM      5  C   UNL     1       4.888   4.304   6.615  1.00  0.00     0.111 A 
ATOM      6  C   UNL     1       4.969   5.643   6.127  1.00  0.00     0.134 A 
ATOM      7  C   UNL     1       3.794   6.360   5.875  1.00  0.00     0.093 A 
ATOM      8  C   UNL     1       2.540   5.809   6.157  1.00  0.00     0.123 A 
ATOM      9  C   UNL     1       2.453   4.526   6.689  1.00  0.00     0.094 A 
ATOM     10  C   UNL     1       3.607   3.772   6.918  1.00  0.00     0.146 A 
ATOM     11  O   UNL     1       3.479   2.550   7.418  1.00  0.00    -0.452 OA
ENDROOT
BRANCH   1  12
ATOM     12  C   UNL     1       4.229   0.410   8.235  1.00  0.00     0.025 A 
ATOM     13  C   UNL     1       3.141  -1.773   8.064  1.00  0.00     0.161 A 
ATOM     14  C   UNL     1       3.628  -2.109   9.335  1.00  0.00     0.157 A 
ATOM     15  C   UNL     1       3.439  -0.508   7.522  1.00  0.00     0.062 A 
ATOM     16  C   UNL     1       4.400  -1.189  10.057  1.00  0.00     0.051 A 
ATOM     17  C   UNL     1       4.693   0.063   9.516  1.00  0.00     0.016 A 
BRANCH  13  18
ATOM     18  O   UNL     1       2.365  -2.719   7.375  1.00  0.00    -0.493 OA
ATOM     19  C   UNL     1       2.875  -3.626   6.403  1.00  0.00     0.278 C 
ENDBRANCH  13  18
BRANCH  14  20
ATOM     20  O   UNL     1       3.338  -3.360   9.876  1.00  0.00    -0.504 OA
ATOM     21  H   UNL     1       3.495  -4.214   9.354  1.00  0.00     0.293 HD
ENDBRANCH  14  20
ENDBRANCH   1  12
BRANCH   2  22
ATOM     22  O   UNL     1       6.886   1.280   7.473  1.00  0.00    -0.502 OA
ATOM     23  H   UNL     1       7.199   0.665   6.731  1.00  0.00     0.293 HD
ENDBRANCH   2  22
BRANCH   6  24
ATOM     24  O   UNL     1       6.173   6.319   5.901  1.00  0.00    -0.507 OA
ATOM     25  H   UNL     1       7.086   5.894   5.937  1.00  0.00     0.293 HD
ENDBRANCH   6  24
BRANCH   8  26
ATOM     26  O   UNL     1       1.375   6.534   5.917  1.00  0.00    -0.508 OA
ATOM     27  H   UNL     1       0.545   6.094   5.538  1.00  0.00     0.293 HD
ENDBRANCH   8  26
TORSDOF 6
ENDMDL
MODEL 4
REMARK VINA RESULT:    -5.722      1.978      7.284
REMARK INTER + INTRA:          -7.138
REMARK INTER:                  -7.116
REMARK INTRA:                  -0.023
REMARK UNBOUND:                -0.078
REMARK SMILES COc1cc(-c2oc3cc(O)cc(O)c3c(=O)c2O)ccc1O
REMARK SMILES IDX 6 1 18 2 16 3 17 4 15 5 13 6 12 7 10 8 9 9 8 10 7 11 5 12
REMARK SMILES IDX 3 13 22 14 4 15 21 16 20 17 2 18 1 19 23 20 19 22 14 24
REMARK SMILES IDX 11 26
REMARK H PARENT 23 21 19 23 14 25 11 27
REMARK Flexibility Score: inf
ROOT
ATOM      1  C   UNL     1       4.414   2.224   6.572  1.00  0.00     0.180 A 
ATOM      2  C   UNL     1       5.709   2.727   6.356  1.00  0.00     0.208 A 
ATOM      3  C   UNL     1       5.875   4.104   6.135  1.00  0.00     0.238 A 
ATOM      4  O   UNL     1       7.030   4.540   5.887  1.00  0.00    -0.285 OA
ATOM      5  C   UNL     1       4.750   4.961   6.149  1.00  0.00     0.111 A 
ATOM      6  C   UNL     1       4.806   6.376   5.976  1.00  0.00     0.134 A 
ATOM      7  C   UNL     1       3.618   7.109   5.879  1.00  0.00     0.093 A 
ATOM      8  C   UNL     1       2.374   6.486   6.013  1.00  0.00     0.123 A 
ATOM      9  C   UNL     1       2.310   5.114   6.240  1.00  0.00     0.094 A 
ATOM     10  C   UNL     1       3.478   4.350   6.306  1.00  0.00     0.146 A 
ATOM     11  O   UNL     1       3.371   3.044   6.515  1.00  0.00    -0.452 OA
ENDROOT
BRANCH   1  12
ATOM     12  C   UNL     1       4.161   0.789   6.836  1.00  0.00     0.025 A 
ATOM     13  C   UNL     1       3.140  -0.943   8.228  1.00  0.00     0.161 A 
ATOM     14  C   UNL     1       3.705  -1.928   7.406  1.00  0.00     0.157 A 
ATOM     15  C   UNL     1       3.378   0.415   7.942  1.00  0.00     0.062 A 
ATOM     16  C   UNL     1       4.503  -1.560   6.314  1.00  0.00     0.051 A 
ATOM     17  C   UNL     1       4.736  -0.213   6.035  1.00  0.00     0.016 A 
BRANCH  13  18
ATOM     18  O   UNL     1       2.353  -1.352   9.316  1.00  0.00    -0.493 OA
ATOM     19  C   UNL     1       2.835  -1.502  10.648  1.00  0.00     0.278 C 
ENDBRANCH  13  18
BRANCH  14  20
ATOM     20  O   UNL     1       3.473  -3.275   7.684  1.00  0.00    -0.504 OA
ATOM     21  H   UNL     1       2.533  -3.646   7.758  1.00  0.00     0.293 HD
ENDBRANCH  14  20
ENDBRANCH   1  12
BRANCH   2  22
ATOM     22  O   UNL     1       6.804   1.859   6.324  1.00  0.00    -0.502 OA
ATOM     23  H   UNL     1       6.871   1.092   5.667  1.00  0.00     0.293 HD
ENDBRANCH   2  22
BRANCH   6  24
ATOM     24  O   UNL     1       5.997   7.109   5.925  1.00  0.00    -0.507 OA
ATOM     25  H   UNL     1       6.082   8.041   5.549  1.00  0.00     0.293 HD
ENDBRANCH   6  24
BRANCH   8  26
ATOM     26  O   UNL     1       1.196   7.224   5.929  1.00  0.00    -0.508 OA
ATOM     27  H   UNL     1       1.207   8.235   5.866  1.00  0.00     0.293 HD
ENDBRANCH   8  26
TORSDOF 6
ENDMDL
MODEL 5
REMARK VINA RESULT:    -5.708      3.188      7.370
REMARK INTER + INTRA:          -7.121
REMARK INTER:                  -6.845
REMARK INTRA:                  -0.276
REMARK UNBOUND:                -0.078
REMARK SMILES COc1cc(-c2oc3cc(O)cc(O)c3c(=O)c2O)ccc1O
REMARK SMILES IDX 6 1 18 2 16 3 17 4 15 5 13 6 12 7 10 8 9 9 8 10 7 11 5 12
REMARK SMILES IDX 3 13 22 14 4 15 21 16 20 17 2 18 1 19 23 20 19 22 14 24
REMARK SMILES IDX 11 26
REMARK H PARENT 23 21 19 23 14 25 11 27
REMARK Flexibility Score: inf
ROOT
ATOM      1  C   UNL     1       6.408   0.727   6.748  1.00  0.00     0.180 A 
ATOM      2  C   UNL     1       5.978   2.064   6.784  1.00  0.00     0.208 A 
ATOM      3  C   UNL     1       6.919   3.087   6.579  1.00  0.00     0.238 A 
ATOM      4  O   UNL     1       6.538   4.284   6.666  1.00  0.00    -0.285 OA
ATOM      5  C   UNL     1       8.272   2.759   6.325  1.00  0.00     0.111 A 
ATOM      6  C   UNL     1       9.302   3.712   6.063  1.00  0.00     0.134 A 
ATOM      7  C   UNL     1      10.629   3.283   5.954  1.00  0.00     0.093 A 
ATOM      8  C   UNL     1      10.956   1.927   6.033  1.00  0.00     0.123 A 
ATOM      9  C   UNL     1       9.951   0.983   6.229  1.00  0.00     0.094 A 
ATOM     10  C   UNL     1       8.622   1.384   6.377  1.00  0.00     0.146 A 
ATOM     11  O   UNL     1       7.696   0.454   6.572  1.00  0.00    -0.452 OA
ENDROOT
BRANCH   1  12
ATOM     12  C   UNL     1       5.473  -0.407   6.931  1.00  0.00     0.025 A 
ATOM     13  C   UNL     1       4.041  -1.731   8.406  1.00  0.00     0.161 A 
ATOM     14  C   UNL     1       3.739  -2.585   7.336  1.00  0.00     0.157 A 
ATOM     15  C   UNL     1       4.915  -0.647   8.199  1.00  0.00     0.062 A 
ATOM     16  C   UNL     1       4.309  -2.361   6.076  1.00  0.00     0.051 A 
ATOM     17  C   UNL     1       5.174  -1.285   5.875  1.00  0.00     0.016 A 
BRANCH  13  18
ATOM     18  O   UNL     1       3.456  -1.994   9.655  1.00  0.00    -0.493 OA
ATOM     19  C   UNL     1       2.421  -1.210  10.241  1.00  0.00     0.278 C 
ENDBRANCH  13  18
BRANCH  14  20
ATOM     20  O   UNL     1       2.873  -3.660   7.534  1.00  0.00    -0.504 OA
ATOM     21  H   UNL     1       2.990  -4.298   8.312  1.00  0.00     0.293 HD
ENDBRANCH  14  20
ENDBRANCH   1  12
BRANCH   2  22
ATOM     22  O   UNL     1       4.641   2.366   7.058  1.00  0.00    -0.502 OA
ATOM     23  H   UNL     1       4.312   3.317   7.174  1.00  0.00     0.293 HD
ENDBRANCH   2  22
BRANCH   6  24
ATOM     24  O   UNL     1       9.070   5.079   5.875  1.00  0.00    -0.507 OA
ATOM     25  H   UNL     1       8.956   5.750   6.619  1.00  0.00     0.293 HD
ENDBRANCH   6  24
BRANCH   8  26
ATOM     26  O   UNL     1      12.279   1.506   5.908  1.00  0.00    -0.508 OA
ATOM     27  H   UNL     1      13.025   2.158   5.700  1.00  0.00     0.293 HD
ENDBRANCH   8  26
TORSDOF 6
ENDMDL
MODEL 6
REMARK VINA RESULT:    -5.561      1.880      6.996
REMARK INTER + INTRA:          -6.940
REMARK INTER:                  -6.792
REMARK INTRA:                  -0.148
REMARK UNBOUND:                -0.078
REMARK SMILES COc1cc(-c2oc3cc(O)cc(O)c3c(=O)c2O)ccc1O
REMARK SMILES IDX 6 1 18 2 16 3 17 4 15 5 13 6 12 7 10 8 9 9 8 10 7 11 5 12
REMARK SMILES IDX 3 13 22 14 4 15 21 16 20 17 2 18 1 19 23 20 19 22 14 24
REMARK SMILES IDX 11 26
REMARK H PARENT 23 21 19 23 14 25 11 27
REMARK Flexibility Score: inf
ROOT
ATOM      1  C   UNL     1       4.357   0.668   7.296  1.00  0.00     0.180 A 
ATOM      2  C   UNL     1       5.724   0.743   6.980  1.00  0.00     0.208 A 
ATOM      3  C   UNL     1       6.255   1.969   6.547  1.00  0.00     0.238 A 
ATOM      4  O   UNL     1       7.468   2.018   6.213  1.00  0.00    -0.285 OA
ATOM      5  C   UNL     1       5.417   3.106   6.450  1.00  0.00     0.111 A 
ATOM      6  C   UNL     1       5.857   4.407   6.062  1.00  0.00     0.134 A 
ATOM      7  C   UNL     1       4.917   5.427   5.876  1.00  0.00     0.093 A 
ATOM      8  C   UNL     1       3.560   5.211   6.127  1.00  0.00     0.123 A 
ATOM      9  C   UNL     1       3.128   3.961   6.564  1.00  0.00     0.094 A 
ATOM     10  C   UNL     1       4.038   2.913   6.724  1.00  0.00     0.146 A 
ATOM     11  O   UNL     1       3.583   1.735   7.133  1.00  0.00    -0.452 OA
ENDROOT
BRANCH   1  12
ATOM     12  C   UNL     1       3.728  -0.582   7.781  1.00  0.00     0.025 A 
ATOM     13  C   UNL     1       2.513  -1.780   9.533  1.00  0.00     0.161 A 
ATOM     14  C   UNL     1       2.575  -2.952   8.766  1.00  0.00     0.157 A 
ATOM     15  C   UNL     1       3.098  -0.599   9.037  1.00  0.00     0.062 A 
ATOM     16  C   UNL     1       3.220  -2.945   7.522  1.00  0.00     0.051 A 
ATOM     17  C   UNL     1       3.799  -1.772   7.035  1.00  0.00     0.016 A 
BRANCH  13  18
ATOM     18  O   UNL     1       1.865  -1.830  10.777  1.00  0.00    -0.493 OA
ATOM     19  C   UNL     1       0.582  -1.270  11.040  1.00  0.00     0.278 C 
ENDBRANCH  13  18
BRANCH  14  20
ATOM     20  O   UNL     1       1.997  -4.125   9.250  1.00  0.00    -0.504 OA
ATOM     21  H   UNL     1       1.065  -4.131   9.649  1.00  0.00     0.293 HD
ENDBRANCH  14  20
ENDBRANCH   1  12
BRANCH   2  22
ATOM     22  O   UNL     1       6.529  -0.397   7.061  1.00  0.00    -0.502 OA
ATOM     23  H   UNL     1       7.270  -0.587   6.397  1.00  0.00     0.293 HD
ENDBRANCH   2  22
BRANCH   6  24
ATOM     24  O   UNL     1       7.200   4.753   5.875  1.00  0.00    -0.507 OA
ATOM     25  H   UNL     1       7.586   5.667   6.050  1.00  0.00     0.293 HD
ENDBRANCH   6  24
BRANCH   8  26
ATOM     26  O   UNL     1       2.632   6.236   5.954  1.00  0.00    -0.508 OA
ATOM     27  H   UNL     1       2.237   6.732   6.744  1.00  0.00     0.293 HD
ENDBRANCH   8  26
TORSDOF 6
ENDMDL
MODEL 7
REMARK VINA RESULT:    -5.532      8.602     12.660
REMARK INTER + INTRA:          -6.904
REMARK INTER:                  -6.872
REMARK INTRA:                  -0.031
REMARK UNBOUND:                -0.078
REMARK SMILES COc1cc(-c2oc3cc(O)cc(O)c3c(=O)c2O)ccc1O
REMARK SMILES IDX 6 1 18 2 16 3 17 4 15 5 13 6 12 7 10 8 9 9 8 10 7 11 5 12
REMARK SMILES IDX 3 13 22 14 4 15 21 16 20 17 2 18 1 19 23 20 19 22 14 24
REMARK SMILES IDX 11 26
REMARK H PARENT 23 21 19 23 14 25 11 27
REMARK Flexibility Score: inf
ROOT
ATOM      1  C   UNL     1       2.432  11.433   6.824  1.00  0.00     0.180 A 
ATOM      2  C   UNL     1       1.933  12.713   6.526  1.00  0.00     0.208 A 
ATOM      3  C   UNL     1       2.791  13.820   6.638  1.00  0.00     0.238 A 
ATOM      4  O   UNL     1       2.325  14.970   6.422  1.00  0.00    -0.285 OA
ATOM      5  C   UNL     1       4.137  13.631   7.031  1.00  0.00     0.111 A 
ATOM      6  C   UNL     1       5.105  14.675   7.138  1.00  0.00     0.134 A 
ATOM      7  C   UNL     1       6.372  14.392   7.660  1.00  0.00     0.093 A 
ATOM      8  C   UNL     1       6.729  13.090   8.018  1.00  0.00     0.123 A 
ATOM      9  C   UNL     1       5.812  12.054   7.862  1.00  0.00     0.094 A 
ATOM     10  C   UNL     1       4.528  12.311   7.377  1.00  0.00     0.146 A 
ATOM     11  O   UNL     1       3.681  11.296   7.252  1.00  0.00    -0.452 OA
ENDROOT
BRANCH   1  12
ATOM     12  C   UNL     1       1.596  10.216   6.707  1.00  0.00     0.025 A 
ATOM     13  C   UNL     1      -0.422   8.985   7.331  1.00  0.00     0.161 A 
ATOM     14  C   UNL     1       0.010   7.897   6.559  1.00  0.00     0.157 A 
ATOM     15  C   UNL     1       0.380  10.140   7.407  1.00  0.00     0.062 A 
ATOM     16  C   UNL     1       1.232   7.961   5.876  1.00  0.00     0.051 A 
ATOM     17  C   UNL     1       2.023   9.108   5.954  1.00  0.00     0.016 A 
BRANCH  13  18
ATOM     18  O   UNL     1      -1.648   8.879   8.007  1.00  0.00    -0.493 OA
ATOM     19  C   UNL     1      -1.817   8.255   9.276  1.00  0.00     0.278 C 
ENDBRANCH  13  18
BRANCH  14  20
ATOM     20  O   UNL     1      -0.780   6.751   6.479  1.00  0.00    -0.504 OA
ATOM     21  H   UNL     1      -0.950   6.166   7.289  1.00  0.00     0.293 HD
ENDBRANCH  14  20
ENDBRANCH   1  12
BRANCH   2  22
ATOM     22  O   UNL     1       0.595  12.879   6.161  1.00  0.00    -0.502 OA
ATOM     23  H   UNL     1       0.297  13.580   5.492  1.00  0.00     0.293 HD
ENDBRANCH   2  22
BRANCH   6  24
ATOM     24  O   UNL     1       4.881  15.992   6.721  1.00  0.00    -0.507 OA
ATOM     25  H   UNL     1       5.382  16.452   5.977  1.00  0.00     0.293 HD
ENDBRANCH   6  24
BRANCH   8  26
ATOM     26  O   UNL     1       7.998  12.813   8.524  1.00  0.00    -0.508 OA
ATOM     27  H   UNL     1       8.176  12.785   9.521  1.00  0.00     0.293 HD
ENDBRANCH   8  26
TORSDOF 6
ENDMDL
