MODEL 1
REMARK VINA RESULT:    -5.268      0.000      0.000
REMARK INTER + INTRA:          -5.674
REMARK INTER:                  -5.576
REMARK INTRA:                  -0.098
REMARK UNBOUND:                -0.098
REMARK SMILES C=C(C)[C@@H]1CC=C(C)C(=O)C1
REMARK SMILES IDX 8 1 7 2 6 3 5 4 4 5 11 6 9 7 10 8 2 9 1 10 3 11
REMARK H PARENT
REMARK Flexibility Score: inf
ROOT
ATOM      1  C   UNL     1     102.813 130.702  53.390  1.00  0.00     0.048 C 
ATOM      2  C   UNL     1     102.801 131.915  52.501  1.00  0.00    -0.012 C 
ATOM      3  C   UNL     1     103.815 132.796  52.559  1.00  0.00    -0.019 C 
ATOM      4  C   UNL     1     103.863 134.016  51.678  1.00  0.00     0.036 C 
ATOM      5  C   UNL     1     102.445 134.546  51.387  1.00  0.00     0.025 C 
ATOM      6  C   UNL     1     101.570 133.429  50.789  1.00  0.00     0.089 C 
ATOM      7  C   UNL     1     101.616 132.199  51.655  1.00  0.00     0.158 C 
ATOM      8  O   UNL     1     100.648 131.393  51.626  1.00  0.00    -0.295 OA
ENDROOT
BRANCH   5   9
ATOM      9  C   UNL     1     102.482 135.769  50.481  1.00  0.00    -0.077 C 
ATOM     10  C   UNL     1     103.637 136.420  50.277  1.00  0.00     0.008 C 
ATOM     11  C   UNL     1     101.237 136.278  49.797  1.00  0.00     0.039 C 
ENDBRANCH   5   9
TORSDOF 1
ENDMDL
MODEL 2
REMARK VINA RESULT:    -5.224      1.336      1.541
REMARK INTER + INTRA:          -5.628
REMARK INTER:                  -5.541
REMARK INTRA:                  -0.087
REMARK UNBOUND:                -0.098
REMARK SMILES C=C(C)[C@@H]1CC=C(C)C(=O)C1
REMARK SMILES IDX 8 1 7 2 6 3 5 4 4 5 11 6 9 7 10 8 2 9 1 10 3 11
REMARK H PARENT
REMARK Flexibility Score: inf
ROOT
ATOM      1  C   UNL     1     102.887 130.254  53.036  1.00  0.00     0.048 C 
ATOM      2  C   UNL     1     102.576 131.539  52.318  1.00  0.00    -0.012 C 
ATOM      3  C   UNL     1     102.888 131.669  51.017  1.00  0.00    -0.019 C 
ATOM      4  C   UNL     1     102.583 132.925  50.245  1.00  0.00     0.036 C 
ATOM      5  C   UNL     1     102.675 134.168  51.150  1.00  0.00     0.025 C 
ATOM      6  C   UNL     1     101.762 134.003  52.379  1.00  0.00     0.089 C 
ATOM      7  C   UNL     1     102.041 132.698  53.074  1.00  0.00     0.158 C 
ATOM      8  O   UNL     1     101.782 132.590  54.303  1.00  0.00    -0.295 OA
ENDROOT
BRANCH   5   9
ATOM      9  C   UNL     1     102.349 135.442  50.383  1.00  0.00    -0.077 C 
ATOM     10  C   UNL     1     103.285 136.392  50.227  1.00  0.00     0.008 C 
ATOM     11  C   UNL     1     100.983 135.672  49.784  1.00  0.00     0.039 C 
ENDBRANCH   5   9
TORSDOF 1
ENDMDL
MODEL 3
REMARK VINA RESULT:    -5.202      1.957      2.814
REMARK INTER + INTRA:          -5.604
REMARK INTER:                  -5.506
REMARK INTRA:                  -0.098
REMARK UNBOUND:                -0.098
REMARK SMILES C=C(C)[C@@H]1CC=C(C)C(=O)C1
REMARK SMILES IDX 8 1 7 2 6 3 5 4 4 5 11 6 9 7 10 8 2 9 1 10 3 11
REMARK H PARENT
REMARK Flexibility Score: inf
ROOT
ATOM      1  C   UNL     1      99.349 131.379  53.085  1.00  0.00     0.048 C 
ATOM      2  C   UNL     1      99.956 132.623  52.497  1.00  0.00    -0.012 C 
ATOM      3  C   UNL     1      99.495 133.103  51.329  1.00  0.00    -0.019 C 
ATOM      4  C   UNL     1     100.053 134.355  50.705  1.00  0.00     0.036 C 
ATOM      5  C   UNL     1     101.552 134.511  51.023  1.00  0.00     0.025 C 
ATOM      6  C   UNL     1     101.783 134.466  52.544  1.00  0.00     0.089 C 
ATOM      7  C   UNL     1     101.139 133.244  53.141  1.00  0.00     0.158 C 
ATOM      8  O   UNL     1     101.596 132.774  54.218  1.00  0.00    -0.295 OA
ENDROOT
BRANCH   5   9
ATOM      9  C   UNL     1     102.122 135.784  50.412  1.00  0.00    -0.077 C 
ATOM     10  C   UNL     1     101.347 136.567  49.645  1.00  0.00     0.008 C 
ATOM     11  C   UNL     1     103.554 136.197  50.647  1.00  0.00     0.039 C 
ENDBRANCH   5   9
TORSDOF 1
ENDMDL
MODEL 4
REMARK VINA RESULT:    -5.142      1.676      4.380
REMARK INTER + INTRA:          -5.541
REMARK INTER:                  -5.442
REMARK INTRA:                  -0.099
REMARK UNBOUND:                -0.098
REMARK SMILES C=C(C)[C@@H]1CC=C(C)C(=O)C1
REMARK SMILES IDX 8 1 7 2 6 3 5 4 4 5 11 6 9 7 10 8 2 9 1 10 3 11
REMARK H PARENT
REMARK Flexibility Score: inf
ROOT
ATOM      1  C   UNL     1     103.276 136.585  49.756  1.00  0.00     0.048 C 
ATOM      2  C   UNL     1     102.768 135.411  50.548  1.00  0.00    -0.012 C 
ATOM      3  C   UNL     1     103.589 134.774  51.400  1.00  0.00    -0.019 C 
ATOM      4  C   UNL     1     103.127 133.606  52.231  1.00  0.00     0.036 C 
ATOM      5  C   UNL     1     102.061 132.782  51.484  1.00  0.00     0.025 C 
ATOM      6  C   UNL     1     100.894 133.687  51.051  1.00  0.00     0.089 C 
ATOM      7  C   UNL     1     101.403 134.884  50.296  1.00  0.00     0.158 C 
ATOM      8  O   UNL     1     100.644 135.459  49.470  1.00  0.00    -0.295 OA
ENDROOT
BRANCH   5   9
ATOM      9  C   UNL     1     101.574 131.609  52.324  1.00  0.00    -0.077 C 
ATOM     10  C   UNL     1     100.258 131.394  52.479  1.00  0.00     0.008 C 
ATOM     11  C   UNL     1     102.542 130.668  52.997  1.00  0.00     0.039 C 
ENDBRANCH   5   9
TORSDOF 1
ENDMDL
MODEL 5
REMARK VINA RESULT:    -5.136      1.646      4.091
REMARK INTER + INTRA:          -5.534
REMARK INTER:                  -5.435
REMARK INTRA:                  -0.099
REMARK UNBOUND:                -0.098
REMARK SMILES C=C(C)[C@@H]1CC=C(C)C(=O)C1
REMARK SMILES IDX 8 1 7 2 6 3 5 4 4 5 11 6 9 7 10 8 2 9 1 10 3 11
REMARK H PARENT
REMARK Flexibility Score: inf
ROOT
ATOM      1  C   UNL     1     101.016 135.829  49.712  1.00  0.00     0.048 C 
ATOM      2  C   UNL     1     102.097 135.398  50.665  1.00  0.00    -0.012 C 
ATOM      3  C   UNL     1     103.127 136.223  50.923  1.00  0.00    -0.019 C 
ATOM      4  C   UNL     1     104.226 135.850  51.883  1.00  0.00     0.036 C 
ATOM      5  C   UNL     1     104.487 134.332  51.865  1.00  0.00     0.025 C 
ATOM      6  C   UNL     1     103.183 133.563  52.145  1.00  0.00     0.089 C 
ATOM      7  C   UNL     1     102.088 134.022  51.221  1.00  0.00     0.158 C 
ATOM      8  O   UNL     1     101.142 133.235  50.951  1.00  0.00    -0.295 OA
ENDROOT
BRANCH   5   9
ATOM      9  C   UNL     1     105.584 133.943  52.846  1.00  0.00    -0.077 C 
ATOM     10  C   UNL     1     105.354 133.000  53.773  1.00  0.00     0.008 C 
ATOM     11  C   UNL     1     106.943 134.598  52.807  1.00  0.00     0.039 C 
ENDBRANCH   5   9
TORSDOF 1
ENDMDL
MODEL 6
REMARK VINA RESULT:    -5.076      2.604      3.430
REMARK INTER + INTRA:          -5.470
REMARK INTER:                  -5.374
REMARK INTRA:                  -0.097
REMARK UNBOUND:                -0.098
REMARK SMILES C=C(C)[C@@H]1CC=C(C)C(=O)C1
REMARK SMILES IDX 8 1 7 2 6 3 5 4 4 5 11 6 9 7 10 8 2 9 1 10 3 11
REMARK H PARENT
REMARK Flexibility Score: inf
ROOT
ATOM      1  C   UNL     1     106.248 133.715  53.248  1.00  0.00     0.048 C 
ATOM      2  C   UNL     1     104.951 134.179  52.645  1.00  0.00    -0.012 C 
ATOM      3  C   UNL     1     103.989 133.284  52.360  1.00  0.00    -0.019 C 
ATOM      4  C   UNL     1     102.664 133.696  51.774  1.00  0.00     0.036 C 
ATOM      5  C   UNL     1     102.822 134.922  50.855  1.00  0.00     0.025 C 
ATOM      6  C   UNL     1     103.507 136.074  51.614  1.00  0.00     0.089 C 
ATOM      7  C   UNL     1     104.784 135.601  52.253  1.00  0.00     0.158 C 
ATOM      8  O   UNL     1     105.700 136.435  52.486  1.00  0.00    -0.295 OA
ENDROOT
BRANCH   5   9
ATOM      9  C   UNL     1     101.485 135.359  50.272  1.00  0.00    -0.077 C 
ATOM     10  C   UNL     1     101.389 136.517  49.600  1.00  0.00     0.008 C 
ATOM     11  C   UNL     1     100.245 134.514  50.432  1.00  0.00     0.039 C 
ENDBRANCH   5   9
TORSDOF 1
ENDMDL
MODEL 7
REMARK VINA RESULT:    -5.059      1.630      2.557
REMARK INTER + INTRA:          -5.453
REMARK INTER:                  -5.355
REMARK INTRA:                  -0.098
REMARK UNBOUND:                -0.098
REMARK SMILES C=C(C)[C@@H]1CC=C(C)C(=O)C1
REMARK SMILES IDX 8 1 7 2 6 3 5 4 4 5 11 6 9 7 10 8 2 9 1 10 3 11
REMARK H PARENT
REMARK Flexibility Score: inf
ROOT
ATOM      1  C   UNL     1     102.941 130.356  53.327  1.00  0.00     0.048 C 
ATOM      2  C   UNL     1     102.333 131.572  52.682  1.00  0.00    -0.012 C 
ATOM      3  C   UNL     1     101.130 131.482  52.089  1.00  0.00    -0.019 C 
ATOM      4  C   UNL     1     100.466 132.671  51.446  1.00  0.00     0.036 C 
ATOM      5  C   UNL     1     101.511 133.631  50.846  1.00  0.00     0.025 C 
ATOM      6  C   UNL     1     102.535 134.044  51.919  1.00  0.00     0.089 C 
ATOM      7  C   UNL     1     103.113 132.831  52.594  1.00  0.00     0.158 C 
ATOM      8  O   UNL     1     104.257 132.907  53.118  1.00  0.00    -0.295 OA
ENDROOT
BRANCH   5   9
ATOM      9  C   UNL     1     100.851 134.846  50.210  1.00  0.00    -0.077 C 
ATOM     10  C   UNL     1      99.567 134.789  49.823  1.00  0.00     0.008 C 
ATOM     11  C   UNL     1     101.610 136.133  49.997  1.00  0.00     0.039 C 
ENDBRANCH   5   9
TORSDOF 1
ENDMDL
MODEL 8
REMARK VINA RESULT:    -5.027      1.449      1.915
REMARK INTER + INTRA:          -5.419
REMARK INTER:                  -5.328
REMARK INTRA:                  -0.091
REMARK UNBOUND:                -0.098
REMARK SMILES C=C(C)[C@@H]1CC=C(C)C(=O)C1
REMARK SMILES IDX 8 1 7 2 6 3 5 4 4 5 11 6 9 7 10 8 2 9 1 10 3 11
REMARK H PARENT
REMARK Flexibility Score: inf
ROOT
ATOM      1  C   UNL     1     100.039 131.369  52.412  1.00  0.00     0.048 C 
ATOM      2  C   UNL     1     100.965 132.447  51.919  1.00  0.00    -0.012 C 
ATOM      3  C   UNL     1     102.284 132.356  52.160  1.00  0.00    -0.019 C 
ATOM      4  C   UNL     1     103.258 133.397  51.672  1.00  0.00     0.036 C 
ATOM      5  C   UNL     1     102.610 134.794  51.651  1.00  0.00     0.025 C 
ATOM      6  C   UNL     1     101.316 134.771  50.817  1.00  0.00     0.089 C 
ATOM      7  C   UNL     1     100.407 133.665  51.280  1.00  0.00     0.158 C 
ATOM      8  O   UNL     1      99.166 133.769  51.086  1.00  0.00    -0.295 OA
ENDROOT
BRANCH   5   9
ATOM      9  C   UNL     1     103.580 135.851  51.142  1.00  0.00    -0.077 C 
ATOM     10  C   UNL     1     104.653 136.188  51.875  1.00  0.00     0.008 C 
ATOM     11  C   UNL     1     103.367 136.542  49.817  1.00  0.00     0.039 C 
ENDBRANCH   5   9
TORSDOF 1
ENDMDL
MODEL 9
REMARK VINA RESULT:    -4.966      2.484      4.952
REMARK INTER + INTRA:          -5.355
REMARK INTER:                  -5.258
REMARK INTRA:                  -0.097
REMARK UNBOUND:                -0.098
REMARK SMILES C=C(C)[C@@H]1CC=C(C)C(=O)C1
REMARK SMILES IDX 8 1 7 2 6 3 5 4 4 5 11 6 9 7 10 8 2 9 1 10 3 11
REMARK H PARENT
REMARK Flexibility Score: inf
ROOT
ATOM      1  C   UNL     1     101.661 136.612  49.431  1.00  0.00     0.048 C 
ATOM      2  C   UNL     1     101.230 135.469  50.308  1.00  0.00    -0.012 C 
ATOM      3  C   UNL     1     100.018 134.914  50.136  1.00  0.00    -0.019 C 
ATOM      4  C   UNL     1      99.544 133.755  50.974  1.00  0.00     0.036 C 
ATOM      5  C   UNL     1     100.122 133.830  52.400  1.00  0.00     0.025 C 
ATOM      6  C   UNL     1     101.658 133.924  52.350  1.00  0.00     0.089 C 
ATOM      7  C   UNL     1     102.091 135.039  51.438  1.00  0.00     0.158 C 
ATOM      8  O   UNL     1     103.213 135.583  51.624  1.00  0.00    -0.295 OA
ENDROOT
BRANCH   5   9
ATOM      9  C   UNL     1      99.664 132.652  53.249  1.00  0.00    -0.077 C 
ATOM     10  C   UNL     1      99.685 131.409  52.743  1.00  0.00     0.008 C 
ATOM     11  C   UNL     1      99.179 132.845  54.665  1.00  0.00     0.039 C 
ENDBRANCH   5   9
TORSDOF 1
ENDMDL
