MODEL 1
REMARK VINA RESULT:    -3.583      0.000      0.000
REMARK INTER + INTRA:          -4.379
REMARK INTER:                  -4.211
REMARK INTRA:                  -0.168
REMARK UNBOUND:                -0.168
REMARK SMILES O=C([O-])CCC(=O)[O-]
REMARK SMILES IDX 4 1 2 2 1 3 3 4 5 5 6 6 7 7 8 8
REMARK H PARENT
REMARK Flexibility Score: inf
ROOT
ATOM      1  C   UNL     1      50.726 154.276 -23.909  1.00  0.00     0.059 C 
ENDROOT
BRANCH   1   2
ATOM      2  C   UNL     1      49.995 153.119 -23.307  1.00  0.00     0.042 C 
ATOM      3  O   UNL     1      48.847 152.811 -23.722  1.00  0.00    -0.550 OA
ATOM      4  O   UNL     1      50.602 152.349 -22.323  1.00  0.00    -0.550 OA
ENDBRANCH   1   2
BRANCH   1   5
ATOM      5  C   UNL     1      52.088 153.831 -24.446  1.00  0.00     0.059 C 
BRANCH   5   6
ATOM      6  C   UNL     1      51.919 152.999 -25.677  1.00  0.00     0.042 C 
ATOM      7  O   UNL     1      52.202 151.772 -25.657  1.00  0.00    -0.550 OA
ATOM      8  O   UNL     1      51.404 153.567 -26.836  1.00  0.00    -0.550 OA
ENDBRANCH   5   6
ENDBRANCH   1   5
TORSDOF 3
ENDMDL
MODEL 2
REMARK VINA RESULT:    -3.552     14.086     14.742
REMARK INTER + INTRA:          -4.342
REMARK INTER:                  -4.273
REMARK INTRA:                  -0.069
REMARK UNBOUND:                -0.168
REMARK SMILES O=C([O-])CCC(=O)[O-]
REMARK SMILES IDX 4 1 2 2 1 3 3 4 5 5 6 6 7 7 8 8
REMARK H PARENT
REMARK Flexibility Score: inf
ROOT
ATOM      1  C   UNL     1      60.063 144.187 -33.159  1.00  0.00     0.059 C 
ENDROOT
BRANCH   1   2
ATOM      2  C   UNL     1      59.367 143.671 -31.940  1.00  0.00     0.042 C 
ATOM      3  O   UNL     1      59.914 142.791 -31.224  1.00  0.00    -0.550 OA
ATOM      4  O   UNL     1      58.138 144.197 -31.566  1.00  0.00    -0.550 OA
ENDBRANCH   1   2
BRANCH   1   5
ATOM      5  C   UNL     1      59.467 145.528 -33.590  1.00  0.00     0.059 C 
BRANCH   5   6
ATOM      6  C   UNL     1      60.492 146.612 -33.498  1.00  0.00     0.042 C 
ATOM      7  O   UNL     1      60.416 147.481 -32.590  1.00  0.00    -0.550 OA
ATOM      8  O   UNL     1      61.561 146.636 -34.386  1.00  0.00    -0.550 OA
ENDBRANCH   5   6
ENDBRANCH   1   5
TORSDOF 3
ENDMDL
MODEL 3
REMARK VINA RESULT:    -3.550      0.128      3.544
REMARK INTER + INTRA:          -4.340
REMARK INTER:                  -4.164
REMARK INTRA:                  -0.176
REMARK UNBOUND:                -0.168
REMARK SMILES O=C([O-])CCC(=O)[O-]
REMARK SMILES IDX 4 1 2 2 1 3 3 4 5 5 6 6 7 7 8 8
REMARK H PARENT
REMARK Flexibility Score: inf
ROOT
ATOM      1  C   UNL     1      52.097 153.857 -24.535  1.00  0.00     0.059 C 
ENDROOT
BRANCH   1   2
ATOM      2  C   UNL     1      51.936 153.026 -25.769  1.00  0.00     0.042 C 
ATOM      3  O   UNL     1      52.264 151.811 -25.760  1.00  0.00    -0.550 OA
ATOM      4  O   UNL     1      51.376 153.581 -26.912  1.00  0.00    -0.550 OA
ENDBRANCH   1   2
BRANCH   1   5
ATOM      5  C   UNL     1      50.734 154.314 -24.014  1.00  0.00     0.059 C 
BRANCH   5   6
ATOM      6  C   UNL     1      49.979 153.159 -23.439  1.00  0.00     0.042 C 
ATOM      7  O   UNL     1      48.805 152.914 -23.823  1.00  0.00    -0.550 OA
ATOM      8  O   UNL     1      50.589 152.321 -22.512  1.00  0.00    -0.550 OA
ENDBRANCH   5   6
ENDBRANCH   1   5
TORSDOF 3
ENDMDL
MODEL 4
REMARK VINA RESULT:    -3.534      9.264     10.311
REMARK INTER + INTRA:          -4.321
REMARK INTER:                  -4.158
REMARK INTRA:                  -0.163
REMARK UNBOUND:                -0.168
REMARK SMILES O=C([O-])CCC(=O)[O-]
REMARK SMILES IDX 4 1 2 2 1 3 3 4 5 5 6 6 7 7 8 8
REMARK H PARENT
REMARK Flexibility Score: inf
ROOT
ATOM      1  C   UNL     1      56.092 143.895 -25.060  1.00  0.00     0.059 C 
ENDROOT
BRANCH   1   2
ATOM      2  C   UNL     1      54.742 144.150 -24.470  1.00  0.00     0.042 C 
ATOM      3  O   UNL     1      54.164 143.253 -23.801  1.00  0.00    -0.550 OA
ATOM      4  O   UNL     1      54.144 145.396 -24.615  1.00  0.00    -0.550 OA
ENDBRANCH   1   2
BRANCH   1   5
ATOM      5  C   UNL     1      55.981 142.974 -26.276  1.00  0.00     0.059 C 
BRANCH   5   6
ATOM      6  C   UNL     1      55.259 143.662 -27.390  1.00  0.00     0.042 C 
ATOM      7  O   UNL     1      55.708 144.737 -27.869  1.00  0.00    -0.550 OA
ATOM      8  O   UNL     1      54.115 143.091 -27.934  1.00  0.00    -0.550 OA
ENDBRANCH   5   6
ENDBRANCH   1   5
TORSDOF 3
ENDMDL
MODEL 5
REMARK VINA RESULT:    -3.531      1.960      4.203
REMARK INTER + INTRA:          -4.318
REMARK INTER:                  -4.236
REMARK INTRA:                  -0.082
REMARK UNBOUND:                -0.168
REMARK SMILES O=C([O-])CCC(=O)[O-]
REMARK SMILES IDX 4 1 2 2 1 3 3 4 5 5 6 6 7 7 8 8
REMARK H PARENT
REMARK Flexibility Score: inf
ROOT
ATOM      1  C   UNL     1      52.606 151.952 -26.447  1.00  0.00     0.059 C 
ENDROOT
BRANCH   1   2
ATOM      2  C   UNL     1      52.255 152.021 -27.899  1.00  0.00     0.042 C 
ATOM      3  O   UNL     1      52.858 151.293 -28.731  1.00  0.00    -0.550 OA
ATOM      4  O   UNL     1      51.229 152.853 -28.327  1.00  0.00    -0.550 OA
ENDBRANCH   1   2
BRANCH   1   5
ATOM      5  C   UNL     1      52.303 153.282 -25.757  1.00  0.00     0.059 C 
BRANCH   5   6
ATOM      6  C   UNL     1      51.508 153.057 -24.510  1.00  0.00     0.042 C 
ATOM      7  O   UNL     1      50.885 151.976 -24.342  1.00  0.00    -0.550 OA
ATOM      8  O   UNL     1      51.494 154.022 -23.510  1.00  0.00    -0.550 OA
ENDBRANCH   5   6
ENDBRANCH   1   5
TORSDOF 3
ENDMDL
MODEL 6
REMARK VINA RESULT:    -3.517      0.117      3.241
REMARK INTER + INTRA:          -4.301
REMARK INTER:                  -4.126
REMARK INTRA:                  -0.175
REMARK UNBOUND:                -0.168
REMARK SMILES O=C([O-])CCC(=O)[O-]
REMARK SMILES IDX 4 1 2 2 1 3 3 4 5 5 6 6 7 7 8 8
REMARK H PARENT
REMARK Flexibility Score: inf
ROOT
ATOM      1  C   UNL     1      52.133 153.869 -24.492  1.00  0.00     0.059 C 
ENDROOT
BRANCH   1   2
ATOM      2  C   UNL     1      51.897 153.055 -25.724  1.00  0.00     0.042 C 
ATOM      3  O   UNL     1      51.408 153.592 -26.753  1.00  0.00    -0.550 OA
ATOM      4  O   UNL     1      52.262 151.715 -25.753  1.00  0.00    -0.550 OA
ENDBRANCH   1   2
BRANCH   1   5
ATOM      5  C   UNL     1      50.805 154.242 -23.832  1.00  0.00     0.059 C 
BRANCH   5   6
ATOM      6  C   UNL     1      50.115 153.020 -23.314  1.00  0.00     0.042 C 
ATOM      7  O   UNL     1      50.641 152.336 -22.397  1.00  0.00    -0.550 OA
ATOM      8  O   UNL     1      48.868 152.664 -23.811  1.00  0.00    -0.550 OA
ENDBRANCH   5   6
ENDBRANCH   1   5
TORSDOF 3
ENDMDL
MODEL 7
REMARK VINA RESULT:    -3.480     13.850     15.023
REMARK INTER + INTRA:          -4.258
REMARK INTER:                  -4.208
REMARK INTRA:                  -0.051
REMARK UNBOUND:                -0.168
REMARK SMILES O=C([O-])CCC(=O)[O-]
REMARK SMILES IDX 4 1 2 2 1 3 3 4 5 5 6 6 7 7 8 8
REMARK H PARENT
REMARK Flexibility Score: inf
ROOT
ATOM      1  C   UNL     1      59.665 145.850 -33.007  1.00  0.00     0.059 C 
ENDROOT
BRANCH   1   2
ATOM      2  C   UNL     1      60.889 146.543 -33.515  1.00  0.00     0.042 C 
ATOM      3  O   UNL     1      62.006 145.962 -33.481  1.00  0.00    -0.550 OA
ATOM      4  O   UNL     1      60.788 147.811 -34.073  1.00  0.00    -0.550 OA
ENDBRANCH   1   2
BRANCH   1   5
ATOM      5  C   UNL     1      59.848 144.332 -33.057  1.00  0.00     0.059 C 
BRANCH   5   6
ATOM      6  C   UNL     1      59.280 143.695 -31.830  1.00  0.00     0.042 C 
ATOM      7  O   UNL     1      59.928 142.803 -31.221  1.00  0.00    -0.550 OA
ATOM      8  O   UNL     1      58.056 144.119 -31.329  1.00  0.00    -0.550 OA
ENDBRANCH   5   6
ENDBRANCH   1   5
TORSDOF 3
ENDMDL
MODEL 8
REMARK VINA RESULT:    -3.463      9.399     10.702
REMARK INTER + INTRA:          -4.237
REMARK INTER:                  -4.086
REMARK INTRA:                  -0.151
REMARK UNBOUND:                -0.168
REMARK SMILES O=C([O-])CCC(=O)[O-]
REMARK SMILES IDX 4 1 2 2 1 3 3 4 5 5 6 6 7 7 8 8
REMARK H PARENT
REMARK Flexibility Score: inf
ROOT
ATOM      1  C   UNL     1      55.941 143.090 -26.334  1.00  0.00     0.059 C 
ENDROOT
BRANCH   1   2
ATOM      2  C   UNL     1      55.343 143.972 -27.384  1.00  0.00     0.042 C 
ATOM      3  O   UNL     1      56.057 144.820 -27.981  1.00  0.00    -0.550 OA
ATOM      4  O   UNL     1      54.008 143.822 -27.740  1.00  0.00    -0.550 OA
ENDBRANCH   1   2
BRANCH   1   5
ATOM      5  C   UNL     1      56.153 143.870 -25.036  1.00  0.00     0.059 C 
BRANCH   5   6
ATOM      6  C   UNL     1      54.846 144.109 -24.348  1.00  0.00     0.042 C 
ATOM      7  O   UNL     1      54.380 145.276 -24.261  1.00  0.00    -0.550 OA
ATOM      8  O   UNL     1      54.119 143.038 -23.845  1.00  0.00    -0.550 OA
ENDBRANCH   5   6
ENDBRANCH   1   5
TORSDOF 3
ENDMDL
MODEL 9
REMARK VINA RESULT:    -3.419     14.004     15.668
REMARK INTER + INTRA:          -4.186
REMARK INTER:                  -4.110
REMARK INTRA:                  -0.076
REMARK UNBOUND:                -0.168
REMARK SMILES O=C([O-])CCC(=O)[O-]
REMARK SMILES IDX 4 1 2 2 1 3 3 4 5 5 6 6 7 7 8 8
REMARK H PARENT
REMARK Flexibility Score: inf
ROOT
ATOM      1  C   UNL     1      61.338 146.744 -34.365  1.00  0.00     0.059 C 
ENDROOT
BRANCH   1   2
ATOM      2  C   UNL     1      60.464 147.916 -34.046  1.00  0.00     0.042 C 
ATOM      3  O   UNL     1      59.644 147.853 -33.092  1.00  0.00    -0.550 OA
ATOM      4  O   UNL     1      60.591 149.095 -34.769  1.00  0.00    -0.550 OA
ENDBRANCH   1   2
BRANCH   1   5
ATOM      5  C   UNL     1      60.548 145.677 -35.124  1.00  0.00     0.059 C 
BRANCH   5   6
ATOM      6  C   UNL     1      60.774 144.328 -34.519  1.00  0.00     0.042 C 
ATOM      7  O   UNL     1      61.474 143.473 -35.122  1.00  0.00    -0.550 OA
ATOM      8  O   UNL     1      60.253 144.031 -33.266  1.00  0.00    -0.550 OA
ENDBRANCH   5   6
ENDBRANCH   1   5
TORSDOF 3
ENDMDL
