MODEL 1
REMARK VINA RESULT:    -3.464      0.000      0.000
REMARK INTER + INTRA:          -3.878
REMARK INTER:                  -3.869
REMARK INTRA:                  -0.009
REMARK UNBOUND:                -0.009
REMARK SMILES CCCC(=O)[O-]
REMARK SMILES IDX 3 1 4 2 5 3 6 4 2 5 1 6
REMARK H PARENT
REMARK Flexibility Score: inf
ROOT
ATOM      1  C   UNL     1      38.027  41.926  48.548  1.00  0.00     0.052 C 
ENDROOT
BRANCH   1   2
ATOM      2  C   UNL     1      36.833  42.524  47.871  1.00  0.00     0.041 C 
ATOM      3  O   UNL     1      36.843  42.724  46.628  1.00  0.00    -0.550 OA
ATOM      4  O   UNL     1      35.696  42.831  48.609  1.00  0.00    -0.550 OA
ENDBRANCH   1   2
BRANCH   1   5
ATOM      5  C   UNL     1      38.096  42.318  50.030  1.00  0.00     0.003 C 
ATOM      6  C   UNL     1      39.133  41.501  50.800  1.00  0.00     0.004 C 
ENDBRANCH   1   5
TORSDOF 2
ENDMDL
MODEL 2
REMARK VINA RESULT:    -3.451      4.946      6.693
REMARK INTER + INTRA:          -3.863
REMARK INTER:                  -3.852
REMARK INTRA:                  -0.012
REMARK UNBOUND:                -0.009
REMARK SMILES CCCC(=O)[O-]
REMARK SMILES IDX 3 1 4 2 5 3 6 4 2 5 1 6
REMARK H PARENT
REMARK Flexibility Score: inf
ROOT
ATOM      1  C   UNL     1      34.305  44.869  44.152  1.00  0.00     0.052 C 
ENDROOT
BRANCH   1   2
ATOM      2  C   UNL     1      34.686  44.437  45.534  1.00  0.00     0.041 C 
ATOM      3  O   UNL     1      35.899  44.353  45.861  1.00  0.00    -0.550 OA
ATOM      4  O   UNL     1      33.699  44.160  46.473  1.00  0.00    -0.550 OA
ENDBRANCH   1   2
BRANCH   1   5
ATOM      5  C   UNL     1      32.830  44.572  43.849  1.00  0.00     0.003 C 
ATOM      6  C   UNL     1      32.283  45.440  42.718  1.00  0.00     0.004 C 
ENDBRANCH   1   5
TORSDOF 2
ENDMDL
MODEL 3
REMARK VINA RESULT:    -3.387      1.833      2.723
REMARK INTER + INTRA:          -3.793
REMARK INTER:                  -3.774
REMARK INTRA:                  -0.018
REMARK UNBOUND:                -0.009
REMARK SMILES CCCC(=O)[O-]
REMARK SMILES IDX 3 1 4 2 5 3 6 4 2 5 1 6
REMARK H PARENT
REMARK Flexibility Score: inf
ROOT
ATOM      1  C   UNL     1      36.567  42.793  46.741  1.00  0.00     0.052 C 
ENDROOT
BRANCH   1   2
ATOM      2  C   UNL     1      35.728  43.992  46.424  1.00  0.00     0.041 C 
ATOM      3  O   UNL     1      35.245  44.692  47.354  1.00  0.00    -0.550 OA
ATOM      4  O   UNL     1      35.505  44.356  45.102  1.00  0.00    -0.550 OA
ENDBRANCH   1   2
BRANCH   1   5
ATOM      5  C   UNL     1      36.673  42.557  48.253  1.00  0.00     0.003 C 
ATOM      6  C   UNL     1      38.058  42.063  48.668  1.00  0.00     0.004 C 
ENDBRANCH   1   5
TORSDOF 2
ENDMDL
MODEL 4
REMARK VINA RESULT:    -3.379      2.812      3.713
REMARK INTER + INTRA:          -3.784
REMARK INTER:                  -3.776
REMARK INTRA:                  -0.008
REMARK UNBOUND:                -0.009
REMARK SMILES CCCC(=O)[O-]
REMARK SMILES IDX 3 1 4 2 5 3 6 4 2 5 1 6
REMARK H PARENT
REMARK Flexibility Score: inf
ROOT
ATOM      1  C   UNL     1      35.952  44.067  46.274  1.00  0.00     0.052 C 
ENDROOT
BRANCH   1   2
ATOM      2  C   UNL     1      34.643  44.374  45.616  1.00  0.00     0.041 C 
ATOM      3  O   UNL     1      34.615  44.851  44.450  1.00  0.00    -0.550 OA
ATOM      4  O   UNL     1      33.451  44.104  46.277  1.00  0.00    -0.550 OA
ENDBRANCH   1   2
BRANCH   1   5
ATOM      5  C   UNL     1      36.010  42.618  46.775  1.00  0.00     0.003 C 
ATOM      6  C   UNL     1      37.168  42.383  47.743  1.00  0.00     0.004 C 
ENDBRANCH   1   5
TORSDOF 2
ENDMDL
MODEL 5
REMARK VINA RESULT:    -3.351      2.257      4.023
REMARK INTER + INTRA:          -3.752
REMARK INTER:                  -3.740
REMARK INTRA:                  -0.012
REMARK UNBOUND:                -0.009
REMARK SMILES CCCC(=O)[O-]
REMARK SMILES IDX 3 1 4 2 5 3 6 4 2 5 1 6
REMARK H PARENT
REMARK Flexibility Score: inf
ROOT
ATOM      1  C   UNL     1      36.318  43.066  46.442  1.00  0.00     0.052 C 
ENDROOT
BRANCH   1   2
ATOM      2  C   UNL     1      36.557  42.642  47.858  1.00  0.00     0.041 C 
ATOM      3  O   UNL     1      37.676  42.177  48.200  1.00  0.00    -0.550 OA
ATOM      4  O   UNL     1      35.554  42.791  48.807  1.00  0.00    -0.550 OA
ENDBRANCH   1   2
BRANCH   1   5
ATOM      5  C   UNL     1      35.652  44.446  46.366  1.00  0.00     0.003 C 
ATOM      6  C   UNL     1      34.843  44.632  45.083  1.00  0.00     0.004 C 
ENDBRANCH   1   5
TORSDOF 2
ENDMDL
MODEL 6
REMARK VINA RESULT:    -3.259      2.250      3.530
REMARK INTER + INTRA:          -3.649
REMARK INTER:                  -3.637
REMARK INTRA:                  -0.012
REMARK UNBOUND:                -0.009
REMARK SMILES CCCC(=O)[O-]
REMARK SMILES IDX 3 1 4 2 5 3 6 4 2 5 1 6
REMARK H PARENT
REMARK Flexibility Score: inf
ROOT
ATOM      1  C   UNL     1      38.074  42.041  48.738  1.00  0.00     0.052 C 
ENDROOT
BRANCH   1   2
ATOM      2  C   UNL     1      38.362  42.320  50.181  1.00  0.00     0.041 C 
ATOM      3  O   UNL     1      37.742  43.235  50.786  1.00  0.00    -0.550 OA
ATOM      4  O   UNL     1      39.291  41.548  50.867  1.00  0.00    -0.550 OA
ENDBRANCH   1   2
BRANCH   1   5
ATOM      5  C   UNL     1      36.705  42.590  48.315  1.00  0.00     0.003 C 
ATOM      6  C   UNL     1      36.548  42.655  46.796  1.00  0.00     0.004 C 
ENDBRANCH   1   5
TORSDOF 2
ENDMDL
MODEL 7
REMARK VINA RESULT:    -3.114      2.063      3.472
REMARK INTER + INTRA:          -3.487
REMARK INTER:                  -3.449
REMARK INTRA:                  -0.038
REMARK UNBOUND:                -0.009
REMARK SMILES CCCC(=O)[O-]
REMARK SMILES IDX 3 1 4 2 5 3 6 4 2 5 1 6
REMARK H PARENT
REMARK Flexibility Score: inf
ROOT
ATOM      1  C   UNL     1      37.056  42.475  47.566  1.00  0.00     0.052 C 
ENDROOT
BRANCH   1   2
ATOM      2  C   UNL     1      36.820  42.608  49.039  1.00  0.00     0.041 C 
ATOM      3  O   UNL     1      37.764  42.421  49.852  1.00  0.00    -0.550 OA
ATOM      4  O   UNL     1      35.565  42.971  49.513  1.00  0.00    -0.550 OA
ENDBRANCH   1   2
BRANCH   1   5
ATOM      5  C   UNL     1      35.785  42.765  46.758  1.00  0.00     0.003 C 
ATOM      6  C   UNL     1      35.854  44.104  46.026  1.00  0.00     0.004 C 
ENDBRANCH   1   5
TORSDOF 2
ENDMDL
MODEL 8
REMARK VINA RESULT:    -3.036      3.334      3.811
REMARK INTER + INTRA:          -3.400
REMARK INTER:                  -3.339
REMARK INTRA:                  -0.061
REMARK UNBOUND:                -0.009
REMARK SMILES CCCC(=O)[O-]
REMARK SMILES IDX 3 1 4 2 5 3 6 4 2 5 1 6
REMARK H PARENT
REMARK Flexibility Score: inf
ROOT
ATOM      1  C   UNL     1      34.631  43.012  47.166  1.00  0.00     0.052 C 
ENDROOT
BRANCH   1   2
ATOM      2  C   UNL     1      35.970  43.293  46.555  1.00  0.00     0.041 C 
ATOM      3  O   UNL     1      36.085  44.163  45.652  1.00  0.00    -0.550 OA
ATOM      4  O   UNL     1      37.096  42.616  47.007  1.00  0.00    -0.550 OA
ENDBRANCH   1   2
BRANCH   1   5
ATOM      5  C   UNL     1      33.965  44.291  47.690  1.00  0.00     0.003 C 
ATOM      6  C   UNL     1      34.768  44.945  48.813  1.00  0.00     0.004 C 
ENDBRANCH   1   5
TORSDOF 2
ENDMDL
MODEL 9
REMARK VINA RESULT:    -3.000      2.850      3.460
REMARK INTER + INTRA:          -3.361
REMARK INTER:                  -3.335
REMARK INTRA:                  -0.026
REMARK UNBOUND:                -0.009
REMARK SMILES CCCC(=O)[O-]
REMARK SMILES IDX 3 1 4 2 5 3 6 4 2 5 1 6
REMARK H PARENT
REMARK Flexibility Score: inf
ROOT
ATOM      1  C   UNL     1      35.103  44.170  47.695  1.00  0.00     0.052 C 
ENDROOT
BRANCH   1   2
ATOM      2  C   UNL     1      35.822  43.791  46.437  1.00  0.00     0.041 C 
ATOM      3  O   UNL     1      36.713  42.901  46.459  1.00  0.00    -0.550 OA
ATOM      4  O   UNL     1      35.484  44.396  45.233  1.00  0.00    -0.550 OA
ENDBRANCH   1   2
BRANCH   1   5
ATOM      5  C   UNL     1      35.345  43.151  48.816  1.00  0.00     0.003 C 
ATOM      6  C   UNL     1      34.046  42.530  49.327  1.00  0.00     0.004 C 
ENDBRANCH   1   5
TORSDOF 2
ENDMDL
