MODEL 1
REMARK VINA RESULT:    -4.730      0.000      0.000
REMARK INTER + INTRA:          -4.868
REMARK INTER:                  -4.868
REMARK INTRA:                   0.000
REMARK UNBOUND:                 0.000
REMARK SMILES Cc1cccc(O)c1C
REMARK SMILES IDX 1 1 2 2 8 3 6 4 5 5 4 6 3 7 9 8 7 9
REMARK H PARENT 7 10
REMARK Flexibility Score: inf
ROOT
ATOM      1  C   UNL     1     -13.785   0.742  28.856  1.00  0.00     0.045 C 
ATOM      2  C   UNL     1     -13.041   0.991  30.142  1.00  0.00    -0.045 A 
ATOM      3  C   UNL     1     -12.571   2.284  30.489  1.00  0.00    -0.006 A 
ATOM      4  C   UNL     1     -11.859   2.460  31.696  1.00  0.00     0.118 A 
ATOM      5  C   UNL     1     -11.659   1.373  32.557  1.00  0.00     0.046 A 
ATOM      6  C   UNL     1     -12.150   0.112  32.227  1.00  0.00     0.004 A 
ATOM      7  C   UNL     1     -12.836  -0.081  31.029  1.00  0.00     0.004 A 
ATOM      8  C   UNL     1     -12.775   3.453  29.555  1.00  0.00     0.048 C 
ENDROOT
BRANCH   4   9
ATOM      9  O   UNL     1     -11.349   3.712  32.040  1.00  0.00    -0.508 OA
ATOM     10  H   UNL     1     -11.927   4.422  32.475  1.00  0.00     0.293 HD
ENDBRANCH   4   9
TORSDOF 1
ENDMDL
MODEL 2
REMARK VINA RESULT:    -4.709      1.312      2.597
REMARK INTER + INTRA:          -4.847
REMARK INTER:                  -4.847
REMARK INTRA:                   0.000
REMARK UNBOUND:                 0.000
REMARK SMILES Cc1cccc(O)c1C
REMARK SMILES IDX 1 1 2 2 8 3 6 4 5 5 4 6 3 7 9 8 7 9
REMARK H PARENT 7 10
REMARK Flexibility Score: inf
ROOT
ATOM      1  C   UNL     1     -13.831   1.009  28.923  1.00  0.00     0.045 C 
ATOM      2  C   UNL     1     -12.996   1.574  30.042  1.00  0.00    -0.045 A 
ATOM      3  C   UNL     1     -12.647   0.793  31.175  1.00  0.00    -0.006 A 
ATOM      4  C   UNL     1     -11.880   1.377  32.206  1.00  0.00     0.118 A 
ATOM      5  C   UNL     1     -11.436   2.700  32.087  1.00  0.00     0.046 A 
ATOM      6  C   UNL     1     -11.753   3.452  30.958  1.00  0.00     0.004 A 
ATOM      7  C   UNL     1     -12.527   2.896  29.942  1.00  0.00     0.004 A 
ATOM      8  C   UNL     1     -13.136  -0.629  31.309  1.00  0.00     0.048 C 
ENDROOT
BRANCH   4   9
ATOM      9  O   UNL     1     -11.560   0.645  33.350  1.00  0.00    -0.508 OA
ATOM     10  H   UNL     1     -10.682   0.146  33.434  1.00  0.00     0.293 HD
ENDBRANCH   4   9
TORSDOF 1
ENDMDL
MODEL 3
REMARK VINA RESULT:    -4.677      1.835      2.864
REMARK INTER + INTRA:          -4.814
REMARK INTER:                  -4.814
REMARK INTRA:                   0.000
REMARK UNBOUND:                 0.000
REMARK SMILES Cc1cccc(O)c1C
REMARK SMILES IDX 1 1 2 2 8 3 6 4 5 5 4 6 3 7 9 8 7 9
REMARK H PARENT 7 10
REMARK Flexibility Score: inf
ROOT
ATOM      1  C   UNL     1     -11.337   3.643  31.666  1.00  0.00     0.045 C 
ATOM      2  C   UNL     1     -11.946   2.278  31.475  1.00  0.00    -0.045 A 
ATOM      3  C   UNL     1     -12.742   1.973  30.341  1.00  0.00    -0.006 A 
ATOM      4  C   UNL     1     -13.307   0.684  30.220  1.00  0.00     0.118 A 
ATOM      5  C   UNL     1     -13.047  -0.290  31.192  1.00  0.00     0.046 A 
ATOM      6  C   UNL     1     -12.238   0.005  32.288  1.00  0.00     0.004 A 
ATOM      7  C   UNL     1     -11.691   1.279  32.431  1.00  0.00     0.004 A 
ATOM      8  C   UNL     1     -13.033   3.026  29.299  1.00  0.00     0.048 C 
ENDROOT
BRANCH   4   9
ATOM      9  O   UNL     1     -14.128   0.371  29.137  1.00  0.00    -0.508 OA
ATOM     10  H   UNL     1     -14.775   1.047  28.746  1.00  0.00     0.293 HD
ENDBRANCH   4   9
TORSDOF 1
ENDMDL
MODEL 4
REMARK VINA RESULT:    -4.648      1.400      2.618
REMARK INTER + INTRA:          -4.784
REMARK INTER:                  -4.784
REMARK INTRA:                   0.000
REMARK UNBOUND:                 0.000
REMARK SMILES Cc1cccc(O)c1C
REMARK SMILES IDX 1 1 2 2 8 3 6 4 5 5 4 6 3 7 9 8 7 9
REMARK H PARENT 7 10
REMARK Flexibility Score: inf
ROOT
ATOM      1  C   UNL     1     -12.407   3.869  29.734  1.00  0.00     0.045 C 
ATOM      2  C   UNL     1     -12.598   2.464  30.244  1.00  0.00    -0.045 A 
ATOM      3  C   UNL     1     -12.061   2.048  31.491  1.00  0.00    -0.006 A 
ATOM      4  C   UNL     1     -12.250   0.714  31.913  1.00  0.00     0.118 A 
ATOM      5  C   UNL     1     -12.996  -0.173  31.126  1.00  0.00     0.046 A 
ATOM      6  C   UNL     1     -13.548   0.249  29.918  1.00  0.00     0.004 A 
ATOM      7  C   UNL     1     -13.351   1.557  29.478  1.00  0.00     0.004 A 
ATOM      8  C   UNL     1     -11.247   3.000  32.334  1.00  0.00     0.048 C 
ENDROOT
BRANCH   4   9
ATOM      9  O   UNL     1     -11.697   0.267  33.114  1.00  0.00    -0.508 OA
ATOM     10  H   UNL     1     -11.513  -0.715  33.283  1.00  0.00     0.293 HD
ENDBRANCH   4   9
TORSDOF 1
ENDMDL
MODEL 5
REMARK VINA RESULT:    -4.501      1.781      2.771
REMARK INTER + INTRA:          -4.633
REMARK INTER:                  -4.633
REMARK INTRA:                   0.000
REMARK UNBOUND:                 0.000
REMARK SMILES Cc1cccc(O)c1C
REMARK SMILES IDX 1 1 2 2 8 3 6 4 5 5 4 6 3 7 9 8 7 9
REMARK H PARENT 7 10
REMARK Flexibility Score: inf
ROOT
ATOM      1  C   UNL     1     -12.716   3.387  29.396  1.00  0.00     0.045 C 
ATOM      2  C   UNL     1     -12.429   2.399  30.497  1.00  0.00    -0.045 A 
ATOM      3  C   UNL     1     -12.881   1.055  30.425  1.00  0.00    -0.006 A 
ATOM      4  C   UNL     1     -12.604   0.175  31.494  1.00  0.00     0.118 A 
ATOM      5  C   UNL     1     -11.854   0.618  32.591  1.00  0.00     0.046 A 
ATOM      6  C   UNL     1     -11.385   1.929  32.642  1.00  0.00     0.004 A 
ATOM      7  C   UNL     1     -11.669   2.815  31.604  1.00  0.00     0.004 A 
ATOM      8  C   UNL     1     -13.699   0.581  29.248  1.00  0.00     0.048 C 
ENDROOT
BRANCH   4   9
ATOM      9  O   UNL     1     -13.073  -1.138  31.468  1.00  0.00    -0.508 OA
ATOM     10  H   UNL     1     -12.770  -1.826  32.147  1.00  0.00     0.293 HD
ENDBRANCH   4   9
TORSDOF 1
ENDMDL
MODEL 6
REMARK VINA RESULT:    -4.451      1.013      2.810
REMARK INTER + INTRA:          -4.582
REMARK INTER:                  -4.582
REMARK INTRA:                   0.000
REMARK UNBOUND:                 0.000
REMARK SMILES Cc1cccc(O)c1C
REMARK SMILES IDX 1 1 2 2 8 3 6 4 5 5 4 6 3 7 9 8 7 9
REMARK H PARENT 7 10
REMARK Flexibility Score: inf
ROOT
ATOM      1  C   UNL     1     -12.623  -0.394  31.514  1.00  0.00     0.045 C 
ATOM      2  C   UNL     1     -12.945   0.742  30.578  1.00  0.00    -0.045 A 
ATOM      3  C   UNL     1     -12.439   2.050  30.797  1.00  0.00    -0.006 A 
ATOM      4  C   UNL     1     -12.788   3.085  29.901  1.00  0.00     0.118 A 
ATOM      5  C   UNL     1     -13.590   2.807  28.787  1.00  0.00     0.046 A 
ATOM      6  C   UNL     1     -14.058   1.514  28.558  1.00  0.00     0.004 A 
ATOM      7  C   UNL     1     -13.738   0.488  29.446  1.00  0.00     0.004 A 
ATOM      8  C   UNL     1     -11.584   2.352  32.004  1.00  0.00     0.048 C 
ENDROOT
BRANCH   4   9
ATOM      9  O   UNL     1     -12.340   4.388  30.117  1.00  0.00    -0.508 OA
ATOM     10  H   UNL     1     -12.849   5.191  29.767  1.00  0.00     0.293 HD
ENDBRANCH   4   9
TORSDOF 1
ENDMDL
MODEL 7
REMARK VINA RESULT:    -4.352     14.199     15.570
REMARK INTER + INTRA:          -4.480
REMARK INTER:                  -4.480
REMARK INTRA:                   0.000
REMARK UNBOUND:                 0.000
REMARK SMILES Cc1cccc(O)c1C
REMARK SMILES IDX 1 1 2 2 8 3 6 4 5 5 4 6 3 7 9 8 7 9
REMARK H PARENT 7 10
REMARK Flexibility Score: inf
ROOT
ATOM      1  C   UNL     1     -12.680   9.736  16.978  1.00  0.00     0.045 C 
ATOM      2  C   UNL     1     -11.515  10.334  17.722  1.00  0.00    -0.045 A 
ATOM      3  C   UNL     1     -10.578   9.520  18.412  1.00  0.00    -0.006 A 
ATOM      4  C   UNL     1      -9.515  10.132  19.112  1.00  0.00     0.118 A 
ATOM      5  C   UNL     1      -9.369  11.525  19.088  1.00  0.00     0.046 A 
ATOM      6  C   UNL     1     -10.273  12.317  18.383  1.00  0.00     0.004 A 
ATOM      7  C   UNL     1     -11.338  11.728  17.704  1.00  0.00     0.004 A 
ATOM      8  C   UNL     1     -10.743   8.020  18.448  1.00  0.00     0.048 C 
ENDROOT
BRANCH   4   9
ATOM      9  O   UNL     1      -8.606   9.359  19.833  1.00  0.00    -0.508 OA
ATOM     10  H   UNL     1      -8.542   8.355  19.707  1.00  0.00     0.293 HD
ENDBRANCH   4   9
TORSDOF 1
ENDMDL
MODEL 8
REMARK VINA RESULT:    -4.307      1.477      2.587
REMARK INTER + INTRA:          -4.433
REMARK INTER:                  -4.433
REMARK INTRA:                   0.000
REMARK UNBOUND:                 0.000
REMARK SMILES Cc1cccc(O)c1C
REMARK SMILES IDX 1 1 2 2 8 3 6 4 5 5 4 6 3 7 9 8 7 9
REMARK H PARENT 7 10
REMARK Flexibility Score: inf
ROOT
ATOM      1  C   UNL     1     -12.967  -0.477  31.463  1.00  0.00     0.045 C 
ATOM      2  C   UNL     1     -12.585   0.955  31.190  1.00  0.00    -0.045 A 
ATOM      3  C   UNL     1     -13.007   1.623  30.011  1.00  0.00    -0.006 A 
ATOM      4  C   UNL     1     -12.604   2.959  29.792  1.00  0.00     0.118 A 
ATOM      5  C   UNL     1     -11.831   3.625  30.752  1.00  0.00     0.046 A 
ATOM      6  C   UNL     1     -11.446   2.975  31.923  1.00  0.00     0.004 A 
ATOM      7  C   UNL     1     -11.819   1.650  32.142  1.00  0.00     0.004 A 
ATOM      8  C   UNL     1     -13.829   0.902  28.970  1.00  0.00     0.048 C 
ENDROOT
BRANCH   4   9
ATOM      9  O   UNL     1     -12.968   3.624  28.622  1.00  0.00    -0.508 OA
ATOM     10  H   UNL     1     -12.348   3.676  27.822  1.00  0.00     0.293 HD
ENDBRANCH   4   9
TORSDOF 1
ENDMDL
MODEL 9
REMARK VINA RESULT:    -4.262     11.040     11.404
REMARK INTER + INTRA:          -4.387
REMARK INTER:                  -4.387
REMARK INTRA:                   0.000
REMARK UNBOUND:                 0.000
REMARK SMILES Cc1cccc(O)c1C
REMARK SMILES IDX 1 1 2 2 8 3 6 4 5 5 4 6 3 7 9 8 7 9
REMARK H PARENT 7 10
REMARK Flexibility Score: inf
ROOT
ATOM      1  C   UNL     1      -2.817   3.102  28.369  1.00  0.00     0.045 C 
ATOM      2  C   UNL     1      -2.275   1.855  27.722  1.00  0.00    -0.045 A 
ATOM      3  C   UNL     1      -2.818   1.351  26.511  1.00  0.00    -0.006 A 
ATOM      4  C   UNL     1      -2.286   0.165  25.956  1.00  0.00     0.118 A 
ATOM      5  C   UNL     1      -1.208  -0.478  26.577  1.00  0.00     0.046 A 
ATOM      6  C   UNL     1      -0.657   0.039  27.748  1.00  0.00     0.004 A 
ATOM      7  C   UNL     1      -1.185   1.196  28.318  1.00  0.00     0.004 A 
ATOM      8  C   UNL     1      -3.988   2.037  25.849  1.00  0.00     0.048 C 
ENDROOT
BRANCH   4   9
ATOM      9  O   UNL     1      -2.830  -0.375  24.791  1.00  0.00    -0.508 OA
ATOM     10  H   UNL     1      -3.190  -1.322  24.760  1.00  0.00     0.293 HD
ENDBRANCH   4   9
TORSDOF 1
ENDMDL
