MODEL 1
REMARK VINA RESULT:    -4.721      0.000      0.000
REMARK INTER + INTRA:          -4.859
REMARK INTER:                  -4.859
REMARK INTRA:                   0.000
REMARK UNBOUND:                 0.000
REMARK SMILES CC1(C)[C@H]2CC[C@](C)(C2)[C@@H]1O
REMARK SMILES IDX 1 1 2 2 4 3 5 4 6 5 7 6 9 7 10 8 8 9 3 10 11 11
REMARK H PARENT 11 12
REMARK Flexibility Score: inf
ROOT
ATOM      1  C   UNL     1     178.967 181.493 183.230  1.00  0.00     0.014 C 
ATOM      2  C   UNL     1     180.164 180.637 183.724  1.00  0.00    -0.006 C 
ATOM      3  C   UNL     1     179.641 179.436 184.584  1.00  0.00    -0.002 C 
ATOM      4  C   UNL     1     180.760 178.410 184.859  1.00  0.00     0.005 C 
ATOM      5  C   UNL     1     181.699 179.173 185.809  1.00  0.00     0.010 C 
ATOM      6  C   UNL     1     180.948 180.507 186.033  1.00  0.00    -0.006 C 
ATOM      7  C   UNL     1     179.505 180.051 185.967  1.00  0.00     0.013 C 
ATOM      8  C   UNL     1     181.094 181.377 184.747  1.00  0.00     0.126 C 
ATOM      9  C   UNL     1     181.339 181.204 187.344  1.00  0.00     0.014 C 
ATOM     10  C   UNL     1     180.957 180.198 182.468  1.00  0.00     0.014 C 
ENDROOT
BRANCH   8  11
ATOM     11  O   UNL     1     180.747 182.732 184.944  1.00  0.00    -0.392 OA
ATOM     12  H   UNL     1     180.927 183.235 184.111  1.00  0.00     0.211 HD
ENDBRANCH   8  11
TORSDOF 1
ENDMDL
MODEL 2
REMARK VINA RESULT:    -4.525      1.695      3.583
REMARK INTER + INTRA:          -4.657
REMARK INTER:                  -4.657
REMARK INTRA:                   0.000
REMARK UNBOUND:                 0.000
REMARK SMILES CC1(C)[C@H]2CC[C@](C)(C2)[C@@H]1O
REMARK SMILES IDX 1 1 2 2 4 3 5 4 6 5 7 6 9 7 10 8 8 9 3 10 11 11
REMARK H PARENT 11 12
REMARK Flexibility Score: inf
ROOT
ATOM      1  C   UNL     1     181.362 179.064 185.668  1.00  0.00     0.014 C 
ATOM      2  C   UNL     1     180.964 178.878 184.179  1.00  0.00    -0.006 C 
ATOM      3  C   UNL     1     181.938 179.695 183.262  1.00  0.00    -0.002 C 
ATOM      4  C   UNL     1     181.758 179.322 181.775  1.00  0.00     0.005 C 
ATOM      5  C   UNL     1     180.367 179.889 181.446  1.00  0.00     0.010 C 
ATOM      6  C   UNL     1     179.966 180.598 182.761  1.00  0.00    -0.006 C 
ATOM      7  C   UNL     1     181.312 181.080 183.261  1.00  0.00     0.013 C 
ATOM      8  C   UNL     1     179.578 179.511 183.810  1.00  0.00     0.126 C 
ATOM      9  C   UNL     1     178.927 181.709 182.552  1.00  0.00     0.014 C 
ATOM     10  C   UNL     1     180.976 177.356 183.891  1.00  0.00     0.014 C 
ENDROOT
BRANCH   8  11
ATOM     11  O   UNL     1     178.881 180.030 184.923  1.00  0.00    -0.392 OA
ATOM     12  H   UNL     1     178.900 181.019 184.883  1.00  0.00     0.211 HD
ENDBRANCH   8  11
TORSDOF 1
ENDMDL
MODEL 3
REMARK VINA RESULT:    -4.452      1.731      3.011
REMARK INTER + INTRA:          -4.583
REMARK INTER:                  -4.583
REMARK INTRA:                   0.000
REMARK UNBOUND:                 0.000
REMARK SMILES CC1(C)[C@H]2CC[C@](C)(C2)[C@@H]1O
REMARK SMILES IDX 1 1 2 2 4 3 5 4 6 5 7 6 9 7 10 8 8 9 3 10 11 11
REMARK H PARENT 11 12
REMARK Flexibility Score: inf
ROOT
ATOM      1  C   UNL     1     180.929 177.158 183.378  1.00  0.00     0.014 C 
ATOM      2  C   UNL     1     181.462 178.493 183.961  1.00  0.00    -0.006 C 
ATOM      3  C   UNL     1     180.792 178.773 185.350  1.00  0.00    -0.002 C 
ATOM      4  C   UNL     1     181.490 179.933 186.090  1.00  0.00     0.005 C 
ATOM      5  C   UNL     1     181.117 181.158 185.238  1.00  0.00     0.010 C 
ATOM      6  C   UNL     1     180.173 180.557 184.171  1.00  0.00    -0.006 C 
ATOM      7  C   UNL     1     179.492 179.458 184.960  1.00  0.00     0.013 C 
ATOM      8  C   UNL     1     181.033 179.760 183.142  1.00  0.00     0.126 C 
ATOM      9  C   UNL     1     179.217 181.593 183.562  1.00  0.00     0.014 C 
ATOM     10  C   UNL     1     183.005 178.373 184.034  1.00  0.00     0.014 C 
ENDROOT
BRANCH   8  11
ATOM     11  O   UNL     1     180.341 179.452 181.951  1.00  0.00    -0.392 OA
ATOM     12  H   UNL     1     179.475 179.029 182.181  1.00  0.00     0.211 HD
ENDBRANCH   8  11
TORSDOF 1
ENDMDL
MODEL 4
REMARK VINA RESULT:    -4.405      1.588      3.083
REMARK INTER + INTRA:          -4.533
REMARK INTER:                  -4.533
REMARK INTRA:                   0.000
REMARK UNBOUND:                 0.000
REMARK SMILES CC1(C)[C@H]2CC[C@](C)(C2)[C@@H]1O
REMARK SMILES IDX 1 1 2 2 4 3 5 4 6 5 7 6 9 7 10 8 8 9 3 10 11 11
REMARK H PARENT 11 12
REMARK Flexibility Score: inf
ROOT
ATOM      1  C   UNL     1     180.153 181.390 186.164  1.00  0.00     0.014 C 
ATOM      2  C   UNL     1     180.771 180.994 184.797  1.00  0.00    -0.006 C 
ATOM      3  C   UNL     1     179.631 180.708 183.760  1.00  0.00    -0.002 C 
ATOM      4  C   UNL     1     180.189 180.586 182.327  1.00  0.00     0.005 C 
ATOM      5  C   UNL     1     180.987 179.272 182.380  1.00  0.00     0.010 C 
ATOM      6  C   UNL     1     180.706 178.760 183.812  1.00  0.00    -0.006 C 
ATOM      7  C   UNL     1     179.291 179.252 184.032  1.00  0.00     0.013 C 
ATOM      8  C   UNL     1     181.531 179.622 184.816  1.00  0.00     0.126 C 
ATOM      9  C   UNL     1     180.884 177.241 183.953  1.00  0.00     0.014 C 
ATOM     10  C   UNL     1     181.715 182.147 184.373  1.00  0.00     0.014 C 
ENDROOT
BRANCH   8  11
ATOM     11  O   UNL     1     181.624 179.049 186.103  1.00  0.00    -0.392 OA
ATOM     12  H   UNL     1     181.759 179.770 186.768  1.00  0.00     0.211 HD
ENDBRANCH   8  11
TORSDOF 1
ENDMDL
MODEL 5
REMARK VINA RESULT:    -4.359      1.761      3.109
REMARK INTER + INTRA:          -4.486
REMARK INTER:                  -4.486
REMARK INTRA:                   0.000
REMARK UNBOUND:                 0.000
REMARK SMILES CC1(C)[C@H]2CC[C@](C)(C2)[C@@H]1O
REMARK SMILES IDX 1 1 2 2 4 3 5 4 6 5 7 6 9 7 10 8 8 9 3 10 11 11
REMARK H PARENT 11 12
REMARK Flexibility Score: inf
ROOT
ATOM      1  C   UNL     1     183.093 178.392 184.132  1.00  0.00     0.014 C 
ATOM      2  C   UNL     1     181.574 178.605 183.895  1.00  0.00    -0.006 C 
ATOM      3  C   UNL     1     181.351 179.824 182.935  1.00  0.00    -0.002 C 
ATOM      4  C   UNL     1     179.887 179.900 182.451  1.00  0.00     0.005 C 
ATOM      5  C   UNL     1     179.123 180.282 183.730  1.00  0.00     0.010 C 
ATOM      6  C   UNL     1     180.258 180.469 184.764  1.00  0.00    -0.006 C 
ATOM      7  C   UNL     1     181.371 181.007 183.889  1.00  0.00     0.013 C 
ATOM      8  C   UNL     1     180.790 179.062 185.173  1.00  0.00     0.126 C 
ATOM      9  C   UNL     1     179.863 181.386 185.930  1.00  0.00     0.014 C 
ATOM     10  C   UNL     1     181.010 177.272 183.342  1.00  0.00     0.014 C 
ENDROOT
BRANCH   8  11
ATOM     11  O   UNL     1     181.582 179.080 186.342  1.00  0.00    -0.392 OA
ATOM     12  H   UNL     1     182.537 179.027 186.086  1.00  0.00     0.211 HD
ENDBRANCH   8  11
TORSDOF 1
ENDMDL
MODEL 6
REMARK VINA RESULT:    -4.282      1.720      3.300
REMARK INTER + INTRA:          -4.407
REMARK INTER:                  -4.407
REMARK INTRA:                   0.000
REMARK UNBOUND:                 0.000
REMARK SMILES CC1(C)[C@H]2CC[C@](C)(C2)[C@@H]1O
REMARK SMILES IDX 1 1 2 2 4 3 5 4 6 5 7 6 9 7 10 8 8 9 3 10 11 11
REMARK H PARENT 11 12
REMARK Flexibility Score: inf
ROOT
ATOM      1  C   UNL     1     179.605 182.065 185.043  1.00  0.00     0.014 C 
ATOM      2  C   UNL     1     179.923 180.569 184.784  1.00  0.00    -0.006 C 
ATOM      3  C   UNL     1     181.468 180.376 184.605  1.00  0.00    -0.002 C 
ATOM      4  C   UNL     1     181.857 178.883 184.625  1.00  0.00     0.005 C 
ATOM      5  C   UNL     1     181.256 178.354 183.312  1.00  0.00     0.010 C 
ATOM      6  C   UNL     1     180.681 179.633 182.659  1.00  0.00    -0.006 C 
ATOM      7  C   UNL     1     181.672 180.678 183.129  1.00  0.00     0.013 C 
ATOM      8  C   UNL     1     179.377 180.031 183.417  1.00  0.00     0.126 C 
ATOM      9  C   UNL     1     180.545 179.521 181.134  1.00  0.00     0.014 C 
ATOM     10  C   UNL     1     179.336 179.767 185.973  1.00  0.00     0.014 C 
ENDROOT
BRANCH   8  11
ATOM     11  O   UNL     1     178.587 180.969 182.718  1.00  0.00    -0.392 OA
ATOM     12  H   UNL     1     178.101 180.505 181.991  1.00  0.00     0.211 HD
ENDBRANCH   8  11
TORSDOF 1
ENDMDL
MODEL 7
REMARK VINA RESULT:    -4.267      0.989      3.092
REMARK INTER + INTRA:          -4.392
REMARK INTER:                  -4.392
REMARK INTRA:                   0.000
REMARK UNBOUND:                 0.000
REMARK SMILES CC1(C)[C@H]2CC[C@](C)(C2)[C@@H]1O
REMARK SMILES IDX 1 1 2 2 4 3 5 4 6 5 7 6 9 7 10 8 8 9 3 10 11 11
REMARK H PARENT 11 12
REMARK Flexibility Score: inf
ROOT
ATOM      1  C   UNL     1     182.788 182.151 185.852  1.00  0.00     0.014 C 
ATOM      2  C   UNL     1     181.532 181.248 185.982  1.00  0.00    -0.006 C 
ATOM      3  C   UNL     1     181.732 179.935 185.150  1.00  0.00    -0.002 C 
ATOM      4  C   UNL     1     180.640 178.893 185.471  1.00  0.00     0.005 C 
ATOM      5  C   UNL     1     179.373 179.528 184.873  1.00  0.00     0.010 C 
ATOM      6  C   UNL     1     179.918 180.810 184.202  1.00  0.00    -0.006 C 
ATOM      7  C   UNL     1     181.292 180.353 183.757  1.00  0.00     0.013 C 
ATOM      8  C   UNL     1     180.246 181.850 185.317  1.00  0.00     0.126 C 
ATOM      9  C   UNL     1     179.018 181.325 183.070  1.00  0.00     0.014 C 
ATOM     10  C   UNL     1     181.310 180.993 187.494  1.00  0.00     0.014 C 
ENDROOT
BRANCH   8  11
ATOM     11  O   UNL     1     180.428 183.161 184.826  1.00  0.00    -0.392 OA
ATOM     12  H   UNL     1     181.362 183.261 184.512  1.00  0.00     0.211 HD
ENDBRANCH   8  11
TORSDOF 1
ENDMDL
MODEL 8
REMARK VINA RESULT:    -4.213      1.979      3.550
REMARK INTER + INTRA:          -4.336
REMARK INTER:                  -4.336
REMARK INTRA:                   0.000
REMARK UNBOUND:                 0.000
REMARK SMILES CC1(C)[C@H]2CC[C@](C)(C2)[C@@H]1O
REMARK SMILES IDX 1 1 2 2 4 3 5 4 6 5 7 6 9 7 10 8 8 9 3 10 11 11
REMARK H PARENT 11 12
REMARK Flexibility Score: inf
ROOT
ATOM      1  C   UNL     1     179.367 179.611 184.130  1.00  0.00     0.014 C 
ATOM      2  C   UNL     1     180.213 180.826 183.664  1.00  0.00    -0.006 C 
ATOM      3  C   UNL     1     180.541 181.747 184.889  1.00  0.00    -0.002 C 
ATOM      4  C   UNL     1     181.603 182.807 184.529  1.00  0.00     0.005 C 
ATOM      5  C   UNL     1     180.852 183.729 183.555  1.00  0.00     0.010 C 
ATOM      6  C   UNL     1     179.424 183.135 183.554  1.00  0.00    -0.006 C 
ATOM      7  C   UNL     1     179.309 182.633 184.978  1.00  0.00     0.013 C 
ATOM      8  C   UNL     1     179.439 181.814 182.724  1.00  0.00     0.126 C 
ATOM      9  C   UNL     1     178.349 184.152 183.146  1.00  0.00     0.014 C 
ATOM     10  C   UNL     1     181.473 180.261 182.962  1.00  0.00     0.014 C 
ENDROOT
BRANCH   8  11
ATOM     11  O   UNL     1     178.151 181.360 182.369  1.00  0.00    -0.392 OA
ATOM     12  H   UNL     1     177.594 182.137 182.112  1.00  0.00     0.211 HD
ENDBRANCH   8  11
TORSDOF 1
ENDMDL
