MODEL 1
REMARK VINA RESULT:    -2.809      0.000      0.000
REMARK INTER + INTRA:          -3.267
REMARK INTER:                  -4.287
REMARK INTRA:                   1.019
REMARK UNBOUND:                 1.019
REMARK SMILES CC1=CCC[C@H](C)C(=O)C[C@@H](C(C)C)C(=O)C1
REMARK SMILES IDX 8 1 9 2 6 3 7 4 5 5 4 6 3 7 2 8 1 9 10 11 11 12 15 13 16 14
REMARK SMILES IDX 17 15 12 17 13 18 14 19
REMARK H PARENT
REMARK Flexibility Score: 70.00
ROOT
ATOM      1  C   UNL     1      85.710  30.613  65.483  1.00  0.00     0.136 C 
ATOM      2  O   UNL     1      85.860  31.014  66.629  1.00  0.00    -0.299 OA
ENDROOT
BRANCH   1   3
ATOM      3  C   UNL     1      84.581  31.173  64.638  1.00  0.00     0.053 C 
ATOM      4  C   UNL     1      83.224  30.694  65.174  1.00  0.00     0.016 C 
BRANCH   3   5
ATOM      5  C   UNL     1      84.646  32.716  64.598  1.00  0.00     0.015 C 
BRANCH   5   6
ATOM      6  C   UNL     1      85.764  33.214  63.662  1.00  0.00     0.028 C 
BRANCH   6   7
ATOM      7  C   UNL     1      86.866  33.945  64.388  1.00  0.00    -0.028 C 
ATOM      8  C   UNL     1      88.092  33.438  64.671  1.00  0.00    -0.070 CG0
ATOM      9  C   UNL     1      89.097  34.359  65.318  1.00  0.00     0.039 C 
ATOM     10  G   UNL     1      88.484  31.988  64.417  1.00  0.00     0.000 G0
ENDBRANCH   6   7
ENDBRANCH   5   6
ENDBRANCH   3   5
ENDBRANCH   1   3
BRANCH   1  11
ATOM     11  C   UNL     1      86.651  29.558  64.946  1.00  0.00     0.087 C 
BRANCH  11  12
ATOM     12  C   UNL     1      88.066  29.655  65.577  1.00  0.00     0.066 C 
BRANCH  12  13
ATOM     13  C   UNL     1      88.535  31.101  65.661  1.00  0.00     0.140 C 
ATOM     14  O   UNL     1      88.894  31.574  66.731  1.00  0.00    -0.299 OA
BRANCH  13  15
ATOM     15  C   UNL     1      88.503  31.978  64.433  1.00  0.00     0.106 CG0
ATOM     16  G   UNL     1      88.094  33.418  64.710  1.00  0.00     0.000 G0
ENDBRANCH  13  15
ENDBRANCH  12  13
BRANCH  12  17
ATOM     17  C   UNL     1      89.125  28.740  64.876  1.00  0.00    -0.006 C 
ATOM     18  C   UNL     1      89.014  28.725  63.340  1.00  0.00     0.008 C 
ATOM     19  C   UNL     1      89.070  27.301  65.414  1.00  0.00     0.008 C 
ENDBRANCH  12  17
ENDBRANCH  11  12
ENDBRANCH   1  11
TORSDOF 1
ENDMDL
MODEL 2
REMARK VINA RESULT:    -2.266      1.950      4.442
REMARK INTER + INTRA:          -2.439
REMARK INTER:                  -3.056
REMARK INTRA:                   0.617
REMARK UNBOUND:                 1.019
REMARK SMILES CC1=CCC[C@H](C)C(=O)C[C@@H](C(C)C)C(=O)C1
REMARK SMILES IDX 8 1 9 2 6 3 7 4 5 5 4 6 3 7 2 8 1 9 10 11 11 12 15 13 16 14
REMARK SMILES IDX 17 15 12 17 13 18 14 19
REMARK H PARENT
REMARK Flexibility Score: 70.00
ROOT
ATOM      1  C   UNL     1      88.343  29.236  65.051  1.00  0.00     0.136 C 
ATOM      2  O   UNL     1      89.024  28.962  66.029  1.00  0.00    -0.299 OA
ENDROOT
BRANCH   1   3
ATOM      3  C   UNL     1      87.505  28.153  64.398  1.00  0.00     0.053 C 
ATOM      4  C   UNL     1      88.271  26.822  64.377  1.00  0.00     0.016 C 
BRANCH   3   5
ATOM      5  C   UNL     1      86.151  28.000  65.127  1.00  0.00     0.015 C 
BRANCH   5   6
ATOM      6  C   UNL     1      84.986  28.550  64.282  1.00  0.00     0.028 C 
BRANCH   6   7
ATOM      7  C   UNL     1      84.186  29.614  64.993  1.00  0.00    -0.028 C 
ATOM      8  C   UNL     1      84.417  30.948  64.924  1.00  0.00    -0.070 CG0
ATOM      9  C   UNL     1      83.446  31.863  65.627  1.00  0.00     0.039 C 
ATOM     10  G   UNL     1      85.622  31.560  64.220  1.00  0.00     0.000 G0
ENDBRANCH   6   7
ENDBRANCH   5   6
ENDBRANCH   3   5
ENDBRANCH   1   3
BRANCH   1  11
ATOM     11  C   UNL     1      88.369  30.649  64.512  1.00  0.00     0.087 C 
BRANCH  11  12
ATOM     12  C   UNL     1      87.886  31.687  65.559  1.00  0.00     0.066 C 
BRANCH  12  13
ATOM     13  C   UNL     1      86.571  32.327  65.137  1.00  0.00     0.140 C 
ATOM     14  O   UNL     1      86.249  33.424  65.571  1.00  0.00    -0.299 OA
BRANCH  13  15
ATOM     15  C   UNL     1      85.629  31.582  64.221  1.00  0.00     0.106 CG0
ATOM     16  G   UNL     1      84.432  30.966  64.933  1.00  0.00     0.000 G0
ENDBRANCH  13  15
ENDBRANCH  12  13
BRANCH  12  17
ATOM     17  C   UNL     1      88.967  32.760  65.917  1.00  0.00    -0.006 C 
ATOM     18  C   UNL     1      88.806  33.359  67.328  1.00  0.00     0.008 C 
ATOM     19  C   UNL     1      89.007  33.890  64.876  1.00  0.00     0.008 C 
ENDBRANCH  12  17
ENDBRANCH  11  12
ENDBRANCH   1  11
TORSDOF 1
ENDMDL
MODEL 3
REMARK VINA RESULT:    -2.193      1.664      3.947
REMARK INTER + INTRA:          -2.327
REMARK INTER:                  -3.824
REMARK INTRA:                   1.497
REMARK UNBOUND:                 1.019
REMARK SMILES CC1=CCC[C@H](C)C(=O)C[C@@H](C(C)C)C(=O)C1
REMARK SMILES IDX 8 1 9 2 6 3 7 4 5 5 4 6 3 7 2 8 1 9 10 11 11 12 15 13 16 14
REMARK SMILES IDX 17 15 12 17 13 18 14 19
REMARK H PARENT
REMARK Flexibility Score: 70.00
ROOT
ATOM      1  C   UNL     1      85.763  32.500  64.210  1.00  0.00     0.136 C 
ATOM      2  O   UNL     1      85.358  33.502  63.637  1.00  0.00    -0.299 OA
ENDROOT
BRANCH   1   3
ATOM      3  C   UNL     1      84.831  31.740  65.135  1.00  0.00     0.053 C 
ATOM      4  C   UNL     1      83.504  32.495  65.296  1.00  0.00     0.016 C 
BRANCH   3   5
ATOM      5  C   UNL     1      84.591  30.307  64.607  1.00  0.00     0.015 C 
BRANCH   5   6
ATOM      6  C   UNL     1      85.469  29.276  65.342  1.00  0.00     0.028 C 
BRANCH   6   7
ATOM      7  C   UNL     1      86.706  28.889  64.571  1.00  0.00    -0.028 C 
ATOM      8  C   UNL     1      87.983  29.066  64.993  1.00  0.00    -0.070 CG0
ATOM      9  C   UNL     1      89.088  28.522  64.122  1.00  0.00     0.039 C 
ATOM     10  G   UNL     1      88.354  29.818  66.265  1.00  0.00     0.000 G0
ENDBRANCH   6   7
ENDBRANCH   5   6
ENDBRANCH   3   5
ENDBRANCH   1   3
BRANCH   1  11
ATOM     11  C   UNL     1      87.193  32.057  63.989  1.00  0.00     0.087 C 
BRANCH  11  12
ATOM     12  C   UNL     1      88.072  32.256  65.252  1.00  0.00     0.066 C 
BRANCH  12  13
ATOM     13  C   UNL     1      87.763  31.208  66.312  1.00  0.00     0.140 C 
ATOM     14  O   UNL     1      87.035  31.479  67.257  1.00  0.00    -0.299 OA
BRANCH  13  15
ATOM     15  C   UNL     1      88.402  29.843  66.231  1.00  0.00     0.106 CG0
ATOM     16  G   UNL     1      87.979  29.033  65.012  1.00  0.00     0.000 G0
ENDBRANCH  13  15
ENDBRANCH  12  13
BRANCH  12  17
ATOM     17  C   UNL     1      88.008  33.708  65.833  1.00  0.00    -0.006 C 
ATOM     18  C   UNL     1      88.220  34.810  64.778  1.00  0.00     0.008 C 
ATOM     19  C   UNL     1      89.005  33.898  66.988  1.00  0.00     0.008 C 
ENDBRANCH  12  17
ENDBRANCH  11  12
ENDBRANCH   1  11
TORSDOF 1
ENDMDL
MODEL 4
REMARK VINA RESULT:    -2.091      1.885      3.736
REMARK INTER + INTRA:          -2.172
REMARK INTER:                  -2.261
REMARK INTRA:                   0.090
REMARK UNBOUND:                 1.019
REMARK SMILES CC1=CCC[C@H](C)C(=O)C[C@@H](C(C)C)C(=O)C1
REMARK SMILES IDX 8 1 9 2 6 3 7 4 5 5 4 6 3 7 2 8 1 9 10 11 11 12 15 13 16 14
REMARK SMILES IDX 17 15 12 17 13 18 14 19
REMARK H PARENT
REMARK Flexibility Score: 70.00
ROOT
ATOM      1  C   UNL     1      87.916  32.026  65.709  1.00  0.00     0.136 C 
ATOM      2  O   UNL     1      89.122  32.098  65.897  1.00  0.00    -0.299 OA
ENDROOT
BRANCH   1   3
ATOM      3  C   UNL     1      87.176  33.225  65.146  1.00  0.00     0.053 C 
ATOM      4  C   UNL     1      88.091  34.458  65.123  1.00  0.00     0.016 C 
BRANCH   3   5
ATOM      5  C   UNL     1      86.633  32.914  63.733  1.00  0.00     0.015 C 
BRANCH   5   6
ATOM      6  C   UNL     1      85.121  33.196  63.630  1.00  0.00     0.028 C 
BRANCH   6   7
ATOM      7  C   UNL     1      84.344  32.726  64.834  1.00  0.00    -0.028 C 
ATOM      8  C   UNL     1      84.079  31.432  65.143  1.00  0.00    -0.070 CG0
ATOM      9  C   UNL     1      83.371  31.156  66.446  1.00  0.00     0.039 C 
ATOM     10  G   UNL     1      84.415  30.262  64.228  1.00  0.00     0.000 G0
ENDBRANCH   6   7
ENDBRANCH   5   6
ENDBRANCH   3   5
ENDBRANCH   1   3
BRANCH   1  11
ATOM     11  C   UNL     1      87.195  30.743  66.059  1.00  0.00     0.087 C 
BRANCH  11  12
ATOM     12  C   UNL     1      86.954  29.846  64.815  1.00  0.00     0.066 C 
BRANCH  12  13
ATOM     13  C   UNL     1      85.517  29.348  64.763  1.00  0.00     0.140 C 
ATOM     14  O   UNL     1      85.244  28.207  65.108  1.00  0.00    -0.299 OA
BRANCH  13  15
ATOM     15  C   UNL     1      84.427  30.245  64.228  1.00  0.00     0.106 CG0
ATOM     16  G   UNL     1      84.087  31.418  65.140  1.00  0.00     0.000 G0
ENDBRANCH  13  15
ENDBRANCH  12  13
BRANCH  12  17
ATOM     17  C   UNL     1      87.982  28.673  64.686  1.00  0.00    -0.006 C 
ATOM     18  C   UNL     1      88.845  28.461  65.944  1.00  0.00     0.008 C 
ATOM     19  C   UNL     1      88.891  28.853  63.459  1.00  0.00     0.008 C 
ENDBRANCH  12  17
ENDBRANCH  11  12
ENDBRANCH   1  11
TORSDOF 1
ENDMDL
MODEL 5
REMARK VINA RESULT:    -1.889      1.951      3.726
REMARK INTER + INTRA:          -1.864
REMARK INTER:                  -2.682
REMARK INTRA:                   0.818
REMARK UNBOUND:                 1.019
REMARK SMILES CC1=CCC[C@H](C)C(=O)C[C@@H](C(C)C)C(=O)C1
REMARK SMILES IDX 8 1 9 2 6 3 7 4 5 5 4 6 3 7 2 8 1 9 10 11 11 12 15 13 16 14
REMARK SMILES IDX 17 15 12 17 13 18 14 19
REMARK H PARENT
REMARK Flexibility Score: 70.00
ROOT
ATOM      1  C   UNL     1      88.652  31.566  66.373  1.00  0.00     0.136 C 
ATOM      2  O   UNL     1      89.122  32.147  65.405  1.00  0.00    -0.299 OA
ENDROOT
BRANCH   1   3
ATOM      3  C   UNL     1      88.181  32.371  67.570  1.00  0.00     0.053 C 
ATOM      4  C   UNL     1      88.671  33.822  67.467  1.00  0.00     0.016 C 
BRANCH   3   5
ATOM      5  C   UNL     1      86.641  32.316  67.689  1.00  0.00     0.015 C 
BRANCH   5   6
ATOM      6  C   UNL     1      85.954  32.724  66.372  1.00  0.00     0.028 C 
BRANCH   6   7
ATOM      7  C   UNL     1      84.777  31.850  66.018  1.00  0.00    -0.028 C 
ATOM      8  C   UNL     1      84.794  30.832  65.121  1.00  0.00    -0.070 CG0
ATOM      9  C   UNL     1      83.540  30.007  64.976  1.00  0.00     0.039 C 
ATOM     10  G   UNL     1      85.987  30.516  64.228  1.00  0.00     0.000 G0
ENDBRANCH   6   7
ENDBRANCH   5   6
ENDBRANCH   3   5
ENDBRANCH   1   3
BRANCH   1  11
ATOM     11  C   UNL     1      88.569  30.056  66.353  1.00  0.00     0.087 C 
BRANCH  11  12
ATOM     12  C   UNL     1      88.297  29.502  64.929  1.00  0.00     0.066 C 
BRANCH  12  13
ATOM     13  C   UNL     1      86.806  29.336  64.675  1.00  0.00     0.140 C 
ATOM     14  O   UNL     1      86.277  28.238  64.785  1.00  0.00    -0.299 OA
BRANCH  13  15
ATOM     15  C   UNL     1      85.980  30.519  64.230  1.00  0.00     0.106 CG0
ATOM     16  G   UNL     1      84.781  30.808  65.123  1.00  0.00     0.000 G0
ENDBRANCH  13  15
ENDBRANCH  12  13
BRANCH  12  17
ATOM     17  C   UNL     1      89.091  28.192  64.609  1.00  0.00    -0.006 C 
ATOM     18  C   UNL     1      89.092  27.813  63.116  1.00  0.00     0.008 C 
ATOM     19  C   UNL     1      88.582  27.006  65.443  1.00  0.00     0.008 C 
ENDBRANCH  12  17
ENDBRANCH  11  12
ENDBRANCH   1  11
TORSDOF 1
ENDMDL
MODEL 6
REMARK VINA RESULT:    -1.703      2.306      4.105
REMARK INTER + INTRA:          -1.580
REMARK INTER:                  -2.638
REMARK INTRA:                   1.058
REMARK UNBOUND:                 1.019
REMARK SMILES CC1=CCC[C@H](C)C(=O)C[C@@H](C(C)C)C(=O)C1
REMARK SMILES IDX 8 1 9 2 6 3 7 4 5 5 4 6 3 7 2 8 1 9 10 11 11 12 15 13 16 14
REMARK SMILES IDX 17 15 12 17 13 18 14 19
REMARK H PARENT
REMARK Flexibility Score: 70.00
ROOT
ATOM      1  C   UNL     1      88.426  30.909  64.885  1.00  0.00     0.136 C 
ATOM      2  O   UNL     1      88.622  30.767  63.685  1.00  0.00    -0.299 OA
ENDROOT
BRANCH   1   3
ATOM      3  C   UNL     1      89.125  32.031  65.628  1.00  0.00     0.053 C 
ATOM      4  C   UNL     1      88.830  33.382  64.960  1.00  0.00     0.016 C 
BRANCH   3   5
ATOM      5  C   UNL     1      88.700  32.046  67.114  1.00  0.00     0.015 C 
BRANCH   5   6
ATOM      6  C   UNL     1      87.798  33.254  67.435  1.00  0.00     0.028 C 
BRANCH   6   7
ATOM      7  C   UNL     1      86.438  32.859  67.954  1.00  0.00    -0.028 C 
ATOM      8  C   UNL     1      85.448  32.296  67.217  1.00  0.00    -0.070 CG0
ATOM      9  C   UNL     1      84.190  31.880  67.938  1.00  0.00     0.039 C 
ATOM     10  G   UNL     1      85.524  32.108  65.707  1.00  0.00     0.000 G0
ENDBRANCH   6   7
ENDBRANCH   5   6
ENDBRANCH   3   5
ENDBRANCH   1   3
BRANCH   1  11
ATOM     11  C   UNL     1      87.500  29.946  65.594  1.00  0.00     0.087 C 
BRANCH  11  12
ATOM     12  C   UNL     1      86.183  29.708  64.808  1.00  0.00     0.066 C 
BRANCH  12  13
ATOM     13  C   UNL     1      85.108  30.703  65.218  1.00  0.00     0.140 C 
ATOM     14  O   UNL     1      83.924  30.411  65.120  1.00  0.00    -0.299 OA
BRANCH  13  15
ATOM     15  C   UNL     1      85.498  32.082  65.696  1.00  0.00     0.106 CG0
ATOM     16  G   UNL     1      85.431  32.255  67.208  1.00  0.00     0.000 G0
ENDBRANCH  13  15
ENDBRANCH  12  13
BRANCH  12  17
ATOM     17  C   UNL     1      85.670  28.232  64.884  1.00  0.00    -0.006 C 
ATOM     18  C   UNL     1      86.698  27.191  64.403  1.00  0.00     0.008 C 
ATOM     19  C   UNL     1      84.352  28.053  64.113  1.00  0.00     0.008 C 
ENDBRANCH  12  17
ENDBRANCH  11  12
ENDBRANCH   1  11
TORSDOF 1
ENDMDL
MODEL 7
REMARK VINA RESULT:    -1.168      1.863      4.625
REMARK INTER + INTRA:          -0.763
REMARK INTER:                  -2.521
REMARK INTRA:                   1.758
REMARK UNBOUND:                 1.019
REMARK SMILES CC1=CCC[C@H](C)C(=O)C[C@@H](C(C)C)C(=O)C1
REMARK SMILES IDX 8 1 9 2 6 3 7 4 5 5 4 6 3 7 2 8 1 9 10 11 11 12 15 13 16 14
REMARK SMILES IDX 17 15 12 17 13 18 14 19
REMARK H PARENT
REMARK Flexibility Score: 70.00
ROOT
ATOM      1  C   UNL     1      86.539  32.692  63.863  1.00  0.00     0.136 C 
ATOM      2  O   UNL     1      86.461  32.416  62.674  1.00  0.00    -0.299 OA
ENDROOT
BRANCH   1   3
ATOM      3  C   UNL     1      87.839  33.241  64.419  1.00  0.00     0.053 C 
ATOM      4  C   UNL     1      87.575  34.062  65.689  1.00  0.00     0.016 C 
BRANCH   3   5
ATOM      5  C   UNL     1      88.837  32.095  64.700  1.00  0.00     0.015 C 
BRANCH   5   6
ATOM      6  C   UNL     1      89.102  31.250  63.438  1.00  0.00     0.028 C 
BRANCH   6   7
ATOM      7  C   UNL     1      89.110  29.766  63.706  1.00  0.00    -0.028 C 
ATOM      8  C   UNL     1      88.443  29.144  64.710  1.00  0.00    -0.070 CG0
ATOM      9  C   UNL     1      88.495  27.637  64.755  1.00  0.00     0.039 C 
ATOM     10  G   UNL     1      87.693  29.886  65.809  1.00  0.00     0.000 G0
ENDBRANCH   6   7
ENDBRANCH   5   6
ENDBRANCH   3   5
ENDBRANCH   1   3
BRANCH   1  11
ATOM     11  C   UNL     1      85.334  32.463  64.749  1.00  0.00     0.087 C 
BRANCH  11  12
ATOM     12  C   UNL     1      85.662  31.556  65.965  1.00  0.00     0.066 C 
BRANCH  12  13
ATOM     13  C   UNL     1      86.244  30.223  65.519  1.00  0.00     0.140 C 
ATOM     14  O   UNL     1      85.541  29.400  64.947  1.00  0.00    -0.299 OA
BRANCH  13  15
ATOM     15  C   UNL     1      87.682  29.885  65.832  1.00  0.00     0.106 CG0
ATOM     16  G   UNL     1      88.411  29.172  64.699  1.00  0.00     0.000 G0
ENDBRANCH  13  15
ENDBRANCH  12  13
BRANCH  12  17
ATOM     17  C   UNL     1      84.456  31.367  66.943  1.00  0.00    -0.006 C 
ATOM     18  C   UNL     1      83.079  31.447  66.257  1.00  0.00     0.008 C 
ATOM     19  C   UNL     1      84.512  32.368  68.109  1.00  0.00     0.008 C 
ENDBRANCH  12  17
ENDBRANCH  11  12
ENDBRANCH   1  11
TORSDOF 1
ENDMDL
MODEL 8
REMARK VINA RESULT:    -1.071      1.969      2.377
REMARK INTER + INTRA:          -0.615
REMARK INTER:                  -0.601
REMARK INTRA:                  -0.014
REMARK UNBOUND:                 1.019
REMARK SMILES CC1=CCC[C@H](C)C(=O)C[C@@H](C(C)C)C(=O)C1
REMARK SMILES IDX 8 1 9 2 6 3 7 4 5 5 4 6 3 7 2 8 1 9 10 11 11 12 15 13 16 14
REMARK SMILES IDX 17 15 12 17 13 18 14 19
REMARK H PARENT
REMARK Flexibility Score: 70.00
ROOT
ATOM      1  C   UNL     1      85.147  29.722  64.767  1.00  0.00     0.136 C 
ATOM      2  O   UNL     1      84.909  28.570  65.103  1.00  0.00    -0.299 OA
ENDROOT
BRANCH   1   3
ATOM      3  C   UNL     1      84.113  30.803  65.025  1.00  0.00     0.053 C 
ATOM      4  C   UNL     1      82.818  30.500  64.257  1.00  0.00     0.016 C 
BRANCH   3   5
ATOM      5  C   UNL     1      83.838  30.942  66.539  1.00  0.00     0.015 C 
BRANCH   5   6
ATOM      6  C   UNL     1      84.243  32.332  67.065  1.00  0.00     0.028 C 
BRANCH   6   7
ATOM      7  C   UNL     1      85.601  32.348  67.722  1.00  0.00    -0.028 C 
ATOM      8  C   UNL     1      86.755  32.750  67.132  1.00  0.00    -0.070 CG0
ATOM      9  C   UNL     1      87.999  32.787  67.984  1.00  0.00     0.039 C 
ATOM     10  G   UNL     1      86.865  33.114  65.657  1.00  0.00     0.000 G0
ENDBRANCH   6   7
ENDBRANCH   5   6
ENDBRANCH   3   5
ENDBRANCH   1   3
BRANCH   1  11
ATOM     11  C   UNL     1      86.463  30.032  64.090  1.00  0.00     0.087 C 
BRANCH  11  12
ATOM     12  C   UNL     1      87.501  30.639  65.072  1.00  0.00     0.066 C 
BRANCH  12  13
ATOM     13  C   UNL     1      87.673  32.133  64.840  1.00  0.00     0.140 C 
ATOM     14  O   UNL     1      88.488  32.544  64.025  1.00  0.00    -0.299 OA
BRANCH  13  15
ATOM     15  C   UNL     1      86.876  33.121  65.658  1.00  0.00     0.106 CG0
ATOM     16  G   UNL     1      86.766  32.756  67.133  1.00  0.00     0.000 G0
ENDBRANCH  13  15
ENDBRANCH  12  13
BRANCH  12  17
ATOM     17  C   UNL     1      88.874  29.888  65.070  1.00  0.00    -0.006 C 
ATOM     18  C   UNL     1      89.060  28.935  63.873  1.00  0.00     0.008 C 
ATOM     19  C   UNL     1      89.098  29.120  66.382  1.00  0.00     0.008 C 
ENDBRANCH  12  17
ENDBRANCH  11  12
ENDBRANCH   1  11
TORSDOF 1
ENDMDL
MODEL 9
REMARK VINA RESULT:    -0.605      1.895      4.947
REMARK INTER + INTRA:           0.096
REMARK INTER:                  -2.950
REMARK INTRA:                   3.046
REMARK UNBOUND:                 1.019
REMARK SMILES CC1=CCC[C@H](C)C(=O)C[C@@H](C(C)C)C(=O)C1
REMARK SMILES IDX 8 1 9 2 6 3 7 4 5 5 4 6 3 7 2 8 1 9 10 11 11 12 15 13 16 14
REMARK SMILES IDX 17 15 12 17 13 18 14 19
REMARK H PARENT
REMARK Flexibility Score: 70.00
ROOT
ATOM      1  C   UNL     1      88.218  31.188  66.648  1.00  0.00     0.136 C 
ATOM      2  O   UNL     1      89.125  31.779  67.218  1.00  0.00    -0.299 OA
ENDROOT
BRANCH   1   3
ATOM      3  C   UNL     1      88.544  30.255  65.497  1.00  0.00     0.053 C 
ATOM      4  C   UNL     1      89.094  28.923  66.025  1.00  0.00     0.016 C 
BRANCH   3   5
ATOM      5  C   UNL     1      87.296  30.026  64.614  1.00  0.00     0.015 C 
BRANCH   5   6
ATOM      6  C   UNL     1      86.686  28.629  64.843  1.00  0.00     0.028 C 
BRANCH   6   7
ATOM      7  C   UNL     1      85.180  28.616  64.760  1.00  0.00    -0.028 C 
ATOM      8  C   UNL     1      84.400  29.684  64.462  1.00  0.00    -0.070 CG0
ATOM      9  C   UNL     1      82.916  29.450  64.328  1.00  0.00     0.039 C 
ATOM     10  G   UNL     1      84.935  31.102  64.306  1.00  0.00     0.000 G0
ENDBRANCH   6   7
ENDBRANCH   5   6
ENDBRANCH   3   5
ENDBRANCH   1   3
BRANCH   1  11
ATOM     11  C   UNL     1      86.794  31.417  67.103  1.00  0.00     0.087 C 
BRANCH  11  12
ATOM     12  C   UNL     1      86.065  32.480  66.238  1.00  0.00     0.066 C 
BRANCH  12  13
ATOM     13  C   UNL     1      84.807  31.907  65.602  1.00  0.00     0.140 C 
ATOM     14  O   UNL     1      83.720  32.044  66.147  1.00  0.00    -0.299 OA
BRANCH  13  15
ATOM     15  C   UNL     1      84.903  31.114  64.321  1.00  0.00     0.106 CG0
ATOM     16  G   UNL     1      84.383  29.687  64.436  1.00  0.00     0.000 G0
ENDBRANCH  13  15
ENDBRANCH  12  13
BRANCH  12  17
ATOM     17  C   UNL     1      86.992  33.165  65.180  1.00  0.00    -0.006 C 
ATOM     18  C   UNL     1      87.668  34.453  65.685  1.00  0.00     0.008 C 
ATOM     19  C   UNL     1      86.238  33.454  63.872  1.00  0.00     0.008 C 
ENDBRANCH  12  17
ENDBRANCH  11  12
ENDBRANCH   1  11
TORSDOF 1
ENDMDL
