MODEL 1
REMARK VINA RESULT:    -4.263      0.000      0.000
REMARK INTER + INTRA:          -4.882
REMARK INTER:                  -4.637
REMARK INTRA:                  -0.246
REMARK UNBOUND:                -0.246
REMARK SMILES O=C([O-])c1ccccc1O
REMARK SMILES IDX 4 1 9 2 5 3 8 4 6 5 7 6 2 7 1 8 3 9 10 10
REMARK H PARENT 10 11
REMARK Flexibility Score: inf
ROOT
ATOM      1  C   UNL     1      -9.101  -1.420   7.781  1.00  0.00     0.039 A 
ATOM      2  C   UNL     1      -7.837  -1.152   7.195  1.00  0.00     0.124 A 
ATOM      3  C   UNL     1      -9.179  -1.611   9.173  1.00  0.00     0.014 A 
ATOM      4  C   UNL     1      -6.690  -1.145   7.998  1.00  0.00     0.047 A 
ATOM      5  C   UNL     1      -8.027  -1.579   9.963  1.00  0.00     0.001 A 
ATOM      6  C   UNL     1      -6.783  -1.357   9.374  1.00  0.00     0.004 A 
ENDROOT
BRANCH   1   7
ATOM      7  C   UNL     1     -10.338  -1.544   6.978  1.00  0.00     0.075 C 
ATOM      8  O   UNL     1     -11.048  -2.581   7.067  1.00  0.00    -0.545 OA
ATOM      9  O   UNL     1     -10.698  -0.557   6.069  1.00  0.00    -0.545 OA
ENDBRANCH   1   7
BRANCH   2  10
ATOM     10  O   UNL     1      -7.685  -0.855   5.840  1.00  0.00    -0.507 OA
ATOM     11  H   UNL     1      -8.095  -0.043   5.399  1.00  0.00     0.293 HD
ENDBRANCH   2  10
TORSDOF 2
ENDMDL
MODEL 2
REMARK VINA RESULT:    -4.214      1.026      1.169
REMARK INTER + INTRA:          -4.830
REMARK INTER:                  -4.581
REMARK INTRA:                  -0.248
REMARK UNBOUND:                -0.246
REMARK SMILES O=C([O-])c1ccccc1O
REMARK SMILES IDX 4 1 9 2 5 3 8 4 6 5 7 6 2 7 1 8 3 9 10 10
REMARK H PARENT 10 11
REMARK Flexibility Score: inf
ROOT
ATOM      1  C   UNL     1      -9.004  -0.458   7.856  1.00  0.00     0.039 A 
ATOM      2  C   UNL     1      -7.867  -0.866   7.114  1.00  0.00     0.124 A 
ATOM      3  C   UNL     1      -8.908  -0.373   9.258  1.00  0.00     0.014 A 
ATOM      4  C   UNL     1      -6.696  -1.235   7.788  1.00  0.00     0.047 A 
ATOM      5  C   UNL     1      -7.725  -0.724   9.913  1.00  0.00     0.001 A 
ATOM      6  C   UNL     1      -6.624  -1.165   9.180  1.00  0.00     0.004 A 
ENDROOT
BRANCH   1   7
ATOM      7  C   UNL     1     -10.303  -0.154   7.216  1.00  0.00     0.075 C 
ATOM      8  O   UNL     1     -10.772  -0.927   6.339  1.00  0.00    -0.545 OA
ATOM      9  O   UNL     1     -10.989   1.017   7.519  1.00  0.00    -0.545 OA
ENDBRANCH   1   7
BRANCH   2  10
ATOM     10  O   UNL     1      -7.847  -0.884   5.718  1.00  0.00    -0.507 OA
ATOM     11  H   UNL     1      -7.931  -0.052   5.150  1.00  0.00     0.293 HD
ENDBRANCH   2  10
TORSDOF 2
ENDMDL
MODEL 3
REMARK VINA RESULT:    -3.915      1.769      3.437
REMARK INTER + INTRA:          -4.504
REMARK INTER:                  -4.257
REMARK INTRA:                  -0.247
REMARK UNBOUND:                -0.246
REMARK SMILES O=C([O-])c1ccccc1O
REMARK SMILES IDX 4 1 9 2 5 3 8 4 6 5 7 6 2 7 1 8 3 9 10 10
REMARK H PARENT 10 11
REMARK Flexibility Score: inf
ROOT
ATOM      1  C   UNL     1      -8.523  -1.431   7.942  1.00  0.00     0.039 A 
ATOM      2  C   UNL     1      -8.784  -1.320   6.552  1.00  0.00     0.124 A 
ATOM      3  C   UNL     1      -9.532  -1.931   8.786  1.00  0.00     0.014 A 
ATOM      4  C   UNL     1     -10.053  -1.647   6.058  1.00  0.00     0.047 A 
ATOM      5  C   UNL     1     -10.785  -2.275   8.273  1.00  0.00     0.001 A 
ATOM      6  C   UNL     1     -11.049  -2.123   6.912  1.00  0.00     0.004 A 
ENDROOT
BRANCH   1   7
ATOM      7  C   UNL     1      -7.241  -1.005   8.545  1.00  0.00     0.075 C 
ATOM      8  O   UNL     1      -6.153  -1.260   7.964  1.00  0.00    -0.545 OA
ATOM      9  O   UNL     1      -7.211  -0.382   9.787  1.00  0.00    -0.545 OA
ENDBRANCH   1   7
BRANCH   2  10
ATOM     10  O   UNL     1      -7.810  -0.926   5.633  1.00  0.00    -0.507 OA
ATOM     11  H   UNL     1      -8.008  -0.352   4.824  1.00  0.00     0.293 HD
ENDBRANCH   2  10
TORSDOF 2
ENDMDL
MODEL 4
REMARK VINA RESULT:    -3.884      1.107      2.331
REMARK INTER + INTRA:          -4.471
REMARK INTER:                  -4.220
REMARK INTRA:                  -0.251
REMARK UNBOUND:                -0.246
REMARK SMILES O=C([O-])c1ccccc1O
REMARK SMILES IDX 4 1 9 2 5 3 8 4 6 5 7 6 2 7 1 8 3 9 10 10
REMARK H PARENT 10 11
REMARK Flexibility Score: inf
ROOT
ATOM      1  C   UNL     1      -8.749  -1.157   7.756  1.00  0.00     0.039 A 
ATOM      2  C   UNL     1      -9.282  -1.461   9.035  1.00  0.00     0.124 A 
ATOM      3  C   UNL     1      -7.352  -1.086   7.600  1.00  0.00     0.014 A 
ATOM      4  C   UNL     1      -8.417  -1.620  10.125  1.00  0.00     0.047 A 
ATOM      5  C   UNL     1      -6.502  -1.270   8.693  1.00  0.00     0.001 A 
ATOM      6  C   UNL     1      -7.035  -1.526   9.957  1.00  0.00     0.004 A 
ENDROOT
BRANCH   1   7
ATOM      7  C   UNL     1      -9.608  -0.875   6.585  1.00  0.00     0.075 C 
ATOM      8  O   UNL     1      -9.276  -1.289   5.443  1.00  0.00    -0.545 OA
ATOM      9  O   UNL     1     -10.752  -0.096   6.713  1.00  0.00    -0.545 OA
ENDBRANCH   1   7
BRANCH   2  10
ATOM     10  O   UNL     1     -10.648  -1.646   9.257  1.00  0.00    -0.507 OA
ATOM     11  H   UNL     1     -11.125  -1.326  10.089  1.00  0.00     0.293 HD
ENDBRANCH   2  10
TORSDOF 2
ENDMDL
MODEL 5
REMARK VINA RESULT:    -3.790      1.668      2.295
REMARK INTER + INTRA:          -4.369
REMARK INTER:                  -4.144
REMARK INTRA:                  -0.224
REMARK UNBOUND:                -0.246
REMARK SMILES O=C([O-])c1ccccc1O
REMARK SMILES IDX 4 1 9 2 5 3 8 4 6 5 7 6 2 7 1 8 3 9 10 10
REMARK H PARENT 10 11
REMARK Flexibility Score: inf
ROOT
ATOM      1  C   UNL     1      -8.536  -0.573   7.880  1.00  0.00     0.039 A 
ATOM      2  C   UNL     1      -8.802   0.460   8.814  1.00  0.00     0.124 A 
ATOM      3  C   UNL     1      -7.452  -1.440   8.115  1.00  0.00     0.014 A 
ATOM      4  C   UNL     1      -7.951   0.638   9.912  1.00  0.00     0.047 A 
ATOM      5  C   UNL     1      -6.626  -1.263   9.227  1.00  0.00     0.001 A 
ATOM      6  C   UNL     1      -6.869  -0.218  10.119  1.00  0.00     0.004 A 
ENDROOT
BRANCH   1   7
ATOM      7  C   UNL     1      -9.332  -0.752   6.646  1.00  0.00     0.075 C 
ATOM      8  O   UNL     1      -8.828  -1.331   5.647  1.00  0.00    -0.545 OA
ATOM      9  O   UNL     1     -10.615  -0.228   6.544  1.00  0.00    -0.545 OA
ENDBRANCH   1   7
BRANCH   2  10
ATOM     10  O   UNL     1      -9.912   1.301   8.709  1.00  0.00    -0.507 OA
ATOM     11  H   UNL     1     -10.135   2.015   9.390  1.00  0.00     0.293 HD
ENDBRANCH   2  10
TORSDOF 2
ENDMDL
MODEL 6
REMARK VINA RESULT:    -3.706      2.350      4.026
REMARK INTER + INTRA:          -4.277
REMARK INTER:                  -4.065
REMARK INTRA:                  -0.212
REMARK UNBOUND:                -0.246
REMARK SMILES O=C([O-])c1ccccc1O
REMARK SMILES IDX 4 1 9 2 5 3 8 4 6 5 7 6 2 7 1 8 3 9 10 10
REMARK H PARENT 10 11
REMARK Flexibility Score: inf
ROOT
ATOM      1  C   UNL     1      -8.050  -1.254   8.422  1.00  0.00     0.039 A 
ATOM      2  C   UNL     1      -9.289  -1.909   8.638  1.00  0.00     0.124 A 
ATOM      3  C   UNL     1      -7.729  -0.816   7.124  1.00  0.00     0.014 A 
ATOM      4  C   UNL     1     -10.136  -2.163   7.553  1.00  0.00     0.047 A 
ATOM      5  C   UNL     1      -8.596  -1.058   6.055  1.00  0.00     0.001 A 
ATOM      6  C   UNL     1      -9.793  -1.741   6.268  1.00  0.00     0.004 A 
ENDROOT
BRANCH   1   7
ATOM      7  C   UNL     1      -7.063  -1.045   9.505  1.00  0.00     0.075 C 
ATOM      8  O   UNL     1      -6.587  -2.032  10.125  1.00  0.00    -0.545 OA
ATOM      9  O   UNL     1      -6.700   0.237   9.899  1.00  0.00    -0.545 OA
ENDBRANCH   1   7
BRANCH   2  10
ATOM     10  O   UNL     1      -9.728  -2.288   9.909  1.00  0.00    -0.507 OA
ATOM     11  H   UNL     1     -10.701  -2.290  10.183  1.00  0.00     0.293 HD
ENDBRANCH   2  10
TORSDOF 2
ENDMDL
MODEL 7
REMARK VINA RESULT:    -3.706     20.917     21.651
REMARK INTER + INTRA:          -4.276
REMARK INTER:                  -4.059
REMARK INTRA:                  -0.217
REMARK UNBOUND:                -0.246
REMARK SMILES O=C([O-])c1ccccc1O
REMARK SMILES IDX 4 1 9 2 5 3 8 4 6 5 7 6 2 7 1 8 3 9 10 10
REMARK H PARENT 10 11
REMARK Flexibility Score: inf
ROOT
ATOM      1  C   UNL     1       2.440   5.704  -9.372  1.00  0.00     0.039 A 
ATOM      2  C   UNL     1       2.726   4.366  -8.996  1.00  0.00     0.124 A 
ATOM      3  C   UNL     1       3.494   6.633  -9.437  1.00  0.00     0.014 A 
ATOM      4  C   UNL     1       4.033   4.013  -8.639  1.00  0.00     0.047 A 
ATOM      5  C   UNL     1       4.797   6.258  -9.099  1.00  0.00     0.001 A 
ATOM      6  C   UNL     1       5.063   4.952  -8.689  1.00  0.00     0.004 A 
ENDROOT
BRANCH   1   7
ATOM      7  C   UNL     1       1.066   6.170  -9.662  1.00  0.00     0.075 C 
ATOM      8  O   UNL     1       0.875   7.326 -10.125  1.00  0.00    -0.545 OA
ATOM      9  O   UNL     1      -0.034   5.373  -9.367  1.00  0.00    -0.545 OA
ENDBRANCH   1   7
BRANCH   2  10
ATOM     10  O   UNL     1       1.757   3.361  -9.000  1.00  0.00    -0.507 OA
ATOM     11  H   UNL     1       1.005   3.311  -8.326  1.00  0.00     0.293 HD
ENDBRANCH   2  10
TORSDOF 2
ENDMDL
MODEL 8
REMARK VINA RESULT:    -3.620     18.323     18.935
REMARK INTER + INTRA:          -4.183
REMARK INTER:                  -3.949
REMARK INTRA:                  -0.234
REMARK UNBOUND:                -0.246
REMARK SMILES O=C([O-])c1ccccc1O
REMARK SMILES IDX 4 1 9 2 5 3 8 4 6 5 7 6 2 7 1 8 3 9 10 10
REMARK H PARENT 10 11
REMARK Flexibility Score: inf
ROOT
ATOM      1  C   UNL     1      -0.480  -4.137  -8.744  1.00  0.00     0.039 A 
ATOM      2  C   UNL     1      -1.459  -3.254  -9.268  1.00  0.00     0.124 A 
ATOM      3  C   UNL     1       0.864  -3.722  -8.712  1.00  0.00     0.014 A 
ATOM      4  C   UNL     1      -1.064  -2.021  -9.799  1.00  0.00     0.047 A 
ATOM      5  C   UNL     1       1.238  -2.478  -9.226  1.00  0.00     0.001 A 
ATOM      6  C   UNL     1       0.276  -1.633  -9.779  1.00  0.00     0.004 A 
ENDROOT
BRANCH   1   7
ATOM      7  C   UNL     1      -0.814  -5.496  -8.261  1.00  0.00     0.075 C 
ATOM      8  O   UNL     1      -0.004  -6.123  -7.529  1.00  0.00    -0.545 OA
ATOM      9  O   UNL     1      -1.987  -6.125  -8.661  1.00  0.00    -0.545 OA
ENDBRANCH   1   7
BRANCH   2  10
ATOM     10  O   UNL     1      -2.824  -3.547  -9.247  1.00  0.00    -0.507 OA
ATOM     11  H   UNL     1      -3.541  -2.845  -9.129  1.00  0.00     0.293 HD
ENDBRANCH   2  10
TORSDOF 2
ENDMDL
