MODEL 1
REMARK VINA RESULT:    -4.728      0.000      0.000
REMARK INTER + INTRA:         -15.849
REMARK INTER:                 -11.915
REMARK INTRA:                  -3.934
REMARK UNBOUND:                -3.934
REMARK SMILES CCCCCCCCCCCCCCCCCCCCCCCCCCCC(=O)[O-]
REMARK SMILES IDX 15 1 16 2 17 3 18 4 19 5 20 6 21 7 22 8 23 9 24 10 25 11
REMARK SMILES IDX 26 12 27 13 28 14 29 15 30 16 14 17 13 18 12 19 11 20 10 21
REMARK SMILES IDX 9 22 8 23 7 24 6 25 5 26 4 27 3 28 2 29 1 30
REMARK H PARENT
REMARK Flexibility Score: inf
ROOT
ATOM      1  C   UNL     1     -12.825   3.643   4.853  1.00  0.00     0.000 C 
ENDROOT
BRANCH   1   2
ATOM      2  C   UNL     1     -13.137   3.241   6.308  1.00  0.00     0.000 C 
BRANCH   2   3
ATOM      3  C   UNL     1     -11.911   2.825   7.143  1.00  0.00     0.000 C 
BRANCH   3   4
ATOM      4  C   UNL     1     -11.912   3.439   8.551  1.00  0.00     0.000 C 
BRANCH   4   5
ATOM      5  C   UNL     1     -10.875   4.569   8.658  1.00  0.00     0.000 C 
BRANCH   5   6
ATOM      6  C   UNL     1     -10.937   5.536   7.457  1.00  0.00     0.000 C 
BRANCH   6   7
ATOM      7  C   UNL     1      -9.800   5.335   6.440  1.00  0.00     0.000 C 
BRANCH   7   8
ATOM      8  C   UNL     1     -10.030   6.112   5.135  1.00  0.00     0.000 C 
BRANCH   8   9
ATOM      9  C   UNL     1     -10.479   7.569   5.364  1.00  0.00     0.000 C 
BRANCH   9  10
ATOM     10  C   UNL     1      -9.517   8.648   4.836  1.00  0.00     0.000 C 
BRANCH  10  11
ATOM     11  C   UNL     1      -8.210   8.745   5.639  1.00  0.00     0.000 C 
BRANCH  11  12
ATOM     12  C   UNL     1      -7.374   9.948   5.177  1.00  0.00     0.006 C 
BRANCH  12  13
ATOM     13  C   UNL     1      -6.761  10.720   6.354  1.00  0.00     0.053 C 
BRANCH  13  14
ATOM     14  C   UNL     1      -7.810  11.318   7.244  1.00  0.00     0.041 C 
ATOM     15  O   UNL     1      -7.714  11.215   8.497  1.00  0.00    -0.550 OA
ATOM     16  O   UNL     1      -8.898  11.979   6.689  1.00  0.00    -0.550 OA
ENDBRANCH  13  14
ENDBRANCH  12  13
ENDBRANCH  11  12
ENDBRANCH  10  11
ENDBRANCH   9  10
ENDBRANCH   8   9
ENDBRANCH   7   8
ENDBRANCH   6   7
ENDBRANCH   5   6
ENDBRANCH   4   5
ENDBRANCH   3   4
ENDBRANCH   2   3
ENDBRANCH   1   2
BRANCH   1  17
ATOM     17  C   UNL     1     -13.591   4.873   4.326  1.00  0.00     0.000 C 
BRANCH  17  18
ATOM     18  C   UNL     1     -13.944   5.909   5.418  1.00  0.00     0.000 C 
BRANCH  18  19
ATOM     19  C   UNL     1     -15.051   6.910   5.026  1.00  0.00     0.000 C 
BRANCH  19  20
ATOM     20  C   UNL     1     -14.551   8.269   4.490  1.00  0.00     0.000 C 
BRANCH  20  21
ATOM     21  C   UNL     1     -15.622   9.370   4.382  1.00  0.00     0.000 C 
BRANCH  21  22
ATOM     22  C   UNL     1     -15.747   9.942   2.958  1.00  0.00    -0.000 C 
BRANCH  22  23
ATOM     23  C   UNL     1     -14.664   9.405   2.008  1.00  0.00    -0.000 C 
BRANCH  23  24
ATOM     24  C   UNL     1     -13.727  10.516   1.500  1.00  0.00    -0.000 C 
BRANCH  24  25
ATOM     25  C   UNL     1     -12.595  10.831   2.492  1.00  0.00    -0.000 C 
BRANCH  25  26
ATOM     26  C   UNL     1     -12.692  12.258   3.062  1.00  0.00    -0.000 C 
BRANCH  26  27
ATOM     27  C   UNL     1     -12.409  12.316   4.572  1.00  0.00    -0.000 C 
BRANCH  27  28
ATOM     28  C   UNL     1     -12.365  10.945   5.274  1.00  0.00    -0.000 C 
BRANCH  28  29
ATOM     29  C   UNL     1     -12.395  11.030   6.815  1.00  0.00    -0.003 C 
ATOM     30  C   UNL     1     -13.408  10.068   7.436  1.00  0.00     0.004 C 
ENDBRANCH  28  29
ENDBRANCH  27  28
ENDBRANCH  26  27
ENDBRANCH  25  26
ENDBRANCH  24  25
ENDBRANCH  23  24
ENDBRANCH  22  23
ENDBRANCH  21  22
ENDBRANCH  20  21
ENDBRANCH  19  20
ENDBRANCH  18  19
ENDBRANCH  17  18
ENDBRANCH   1  17
TORSDOF 26
ENDMDL
MODEL 2
REMARK VINA RESULT:    -4.661      2.076      5.571
REMARK INTER + INTRA:         -15.680
REMARK INTER:                 -10.951
REMARK INTRA:                  -4.729
REMARK UNBOUND:                -3.934
REMARK SMILES CCCCCCCCCCCCCCCCCCCCCCCCCCCC(=O)[O-]
REMARK SMILES IDX 15 1 16 2 17 3 18 4 19 5 20 6 21 7 22 8 23 9 24 10 25 11
REMARK SMILES IDX 26 12 27 13 28 14 29 15 30 16 14 17 13 18 12 19 11 20 10 21
REMARK SMILES IDX 9 22 8 23 7 24 6 25 5 26 4 27 3 28 2 29 1 30
REMARK H PARENT
REMARK Flexibility Score: inf
ROOT
ATOM      1  C   UNL     1      -9.739   5.316   6.449  1.00  0.00     0.000 C 
ENDROOT
BRANCH   1   2
ATOM      2  C   UNL     1     -10.926   5.359   7.431  1.00  0.00     0.000 C 
BRANCH   2   3
ATOM      3  C   UNL     1     -11.226   4.027   8.144  1.00  0.00     0.000 C 
BRANCH   3   4
ATOM      4  C   UNL     1     -11.675   2.921   7.178  1.00  0.00     0.000 C 
BRANCH   4   5
ATOM      5  C   UNL     1     -12.990   3.304   6.480  1.00  0.00     0.000 C 
BRANCH   5   6
ATOM      6  C   UNL     1     -12.801   3.550   4.968  1.00  0.00     0.000 C 
BRANCH   6   7
ATOM      7  C   UNL     1     -13.489   4.828   4.459  1.00  0.00     0.000 C 
BRANCH   7   8
ATOM      8  C   UNL     1     -14.128   5.648   5.591  1.00  0.00     0.000 C 
BRANCH   8   9
ATOM      9  C   UNL     1     -13.714   7.133   5.576  1.00  0.00     0.000 C 
BRANCH   9  10
ATOM     10  C   UNL     1     -14.825   8.125   5.188  1.00  0.00     0.000 C 
BRANCH  10  11
ATOM     11  C   UNL     1     -14.701   8.644   3.747  1.00  0.00     0.000 C 
BRANCH  11  12
ATOM     12  C   UNL     1     -15.086  10.130   3.668  1.00  0.00     0.006 C 
BRANCH  12  13
ATOM     13  C   UNL     1     -14.927  10.699   2.250  1.00  0.00     0.053 C 
BRANCH  13  14
ATOM     14  C   UNL     1     -13.576  11.313   2.036  1.00  0.00     0.041 C 
ATOM     15  O   UNL     1     -12.680  10.677   1.420  1.00  0.00    -0.550 OA
ATOM     16  O   UNL     1     -13.304  12.585   2.526  1.00  0.00    -0.550 OA
ENDBRANCH  13  14
ENDBRANCH  12  13
ENDBRANCH  11  12
ENDBRANCH  10  11
ENDBRANCH   9  10
ENDBRANCH   8   9
ENDBRANCH   7   8
ENDBRANCH   6   7
ENDBRANCH   5   6
ENDBRANCH   4   5
ENDBRANCH   3   4
ENDBRANCH   2   3
ENDBRANCH   1   2
BRANCH   1  17
ATOM     17  C   UNL     1      -9.979   6.002   5.089  1.00  0.00     0.000 C 
BRANCH  17  18
ATOM     18  C   UNL     1      -9.948   7.546   5.148  1.00  0.00     0.000 C 
BRANCH  18  19
ATOM     19  C   UNL     1      -8.757   8.139   5.932  1.00  0.00     0.000 C 
BRANCH  19  20
ATOM     20  C   UNL     1      -7.976   9.252   5.203  1.00  0.00     0.000 C 
BRANCH  20  21
ATOM     21  C   UNL     1      -7.159  10.190   6.112  1.00  0.00     0.000 C 
BRANCH  21  22
ATOM     22  C   UNL     1      -7.918  10.591   7.389  1.00  0.00    -0.000 C 
BRANCH  22  23
ATOM     23  C   UNL     1      -8.482  12.020   7.317  1.00  0.00    -0.000 C 
BRANCH  23  24
ATOM     24  C   UNL     1      -9.987  12.039   6.991  1.00  0.00    -0.000 C 
BRANCH  24  25
ATOM     25  C   UNL     1     -10.260  12.116   5.479  1.00  0.00    -0.000 C 
BRANCH  25  26
ATOM     26  C   UNL     1     -11.290  11.070   5.014  1.00  0.00    -0.000 C 
BRANCH  26  27
ATOM     27  C   UNL     1     -12.042  10.414   6.184  1.00  0.00    -0.000 C 
BRANCH  27  28
ATOM     28  C   UNL     1     -13.258  11.210   6.698  1.00  0.00    -0.000 C 
BRANCH  28  29
ATOM     29  C   UNL     1     -14.039  10.501   7.825  1.00  0.00    -0.003 C 
ATOM     30  C   UNL     1     -15.537  10.803   7.780  1.00  0.00     0.004 C 
ENDBRANCH  28  29
ENDBRANCH  27  28
ENDBRANCH  26  27
ENDBRANCH  25  26
ENDBRANCH  24  25
ENDBRANCH  23  24
ENDBRANCH  22  23
ENDBRANCH  21  22
ENDBRANCH  20  21
ENDBRANCH  19  20
ENDBRANCH  18  19
ENDBRANCH  17  18
ENDBRANCH   1  17
TORSDOF 26
ENDMDL
MODEL 3
REMARK VINA RESULT:    -4.597      1.169      6.395
REMARK INTER + INTRA:         -15.518
REMARK INTER:                 -11.237
REMARK INTRA:                  -4.282
REMARK UNBOUND:                -3.934
REMARK SMILES CCCCCCCCCCCCCCCCCCCCCCCCCCCC(=O)[O-]
REMARK SMILES IDX 15 1 16 2 17 3 18 4 19 5 20 6 21 7 22 8 23 9 24 10 25 11
REMARK SMILES IDX 26 12 27 13 28 14 29 15 30 16 14 17 13 18 12 19 11 20 10 21
REMARK SMILES IDX 9 22 8 23 7 24 6 25 5 26 4 27 3 28 2 29 1 30
REMARK H PARENT
REMARK Flexibility Score: inf
ROOT
ATOM      1  C   UNL     1     -15.338   9.745   4.415  1.00  0.00     0.000 C 
ENDROOT
BRANCH   1   2
ATOM      2  C   UNL     1     -15.838   9.688   2.958  1.00  0.00     0.000 C 
BRANCH   2   3
ATOM      3  C   UNL     1     -14.731   9.544   1.897  1.00  0.00     0.000 C 
BRANCH   3   4
ATOM      4  C   UNL     1     -14.056  10.881   1.555  1.00  0.00     0.000 C 
BRANCH   4   5
ATOM      5  C   UNL     1     -12.530  10.781   1.713  1.00  0.00     0.000 C 
BRANCH   5   6
ATOM      6  C   UNL     1     -12.036  11.403   3.035  1.00  0.00     0.000 C 
BRANCH   6   7
ATOM      7  C   UNL     1     -12.789  12.684   3.436  1.00  0.00     0.000 C 
BRANCH   7   8
ATOM      8  C   UNL     1     -13.282  12.648   4.892  1.00  0.00     0.000 C 
BRANCH   8   9
ATOM      9  C   UNL     1     -12.327  11.896   5.840  1.00  0.00     0.000 C 
BRANCH   9  10
ATOM     10  C   UNL     1     -11.310  12.776   6.588  1.00  0.00     0.000 C 
BRANCH  10  11
ATOM     11  C   UNL     1      -9.855  12.513   6.170  1.00  0.00     0.000 C 
BRANCH  11  12
ATOM     12  C   UNL     1      -9.007  12.096   7.382  1.00  0.00     0.006 C 
BRANCH  12  13
ATOM     13  C   UNL     1      -8.389  10.700   7.210  1.00  0.00     0.053 C 
BRANCH  13  14
ATOM     14  C   UNL     1      -6.976  10.764   6.713  1.00  0.00     0.041 C 
ATOM     15  O   UNL     1      -6.632  10.113   5.691  1.00  0.00    -0.550 OA
ATOM     16  O   UNL     1      -6.037  11.535   7.387  1.00  0.00    -0.550 OA
ENDBRANCH  13  14
ENDBRANCH  12  13
ENDBRANCH  11  12
ENDBRANCH  10  11
ENDBRANCH   9  10
ENDBRANCH   8   9
ENDBRANCH   7   8
ENDBRANCH   6   7
ENDBRANCH   5   6
ENDBRANCH   4   5
ENDBRANCH   3   4
ENDBRANCH   2   3
ENDBRANCH   1   2
BRANCH   1  17
ATOM     17  C   UNL     1     -14.177   8.789   4.755  1.00  0.00     0.000 C 
BRANCH  17  18
ATOM     18  C   UNL     1     -14.632   7.419   5.307  1.00  0.00     0.000 C 
BRANCH  18  19
ATOM     19  C   UNL     1     -13.505   6.375   5.455  1.00  0.00     0.000 C 
BRANCH  19  20
ATOM     20  C   UNL     1     -13.896   4.926   5.094  1.00  0.00     0.000 C 
BRANCH  20  21
ATOM     21  C   UNL     1     -12.842   4.135   4.298  1.00  0.00     0.000 C 
BRANCH  21  22
ATOM     22  C   UNL     1     -12.289   2.929   5.077  1.00  0.00    -0.000 C 
BRANCH  22  23
ATOM     23  C   UNL     1     -12.486   3.064   6.595  1.00  0.00    -0.000 C 
BRANCH  23  24
ATOM     24  C   UNL     1     -11.151   3.199   7.349  1.00  0.00    -0.000 C 
BRANCH  24  25
ATOM     25  C   UNL     1     -11.066   4.499   8.168  1.00  0.00    -0.000 C 
BRANCH  25  26
ATOM     26  C   UNL     1     -10.393   5.643   7.388  1.00  0.00    -0.000 C 
BRANCH  26  27
ATOM     27  C   UNL     1      -9.780   5.176   6.058  1.00  0.00    -0.000 C 
BRANCH  27  28
ATOM     28  C   UNL     1      -9.737   6.251   4.954  1.00  0.00    -0.000 C 
BRANCH  28  29
ATOM     29  C   UNL     1      -9.404   7.667   5.472  1.00  0.00    -0.003 C 
ATOM     30  C   UNL     1     -10.430   8.710   5.028  1.00  0.00     0.004 C 
ENDBRANCH  28  29
ENDBRANCH  27  28
ENDBRANCH  26  27
ENDBRANCH  25  26
ENDBRANCH  24  25
ENDBRANCH  23  24
ENDBRANCH  22  23
ENDBRANCH  21  22
ENDBRANCH  20  21
ENDBRANCH  19  20
ENDBRANCH  18  19
ENDBRANCH  17  18
ENDBRANCH   1  17
TORSDOF 26
ENDMDL
MODEL 4
REMARK VINA RESULT:    -4.586      2.307      6.223
REMARK INTER + INTRA:         -15.489
REMARK INTER:                 -10.942
REMARK INTRA:                  -4.547
REMARK UNBOUND:                -3.934
REMARK SMILES CCCCCCCCCCCCCCCCCCCCCCCCCCCC(=O)[O-]
REMARK SMILES IDX 15 1 16 2 17 3 18 4 19 5 20 6 21 7 22 8 23 9 24 10 25 11
REMARK SMILES IDX 26 12 27 13 28 14 29 15 30 16 14 17 13 18 12 19 11 20 10 21
REMARK SMILES IDX 9 22 8 23 7 24 6 25 5 26 4 27 3 28 2 29 1 30
REMARK H PARENT
REMARK Flexibility Score: inf
ROOT
ATOM      1  C   UNL     1     -13.616   6.409   5.271  1.00  0.00     0.000 C 
ENDROOT
BRANCH   1   2
ATOM      2  C   UNL     1     -14.706   7.465   4.999  1.00  0.00     0.000 C 
BRANCH   2   3
ATOM      3  C   UNL     1     -14.181   8.898   4.789  1.00  0.00     0.000 C 
BRANCH   3   4
ATOM      4  C   UNL     1     -13.961   9.652   6.110  1.00  0.00     0.000 C 
BRANCH   4   5
ATOM      5  C   UNL     1     -14.366  11.128   5.973  1.00  0.00     0.000 C 
BRANCH   5   6
ATOM      6  C   UNL     1     -14.094  11.932   7.262  1.00  0.00     0.000 C 
BRANCH   6   7
ATOM      7  C   UNL     1     -12.940  11.369   8.110  1.00  0.00     0.000 C 
BRANCH   7   8
ATOM      8  C   UNL     1     -11.618  12.120   7.885  1.00  0.00     0.000 C 
BRANCH   8   9
ATOM      9  C   UNL     1     -10.598  11.320   7.050  1.00  0.00     0.000 C 
BRANCH   9  10
ATOM     10  C   UNL     1     -10.168  11.977   5.726  1.00  0.00     0.000 C 
BRANCH  10  11
ATOM     11  C   UNL     1     -11.190  12.992   5.191  1.00  0.00     0.000 C 
BRANCH  11  12
ATOM     12  C   UNL     1     -11.390  12.818   3.678  1.00  0.00     0.006 C 
BRANCH  12  13
ATOM     13  C   UNL     1     -11.840  11.396   3.308  1.00  0.00     0.053 C 
BRANCH  13  14
ATOM     14  C   UNL     1     -12.916  11.397   2.264  1.00  0.00     0.041 C 
ATOM     15  O   UNL     1     -13.817  12.278   2.281  1.00  0.00    -0.550 OA
ATOM     16  O   UNL     1     -12.930  10.417   1.279  1.00  0.00    -0.550 OA
ENDBRANCH  13  14
ENDBRANCH  12  13
ENDBRANCH  11  12
ENDBRANCH  10  11
ENDBRANCH   9  10
ENDBRANCH   8   9
ENDBRANCH   7   8
ENDBRANCH   6   7
ENDBRANCH   5   6
ENDBRANCH   4   5
ENDBRANCH   3   4
ENDBRANCH   2   3
ENDBRANCH   1   2
BRANCH   1  17
ATOM     17  C   UNL     1     -14.004   4.955   4.934  1.00  0.00     0.000 C 
BRANCH  17  18
ATOM     18  C   UNL     1     -12.863   4.131   4.294  1.00  0.00     0.000 C 
BRANCH  18  19
ATOM     19  C   UNL     1     -12.354   2.956   5.155  1.00  0.00     0.000 C 
BRANCH  19  20
ATOM     20  C   UNL     1     -12.655   3.064   6.664  1.00  0.00     0.000 C 
BRANCH  20  21
ATOM     21  C   UNL     1     -11.423   3.041   7.588  1.00  0.00     0.000 C 
BRANCH  21  22
ATOM     22  C   UNL     1     -11.210   4.373   8.329  1.00  0.00    -0.000 C 
BRANCH  22  23
ATOM     23  C   UNL     1     -10.979   5.553   7.372  1.00  0.00    -0.000 C 
BRANCH  23  24
ATOM     24  C   UNL     1      -9.755   5.339   6.463  1.00  0.00    -0.000 C 
BRANCH  24  25
ATOM     25  C   UNL     1      -9.870   6.100   5.132  1.00  0.00    -0.000 C 
BRANCH  25  26
ATOM     26  C   UNL     1     -10.204   7.590   5.332  1.00  0.00    -0.000 C 
BRANCH  26  27
ATOM     27  C   UNL     1      -9.024   8.515   4.991  1.00  0.00    -0.000 C 
BRANCH  27  28
ATOM     28  C   UNL     1      -8.088   8.830   6.174  1.00  0.00    -0.000 C 
BRANCH  28  29
ATOM     29  C   UNL     1      -7.001   9.878   5.850  1.00  0.00    -0.003 C 
ATOM     30  C   UNL     1      -6.853  10.929   6.950  1.00  0.00     0.004 C 
ENDBRANCH  28  29
ENDBRANCH  27  28
ENDBRANCH  26  27
ENDBRANCH  25  26
ENDBRANCH  24  25
ENDBRANCH  23  24
ENDBRANCH  22  23
ENDBRANCH  21  22
ENDBRANCH  20  21
ENDBRANCH  19  20
ENDBRANCH  18  19
ENDBRANCH  17  18
ENDBRANCH   1  17
TORSDOF 26
ENDMDL
MODEL 5
REMARK VINA RESULT:    -4.521      2.060      6.423
REMARK INTER + INTRA:         -15.325
REMARK INTER:                 -10.696
REMARK INTRA:                  -4.629
REMARK UNBOUND:                -3.934
REMARK SMILES CCCCCCCCCCCCCCCCCCCCCCCCCCCC(=O)[O-]
REMARK SMILES IDX 15 1 16 2 17 3 18 4 19 5 20 6 21 7 22 8 23 9 24 10 25 11
REMARK SMILES IDX 26 12 27 13 28 14 29 15 30 16 14 17 13 18 12 19 11 20 10 21
REMARK SMILES IDX 9 22 8 23 7 24 6 25 5 26 4 27 3 28 2 29 1 30
REMARK H PARENT
REMARK Flexibility Score: inf
ROOT
ATOM      1  C   UNL     1     -14.625   9.362   2.470  1.00  0.00     0.000 C 
ENDROOT
BRANCH   1   2
ATOM      2  C   UNL     1     -14.185  10.579   1.634  1.00  0.00     0.000 C 
BRANCH   2   3
ATOM      3  C   UNL     1     -12.720  11.010   1.836  1.00  0.00     0.000 C 
BRANCH   3   4
ATOM      4  C   UNL     1     -12.557  12.080   2.926  1.00  0.00     0.000 C 
BRANCH   4   5
ATOM      5  C   UNL     1     -11.589  11.605   4.022  1.00  0.00     0.000 C 
BRANCH   5   6
ATOM      6  C   UNL     1     -11.469  12.620   5.178  1.00  0.00     0.000 C 
BRANCH   6   7
ATOM      7  C   UNL     1     -10.051  12.725   5.764  1.00  0.00     0.000 C 
BRANCH   7   8
ATOM      8  C   UNL     1      -9.942  12.100   7.164  1.00  0.00     0.000 C 
BRANCH   8   9
ATOM      9  C   UNL     1      -8.988  10.891   7.219  1.00  0.00     0.000 C 
BRANCH   9  10
ATOM     10  C   UNL     1      -7.902  10.856   6.129  1.00  0.00     0.000 C 
BRANCH  10  11
ATOM     11  C   UNL     1      -8.120   9.746   5.088  1.00  0.00     0.000 C 
BRANCH  11  12
ATOM     12  C   UNL     1      -9.116   8.699   5.609  1.00  0.00     0.006 C 
BRANCH  12  13
ATOM     13  C   UNL     1      -9.384   7.587   4.583  1.00  0.00     0.053 C 
BRANCH  13  14
ATOM     14  C   UNL     1      -9.684   6.273   5.239  1.00  0.00     0.041 C 
ATOM     15  O   UNL     1      -9.833   6.205   6.488  1.00  0.00    -0.550 OA
ATOM     16  O   UNL     1      -9.785   5.119   4.470  1.00  0.00    -0.550 OA
ENDBRANCH  13  14
ENDBRANCH  12  13
ENDBRANCH  11  12
ENDBRANCH  10  11
ENDBRANCH   9  10
ENDBRANCH   8   9
ENDBRANCH   7   8
ENDBRANCH   6   7
ENDBRANCH   5   6
ENDBRANCH   4   5
ENDBRANCH   3   4
ENDBRANCH   2   3
ENDBRANCH   1   2
BRANCH   1  17
ATOM     17  C   UNL     1     -15.859   9.585   3.368  1.00  0.00     0.000 C 
BRANCH  17  18
ATOM     18  C   UNL     1     -15.669  10.687   4.435  1.00  0.00     0.000 C 
BRANCH  18  19
ATOM     19  C   UNL     1     -15.467  10.165   5.874  1.00  0.00     0.000 C 
BRANCH  19  20
ATOM     20  C   UNL     1     -14.254  10.754   6.625  1.00  0.00     0.000 C 
BRANCH  20  21
ATOM     21  C   UNL     1     -13.119   9.760   6.931  1.00  0.00     0.000 C 
BRANCH  21  22
ATOM     22  C   UNL     1     -12.870   8.768   5.782  1.00  0.00    -0.000 C 
BRANCH  22  23
ATOM     23  C   UNL     1     -13.202   7.317   6.169  1.00  0.00    -0.000 C 
BRANCH  23  24
ATOM     24  C   UNL     1     -13.902   6.553   5.031  1.00  0.00    -0.000 C 
BRANCH  24  25
ATOM     25  C   UNL     1     -14.054   5.053   5.336  1.00  0.00    -0.000 C 
BRANCH  25  26
ATOM     26  C   UNL     1     -13.114   4.181   4.482  1.00  0.00    -0.000 C 
BRANCH  26  27
ATOM     27  C   UNL     1     -12.465   3.043   5.287  1.00  0.00    -0.000 C 
BRANCH  27  28
ATOM     28  C   UNL     1     -12.716   3.101   6.806  1.00  0.00    -0.000 C 
BRANCH  28  29
ATOM     29  C   UNL     1     -11.427   3.211   7.649  1.00  0.00    -0.003 C 
ATOM     30  C   UNL     1     -11.543   4.249   8.766  1.00  0.00     0.004 C 
ENDBRANCH  28  29
ENDBRANCH  27  28
ENDBRANCH  26  27
ENDBRANCH  25  26
ENDBRANCH  24  25
ENDBRANCH  23  24
ENDBRANCH  22  23
ENDBRANCH  21  22
ENDBRANCH  20  21
ENDBRANCH  19  20
ENDBRANCH  18  19
ENDBRANCH  17  18
ENDBRANCH   1  17
TORSDOF 26
ENDMDL
MODEL 6
REMARK VINA RESULT:    -4.481      2.759      8.227
REMARK INTER + INTRA:         -15.226
REMARK INTER:                 -11.358
REMARK INTRA:                  -3.868
REMARK UNBOUND:                -3.934
REMARK SMILES CCCCCCCCCCCCCCCCCCCCCCCCCCCC(=O)[O-]
REMARK SMILES IDX 15 1 16 2 17 3 18 4 19 5 20 6 21 7 22 8 23 9 24 10 25 11
REMARK SMILES IDX 26 12 27 13 28 14 29 15 30 16 14 17 13 18 12 19 11 20 10 21
REMARK SMILES IDX 9 22 8 23 7 24 6 25 5 26 4 27 3 28 2 29 1 30
REMARK H PARENT
REMARK Flexibility Score: inf
ROOT
ATOM      1  C   UNL     1     -10.550  12.813   5.658  1.00  0.00     0.000 C 
ENDROOT
BRANCH   1   2
ATOM      2  C   UNL     1     -11.260  12.242   4.414  1.00  0.00     0.000 C 
BRANCH   2   3
ATOM      3  C   UNL     1     -12.528  13.002   3.985  1.00  0.00     0.000 C 
BRANCH   3   4
ATOM      4  C   UNL     1     -13.109  12.492   2.658  1.00  0.00     0.000 C 
BRANCH   4   5
ATOM      5  C   UNL     1     -14.645  12.542   2.675  1.00  0.00     0.000 C 
BRANCH   5   6
ATOM      6  C   UNL     1     -15.280  11.264   2.090  1.00  0.00     0.000 C 
BRANCH   6   7
ATOM      7  C   UNL     1     -14.410  10.006   2.262  1.00  0.00     0.000 C 
BRANCH   7   8
ATOM      8  C   UNL     1     -14.690   9.268   3.580  1.00  0.00     0.000 C 
BRANCH   8   9
ATOM      9  C   UNL     1     -13.542   9.387   4.601  1.00  0.00     0.000 C 
BRANCH   9  10
ATOM     10  C   UNL     1     -13.779   8.681   5.948  1.00  0.00     0.000 C 
BRANCH  10  11
ATOM     11  C   UNL     1     -13.174   7.270   6.010  1.00  0.00     0.000 C 
BRANCH  11  12
ATOM     12  C   UNL     1     -14.154   6.232   5.442  1.00  0.00     0.006 C 
BRANCH  12  13
ATOM     13  C   UNL     1     -13.617   4.797   5.557  1.00  0.00     0.053 C 
BRANCH  13  14
ATOM     14  C   UNL     1     -13.224   4.231   4.226  1.00  0.00     0.041 C 
ATOM     15  O   UNL     1     -13.893   4.509   3.195  1.00  0.00    -0.550 OA
ATOM     16  O   UNL     1     -12.123   3.388   4.126  1.00  0.00    -0.550 OA
ENDBRANCH  13  14
ENDBRANCH  12  13
ENDBRANCH  11  12
ENDBRANCH  10  11
ENDBRANCH   9  10
ENDBRANCH   8   9
ENDBRANCH   7   8
ENDBRANCH   6   7
ENDBRANCH   5   6
ENDBRANCH   4   5
ENDBRANCH   3   4
ENDBRANCH   2   3
ENDBRANCH   1   2
BRANCH   1  17
ATOM     17  C   UNL     1     -10.226  11.789   6.764  1.00  0.00     0.000 C 
BRANCH  17  18
ATOM     18  C   UNL     1      -9.041  12.196   7.670  1.00  0.00     0.000 C 
BRANCH  18  19
ATOM     19  C   UNL     1      -7.960  11.109   7.848  1.00  0.00     0.000 C 
BRANCH  19  20
ATOM     20  C   UNL     1      -7.157  10.764   6.576  1.00  0.00     0.000 C 
BRANCH  20  21
ATOM     21  C   UNL     1      -7.382   9.347   6.016  1.00  0.00     0.000 C 
BRANCH  21  22
ATOM     22  C   UNL     1      -8.333   9.329   4.806  1.00  0.00    -0.000 C 
BRANCH  22  23
ATOM     23  C   UNL     1      -9.641   8.575   5.093  1.00  0.00    -0.000 C 
BRANCH  23  24
ATOM     24  C   UNL     1      -9.425   7.353   6.003  1.00  0.00    -0.000 C 
BRANCH  24  25
ATOM     25  C   UNL     1      -9.771   6.028   5.302  1.00  0.00    -0.000 C 
BRANCH  25  26
ATOM     26  C   UNL     1     -10.109   4.905   6.300  1.00  0.00    -0.000 C 
BRANCH  26  27
ATOM     27  C   UNL     1     -10.308   5.423   7.734  1.00  0.00    -0.000 C 
BRANCH  27  28
ATOM     28  C   UNL     1     -11.363   4.658   8.557  1.00  0.00    -0.000 C 
BRANCH  28  29
ATOM     29  C   UNL     1     -11.655   3.236   8.033  1.00  0.00    -0.003 C 
ATOM     30  C   UNL     1     -12.205   2.312   9.119  1.00  0.00     0.004 C 
ENDBRANCH  28  29
ENDBRANCH  27  28
ENDBRANCH  26  27
ENDBRANCH  25  26
ENDBRANCH  24  25
ENDBRANCH  23  24
ENDBRANCH  22  23
ENDBRANCH  21  22
ENDBRANCH  20  21
ENDBRANCH  19  20
ENDBRANCH  18  19
ENDBRANCH  17  18
ENDBRANCH   1  17
TORSDOF 26
ENDMDL
MODEL 7
REMARK VINA RESULT:    -4.411      1.124      6.108
REMARK INTER + INTRA:         -15.050
REMARK INTER:                 -10.703
REMARK INTRA:                  -4.347
REMARK UNBOUND:                -3.934
REMARK SMILES CCCCCCCCCCCCCCCCCCCCCCCCCCCC(=O)[O-]
REMARK SMILES IDX 15 1 16 2 17 3 18 4 19 5 20 6 21 7 22 8 23 9 24 10 25 11
REMARK SMILES IDX 26 12 27 13 28 14 29 15 30 16 14 17 13 18 12 19 11 20 10 21
REMARK SMILES IDX 9 22 8 23 7 24 6 25 5 26 4 27 3 28 2 29 1 30
REMARK H PARENT
REMARK Flexibility Score: inf
ROOT
ATOM      1  C   UNL     1     -13.462   6.886   5.621  1.00  0.00     0.000 C 
ENDROOT
BRANCH   1   2
ATOM      2  C   UNL     1     -13.654   8.416   5.639  1.00  0.00     0.000 C 
BRANCH   2   3
ATOM      3  C   UNL     1     -15.120   8.884   5.718  1.00  0.00     0.000 C 
BRANCH   3   4
ATOM      4  C   UNL     1     -15.445   9.998   4.711  1.00  0.00     0.000 C 
BRANCH   4   5
ATOM      5  C   UNL     1     -15.851   9.406   3.352  1.00  0.00     0.000 C 
BRANCH   5   6
ATOM      6  C   UNL     1     -14.908   9.851   2.214  1.00  0.00     0.000 C 
BRANCH   6   7
ATOM      7  C   UNL     1     -14.748  11.378   2.105  1.00  0.00     0.000 C 
BRANCH   7   8
ATOM      8  C   UNL     1     -13.286  11.831   2.253  1.00  0.00     0.000 C 
BRANCH   8   9
ATOM      9  C   UNL     1     -12.378  10.758   2.885  1.00  0.00     0.000 C 
BRANCH   9  10
ATOM     10  C   UNL     1     -11.577  11.214   4.118  1.00  0.00     0.000 C 
BRANCH  10  11
ATOM     11  C   UNL     1     -12.150  12.474   4.784  1.00  0.00     0.000 C 
BRANCH  11  12
ATOM     12  C   UNL     1     -12.678  12.156   6.191  1.00  0.00     0.006 C 
BRANCH  12  13
ATOM     13  C   UNL     1     -11.742  11.219   6.968  1.00  0.00     0.053 C 
BRANCH  13  14
ATOM     14  C   UNL     1     -10.773  11.973   7.829  1.00  0.00     0.041 C 
ATOM     15  O   UNL     1     -11.115  12.368   8.975  1.00  0.00    -0.550 OA
ATOM     16  O   UNL     1      -9.496  12.251   7.358  1.00  0.00    -0.550 OA
ENDBRANCH  13  14
ENDBRANCH  12  13
ENDBRANCH  11  12
ENDBRANCH  10  11
ENDBRANCH   9  10
ENDBRANCH   8   9
ENDBRANCH   7   8
ENDBRANCH   6   7
ENDBRANCH   5   6
ENDBRANCH   4   5
ENDBRANCH   3   4
ENDBRANCH   2   3
ENDBRANCH   1   2
BRANCH   1  17
ATOM     17  C   UNL     1     -14.609   6.082   4.978  1.00  0.00     0.000 C 
BRANCH  17  18
ATOM     18  C   UNL     1     -14.134   4.914   4.083  1.00  0.00     0.000 C 
BRANCH  18  19
ATOM     19  C   UNL     1     -12.753   4.334   4.457  1.00  0.00     0.000 C 
BRANCH  19  20
ATOM     20  C   UNL     1     -12.786   3.081   5.357  1.00  0.00     0.000 C 
BRANCH  20  21
ATOM     21  C   UNL     1     -12.868   3.355   6.870  1.00  0.00     0.000 C 
BRANCH  21  22
ATOM     22  C   UNL     1     -11.586   2.952   7.619  1.00  0.00    -0.000 C 
BRANCH  22  23
ATOM     23  C   UNL     1     -10.846   4.160   8.216  1.00  0.00    -0.000 C 
BRANCH  23  24
ATOM     24  C   UNL     1     -11.033   5.436   7.375  1.00  0.00    -0.000 C 
BRANCH  24  25
ATOM     25  C   UNL     1      -9.762   5.821   6.599  1.00  0.00    -0.000 C 
BRANCH  25  26
ATOM     26  C   UNL     1     -10.076   6.464   5.236  1.00  0.00    -0.000 C 
BRANCH  26  27
ATOM     27  C   UNL     1      -9.037   7.520   4.823  1.00  0.00    -0.000 C 
BRANCH  27  28
ATOM     28  C   UNL     1      -9.143   8.860   5.577  1.00  0.00    -0.000 C 
BRANCH  28  29
ATOM     29  C   UNL     1      -8.138   9.929   5.096  1.00  0.00    -0.003 C 
ATOM     30  C   UNL     1      -6.851   9.938   5.921  1.00  0.00     0.004 C 
ENDBRANCH  28  29
ENDBRANCH  27  28
ENDBRANCH  26  27
ENDBRANCH  25  26
ENDBRANCH  24  25
ENDBRANCH  23  24
ENDBRANCH  22  23
ENDBRANCH  21  22
ENDBRANCH  20  21
ENDBRANCH  19  20
ENDBRANCH  18  19
ENDBRANCH  17  18
ENDBRANCH   1  17
TORSDOF 26
ENDMDL
MODEL 8
REMARK VINA RESULT:    -4.404      2.397      6.560
REMARK INTER + INTRA:         -15.032
REMARK INTER:                 -10.825
REMARK INTRA:                  -4.207
REMARK UNBOUND:                -3.934
REMARK SMILES CCCCCCCCCCCCCCCCCCCCCCCCCCCC(=O)[O-]
REMARK SMILES IDX 15 1 16 2 17 3 18 4 19 5 20 6 21 7 22 8 23 9 24 10 25 11
REMARK SMILES IDX 26 12 27 13 28 14 29 15 30 16 14 17 13 18 12 19 11 20 10 21
REMARK SMILES IDX 9 22 8 23 7 24 6 25 5 26 4 27 3 28 2 29 1 30
REMARK H PARENT
REMARK Flexibility Score: inf
ROOT
ATOM      1  C   UNL     1     -13.370   8.502   6.418  1.00  0.00     0.000 C 
ENDROOT
BRANCH   1   2
ATOM      2  C   UNL     1     -14.206   9.751   6.755  1.00  0.00     0.000 C 
BRANCH   2   3
ATOM      3  C   UNL     1     -13.749  10.519   8.010  1.00  0.00     0.000 C 
BRANCH   3   4
ATOM      4  C   UNL     1     -14.046  12.024   7.931  1.00  0.00     0.000 C 
BRANCH   4   5
ATOM      5  C   UNL     1     -12.746  12.842   7.958  1.00  0.00     0.000 C 
BRANCH   5   6
ATOM      6  C   UNL     1     -11.513  11.973   8.284  1.00  0.00     0.000 C 
BRANCH   6   7
ATOM      7  C   UNL     1     -10.461  11.944   7.161  1.00  0.00     0.000 C 
BRANCH   7   8
ATOM      8  C   UNL     1     -10.974  11.252   5.888  1.00  0.00     0.000 C 
BRANCH   8   9
ATOM      9  C   UNL     1     -10.423  11.877   4.591  1.00  0.00     0.000 C 
BRANCH   9  10
ATOM     10  C   UNL     1     -11.288  12.990   3.974  1.00  0.00     0.000 C 
BRANCH  10  11
ATOM     11  C   UNL     1     -12.770  12.897   4.368  1.00  0.00     0.000 C 
BRANCH  11  12
ATOM     12  C   UNL     1     -13.428  11.664   3.728  1.00  0.00     0.006 C 
BRANCH  12  13
ATOM     13  C   UNL     1     -13.674  11.848   2.223  1.00  0.00     0.053 C 
BRANCH  13  14
ATOM     14  C   UNL     1     -13.311  10.624   1.437  1.00  0.00     0.041 C 
ATOM     15  O   UNL     1     -12.243  10.591   0.769  1.00  0.00    -0.550 OA
ATOM     16  O   UNL     1     -14.159   9.523   1.434  1.00  0.00    -0.550 OA
ENDBRANCH  13  14
ENDBRANCH  12  13
ENDBRANCH  11  12
ENDBRANCH  10  11
ENDBRANCH   9  10
ENDBRANCH   8   9
ENDBRANCH   7   8
ENDBRANCH   6   7
ENDBRANCH   5   6
ENDBRANCH   4   5
ENDBRANCH   3   4
ENDBRANCH   2   3
ENDBRANCH   1   2
BRANCH   1  17
ATOM     17  C   UNL     1     -13.914   7.631   5.268  1.00  0.00     0.000 C 
BRANCH  17  18
ATOM     18  C   UNL     1     -14.026   6.129   5.616  1.00  0.00     0.000 C 
BRANCH  18  19
ATOM     19  C   UNL     1     -13.824   5.172   4.422  1.00  0.00     0.000 C 
BRANCH  19  20
ATOM     20  C   UNL     1     -13.117   3.841   4.756  1.00  0.00     0.000 C 
BRANCH  20  21
ATOM     21  C   UNL     1     -13.151   3.429   6.239  1.00  0.00     0.000 C 
BRANCH  21  22
ATOM     22  C   UNL     1     -11.759   3.077   6.792  1.00  0.00    -0.000 C 
BRANCH  22  23
ATOM     23  C   UNL     1     -11.030   4.297   7.380  1.00  0.00    -0.000 C 
BRANCH  23  24
ATOM     24  C   UNL     1     -10.001   4.892   6.401  1.00  0.00    -0.000 C 
BRANCH  24  25
ATOM     25  C   UNL     1     -10.334   6.340   6.005  1.00  0.00    -0.000 C 
BRANCH  25  26
ATOM     26  C   UNL     1      -9.503   6.827   4.804  1.00  0.00    -0.000 C 
BRANCH  26  27
ATOM     27  C   UNL     1      -9.215   8.337   4.854  1.00  0.00    -0.000 C 
BRANCH  27  28
ATOM     28  C   UNL     1      -8.303   8.782   6.013  1.00  0.00    -0.000 C 
BRANCH  28  29
ATOM     29  C   UNL     1      -7.245   9.832   5.609  1.00  0.00    -0.003 C 
ATOM     30  C   UNL     1      -6.970  10.846   6.720  1.00  0.00     0.004 C 
ENDBRANCH  28  29
ENDBRANCH  27  28
ENDBRANCH  26  27
ENDBRANCH  25  26
ENDBRANCH  24  25
ENDBRANCH  23  24
ENDBRANCH  22  23
ENDBRANCH  21  22
ENDBRANCH  20  21
ENDBRANCH  19  20
ENDBRANCH  18  19
ENDBRANCH  17  18
ENDBRANCH   1  17
TORSDOF 26
ENDMDL
MODEL 9
REMARK VINA RESULT:    -4.394      1.627      5.065
REMARK INTER + INTRA:         -15.005
REMARK INTER:                 -11.395
REMARK INTRA:                  -3.610
REMARK UNBOUND:                -3.934
REMARK SMILES CCCCCCCCCCCCCCCCCCCCCCCCCCCC(=O)[O-]
REMARK SMILES IDX 15 1 16 2 17 3 18 4 19 5 20 6 21 7 22 8 23 9 24 10 25 11
REMARK SMILES IDX 26 12 27 13 28 14 29 15 30 16 14 17 13 18 12 19 11 20 10 21
REMARK SMILES IDX 9 22 8 23 7 24 6 25 5 26 4 27 3 28 2 29 1 30
REMARK H PARENT
REMARK Flexibility Score: inf
ROOT
ATOM      1  C   UNL     1      -9.731   5.326   6.507  1.00  0.00     0.000 C 
ENDROOT
BRANCH   1   2
ATOM      2  C   UNL     1     -10.184   6.067   5.234  1.00  0.00     0.000 C 
BRANCH   2   3
ATOM      3  C   UNL     1      -9.415   7.367   4.931  1.00  0.00     0.000 C 
BRANCH   3   4
ATOM      4  C   UNL     1     -10.242   8.630   5.220  1.00  0.00     0.000 C 
BRANCH   4   5
ATOM      5  C   UNL     1      -9.408   9.898   4.981  1.00  0.00     0.000 C 
BRANCH   5   6
ATOM      6  C   UNL     1      -7.894   9.644   5.143  1.00  0.00     0.000 C 
BRANCH   6   7
ATOM      7  C   UNL     1      -7.406   9.719   6.600  1.00  0.00     0.000 C 
BRANCH   7   8
ATOM      8  C   UNL     1      -6.834  11.099   6.961  1.00  0.00     0.000 C 
BRANCH   8   9
ATOM      9  C   UNL     1      -7.305  11.613   8.335  1.00  0.00     0.000 C 
BRANCH   9  10
ATOM     10  C   UNL     1      -8.219  12.851   8.300  1.00  0.00     0.000 C 
BRANCH  10  11
ATOM     11  C   UNL     1      -9.216  12.837   7.131  1.00  0.00     0.000 C 
BRANCH  11  12
ATOM     12  C   UNL     1     -10.610  12.400   7.608  1.00  0.00     0.006 C 
BRANCH  12  13
ATOM     13  C   UNL     1     -11.667  12.505   6.499  1.00  0.00     0.053 C 
BRANCH  13  14
ATOM     14  C   UNL     1     -12.879  11.673   6.793  1.00  0.00     0.041 C 
ATOM     15  O   UNL     1     -12.831  10.764   7.664  1.00  0.00    -0.550 OA
ATOM     16  O   UNL     1     -14.060  11.896   6.095  1.00  0.00    -0.550 OA
ENDBRANCH  13  14
ENDBRANCH  12  13
ENDBRANCH  11  12
ENDBRANCH  10  11
ENDBRANCH   9  10
ENDBRANCH   8   9
ENDBRANCH   7   8
ENDBRANCH   6   7
ENDBRANCH   5   6
ENDBRANCH   4   5
ENDBRANCH   3   4
ENDBRANCH   2   3
ENDBRANCH   1   2
BRANCH   1  17
ATOM     17  C   UNL     1     -10.859   4.931   7.481  1.00  0.00     0.000 C 
BRANCH  17  18
ATOM     18  C   UNL     1     -11.213   3.426   7.456  1.00  0.00     0.000 C 
BRANCH  18  19
ATOM     19  C   UNL     1     -12.065   2.983   6.248  1.00  0.00     0.000 C 
BRANCH  19  20
ATOM     20  C   UNL     1     -13.406   3.728   6.078  1.00  0.00     0.000 C 
BRANCH  20  21
ATOM     21  C   UNL     1     -13.506   4.634   4.836  1.00  0.00     0.000 C 
BRANCH  21  22
ATOM     22  C   UNL     1     -14.356   5.893   5.084  1.00  0.00    -0.000 C 
BRANCH  22  23
ATOM     23  C   UNL     1     -13.532   7.061   5.649  1.00  0.00    -0.000 C 
BRANCH  23  24
ATOM     24  C   UNL     1     -14.250   8.414   5.491  1.00  0.00    -0.000 C 
BRANCH  24  25
ATOM     25  C   UNL     1     -15.696   8.258   4.992  1.00  0.00    -0.000 C 
BRANCH  25  26
ATOM     26  C   UNL     1     -15.987   9.122   3.751  1.00  0.00    -0.000 C 
BRANCH  26  27
ATOM     27  C   UNL     1     -14.753   9.900   3.266  1.00  0.00    -0.000 C 
BRANCH  27  28
ATOM     28  C   UNL     1     -14.414   9.709   1.775  1.00  0.00    -0.000 C 
BRANCH  28  29
ATOM     29  C   UNL     1     -13.106  10.403   1.337  1.00  0.00    -0.003 C 
ATOM     30  C   UNL     1     -12.500  11.265   2.445  1.00  0.00     0.004 C 
ENDBRANCH  28  29
ENDBRANCH  27  28
ENDBRANCH  26  27
ENDBRANCH  25  26
ENDBRANCH  24  25
ENDBRANCH  23  24
ENDBRANCH  22  23
ENDBRANCH  21  22
ENDBRANCH  20  21
ENDBRANCH  19  20
ENDBRANCH  18  19
ENDBRANCH  17  18
ENDBRANCH   1  17
TORSDOF 26
ENDMDL
