MODEL 1
REMARK VINA RESULT:    -3.442      0.000      0.000
REMARK INTER + INTRA:          -8.679
REMARK INTER:                  -6.259
REMARK INTRA:                  -2.419
REMARK UNBOUND:                -2.419
REMARK SMILES CCCCCCCCCCCCCC[C@H](C)C(=O)[O-]
REMARK SMILES IDX 9 1 10 2 11 3 12 4 13 5 14 6 15 7 16 8 17 9 18 10 19 11 8 12
REMARK SMILES IDX 7 13 6 14 5 15 4 16 3 17 2 18 1 19
REMARK H PARENT
REMARK Flexibility Score: inf
ROOT
ATOM      1  C   UNL     1      31.642  47.238   8.412  1.00  0.00     0.000 C 
ENDROOT
BRANCH   1   2
ATOM      2  C   UNL     1      31.951  48.205   7.259  1.00  0.00     0.000 C 
BRANCH   2   3
ATOM      3  C   UNL     1      32.343  49.608   7.750  1.00  0.00     0.000 C 
BRANCH   3   4
ATOM      4  C   UNL     1      31.754  50.692   6.840  1.00  0.00     0.000 C 
BRANCH   4   5
ATOM      5  C   UNL     1      30.547  50.159   6.057  1.00  0.00     0.001 C 
BRANCH   5   6
ATOM      6  C   UNL     1      29.235  50.754   6.594  1.00  0.00     0.009 C 
BRANCH   6   7
ATOM      7  C   UNL     1      28.403  49.717   7.376  1.00  0.00     0.032 C 
ATOM      8  C   UNL     1      26.907  50.037   7.275  1.00  0.00     0.014 C 
BRANCH   7   9
ATOM      9  C   UNL     1      28.817  49.653   8.821  1.00  0.00     0.044 C 
ATOM     10  O   UNL     1      28.659  48.594   9.487  1.00  0.00    -0.550 OA
ATOM     11  O   UNL     1      29.378  50.768   9.432  1.00  0.00    -0.550 OA
ENDBRANCH   7   9
ENDBRANCH   6   7
ENDBRANCH   5   6
ENDBRANCH   4   5
ENDBRANCH   3   4
ENDBRANCH   2   3
ENDBRANCH   1   2
BRANCH   1  12
ATOM     12  C   UNL     1      30.700  46.099   7.994  1.00  0.00     0.000 C 
BRANCH  12  13
ATOM     13  C   UNL     1      29.960  46.450   6.694  1.00  0.00    -0.000 C 
BRANCH  13  14
ATOM     14  C   UNL     1      28.447  46.196   6.782  1.00  0.00    -0.000 C 
BRANCH  14  15
ATOM     15  C   UNL     1      28.090  45.099   7.800  1.00  0.00    -0.000 C 
BRANCH  15  16
ATOM     16  C   UNL     1      26.615  45.147   8.239  1.00  0.00    -0.000 C 
BRANCH  16  17
ATOM     17  C   UNL     1      25.939  46.525   8.111  1.00  0.00    -0.000 C 
BRANCH  17  18
ATOM     18  C   UNL     1      25.482  47.097   9.461  1.00  0.00    -0.003 C 
ATOM     19  C   UNL     1      25.362  45.997  10.512  1.00  0.00     0.004 C 
ENDBRANCH  17  18
ENDBRANCH  16  17
ENDBRANCH  15  16
ENDBRANCH  14  15
ENDBRANCH  13  14
ENDBRANCH  12  13
ENDBRANCH   1  12
TORSDOF 14
ENDMDL
MODEL 2
REMARK VINA RESULT:    -3.332     17.230     19.028
REMARK INTER + INTRA:          -8.479
REMARK INTER:                  -7.722
REMARK INTRA:                  -0.756
REMARK UNBOUND:                -2.419
REMARK SMILES CCCCCCCCCCCCCC[C@H](C)C(=O)[O-]
REMARK SMILES IDX 9 1 10 2 11 3 12 4 13 5 14 6 15 7 16 8 17 9 18 10 19 11 8 12
REMARK SMILES IDX 7 13 6 14 5 15 4 16 3 17 2 18 1 19
REMARK H PARENT
REMARK Flexibility Score: inf
ROOT
ATOM      1  C   UNL     1      33.508  49.105  25.967  1.00  0.00     0.000 C 
ENDROOT
BRANCH   1   2
ATOM      2  C   UNL     1      34.053  47.685  25.746  1.00  0.00     0.000 C 
BRANCH   2   3
ATOM      3  C   UNL     1      33.038  46.595  26.125  1.00  0.00     0.000 C 
BRANCH   3   4
ATOM      4  C   UNL     1      33.366  45.272  25.422  1.00  0.00     0.000 C 
BRANCH   4   5
ATOM      5  C   UNL     1      34.771  44.784  25.795  1.00  0.00     0.001 C 
BRANCH   5   6
ATOM      6  C   UNL     1      35.205  43.613  24.897  1.00  0.00     0.009 C 
BRANCH   6   7
ATOM      7  C   UNL     1      36.693  43.254  25.088  1.00  0.00     0.032 C 
ATOM      8  C   UNL     1      37.522  44.513  25.365  1.00  0.00     0.014 C 
BRANCH   7   9
ATOM      9  C   UNL     1      37.244  42.530  23.889  1.00  0.00     0.044 C 
ATOM     10  O   UNL     1      36.800  42.772  22.734  1.00  0.00    -0.550 OA
ATOM     11  O   UNL     1      38.250  41.586  24.050  1.00  0.00    -0.550 OA
ENDBRANCH   7   9
ENDBRANCH   6   7
ENDBRANCH   5   6
ENDBRANCH   4   5
ENDBRANCH   3   4
ENDBRANCH   2   3
ENDBRANCH   1   2
BRANCH   1  12
ATOM     12  C   UNL     1      33.984  50.095  24.894  1.00  0.00     0.000 C 
BRANCH  12  13
ATOM     13  C   UNL     1      34.173  51.499  25.490  1.00  0.00    -0.000 C 
BRANCH  13  14
ATOM     14  C   UNL     1      32.852  52.128  25.962  1.00  0.00    -0.000 C 
BRANCH  14  15
ATOM     15  C   UNL     1      32.600  53.512  25.340  1.00  0.00    -0.000 C 
BRANCH  15  16
ATOM     16  C   UNL     1      31.265  53.592  24.577  1.00  0.00    -0.000 C 
BRANCH  16  17
ATOM     17  C   UNL     1      30.062  52.954  25.295  1.00  0.00    -0.000 C 
BRANCH  17  18
ATOM     18  C   UNL     1      29.823  51.494  24.886  1.00  0.00    -0.003 C 
ATOM     19  C   UNL     1      30.302  51.237  23.460  1.00  0.00     0.004 C 
ENDBRANCH  17  18
ENDBRANCH  16  17
ENDBRANCH  15  16
ENDBRANCH  14  15
ENDBRANCH  13  14
ENDBRANCH  12  13
ENDBRANCH   1  12
TORSDOF 14
ENDMDL
MODEL 3
REMARK VINA RESULT:    -3.302      2.951      5.278
REMARK INTER + INTRA:          -8.425
REMARK INTER:                  -6.001
REMARK INTRA:                  -2.423
REMARK UNBOUND:                -2.419
REMARK SMILES CCCCCCCCCCCCCC[C@H](C)C(=O)[O-]
REMARK SMILES IDX 9 1 10 2 11 3 12 4 13 5 14 6 15 7 16 8 17 9 18 10 19 11 8 12
REMARK SMILES IDX 7 13 6 14 5 15 4 16 3 17 2 18 1 19
REMARK H PARENT
REMARK Flexibility Score: inf
ROOT
ATOM      1  C   UNL     1      31.903  48.386   7.218  1.00  0.00     0.000 C 
ENDROOT
BRANCH   1   2
ATOM      2  C   UNL     1      31.689  47.287   8.271  1.00  0.00     0.000 C 
BRANCH   2   3
ATOM      3  C   UNL     1      30.687  46.215   7.814  1.00  0.00     0.000 C 
BRANCH   3   4
ATOM      4  C   UNL     1      29.953  46.657   6.543  1.00  0.00     0.000 C 
BRANCH   4   5
ATOM      5  C   UNL     1      28.676  45.835   6.331  1.00  0.00     0.001 C 
BRANCH   5   6
ATOM      6  C   UNL     1      28.687  44.565   7.198  1.00  0.00     0.009 C 
BRANCH   6   7
ATOM      7  C   UNL     1      27.285  43.933   7.322  1.00  0.00     0.032 C 
ATOM      8  C   UNL     1      26.608  44.370   8.626  1.00  0.00     0.014 C 
BRANCH   7   9
ATOM      9  C   UNL     1      27.349  42.431   7.255  1.00  0.00     0.044 C 
ATOM     10  O   UNL     1      26.444  41.727   7.779  1.00  0.00    -0.550 OA
ATOM     11  O   UNL     1      28.413  41.810   6.613  1.00  0.00    -0.550 OA
ENDBRANCH   7   9
ENDBRANCH   6   7
ENDBRANCH   5   6
ENDBRANCH   4   5
ENDBRANCH   3   4
ENDBRANCH   2   3
ENDBRANCH   1   2
BRANCH   1  12
ATOM     12  C   UNL     1      32.367  49.714   7.834  1.00  0.00     0.000 C 
BRANCH  12  13
ATOM     13  C   UNL     1      31.763  50.908   7.080  1.00  0.00    -0.000 C 
BRANCH  13  14
ATOM     14  C   UNL     1      30.294  50.682   6.685  1.00  0.00    -0.000 C 
BRANCH  14  15
ATOM     15  C   UNL     1      29.310  51.183   7.755  1.00  0.00    -0.000 C 
BRANCH  15  16
ATOM     16  C   UNL     1      28.237  50.140   8.117  1.00  0.00    -0.000 C 
BRANCH  16  17
ATOM     17  C   UNL     1      28.681  49.072   9.134  1.00  0.00    -0.000 C 
BRANCH  17  18
ATOM     18  C   UNL     1      27.694  47.900   9.243  1.00  0.00    -0.003 C 
ATOM     19  C   UNL     1      26.465  48.134   8.370  1.00  0.00     0.004 C 
ENDBRANCH  17  18
ENDBRANCH  16  17
ENDBRANCH  15  16
ENDBRANCH  14  15
ENDBRANCH  13  14
ENDBRANCH  12  13
ENDBRANCH   1  12
TORSDOF 14
ENDMDL
MODEL 4
REMARK VINA RESULT:    -3.244      2.156      3.308
REMARK INTER + INTRA:          -8.318
REMARK INTER:                  -6.109
REMARK INTRA:                  -2.208
REMARK UNBOUND:                -2.419
REMARK SMILES CCCCCCCCCCCCCC[C@H](C)C(=O)[O-]
REMARK SMILES IDX 9 1 10 2 11 3 12 4 13 5 14 6 15 7 16 8 17 9 18 10 19 11 8 12
REMARK SMILES IDX 7 13 6 14 5 15 4 16 3 17 2 18 1 19
REMARK H PARENT
REMARK Flexibility Score: inf
ROOT
ATOM      1  C   UNL     1      29.388  47.665   9.330  1.00  0.00     0.000 C 
ENDROOT
BRANCH   1   2
ATOM      2  C   UNL     1      30.022  46.539   8.499  1.00  0.00     0.000 C 
BRANCH   2   3
ATOM      3  C   UNL     1      31.541  46.705   8.337  1.00  0.00     0.000 C 
BRANCH   3   4
ATOM      4  C   UNL     1      31.896  48.140   7.932  1.00  0.00     0.000 C 
BRANCH   4   5
ATOM      5  C   UNL     1      31.570  48.391   6.454  1.00  0.00     0.001 C 
BRANCH   5   6
ATOM      6  C   UNL     1      30.627  49.595   6.294  1.00  0.00     0.009 C 
BRANCH   6   7
ATOM      7  C   UNL     1      30.828  50.644   7.406  1.00  0.00     0.032 C 
ATOM      8  C   UNL     1      29.478  51.143   7.931  1.00  0.00     0.014 C 
BRANCH   7   9
ATOM      9  C   UNL     1      31.652  51.808   6.924  1.00  0.00     0.044 C 
ATOM     10  O   UNL     1      32.903  51.817   7.080  1.00  0.00    -0.550 OA
ATOM     11  O   UNL     1      31.033  52.885   6.301  1.00  0.00    -0.550 OA
ENDBRANCH   7   9
ENDBRANCH   6   7
ENDBRANCH   5   6
ENDBRANCH   4   5
ENDBRANCH   3   4
ENDBRANCH   2   3
ENDBRANCH   1   2
BRANCH   1  12
ATOM     12  C   UNL     1      27.899  47.871   9.011  1.00  0.00     0.000 C 
BRANCH  12  13
ATOM     13  C   UNL     1      27.634  47.705   7.506  1.00  0.00    -0.000 C 
BRANCH  13  14
ATOM     14  C   UNL     1      26.296  47.010   7.210  1.00  0.00    -0.000 C 
BRANCH  14  15
ATOM     15  C   UNL     1      25.620  46.464   8.480  1.00  0.00    -0.000 C 
BRANCH  15  16
ATOM     16  C   UNL     1      25.558  44.926   8.512  1.00  0.00    -0.000 C 
BRANCH  16  17
ATOM     17  C   UNL     1      26.925  44.217   8.536  1.00  0.00    -0.000 C 
BRANCH  17  18
ATOM     18  C   UNL     1      26.860  42.771   8.026  1.00  0.00    -0.003 C 
ATOM     19  C   UNL     1      25.532  42.494   7.327  1.00  0.00     0.004 C 
ENDBRANCH  17  18
ENDBRANCH  16  17
ENDBRANCH  15  16
ENDBRANCH  14  15
ENDBRANCH  13  14
ENDBRANCH  12  13
ENDBRANCH   1  12
TORSDOF 14
ENDMDL
MODEL 5
REMARK VINA RESULT:    -3.228      2.041      4.993
REMARK INTER + INTRA:          -8.289
REMARK INTER:                  -6.290
REMARK INTRA:                  -1.999
REMARK UNBOUND:                -2.419
REMARK SMILES CCCCCCCCCCCCCC[C@H](C)C(=O)[O-]
REMARK SMILES IDX 9 1 10 2 11 3 12 4 13 5 14 6 15 7 16 8 17 9 18 10 19 11 8 12
REMARK SMILES IDX 7 13 6 14 5 15 4 16 3 17 2 18 1 19
REMARK H PARENT
REMARK Flexibility Score: inf
ROOT
ATOM      1  C   UNL     1      31.632  47.481   8.529  1.00  0.00     0.000 C 
ENDROOT
BRANCH   1   2
ATOM      2  C   UNL     1      31.135  46.077   8.151  1.00  0.00     0.000 C 
BRANCH   2   3
ATOM      3  C   UNL     1      30.098  46.100   7.016  1.00  0.00     0.000 C 
BRANCH   3   4
ATOM      4  C   UNL     1      29.961  44.716   6.371  1.00  0.00     0.000 C 
BRANCH   4   5
ATOM      5  C   UNL     1      28.549  44.151   6.574  1.00  0.00     0.001 C 
BRANCH   5   6
ATOM      6  C   UNL     1      27.636  45.182   7.258  1.00  0.00     0.009 C 
BRANCH   6   7
ATOM      7  C   UNL     1      27.077  44.664   8.599  1.00  0.00     0.032 C 
ATOM      8  C   UNL     1      26.750  43.169   8.508  1.00  0.00     0.014 C 
BRANCH   7   9
ATOM      9  C   UNL     1      25.853  45.432   9.021  1.00  0.00     0.044 C 
ATOM     10  O   UNL     1      25.080  45.929   8.158  1.00  0.00    -0.550 OA
ATOM     11  O   UNL     1      25.570  45.598  10.371  1.00  0.00    -0.550 OA
ENDBRANCH   7   9
ENDBRANCH   6   7
ENDBRANCH   5   6
ENDBRANCH   4   5
ENDBRANCH   3   4
ENDBRANCH   2   3
ENDBRANCH   1   2
BRANCH   1  12
ATOM     12  C   UNL     1      31.952  48.346   7.301  1.00  0.00     0.000 C 
BRANCH  12  13
ATOM     13  C   UNL     1      32.314  49.779   7.720  1.00  0.00    -0.000 C 
BRANCH  13  14
ATOM     14  C   UNL     1      31.368  50.832   7.120  1.00  0.00    -0.000 C 
BRANCH  14  15
ATOM     15  C   UNL     1      29.928  50.313   6.964  1.00  0.00    -0.000 C 
BRANCH  15  16
ATOM     16  C   UNL     1      29.029  50.672   8.160  1.00  0.00    -0.000 C 
BRANCH  16  17
ATOM     17  C   UNL     1      28.979  49.616   9.280  1.00  0.00    -0.000 C 
BRANCH  17  18
ATOM     18  C   UNL     1      27.978  48.487   8.996  1.00  0.00    -0.003 C 
ATOM     19  C   UNL     1      26.888  48.948   8.033  1.00  0.00     0.004 C 
ENDBRANCH  17  18
ENDBRANCH  16  17
ENDBRANCH  15  16
ENDBRANCH  14  15
ENDBRANCH  13  14
ENDBRANCH  12  13
ENDBRANCH   1  12
TORSDOF 14
ENDMDL
MODEL 6
REMARK VINA RESULT:    -3.223      2.186      5.426
REMARK INTER + INTRA:          -8.280
REMARK INTER:                  -5.834
REMARK INTRA:                  -2.445
REMARK UNBOUND:                -2.419
REMARK SMILES CCCCCCCCCCCCCC[C@H](C)C(=O)[O-]
REMARK SMILES IDX 9 1 10 2 11 3 12 4 13 5 14 6 15 7 16 8 17 9 18 10 19 11 8 12
REMARK SMILES IDX 7 13 6 14 5 15 4 16 3 17 2 18 1 19
REMARK H PARENT
REMARK Flexibility Score: inf
ROOT
ATOM      1  C   UNL     1      29.686  47.352   9.546  1.00  0.00     0.000 C 
ENDROOT
BRANCH   1   2
ATOM      2  C   UNL     1      28.428  48.129   9.128  1.00  0.00     0.000 C 
BRANCH   2   3
ATOM      3  C   UNL     1      28.088  47.953   7.640  1.00  0.00     0.000 C 
BRANCH   3   4
ATOM      4  C   UNL     1      26.652  48.400   7.348  1.00  0.00     0.000 C 
BRANCH   4   5
ATOM      5  C   UNL     1      25.639  47.528   8.100  1.00  0.00     0.001 C 
BRANCH   5   6
ATOM      6  C   UNL     1      25.582  46.112   7.505  1.00  0.00     0.009 C 
BRANCH   6   7
ATOM      7  C   UNL     1      25.717  45.020   8.586  1.00  0.00     0.032 C 
ATOM      8  C   UNL     1      25.833  45.649   9.979  1.00  0.00     0.014 C 
BRANCH   7   9
ATOM      9  C   UNL     1      26.903  44.130   8.326  1.00  0.00     0.044 C 
ATOM     10  O   UNL     1      27.970  44.605   7.851  1.00  0.00    -0.550 OA
ATOM     11  O   UNL     1      26.827  42.772   8.610  1.00  0.00    -0.550 OA
ENDBRANCH   7   9
ENDBRANCH   6   7
ENDBRANCH   5   6
ENDBRANCH   4   5
ENDBRANCH   3   4
ENDBRANCH   2   3
ENDBRANCH   1   2
BRANCH   1  12
ATOM     12  C   UNL     1      30.478  46.816   8.344  1.00  0.00     0.000 C 
BRANCH  12  13
ATOM     13  C   UNL     1      31.696  47.706   8.050  1.00  0.00    -0.000 C 
BRANCH  13  14
ATOM     14  C   UNL     1      31.727  48.212   6.599  1.00  0.00    -0.000 C 
BRANCH  14  15
ATOM     15  C   UNL     1      31.229  49.661   6.467  1.00  0.00    -0.000 C 
BRANCH  15  16
ATOM     16  C   UNL     1      31.476  50.497   7.736  1.00  0.00    -0.000 C 
BRANCH  16  17
ATOM     17  C   UNL     1      30.207  51.027   8.428  1.00  0.00    -0.000 C 
BRANCH  17  18
ATOM     18  C   UNL     1      29.275  51.788   7.473  1.00  0.00    -0.003 C 
ATOM     19  C   UNL     1      27.844  51.806   8.000  1.00  0.00     0.004 C 
ENDBRANCH  17  18
ENDBRANCH  16  17
ENDBRANCH  15  16
ENDBRANCH  14  15
ENDBRANCH  13  14
ENDBRANCH  12  13
ENDBRANCH   1  12
TORSDOF 14
ENDMDL
MODEL 7
REMARK VINA RESULT:    -3.207      2.827      6.029
REMARK INTER + INTRA:          -8.250
REMARK INTER:                  -5.934
REMARK INTRA:                  -2.317
REMARK UNBOUND:                -2.419
REMARK SMILES CCCCCCCCCCCCCC[C@H](C)C(=O)[O-]
REMARK SMILES IDX 9 1 10 2 11 3 12 4 13 5 14 6 15 7 16 8 17 9 18 10 19 11 8 12
REMARK SMILES IDX 7 13 6 14 5 15 4 16 3 17 2 18 1 19
REMARK H PARENT
REMARK Flexibility Score: inf
ROOT
ATOM      1  C   UNL     1      29.110  48.147   9.275  1.00  0.00     0.000 C 
ENDROOT
BRANCH   1   2
ATOM      2  C   UNL     1      27.837  48.031   8.422  1.00  0.00     0.000 C 
BRANCH   2   3
ATOM      3  C   UNL     1      26.579  47.776   9.267  1.00  0.00     0.000 C 
BRANCH   3   4
ATOM      4  C   UNL     1      26.369  46.275   9.498  1.00  0.00     0.000 C 
BRANCH   4   5
ATOM      5  C   UNL     1      26.260  45.522   8.166  1.00  0.00     0.001 C 
BRANCH   5   6
ATOM      6  C   UNL     1      27.173  44.285   8.155  1.00  0.00     0.009 C 
BRANCH   6   7
ATOM      7  C   UNL     1      28.264  44.377   7.068  1.00  0.00     0.032 C 
ATOM      8  C   UNL     1      27.812  45.290   5.923  1.00  0.00     0.014 C 
BRANCH   7   9
ATOM      9  C   UNL     1      28.621  43.018   6.529  1.00  0.00     0.044 C 
ATOM     10  O   UNL     1      29.786  42.780   6.110  1.00  0.00    -0.550 OA
ATOM     11  O   UNL     1      27.662  42.013   6.489  1.00  0.00    -0.550 OA
ENDBRANCH   7   9
ENDBRANCH   6   7
ENDBRANCH   5   6
ENDBRANCH   4   5
ENDBRANCH   3   4
ENDBRANCH   2   3
ENDBRANCH   1   2
BRANCH   1  12
ATOM     12  C   UNL     1      30.055  46.949   9.094  1.00  0.00     0.000 C 
BRANCH  12  13
ATOM     13  C   UNL     1      30.784  47.025   7.744  1.00  0.00    -0.000 C 
BRANCH  13  14
ATOM     14  C   UNL     1      31.819  48.161   7.690  1.00  0.00    -0.000 C 
BRANCH  14  15
ATOM     15  C   UNL     1      31.644  49.062   6.455  1.00  0.00    -0.000 C 
BRANCH  15  16
ATOM     16  C   UNL     1      31.808  50.558   6.778  1.00  0.00    -0.000 C 
BRANCH  16  17
ATOM     17  C   UNL     1      30.848  51.105   7.851  1.00  0.00    -0.000 C 
BRANCH  17  18
ATOM     18  C   UNL     1      29.429  51.349   7.318  1.00  0.00    -0.003 C 
ATOM     19  C   UNL     1      28.473  51.717   8.448  1.00  0.00     0.004 C 
ENDBRANCH  17  18
ENDBRANCH  16  17
ENDBRANCH  15  16
ENDBRANCH  14  15
ENDBRANCH  13  14
ENDBRANCH  12  13
ENDBRANCH   1  12
TORSDOF 14
ENDMDL
MODEL 8
REMARK VINA RESULT:    -3.170      2.063      4.870
REMARK INTER + INTRA:          -8.184
REMARK INTER:                  -5.561
REMARK INTRA:                  -2.622
REMARK UNBOUND:                -2.419
REMARK SMILES CCCCCCCCCCCCCC[C@H](C)C(=O)[O-]
REMARK SMILES IDX 9 1 10 2 11 3 12 4 13 5 14 6 15 7 16 8 17 9 18 10 19 11 8 12
REMARK SMILES IDX 7 13 6 14 5 15 4 16 3 17 2 18 1 19
REMARK H PARENT
REMARK Flexibility Score: inf
ROOT
ATOM      1  C   UNL     1      29.268  46.829   8.617  1.00  0.00     0.000 C 
ENDROOT
BRANCH   1   2
ATOM      2  C   UNL     1      29.342  45.678   7.602  1.00  0.00     0.000 C 
BRANCH   2   3
ATOM      3  C   UNL     1      28.415  45.890   6.396  1.00  0.00     0.000 C 
BRANCH   3   4
ATOM      4  C   UNL     1      28.150  47.382   6.164  1.00  0.00     0.000 C 
BRANCH   4   5
ATOM      5  C   UNL     1      26.666  47.716   6.366  1.00  0.00     0.001 C 
BRANCH   5   6
ATOM      6  C   UNL     1      25.899  46.506   6.921  1.00  0.00     0.009 C 
BRANCH   6   7
ATOM      7  C   UNL     1      25.339  46.770   8.334  1.00  0.00     0.032 C 
ATOM      8  C   UNL     1      25.839  48.115   8.872  1.00  0.00     0.014 C 
BRANCH   7   9
ATOM      9  C   UNL     1      25.708  45.667   9.290  1.00  0.00     0.044 C 
ATOM     10  O   UNL     1      26.199  44.587   8.863  1.00  0.00    -0.550 OA
ATOM     11  O   UNL     1      25.507  45.836  10.654  1.00  0.00    -0.550 OA
ENDBRANCH   7   9
ENDBRANCH   6   7
ENDBRANCH   5   6
ENDBRANCH   4   5
ENDBRANCH   3   4
ENDBRANCH   2   3
ENDBRANCH   1   2
BRANCH   1  12
ATOM     12  C   UNL     1      30.636  47.169   9.228  1.00  0.00     0.000 C 
BRANCH  12  13
ATOM     13  C   UNL     1      31.743  47.095   8.166  1.00  0.00    -0.000 C 
BRANCH  13  14
ATOM     14  C   UNL     1      31.724  48.290   7.199  1.00  0.00    -0.000 C 
BRANCH  14  15
ATOM     15  C   UNL     1      32.311  49.567   7.826  1.00  0.00    -0.000 C 
BRANCH  15  16
ATOM     16  C   UNL     1      31.352  50.769   7.746  1.00  0.00    -0.000 C 
BRANCH  16  17
ATOM     17  C   UNL     1      29.926  50.437   7.268  1.00  0.00    -0.000 C 
BRANCH  17  18
ATOM     18  C   UNL     1      28.899  50.422   8.410  1.00  0.00    -0.003 C 
ATOM     19  C   UNL     1      27.653  51.220   8.039  1.00  0.00     0.004 C 
ENDBRANCH  17  18
ENDBRANCH  16  17
ENDBRANCH  15  16
ENDBRANCH  14  15
ENDBRANCH  13  14
ENDBRANCH  12  13
ENDBRANCH   1  12
TORSDOF 14
ENDMDL
MODEL 9
REMARK VINA RESULT:    -3.120      1.207      2.142
REMARK INTER + INTRA:          -8.093
REMARK INTER:                  -6.033
REMARK INTRA:                  -2.060
REMARK UNBOUND:                -2.419
REMARK SMILES CCCCCCCCCCCCCC[C@H](C)C(=O)[O-]
REMARK SMILES IDX 9 1 10 2 11 3 12 4 13 5 14 6 15 7 16 8 17 9 18 10 19 11 8 12
REMARK SMILES IDX 7 13 6 14 5 15 4 16 3 17 2 18 1 19
REMARK H PARENT
REMARK Flexibility Score: inf
ROOT
ATOM      1  C   UNL     1      29.755  46.899   8.564  1.00  0.00     0.000 C 
ENDROOT
BRANCH   1   2
ATOM      2  C   UNL     1      31.242  47.281   8.500  1.00  0.00     0.000 C 
BRANCH   2   3
ATOM      3  C   UNL     1      31.627  47.947   7.170  1.00  0.00     0.000 C 
BRANCH   3   4
ATOM      4  C   UNL     1      32.029  49.411   7.386  1.00  0.00     0.000 C 
BRANCH   4   5
ATOM      5  C   UNL     1      31.276  50.337   6.422  1.00  0.00     0.001 C 
BRANCH   5   6
ATOM      6  C   UNL     1      29.755  50.207   6.608  1.00  0.00     0.009 C 
BRANCH   6   7
ATOM      7  C   UNL     1      29.094  51.557   6.953  1.00  0.00     0.032 C 
ATOM      8  C   UNL     1      30.022  52.722   6.592  1.00  0.00     0.014 C 
BRANCH   7   9
ATOM      9  C   UNL     1      28.720  51.633   8.409  1.00  0.00     0.044 C 
ATOM     10  O   UNL     1      29.374  50.989   9.273  1.00  0.00    -0.550 OA
ATOM     11  O   UNL     1      27.644  52.416   8.809  1.00  0.00    -0.550 OA
ENDBRANCH   7   9
ENDBRANCH   6   7
ENDBRANCH   5   6
ENDBRANCH   4   5
ENDBRANCH   3   4
ENDBRANCH   2   3
ENDBRANCH   1   2
BRANCH   1  12
ATOM     12  C   UNL     1      29.217  46.385   7.221  1.00  0.00     0.000 C 
BRANCH  12  13
ATOM     13  C   UNL     1      28.610  44.982   7.375  1.00  0.00    -0.000 C 
BRANCH  13  14
ATOM     14  C   UNL     1      27.073  44.991   7.340  1.00  0.00    -0.000 C 
BRANCH  14  15
ATOM     15  C   UNL     1      26.449  44.408   8.620  1.00  0.00    -0.000 C 
BRANCH  15  16
ATOM     16  C   UNL     1      26.003  45.492   9.617  1.00  0.00    -0.000 C 
BRANCH  16  17
ATOM     17  C   UNL     1      25.465  46.787   8.978  1.00  0.00    -0.000 C 
BRANCH  17  18
ATOM     18  C   UNL     1      26.363  48.004   9.243  1.00  0.00    -0.003 C 
ATOM     19  C   UNL     1      26.456  48.897   8.010  1.00  0.00     0.004 C 
ENDBRANCH  17  18
ENDBRANCH  16  17
ENDBRANCH  15  16
ENDBRANCH  14  15
ENDBRANCH  13  14
ENDBRANCH  12  13
ENDBRANCH   1  12
TORSDOF 14
ENDMDL
