MODEL 1
REMARK VINA RESULT:    -3.465      0.000      0.000
REMARK INTER + INTRA:         -10.390
REMARK INTER:                  -7.922
REMARK INTRA:                  -2.469
REMARK UNBOUND:                -2.469
REMARK SMILES CCCCCCCCCCCCCCCCCCCCCCCC(=O)[O-]
REMARK SMILES IDX 13 1 14 2 15 3 16 4 17 5 18 6 19 7 20 8 21 9 22 10 23 11
REMARK SMILES IDX 24 12 25 13 26 14 12 15 11 16 10 17 9 18 8 19 7 20 6 21 5 22
REMARK SMILES IDX 4 23 3 24 2 25 1 26
REMARK H PARENT
REMARK Flexibility Score: inf
ROOT
ATOM      1  C   UNL     1     -12.173   9.394   4.709  1.00  0.00     0.000 C 
ENDROOT
BRANCH   1   2
ATOM      2  C   UNL     1     -13.091   9.843   3.561  1.00  0.00     0.000 C 
BRANCH   2   3
ATOM      3  C   UNL     1     -14.263   8.876   3.323  1.00  0.00     0.000 C 
BRANCH   3   4
ATOM      4  C   UNL     1     -15.638   9.377   3.808  1.00  0.00     0.000 C 
BRANCH   4   5
ATOM      5  C   UNL     1     -15.649  10.860   4.238  1.00  0.00     0.000 C 
BRANCH   5   6
ATOM      6  C   UNL     1     -17.064  11.465   4.225  1.00  0.00     0.000 C 
BRANCH   6   7
ATOM      7  C   UNL     1     -18.162  10.395   4.135  1.00  0.00     0.000 C 
BRANCH   7   8
ATOM      8  C   UNL     1     -19.264  10.761   3.124  1.00  0.00     0.000 C 
BRANCH   8   9
ATOM      9  C   UNL     1     -18.755  11.655   1.980  1.00  0.00     0.000 C 
BRANCH   9  10
ATOM     10  C   UNL     1     -19.744  12.739   1.507  1.00  0.00     0.006 C 
BRANCH  10  11
ATOM     11  C   UNL     1     -19.088  14.100   1.206  1.00  0.00     0.053 C 
BRANCH  11  12
ATOM     12  C   UNL     1     -19.048  14.409  -0.261  1.00  0.00     0.041 C 
ATOM     13  O   UNL     1     -19.310  13.513  -1.107  1.00  0.00    -0.550 OA
ATOM     14  O   UNL     1     -18.773  15.701  -0.692  1.00  0.00    -0.550 OA
ENDBRANCH  11  12
ENDBRANCH  10  11
ENDBRANCH   9  10
ENDBRANCH   8   9
ENDBRANCH   7   8
ENDBRANCH   6   7
ENDBRANCH   5   6
ENDBRANCH   4   5
ENDBRANCH   3   4
ENDBRANCH   2   3
ENDBRANCH   1   2
BRANCH   1  15
ATOM     15  C   UNL     1     -12.607   9.958   6.072  1.00  0.00     0.000 C 
BRANCH  15  16
ATOM     16  C   UNL     1     -13.437   8.967   6.916  1.00  0.00     0.000 C 
BRANCH  16  17
ATOM     17  C   UNL     1     -14.399   9.689   7.876  1.00  0.00     0.000 C 
BRANCH  17  18
ATOM     18  C   UNL     1     -15.874   9.348   7.594  1.00  0.00    -0.000 C 
BRANCH  18  19
ATOM     19  C   UNL     1     -16.827  10.543   7.787  1.00  0.00    -0.000 C 
BRANCH  19  20
ATOM     20  C   UNL     1     -18.112  10.146   8.536  1.00  0.00    -0.000 C 
BRANCH  20  21
ATOM     21  C   UNL     1     -17.869   9.879  10.029  1.00  0.00    -0.000 C 
BRANCH  21  22
ATOM     22  C   UNL     1     -18.608  10.872  10.943  1.00  0.00    -0.000 C 
BRANCH  22  23
ATOM     23  C   UNL     1     -17.771  11.255  12.182  1.00  0.00    -0.000 C 
BRANCH  23  24
ATOM     24  C   UNL     1     -16.360  10.640  12.192  1.00  0.00    -0.000 C 
BRANCH  24  25
ATOM     25  C   UNL     1     -15.447  11.253  13.262  1.00  0.00    -0.003 C 
ATOM     26  C   UNL     1     -13.989  10.869  13.029  1.00  0.00     0.004 C 
ENDBRANCH  24  25
ENDBRANCH  23  24
ENDBRANCH  22  23
ENDBRANCH  21  22
ENDBRANCH  20  21
ENDBRANCH  19  20
ENDBRANCH  18  19
ENDBRANCH  17  18
ENDBRANCH  16  17
ENDBRANCH  15  16
ENDBRANCH   1  15
TORSDOF 22
ENDMDL
MODEL 2
REMARK VINA RESULT:    -3.307      4.736      9.444
REMARK INTER + INTRA:         -10.029
REMARK INTER:                  -7.439
REMARK INTRA:                  -2.590
REMARK UNBOUND:                -2.469
REMARK SMILES CCCCCCCCCCCCCCCCCCCCCCCC(=O)[O-]
REMARK SMILES IDX 13 1 14 2 15 3 16 4 17 5 18 6 19 7 20 8 21 9 22 10 23 11
REMARK SMILES IDX 24 12 25 13 26 14 12 15 11 16 10 17 9 18 8 19 7 20 6 21 5 22
REMARK SMILES IDX 4 23 3 24 2 25 1 26
REMARK H PARENT
REMARK Flexibility Score: inf
ROOT
ATOM      1  C   UNL     1     -13.094  10.054   4.067  1.00  0.00     0.000 C 
ENDROOT
BRANCH   1   2
ATOM      2  C   UNL     1     -12.641  10.614   5.424  1.00  0.00     0.000 C 
BRANCH   2   3
ATOM      3  C   UNL     1     -13.741  10.540   6.496  1.00  0.00     0.000 C 
BRANCH   3   4
ATOM      4  C   UNL     1     -13.518   9.479   7.594  1.00  0.00     0.000 C 
BRANCH   4   5
ATOM      5  C   UNL     1     -14.817   9.008   8.283  1.00  0.00     0.000 C 
BRANCH   5   6
ATOM      6  C   UNL     1     -16.076   9.379   7.478  1.00  0.00     0.000 C 
BRANCH   6   7
ATOM      7  C   UNL     1     -17.022  10.305   8.257  1.00  0.00     0.000 C 
BRANCH   7   8
ATOM      8  C   UNL     1     -17.522   9.673   9.569  1.00  0.00     0.000 C 
BRANCH   8   9
ATOM      9  C   UNL     1     -17.217  10.537  10.804  1.00  0.00     0.000 C 
BRANCH   9  10
ATOM     10  C   UNL     1     -16.359   9.852  11.887  1.00  0.00     0.006 C 
BRANCH  10  11
ATOM     11  C   UNL     1     -14.847   9.876  11.600  1.00  0.00     0.053 C 
BRANCH  11  12
ATOM     12  C   UNL     1     -14.034  10.211  12.815  1.00  0.00     0.041 C 
ATOM     13  O   UNL     1     -13.871  11.412  13.159  1.00  0.00    -0.550 OA
ATOM     14  O   UNL     1     -13.502   9.194  13.598  1.00  0.00    -0.550 OA
ENDBRANCH  11  12
ENDBRANCH  10  11
ENDBRANCH   9  10
ENDBRANCH   8   9
ENDBRANCH   7   8
ENDBRANCH   6   7
ENDBRANCH   5   6
ENDBRANCH   4   5
ENDBRANCH   3   4
ENDBRANCH   2   3
ENDBRANCH   1   2
BRANCH   1  15
ATOM     15  C   UNL     1     -14.312   9.125   4.184  1.00  0.00     0.000 C 
BRANCH  15  16
ATOM     16  C   UNL     1     -15.449   9.465   3.196  1.00  0.00     0.000 C 
BRANCH  16  17
ATOM     17  C   UNL     1     -16.724   9.933   3.919  1.00  0.00     0.000 C 
BRANCH  17  18
ATOM     18  C   UNL     1     -16.662  11.421   4.314  1.00  0.00    -0.000 C 
BRANCH  18  19
ATOM     19  C   UNL     1     -17.735  12.283   3.622  1.00  0.00    -0.000 C 
BRANCH  19  20
ATOM     20  C   UNL     1     -18.662  11.445   2.722  1.00  0.00    -0.000 C 
BRANCH  20  21
ATOM     21  C   UNL     1     -19.238  12.254   1.550  1.00  0.00    -0.000 C 
BRANCH  21  22
ATOM     22  C   UNL     1     -18.790  11.722   0.178  1.00  0.00    -0.000 C 
BRANCH  22  23
ATOM     23  C   UNL     1     -17.934  10.443   0.303  1.00  0.00    -0.000 C 
BRANCH  23  24
ATOM     24  C   UNL     1     -16.987  10.211  -0.888  1.00  0.00    -0.000 C 
BRANCH  24  25
ATOM     25  C   UNL     1     -16.878  11.430  -1.813  1.00  0.00    -0.003 C 
ATOM     26  C   UNL     1     -15.521  11.474  -2.510  1.00  0.00     0.004 C 
ENDBRANCH  24  25
ENDBRANCH  23  24
ENDBRANCH  22  23
ENDBRANCH  21  22
ENDBRANCH  20  21
ENDBRANCH  19  20
ENDBRANCH  18  19
ENDBRANCH  17  18
ENDBRANCH  16  17
ENDBRANCH  15  16
ENDBRANCH   1  15
TORSDOF 22
ENDMDL
MODEL 3
REMARK VINA RESULT:    -3.249      4.403      9.348
REMARK INTER + INTRA:          -9.895
REMARK INTER:                  -7.136
REMARK INTRA:                  -2.759
REMARK UNBOUND:                -2.469
REMARK SMILES CCCCCCCCCCCCCCCCCCCCCCCC(=O)[O-]
REMARK SMILES IDX 13 1 14 2 15 3 16 4 17 5 18 6 19 7 20 8 21 9 22 10 23 11
REMARK SMILES IDX 24 12 25 13 26 14 12 15 11 16 10 17 9 18 8 19 7 20 6 21 5 22
REMARK SMILES IDX 4 23 3 24 2 25 1 26
REMARK H PARENT
REMARK Flexibility Score: inf
ROOT
ATOM      1  C   UNL     1     -14.009   9.099   3.829  1.00  0.00     0.000 C 
ENDROOT
BRANCH   1   2
ATOM      2  C   UNL     1     -13.208  10.367   4.164  1.00  0.00     0.000 C 
BRANCH   2   3
ATOM      3  C   UNL     1     -12.567  10.315   5.561  1.00  0.00     0.000 C 
BRANCH   3   4
ATOM      4  C   UNL     1     -13.058   9.167   6.467  1.00  0.00     0.000 C 
BRANCH   4   5
ATOM      5  C   UNL     1     -13.962   9.630   7.630  1.00  0.00     0.000 C 
BRANCH   5   6
ATOM      6  C   UNL     1     -15.437   9.247   7.414  1.00  0.00     0.000 C 
BRANCH   6   7
ATOM      7  C   UNL     1     -16.406  10.341   7.889  1.00  0.00     0.000 C 
BRANCH   7   8
ATOM      8  C   UNL     1     -17.719   9.766   8.450  1.00  0.00     0.000 C 
BRANCH   8   9
ATOM      9  C   UNL     1     -17.652   9.481   9.960  1.00  0.00     0.000 C 
BRANCH   9  10
ATOM     10  C   UNL     1     -16.380   9.993  10.667  1.00  0.00     0.006 C 
BRANCH  10  11
ATOM     11  C   UNL     1     -16.542  10.192  12.185  1.00  0.00     0.053 C 
BRANCH  11  12
ATOM     12  C   UNL     1     -15.281  10.672  12.842  1.00  0.00     0.041 C 
ATOM     13  O   UNL     1     -15.323  11.215  13.977  1.00  0.00    -0.550 OA
ATOM     14  O   UNL     1     -14.054  10.470  12.222  1.00  0.00    -0.550 OA
ENDBRANCH  11  12
ENDBRANCH  10  11
ENDBRANCH   9  10
ENDBRANCH   8   9
ENDBRANCH   7   8
ENDBRANCH   6   7
ENDBRANCH   5   6
ENDBRANCH   4   5
ENDBRANCH   3   4
ENDBRANCH   2   3
ENDBRANCH   1   2
BRANCH   1  15
ATOM     15  C   UNL     1     -15.518   9.365   3.707  1.00  0.00     0.000 C 
BRANCH  15  16
ATOM     16  C   UNL     1     -15.938  10.778   4.167  1.00  0.00     0.000 C 
BRANCH  16  17
ATOM     17  C   UNL     1     -17.464  10.910   4.315  1.00  0.00     0.000 C 
BRANCH  17  18
ATOM     18  C   UNL     1     -18.114  11.593   3.098  1.00  0.00    -0.000 C 
BRANCH  18  19
ATOM     19  C   UNL     1     -19.404  10.898   2.623  1.00  0.00    -0.000 C 
BRANCH  19  20
ATOM     20  C   UNL     1     -19.240  10.256   1.233  1.00  0.00    -0.000 C 
BRANCH  20  21
ATOM     21  C   UNL     1     -17.805  10.366   0.696  1.00  0.00    -0.000 C 
BRANCH  21  22
ATOM     22  C   UNL     1     -17.738  10.363  -0.840  1.00  0.00    -0.000 C 
BRANCH  22  23
ATOM     23  C   UNL     1     -18.695  11.401  -1.465  1.00  0.00    -0.000 C 
BRANCH  23  24
ATOM     24  C   UNL     1     -18.233  12.858  -1.285  1.00  0.00    -0.000 C 
BRANCH  24  25
ATOM     25  C   UNL     1     -19.324  13.764  -0.698  1.00  0.00    -0.003 C 
ATOM     26  C   UNL     1     -18.973  14.198   0.723  1.00  0.00     0.004 C 
ENDBRANCH  24  25
ENDBRANCH  23  24
ENDBRANCH  22  23
ENDBRANCH  21  22
ENDBRANCH  20  21
ENDBRANCH  19  20
ENDBRANCH  18  19
ENDBRANCH  17  18
ENDBRANCH  16  17
ENDBRANCH  15  16
ENDBRANCH   1  15
TORSDOF 22
ENDMDL
MODEL 4
REMARK VINA RESULT:    -3.224      4.544      9.392
REMARK INTER + INTRA:          -9.840
REMARK INTER:                  -7.513
REMARK INTRA:                  -2.327
REMARK UNBOUND:                -2.469
REMARK SMILES CCCCCCCCCCCCCCCCCCCCCCCC(=O)[O-]
REMARK SMILES IDX 13 1 14 2 15 3 16 4 17 5 18 6 19 7 20 8 21 9 22 10 23 11
REMARK SMILES IDX 24 12 25 13 26 14 12 15 11 16 10 17 9 18 8 19 7 20 6 21 5 22
REMARK SMILES IDX 4 23 3 24 2 25 1 26
REMARK H PARENT
REMARK Flexibility Score: inf
ROOT
ATOM      1  C   UNL     1     -12.931  10.525   5.451  1.00  0.00     0.000 C 
ENDROOT
BRANCH   1   2
ATOM      2  C   UNL     1     -12.967   9.343   6.431  1.00  0.00     0.000 C 
BRANCH   2   3
ATOM      3  C   UNL     1     -13.845   9.617   7.664  1.00  0.00     0.000 C 
BRANCH   3   4
ATOM      4  C   UNL     1     -15.237  10.208   7.360  1.00  0.00     0.000 C 
BRANCH   4   5
ATOM      5  C   UNL     1     -16.393   9.194   7.501  1.00  0.00     0.000 C 
BRANCH   5   6
ATOM      6  C   UNL     1     -17.742   9.877   7.791  1.00  0.00     0.000 C 
BRANCH   6   7
ATOM      7  C   UNL     1     -18.360   9.421   9.121  1.00  0.00     0.000 C 
BRANCH   7   8
ATOM      8  C   UNL     1     -17.298   9.014  10.159  1.00  0.00     0.000 C 
BRANCH   8   9
ATOM      9  C   UNL     1     -16.705  10.216  10.913  1.00  0.00     0.000 C 
BRANCH   9  10
ATOM     10  C   UNL     1     -17.159  10.357  12.381  1.00  0.00     0.006 C 
BRANCH  10  11
ATOM     11  C   UNL     1     -16.361  11.397  13.189  1.00  0.00     0.053 C 
BRANCH  11  12
ATOM     12  C   UNL     1     -15.023  10.882  13.630  1.00  0.00     0.041 C 
ATOM     13  O   UNL     1     -13.984  11.174  12.981  1.00  0.00    -0.550 OA
ATOM     14  O   UNL     1     -14.918  10.124  14.790  1.00  0.00    -0.550 OA
ENDBRANCH  11  12
ENDBRANCH  10  11
ENDBRANCH   9  10
ENDBRANCH   8   9
ENDBRANCH   7   8
ENDBRANCH   6   7
ENDBRANCH   5   6
ENDBRANCH   4   5
ENDBRANCH   3   4
ENDBRANCH   2   3
ENDBRANCH   1   2
BRANCH   1  15
ATOM     15  C   UNL     1     -13.424  10.147   4.046  1.00  0.00     0.000 C 
BRANCH  15  16
ATOM     16  C   UNL     1     -14.449   8.992   4.038  1.00  0.00     0.000 C 
BRANCH  16  17
ATOM     17  C   UNL     1     -15.652   9.291   3.127  1.00  0.00     0.000 C 
BRANCH  17  18
ATOM     18  C   UNL     1     -16.841   9.890   3.902  1.00  0.00    -0.000 C 
BRANCH  18  19
ATOM     19  C   UNL     1     -16.697  11.400   4.171  1.00  0.00    -0.000 C 
BRANCH  19  20
ATOM     20  C   UNL     1     -17.836  12.216   3.532  1.00  0.00    -0.000 C 
BRANCH  20  21
ATOM     21  C   UNL     1     -18.652  11.399   2.519  1.00  0.00    -0.000 C 
BRANCH  21  22
ATOM     22  C   UNL     1     -19.478  12.280   1.566  1.00  0.00    -0.000 C 
BRANCH  22  23
ATOM     23  C   UNL     1     -18.939  13.726   1.499  1.00  0.00    -0.000 C 
BRANCH  23  24
ATOM     24  C   UNL     1     -18.950  14.327   0.081  1.00  0.00    -0.000 C 
BRANCH  24  25
ATOM     25  C   UNL     1     -18.543  13.317  -1.000  1.00  0.00    -0.003 C 
ATOM     26  C   UNL     1     -18.949  13.803  -2.388  1.00  0.00     0.004 C 
ENDBRANCH  24  25
ENDBRANCH  23  24
ENDBRANCH  22  23
ENDBRANCH  21  22
ENDBRANCH  20  21
ENDBRANCH  19  20
ENDBRANCH  18  19
ENDBRANCH  17  18
ENDBRANCH  16  17
ENDBRANCH  15  16
ENDBRANCH   1  15
TORSDOF 22
ENDMDL
MODEL 5
REMARK VINA RESULT:    -3.104      1.075      3.176
REMARK INTER + INTRA:          -9.565
REMARK INTER:                  -7.207
REMARK INTRA:                  -2.358
REMARK UNBOUND:                -2.469
REMARK SMILES CCCCCCCCCCCCCCCCCCCCCCCC(=O)[O-]
REMARK SMILES IDX 13 1 14 2 15 3 16 4 17 5 18 6 19 7 20 8 21 9 22 10 23 11
REMARK SMILES IDX 24 12 25 13 26 14 12 15 11 16 10 17 9 18 8 19 7 20 6 21 5 22
REMARK SMILES IDX 4 23 3 24 2 25 1 26
REMARK H PARENT
REMARK Flexibility Score: inf
ROOT
ATOM      1  C   UNL     1     -13.992  10.016   7.601  1.00  0.00     0.000 C 
ENDROOT
BRANCH   1   2
ATOM      2  C   UNL     1     -13.034   9.535   6.500  1.00  0.00     0.000 C 
BRANCH   2   3
ATOM      3  C   UNL     1     -13.096  10.406   5.234  1.00  0.00     0.000 C 
BRANCH   3   4
ATOM      4  C   UNL     1     -13.655   9.703   3.979  1.00  0.00     0.000 C 
BRANCH   4   5
ATOM      5  C   UNL     1     -15.197   9.674   3.912  1.00  0.00     0.000 C 
BRANCH   5   6
ATOM      6  C   UNL     1     -15.832  10.984   4.414  1.00  0.00     0.000 C 
BRANCH   6   7
ATOM      7  C   UNL     1     -17.295  11.137   3.974  1.00  0.00     0.000 C 
BRANCH   7   8
ATOM      8  C   UNL     1     -17.603  10.380   2.668  1.00  0.00     0.000 C 
BRANCH   8   9
ATOM      9  C   UNL     1     -18.602  11.124   1.767  1.00  0.00     0.000 C 
BRANCH   9  10
ATOM     10  C   UNL     1     -19.043  12.510   2.281  1.00  0.00     0.006 C 
BRANCH  10  11
ATOM     11  C   UNL     1     -19.925  13.296   1.294  1.00  0.00     0.053 C 
BRANCH  11  12
ATOM     12  C   UNL     1     -19.219  13.601   0.006  1.00  0.00     0.041 C 
ATOM     13  O   UNL     1     -18.388  14.546  -0.054  1.00  0.00    -0.550 OA
ATOM     14  O   UNL     1     -19.438  12.807  -1.113  1.00  0.00    -0.550 OA
ENDBRANCH  11  12
ENDBRANCH  10  11
ENDBRANCH   9  10
ENDBRANCH   8   9
ENDBRANCH   7   8
ENDBRANCH   6   7
ENDBRANCH   5   6
ENDBRANCH   4   5
ENDBRANCH   3   4
ENDBRANCH   2   3
ENDBRANCH   1   2
BRANCH   1  15
ATOM     15  C   UNL     1     -14.465   8.875   8.515  1.00  0.00     0.000 C 
BRANCH  15  16
ATOM     16  C   UNL     1     -13.876   8.939   9.941  1.00  0.00     0.000 C 
BRANCH  16  17
ATOM     17  C   UNL     1     -14.862   9.558  10.948  1.00  0.00     0.000 C 
BRANCH  17  18
ATOM     18  C   UNL     1     -14.159  10.068  12.220  1.00  0.00    -0.000 C 
BRANCH  18  19
ATOM     19  C   UNL     1     -15.034  11.010  13.068  1.00  0.00    -0.000 C 
BRANCH  19  20
ATOM     20  C   UNL     1     -16.493  10.525  13.154  1.00  0.00    -0.000 C 
BRANCH  20  21
ATOM     21  C   UNL     1     -17.487  11.528  12.547  1.00  0.00    -0.000 C 
BRANCH  21  22
ATOM     22  C   UNL     1     -18.711  10.847  11.911  1.00  0.00    -0.000 C 
BRANCH  22  23
ATOM     23  C   UNL     1     -18.397   9.410  11.442  1.00  0.00    -0.000 C 
BRANCH  23  24
ATOM     24  C   UNL     1     -18.555   9.204   9.924  1.00  0.00    -0.000 C 
BRANCH  24  25
ATOM     25  C   UNL     1     -17.823  10.268   9.096  1.00  0.00    -0.003 C 
ATOM     26  C   UNL     1     -17.975  10.004   7.601  1.00  0.00     0.004 C 
ENDBRANCH  24  25
ENDBRANCH  23  24
ENDBRANCH  22  23
ENDBRANCH  21  22
ENDBRANCH  20  21
ENDBRANCH  19  20
ENDBRANCH  18  19
ENDBRANCH  17  18
ENDBRANCH  16  17
ENDBRANCH  15  16
ENDBRANCH   1  15
TORSDOF 22
ENDMDL
MODEL 6
REMARK VINA RESULT:    -3.104      1.369      2.233
REMARK INTER + INTRA:          -9.564
REMARK INTER:                  -7.229
REMARK INTRA:                  -2.336
REMARK UNBOUND:                -2.469
REMARK SMILES CCCCCCCCCCCCCCCCCCCCCCCC(=O)[O-]
REMARK SMILES IDX 13 1 14 2 15 3 16 4 17 5 18 6 19 7 20 8 21 9 22 10 23 11
REMARK SMILES IDX 24 12 25 13 26 14 12 15 11 16 10 17 9 18 8 19 7 20 6 21 5 22
REMARK SMILES IDX 4 23 3 24 2 25 1 26
REMARK H PARENT
REMARK Flexibility Score: inf
ROOT
ATOM      1  C   UNL     1     -14.891  11.474   6.010  1.00  0.00     0.000 C 
ENDROOT
BRANCH   1   2
ATOM      2  C   UNL     1     -16.058  11.496   5.010  1.00  0.00     0.000 C 
BRANCH   2   3
ATOM      3  C   UNL     1     -16.764  10.135   4.888  1.00  0.00     0.000 C 
BRANCH   3   4
ATOM      4  C   UNL     1     -16.781   9.530   3.469  1.00  0.00     0.000 C 
BRANCH   4   5
ATOM      5  C   UNL     1     -17.672  10.299   2.470  1.00  0.00     0.000 C 
BRANCH   5   6
ATOM      6  C   UNL     1     -19.067  10.607   3.044  1.00  0.00     0.000 C 
BRANCH   6   7
ATOM      7  C   UNL     1     -19.786  11.727   2.277  1.00  0.00     0.000 C 
BRANCH   7   8
ATOM      8  C   UNL     1     -18.871  12.931   1.989  1.00  0.00     0.000 C 
BRANCH   8   9
ATOM      9  C   UNL     1     -19.563  14.025   1.160  1.00  0.00     0.000 C 
BRANCH   9  10
ATOM     10  C   UNL     1     -18.806  14.461  -0.112  1.00  0.00     0.006 C 
BRANCH  10  11
ATOM     11  C   UNL     1     -18.526  13.314  -1.100  1.00  0.00     0.053 C 
BRANCH  11  12
ATOM     12  C   UNL     1     -18.800  13.699  -2.524  1.00  0.00     0.041 C 
ATOM     13  O   UNL     1     -18.108  13.216  -3.458  1.00  0.00    -0.550 OA
ATOM     14  O   UNL     1     -19.858  14.550  -2.822  1.00  0.00    -0.550 OA
ENDBRANCH  11  12
ENDBRANCH  10  11
ENDBRANCH   9  10
ENDBRANCH   8   9
ENDBRANCH   7   8
ENDBRANCH   6   7
ENDBRANCH   5   6
ENDBRANCH   4   5
ENDBRANCH   3   4
ENDBRANCH   2   3
ENDBRANCH   1   2
BRANCH   1  15
ATOM     15  C   UNL     1     -13.686  10.668   5.498  1.00  0.00     0.000 C 
BRANCH  15  16
ATOM     16  C   UNL     1     -13.143   9.648   6.522  1.00  0.00     0.000 C 
BRANCH  16  17
ATOM     17  C   UNL     1     -14.266   9.017   7.363  1.00  0.00     0.000 C 
BRANCH  17  18
ATOM     18  C   UNL     1     -14.025   9.175   8.876  1.00  0.00    -0.000 C 
BRANCH  18  19
ATOM     19  C   UNL     1     -15.325   9.289   9.695  1.00  0.00    -0.000 C 
BRANCH  19  20
ATOM     20  C   UNL     1     -16.481   9.885   8.870  1.00  0.00    -0.000 C 
BRANCH  20  21
ATOM     21  C   UNL     1     -17.795   9.960   9.661  1.00  0.00    -0.000 C 
BRANCH  21  22
ATOM     22  C   UNL     1     -17.585   9.864  11.182  1.00  0.00    -0.000 C 
BRANCH  22  23
ATOM     23  C   UNL     1     -17.829  11.215  11.889  1.00  0.00    -0.000 C 
BRANCH  23  24
ATOM     24  C   UNL     1     -16.786  11.546  12.972  1.00  0.00    -0.000 C 
BRANCH  24  25
ATOM     25  C   UNL     1     -15.765  10.421  13.183  1.00  0.00    -0.003 C 
ATOM     26  C   UNL     1     -14.346  10.903  12.895  1.00  0.00     0.004 C 
ENDBRANCH  24  25
ENDBRANCH  23  24
ENDBRANCH  22  23
ENDBRANCH  21  22
ENDBRANCH  20  21
ENDBRANCH  19  20
ENDBRANCH  18  19
ENDBRANCH  17  18
ENDBRANCH  16  17
ENDBRANCH  15  16
ENDBRANCH   1  15
TORSDOF 22
ENDMDL
MODEL 7
REMARK VINA RESULT:    -3.090      3.934      8.528
REMARK INTER + INTRA:          -9.532
REMARK INTER:                  -6.960
REMARK INTRA:                  -2.571
REMARK UNBOUND:                -2.469
REMARK SMILES CCCCCCCCCCCCCCCCCCCCCCCC(=O)[O-]
REMARK SMILES IDX 13 1 14 2 15 3 16 4 17 5 18 6 19 7 20 8 21 9 22 10 23 11
REMARK SMILES IDX 24 12 25 13 26 14 12 15 11 16 10 17 9 18 8 19 7 20 6 21 5 22
REMARK SMILES IDX 4 23 3 24 2 25 1 26
REMARK H PARENT
REMARK Flexibility Score: inf
ROOT
ATOM      1  C   UNL     1     -12.828   9.318   4.101  1.00  0.00     0.000 C 
ENDROOT
BRANCH   1   2
ATOM      2  C   UNL     1     -13.138  10.433   5.111  1.00  0.00     0.000 C 
BRANCH   2   3
ATOM      3  C   UNL     1     -12.774  10.048   6.555  1.00  0.00     0.000 C 
BRANCH   3   4
ATOM      4  C   UNL     1     -13.690   8.990   7.203  1.00  0.00     0.000 C 
BRANCH   4   5
ATOM      5  C   UNL     1     -14.076   9.305   8.664  1.00  0.00     0.000 C 
BRANCH   5   6
ATOM      6  C   UNL     1     -15.601   9.334   8.875  1.00  0.00     0.000 C 
BRANCH   6   7
ATOM      7  C   UNL     1     -16.348   9.963   7.689  1.00  0.00     0.000 C 
BRANCH   7   8
ATOM      8  C   UNL     1     -17.412   9.023   7.093  1.00  0.00     0.000 C 
BRANCH   8   9
ATOM      9  C   UNL     1     -18.843   9.566   7.243  1.00  0.00     0.000 C 
BRANCH   9  10
ATOM     10  C   UNL     1     -19.456   9.418   8.651  1.00  0.00     0.006 C 
BRANCH  10  11
ATOM     11  C   UNL     1     -19.889  10.750   9.291  1.00  0.00     0.053 C 
BRANCH  11  12
ATOM     12  C   UNL     1     -19.268  10.972  10.638  1.00  0.00     0.041 C 
ATOM     13  O   UNL     1     -19.732  11.848  11.415  1.00  0.00    -0.550 OA
ATOM     14  O   UNL     1     -18.211  10.173  11.056  1.00  0.00    -0.550 OA
ENDBRANCH  11  12
ENDBRANCH  10  11
ENDBRANCH   9  10
ENDBRANCH   8   9
ENDBRANCH   7   8
ENDBRANCH   6   7
ENDBRANCH   5   6
ENDBRANCH   4   5
ENDBRANCH   3   4
ENDBRANCH   2   3
ENDBRANCH   1   2
BRANCH   1  15
ATOM     15  C   UNL     1     -14.044   8.942   3.239  1.00  0.00     0.000 C 
BRANCH  15  16
ATOM     16  C   UNL     1     -15.378   8.940   4.016  1.00  0.00     0.000 C 
BRANCH  16  17
ATOM     17  C   UNL     1     -16.398   9.923   3.417  1.00  0.00     0.000 C 
BRANCH  17  18
ATOM     18  C   UNL     1     -16.503  11.228   4.229  1.00  0.00    -0.000 C 
BRANCH  18  19
ATOM     19  C   UNL     1     -17.552  12.211   3.676  1.00  0.00    -0.000 C 
BRANCH  19  20
ATOM     20  C   UNL     1     -18.547  11.523   2.724  1.00  0.00    -0.000 C 
BRANCH  20  21
ATOM     21  C   UNL     1     -19.369  12.527   1.901  1.00  0.00    -0.000 C 
BRANCH  21  22
ATOM     22  C   UNL     1     -19.829  11.958   0.548  1.00  0.00    -0.000 C 
BRANCH  22  23
ATOM     23  C   UNL     1     -18.638  11.565  -0.353  1.00  0.00    -0.000 C 
BRANCH  23  24
ATOM     24  C   UNL     1     -18.096  12.726  -1.207  1.00  0.00    -0.000 C 
BRANCH  24  25
ATOM     25  C   UNL     1     -19.202  13.657  -1.720  1.00  0.00    -0.003 C 
ATOM     26  C   UNL     1     -19.115  15.031  -1.062  1.00  0.00     0.004 C 
ENDBRANCH  24  25
ENDBRANCH  23  24
ENDBRANCH  22  23
ENDBRANCH  21  22
ENDBRANCH  20  21
ENDBRANCH  19  20
ENDBRANCH  18  19
ENDBRANCH  17  18
ENDBRANCH  16  17
ENDBRANCH  15  16
ENDBRANCH   1  15
TORSDOF 22
ENDMDL
MODEL 8
REMARK VINA RESULT:    -3.077      3.697      7.273
REMARK INTER + INTRA:          -9.503
REMARK INTER:                  -6.575
REMARK INTRA:                  -2.927
REMARK UNBOUND:                -2.469
REMARK SMILES CCCCCCCCCCCCCCCCCCCCCCCC(=O)[O-]
REMARK SMILES IDX 13 1 14 2 15 3 16 4 17 5 18 6 19 7 20 8 21 9 22 10 23 11
REMARK SMILES IDX 24 12 25 13 26 14 12 15 11 16 10 17 9 18 8 19 7 20 6 21 5 22
REMARK SMILES IDX 4 23 3 24 2 25 1 26
REMARK H PARENT
REMARK Flexibility Score: inf
ROOT
ATOM      1  C   UNL     1     -20.091  13.099   1.323  1.00  0.00     0.000 C 
ENDROOT
BRANCH   1   2
ATOM      2  C   UNL     1     -18.987  14.165   1.239  1.00  0.00     0.000 C 
BRANCH   2   3
ATOM      3  C   UNL     1     -18.758  14.674  -0.194  1.00  0.00     0.000 C 
BRANCH   3   4
ATOM      4  C   UNL     1     -19.851  14.287  -1.212  1.00  0.00     0.000 C 
BRANCH   4   5
ATOM      5  C   UNL     1     -19.497  14.634  -2.674  1.00  0.00     0.000 C 
BRANCH   5   6
ATOM      6  C   UNL     1     -19.322  13.379  -3.549  1.00  0.00     0.000 C 
BRANCH   6   7
ATOM      7  C   UNL     1     -19.199  12.094  -2.718  1.00  0.00     0.000 C 
BRANCH   7   8
ATOM      8  C   UNL     1     -18.184  11.099  -3.313  1.00  0.00     0.000 C 
BRANCH   8   9
ATOM      9  C   UNL     1     -16.774  11.696  -3.457  1.00  0.00     0.000 C 
BRANCH   9  10
ATOM     10  C   UNL     1     -15.844  11.478  -2.246  1.00  0.00     0.006 C 
BRANCH  10  11
ATOM     11  C   UNL     1     -15.289  10.046  -2.130  1.00  0.00     0.053 C 
BRANCH  11  12
ATOM     12  C   UNL     1     -14.080   9.824  -2.990  1.00  0.00     0.041 C 
ATOM     13  O   UNL     1     -14.141   9.054  -3.984  1.00  0.00    -0.550 OA
ATOM     14  O   UNL     1     -12.902  10.512  -2.725  1.00  0.00    -0.550 OA
ENDBRANCH  11  12
ENDBRANCH  10  11
ENDBRANCH   9  10
ENDBRANCH   8   9
ENDBRANCH   7   8
ENDBRANCH   6   7
ENDBRANCH   5   6
ENDBRANCH   4   5
ENDBRANCH   3   4
ENDBRANCH   2   3
ENDBRANCH   1   2
BRANCH   1  15
ATOM     15  C   UNL     1     -19.724  11.936   2.257  1.00  0.00     0.000 C 
BRANCH  15  16
ATOM     16  C   UNL     1     -19.549  10.586   1.527  1.00  0.00     0.000 C 
BRANCH  16  17
ATOM     17  C   UNL     1     -18.328  10.587   0.592  1.00  0.00     0.000 C 
BRANCH  17  18
ATOM     18  C   UNL     1     -17.359   9.428   0.891  1.00  0.00    -0.000 C 
BRANCH  18  19
ATOM     19  C   UNL     1     -17.313   9.037   2.380  1.00  0.00    -0.000 C 
BRANCH  19  20
ATOM     20  C   UNL     1     -16.027   9.531   3.070  1.00  0.00    -0.000 C 
BRANCH  20  21
ATOM     21  C   UNL     1     -16.258  10.790   3.919  1.00  0.00    -0.000 C 
BRANCH  21  22
ATOM     22  C   UNL     1     -17.104  10.519   5.175  1.00  0.00    -0.000 C 
BRANCH  22  23
ATOM     23  C   UNL     1     -16.308  10.759   6.476  1.00  0.00    -0.000 C 
BRANCH  23  24
ATOM     24  C   UNL     1     -15.025  11.585   6.275  1.00  0.00    -0.000 C 
BRANCH  24  25
ATOM     25  C   UNL     1     -13.751  10.811   6.636  1.00  0.00    -0.003 C 
ATOM     26  C   UNL     1     -12.791  10.746   5.452  1.00  0.00     0.004 C 
ENDBRANCH  24  25
ENDBRANCH  23  24
ENDBRANCH  22  23
ENDBRANCH  21  22
ENDBRANCH  20  21
ENDBRANCH  19  20
ENDBRANCH  18  19
ENDBRANCH  17  18
ENDBRANCH  16  17
ENDBRANCH  15  16
ENDBRANCH   1  15
TORSDOF 22
ENDMDL
