MODEL 1
REMARK VINA RESULT:    -5.076      0.000      0.000
REMARK INTER + INTRA:          -5.224
REMARK INTER:                  -5.224
REMARK INTRA:                   0.000
REMARK UNBOUND:                 0.000
REMARK SMILES O=c1ccc2cc(O)ccc2o1
REMARK SMILES IDX 9 1 10 2 11 3 5 4 4 5 3 6 2 7 1 8 12 9 6 10 7 11 8 12
REMARK H PARENT 8 13
REMARK Flexibility Score: inf
ROOT
ATOM      1  C   UNL     1      21.749   0.813 -21.300  1.00  0.00     0.050 A 
ATOM      2  C   UNL     1      21.464   1.210 -19.990  1.00  0.00     0.052 A 
ATOM      3  C   UNL     1      20.625   0.431 -19.187  1.00  0.00     0.138 A 
ATOM      4  C   UNL     1      20.066  -0.758 -19.705  1.00  0.00     0.021 A 
ATOM      5  C   UNL     1      19.230  -1.517 -18.879  1.00  0.00     0.019 A 
ATOM      6  C   UNL     1      18.975  -1.080 -17.579  1.00  0.00     0.094 A 
ATOM      7  C   UNL     1      19.563   0.108 -17.134  1.00  0.00     0.336 A 
ATOM      8  O   UNL     1      19.345   0.518 -15.964  1.00  0.00    -0.246 OA
ATOM      9  O   UNL     1      20.355   0.811 -17.941  1.00  0.00    -0.423 OA
ATOM     10  C   UNL     1      20.354  -1.153 -21.020  1.00  0.00     0.058 A 
ATOM     11  C   UNL     1      21.197  -0.366 -21.818  1.00  0.00     0.116 A 
ENDROOT
BRANCH  11  12
ATOM     12  O   UNL     1      21.492  -0.745 -23.125  1.00  0.00    -0.508 OA
ATOM     13  H   UNL     1      22.214  -0.278 -23.661  1.00  0.00     0.293 HD
ENDBRANCH  11  12
TORSDOF 1
ENDMDL
MODEL 2
REMARK VINA RESULT:    -4.982      1.466      4.333
REMARK INTER + INTRA:          -5.128
REMARK INTER:                  -5.128
REMARK INTRA:                   0.000
REMARK UNBOUND:                 0.000
REMARK SMILES O=c1ccc2cc(O)ccc2o1
REMARK SMILES IDX 9 1 10 2 11 3 5 4 4 5 3 6 2 7 1 8 12 9 6 10 7 11 8 12
REMARK H PARENT 8 13
REMARK Flexibility Score: inf
ROOT
ATOM      1  C   UNL     1      20.313   0.363 -17.650  1.00  0.00     0.050 A 
ATOM      2  C   UNL     1      21.066   1.038 -18.615  1.00  0.00     0.052 A 
ATOM      3  C   UNL     1      21.105   0.566 -19.931  1.00  0.00     0.138 A 
ATOM      4  C   UNL     1      20.381  -0.595 -20.280  1.00  0.00     0.021 A 
ATOM      5  C   UNL     1      20.439  -1.044 -21.604  1.00  0.00     0.019 A 
ATOM      6  C   UNL     1      21.203  -0.337 -22.533  1.00  0.00     0.094 A 
ATOM      7  C   UNL     1      21.894   0.805 -22.115  1.00  0.00     0.336 A 
ATOM      8  O   UNL     1      22.590   1.455 -22.938  1.00  0.00    -0.246 OA
ATOM      9  O   UNL     1      21.822   1.210 -20.848  1.00  0.00    -0.423 OA
ATOM     10  C   UNL     1      19.627  -1.270 -19.309  1.00  0.00     0.058 A 
ATOM     11  C   UNL     1      19.593  -0.789 -17.991  1.00  0.00     0.116 A 
ENDROOT
BRANCH  11  12
ATOM     12  O   UNL     1      18.849  -1.448 -17.016  1.00  0.00    -0.508 OA
ATOM     13  H   UNL     1      19.275  -1.779 -16.158  1.00  0.00     0.293 HD
ENDBRANCH  11  12
TORSDOF 1
ENDMDL
MODEL 3
REMARK VINA RESULT:    -4.964     15.968     18.382
REMARK INTER + INTRA:          -5.109
REMARK INTER:                  -5.109
REMARK INTRA:                   0.000
REMARK UNBOUND:                 0.000
REMARK SMILES O=c1ccc2cc(O)ccc2o1
REMARK SMILES IDX 9 1 10 2 11 3 5 4 4 5 3 6 2 7 1 8 12 9 6 10 7 11 8 12
REMARK H PARENT 8 13
REMARK Flexibility Score: inf
ROOT
ATOM      1  C   UNL     1       7.672  -7.175  -5.592  1.00  0.00     0.050 A 
ATOM      2  C   UNL     1       8.160  -8.174  -6.441  1.00  0.00     0.052 A 
ATOM      3  C   UNL     1       9.152  -7.873  -7.379  1.00  0.00     0.138 A 
ATOM      4  C   UNL     1       9.660  -6.557  -7.466  1.00  0.00     0.021 A 
ATOM      5  C   UNL     1      10.651  -6.286  -8.414  1.00  0.00     0.019 A 
ATOM      6  C   UNL     1      11.107  -7.315  -9.240  1.00  0.00     0.094 A 
ATOM      7  C   UNL     1      10.559  -8.593  -9.097  1.00  0.00     0.336 A 
ATOM      8  O   UNL     1      10.957  -9.534  -9.833  1.00  0.00    -0.246 OA
ATOM      9  O   UNL     1       9.616  -8.824  -8.186  1.00  0.00    -0.423 OA
ATOM     10  C   UNL     1       9.167  -5.559  -6.613  1.00  0.00     0.058 A 
ATOM     11  C   UNL     1       8.172  -5.869  -5.674  1.00  0.00     0.116 A 
ENDROOT
BRANCH  11  12
ATOM     12  O   UNL     1       7.673  -4.889  -4.820  1.00  0.00    -0.508 OA
ATOM     13  H   UNL     1       8.122  -3.985  -4.731  1.00  0.00     0.293 HD
ENDBRANCH  11  12
TORSDOF 1
ENDMDL
MODEL 4
REMARK VINA RESULT:    -4.961     15.617     18.435
REMARK INTER + INTRA:          -5.106
REMARK INTER:                  -5.106
REMARK INTRA:                   0.000
REMARK UNBOUND:                 0.000
REMARK SMILES O=c1ccc2cc(O)ccc2o1
REMARK SMILES IDX 9 1 10 2 11 3 5 4 4 5 3 6 2 7 1 8 12 9 6 10 7 11 8 12
REMARK H PARENT 8 13
REMARK Flexibility Score: inf
ROOT
ATOM      1  C   UNL     1       7.707  -6.885  -5.565  1.00  0.00     0.050 A 
ATOM      2  C   UNL     1       8.693  -6.180  -6.262  1.00  0.00     0.052 A 
ATOM      3  C   UNL     1       9.415  -6.807  -7.282  1.00  0.00     0.138 A 
ATOM      4  C   UNL     1       9.145  -8.156  -7.605  1.00  0.00     0.021 A 
ATOM      5  C   UNL     1       9.883  -8.757  -8.629  1.00  0.00     0.019 A 
ATOM      6  C   UNL     1      10.857  -8.015  -9.297  1.00  0.00     0.094 A 
ATOM      7  C   UNL     1      11.070  -6.684  -8.924  1.00  0.00     0.336 A 
ATOM      8  O   UNL     1      11.944  -5.997  -9.514  1.00  0.00    -0.246 OA
ATOM      9  O   UNL     1      10.353  -6.136  -7.945  1.00  0.00    -0.423 OA
ATOM     10  C   UNL     1       8.155  -8.859  -6.902  1.00  0.00     0.058 A 
ATOM     11  C   UNL     1       7.435  -8.222  -5.881  1.00  0.00     0.116 A 
ENDROOT
BRANCH  11  12
ATOM     12  O   UNL     1       6.450  -8.907  -5.175  1.00  0.00    -0.508 OA
ATOM     13  H   UNL     1       6.200  -8.648  -4.227  1.00  0.00     0.293 HD
ENDBRANCH  11  12
TORSDOF 1
ENDMDL
MODEL 5
REMARK VINA RESULT:    -4.915      2.200      3.385
REMARK INTER + INTRA:          -5.059
REMARK INTER:                  -5.059
REMARK INTRA:                   0.000
REMARK UNBOUND:                 0.000
REMARK SMILES O=c1ccc2cc(O)ccc2o1
REMARK SMILES IDX 9 1 10 2 11 3 5 4 4 5 3 6 2 7 1 8 12 9 6 10 7 11 8 12
REMARK H PARENT 8 13
REMARK Flexibility Score: inf
ROOT
ATOM      1  C   UNL     1      18.811  -0.750 -18.498  1.00  0.00     0.050 A 
ATOM      2  C   UNL     1      19.449  -0.386 -17.308  1.00  0.00     0.052 A 
ATOM      3  C   UNL     1      20.633   0.358 -17.346  1.00  0.00     0.138 A 
ATOM      4  C   UNL     1      21.181   0.739 -18.591  1.00  0.00     0.021 A 
ATOM      5  C   UNL     1      22.367   1.482 -18.597  1.00  0.00     0.019 A 
ATOM      6  C   UNL     1      22.967   1.822 -17.385  1.00  0.00     0.094 A 
ATOM      7  C   UNL     1      22.367   1.410 -16.191  1.00  0.00     0.336 A 
ATOM      8  O   UNL     1      22.894   1.707 -15.087  1.00  0.00    -0.246 OA
ATOM      9  O   UNL     1      21.239   0.704 -16.213  1.00  0.00    -0.423 OA
ATOM     10  C   UNL     1      20.539   0.371 -19.782  1.00  0.00     0.058 A 
ATOM     11  C   UNL     1      19.351  -0.374 -19.735  1.00  0.00     0.116 A 
ENDROOT
BRANCH  11  12
ATOM     12  O   UNL     1      18.701  -0.747 -20.908  1.00  0.00    -0.508 OA
ATOM     13  H   UNL     1      17.694  -0.688 -20.998  1.00  0.00     0.293 HD
ENDBRANCH  11  12
TORSDOF 1
ENDMDL
MODEL 6
REMARK VINA RESULT:    -4.899     15.063     17.147
REMARK INTER + INTRA:          -5.043
REMARK INTER:                  -5.043
REMARK INTRA:                   0.000
REMARK UNBOUND:                 0.000
REMARK SMILES O=c1ccc2cc(O)ccc2o1
REMARK SMILES IDX 9 1 10 2 11 3 5 4 4 5 3 6 2 7 1 8 12 9 6 10 7 11 8 12
REMARK H PARENT 8 13
REMARK Flexibility Score: inf
ROOT
ATOM      1  C   UNL     1      12.712   2.158  -2.899  1.00  0.00     0.050 A 
ATOM      2  C   UNL     1      13.894   2.695  -3.418  1.00  0.00     0.052 A 
ATOM      3  C   UNL     1      13.867   3.436  -4.604  1.00  0.00     0.138 A 
ATOM      4  C   UNL     1      12.641   3.639  -5.275  1.00  0.00     0.021 A 
ATOM      5  C   UNL     1      12.645   4.384  -6.459  1.00  0.00     0.019 A 
ATOM      6  C   UNL     1      13.849   4.900  -6.938  1.00  0.00     0.094 A 
ATOM      7  C   UNL     1      15.024   4.658  -6.220  1.00  0.00     0.336 A 
ATOM      8  O   UNL     1      16.121   5.115  -6.637  1.00  0.00    -0.246 OA
ATOM      9  O   UNL     1      14.993   3.946  -5.096  1.00  0.00    -0.423 OA
ATOM     10  C   UNL     1      11.457   3.098  -4.751  1.00  0.00     0.058 A 
ATOM     11  C   UNL     1      11.494   2.357  -3.561  1.00  0.00     0.116 A 
ENDROOT
BRANCH  11  12
ATOM     12  O   UNL     1      10.327   1.814  -3.029  1.00  0.00    -0.508 OA
ATOM     13  H   UNL     1       9.542   1.562  -3.618  1.00  0.00     0.293 HD
ENDBRANCH  11  12
TORSDOF 1
ENDMDL
MODEL 7
REMARK VINA RESULT:    -4.879     15.659     17.781
REMARK INTER + INTRA:          -5.022
REMARK INTER:                  -5.022
REMARK INTRA:                   0.000
REMARK UNBOUND:                 0.000
REMARK SMILES O=c1ccc2cc(O)ccc2o1
REMARK SMILES IDX 9 1 10 2 11 3 5 4 4 5 3 6 2 7 1 8 12 9 6 10 7 11 8 12
REMARK H PARENT 8 13
REMARK Flexibility Score: inf
ROOT
ATOM      1  C   UNL     1       8.064  -7.113  -6.800  1.00  0.00     0.050 A 
ATOM      2  C   UNL     1       8.318  -7.729  -8.029  1.00  0.00     0.052 A 
ATOM      3  C   UNL     1       8.278  -6.981  -9.210  1.00  0.00     0.138 A 
ATOM      4  C   UNL     1       7.980  -5.601  -9.156  1.00  0.00     0.021 A 
ATOM      5  C   UNL     1       7.946  -4.880 -10.354  1.00  0.00     0.019 A 
ATOM      6  C   UNL     1       8.206  -5.537 -11.556  1.00  0.00     0.094 A 
ATOM      7  C   UNL     1       8.494  -6.906 -11.533  1.00  0.00     0.336 A 
ATOM      8  O   UNL     1       8.731  -7.517 -12.608  1.00  0.00    -0.246 OA
ATOM      9  O   UNL     1       8.519  -7.569 -10.379  1.00  0.00    -0.423 OA
ATOM     10  C   UNL     1       7.725  -4.988  -7.921  1.00  0.00     0.058 A 
ATOM     11  C   UNL     1       7.768  -5.745  -6.741  1.00  0.00     0.116 A 
ENDROOT
BRANCH  11  12
ATOM     12  O   UNL     1       7.518  -5.150  -5.507  1.00  0.00    -0.508 OA
ATOM     13  H   UNL     1       7.896  -4.239  -5.272  1.00  0.00     0.293 HD
ENDBRANCH  11  12
TORSDOF 1
ENDMDL
MODEL 8
REMARK VINA RESULT:    -4.844     16.482     17.755
REMARK INTER + INTRA:          -4.986
REMARK INTER:                  -4.986
REMARK INTRA:                   0.000
REMARK UNBOUND:                 0.000
REMARK SMILES O=c1ccc2cc(O)ccc2o1
REMARK SMILES IDX 9 1 10 2 11 3 5 4 4 5 3 6 2 7 1 8 12 9 6 10 7 11 8 12
REMARK H PARENT 8 13
REMARK Flexibility Score: inf
ROOT
ATOM      1  C   UNL     1       8.335  -5.607  -6.601  1.00  0.00     0.050 A 
ATOM      2  C   UNL     1       7.622  -6.359  -7.541  1.00  0.00     0.052 A 
ATOM      3  C   UNL     1       8.305  -7.085  -8.521  1.00  0.00     0.138 A 
ATOM      4  C   UNL     1       9.717  -7.056  -8.559  1.00  0.00     0.021 A 
ATOM      5  C   UNL     1      10.373  -7.792  -9.551  1.00  0.00     0.019 A 
ATOM      6  C   UNL     1       9.620  -8.527 -10.467  1.00  0.00     0.094 A 
ATOM      7  C   UNL     1       8.225  -8.509 -10.369  1.00  0.00     0.336 A 
ATOM      8  O   UNL     1       7.528  -9.166 -11.186  1.00  0.00    -0.246 OA
ATOM      9  O   UNL     1       7.626  -7.800  -9.415  1.00  0.00    -0.423 OA
ATOM     10  C   UNL     1      10.428  -6.301  -7.615  1.00  0.00     0.058 A 
ATOM     11  C   UNL     1       9.735  -5.576  -6.634  1.00  0.00     0.116 A 
ENDROOT
BRANCH  11  12
ATOM     12  O   UNL     1      10.426  -4.821  -5.690  1.00  0.00    -0.508 OA
ATOM     13  H   UNL     1      10.574  -5.159  -4.746  1.00  0.00     0.293 HD
ENDBRANCH  11  12
TORSDOF 1
ENDMDL
MODEL 9
REMARK VINA RESULT:    -4.742     15.753     17.254
REMARK INTER + INTRA:          -4.880
REMARK INTER:                  -4.880
REMARK INTRA:                   0.000
REMARK UNBOUND:                 0.000
REMARK SMILES O=c1ccc2cc(O)ccc2o1
REMARK SMILES IDX 9 1 10 2 11 3 5 4 4 5 3 6 2 7 1 8 12 9 6 10 7 11 8 12
REMARK H PARENT 8 13
REMARK Flexibility Score: inf
ROOT
ATOM      1  C   UNL     1       8.018  -5.305 -11.421  1.00  0.00     0.050 A 
ATOM      2  C   UNL     1       7.891  -4.845 -10.107  1.00  0.00     0.052 A 
ATOM      3  C   UNL     1       7.947  -5.747  -9.040  1.00  0.00     0.138 A 
ATOM      4  C   UNL     1       8.133  -7.124  -9.295  1.00  0.00     0.021 A 
ATOM      5  C   UNL     1       8.184  -8.003  -8.208  1.00  0.00     0.019 A 
ATOM      6  C   UNL     1       8.052  -7.498  -6.914  1.00  0.00     0.094 A 
ATOM      7  C   UNL     1       7.872  -6.122  -6.737  1.00  0.00     0.336 A 
ATOM      8  O   UNL     1       7.751  -5.648  -5.578  1.00  0.00    -0.246 OA
ATOM      9  O   UNL     1       7.826  -5.308  -7.790  1.00  0.00    -0.423 OA
ATOM     10  C   UNL     1       8.259  -7.581 -10.615  1.00  0.00     0.058 A 
ATOM     11  C   UNL     1       8.202  -6.670 -11.679  1.00  0.00     0.116 A 
ENDROOT
BRANCH  11  12
ATOM     12  O   UNL     1       8.326  -7.108 -12.995  1.00  0.00    -0.508 OA
ATOM     13  H   UNL     1       7.994  -8.021 -13.284  1.00  0.00     0.293 HD
ENDBRANCH  11  12
TORSDOF 1
ENDMDL
