MODEL 1
REMARK VINA RESULT:    -4.190      0.000      0.000
REMARK INTER + INTRA:         -10.635
REMARK INTER:                  -8.109
REMARK INTRA:                  -2.526
REMARK UNBOUND:                -2.526
REMARK SMILES CCCCCCCCCCCCCCCCCC(=O)[O-]
REMARK SMILES IDX 10 1 11 2 12 3 13 4 14 5 15 6 16 7 17 8 18 9 19 10 20 11
REMARK SMILES IDX 9 12 8 13 7 14 6 15 5 16 4 17 3 18 2 19 1 20
REMARK H PARENT
REMARK Flexibility Score: inf
ROOT
ATOM      1  C   UNL     1     131.170 144.447 105.964  1.00  0.00     0.000 C 
ENDROOT
BRANCH   1   2
ATOM      2  C   UNL     1     130.858 145.949 106.067  1.00  0.00     0.000 C 
BRANCH   2   3
ATOM      3  C   UNL     1     132.128 146.818 106.120  1.00  0.00     0.000 C 
BRANCH   3   4
ATOM      4  C   UNL     1     133.198 146.241 107.060  1.00  0.00     0.000 C 
BRANCH   4   5
ATOM      5  C   UNL     1     134.538 145.984 106.347  1.00  0.00     0.000 C 
BRANCH   5   6
ATOM      6  C   UNL     1     134.413 146.106 104.813  1.00  0.00     0.000 C 
BRANCH   6   7
ATOM      7  C   UNL     1     134.608 144.771 104.073  1.00  0.00     0.006 C 
BRANCH   7   8
ATOM      8  C   UNL     1     134.674 143.568 105.021  1.00  0.00     0.053 C 
BRANCH   8   9
ATOM      9  C   UNL     1     135.980 142.855 104.870  1.00  0.00     0.041 C 
ATOM     10  O   UNL     1     137.022 143.322 105.401  1.00  0.00    -0.550 OA
ATOM     11  O   UNL     1     136.056 141.696 104.109  1.00  0.00    -0.550 OA
ENDBRANCH   8   9
ENDBRANCH   7   8
ENDBRANCH   6   7
ENDBRANCH   5   6
ENDBRANCH   4   5
ENDBRANCH   3   4
ENDBRANCH   2   3
ENDBRANCH   1   2
BRANCH   1  12
ATOM     12  C   UNL     1     130.512 143.631 107.089  1.00  0.00     0.000 C 
BRANCH  12  13
ATOM     13  C   UNL     1     129.600 142.507 106.558  1.00  0.00    -0.000 C 
BRANCH  13  14
ATOM     14  C   UNL     1     128.853 142.835 105.252  1.00  0.00    -0.000 C 
BRANCH  14  15
ATOM     15  C   UNL     1     127.498 143.544 105.435  1.00  0.00    -0.000 C 
BRANCH  15  16
ATOM     16  C   UNL     1     127.474 144.990 104.895  1.00  0.00    -0.000 C 
BRANCH  16  17
ATOM     17  C   UNL     1     127.092 146.014 105.975  1.00  0.00    -0.000 C 
BRANCH  17  18
ATOM     18  C   UNL     1     127.005 145.353 107.355  1.00  0.00    -0.000 C 
BRANCH  18  19
ATOM     19  C   UNL     1     127.338 146.355 108.466  1.00  0.00    -0.003 C 
ATOM     20  C   UNL     1     128.701 146.059 109.086  1.00  0.00     0.004 C 
ENDBRANCH  18  19
ENDBRANCH  17  18
ENDBRANCH  16  17
ENDBRANCH  15  16
ENDBRANCH  14  15
ENDBRANCH  13  14
ENDBRANCH  12  13
ENDBRANCH   1  12
TORSDOF 16
ENDMDL
MODEL 2
REMARK VINA RESULT:    -4.156      3.102      7.049
REMARK INTER + INTRA:         -10.570
REMARK INTER:                  -7.954
REMARK INTRA:                  -2.616
REMARK UNBOUND:                -2.526
REMARK SMILES CCCCCCCCCCCCCCCCCC(=O)[O-]
REMARK SMILES IDX 10 1 11 2 12 3 13 4 14 5 15 6 16 7 17 8 18 9 19 10 20 11
REMARK SMILES IDX 9 12 8 13 7 14 6 15 5 16 4 17 3 18 2 19 1 20
REMARK H PARENT
REMARK Flexibility Score: inf
ROOT
ATOM      1  C   UNL     1     129.992 143.307 106.449  1.00  0.00     0.000 C 
ENDROOT
BRANCH   1   2
ATOM      2  C   UNL     1     128.911 143.110 105.373  1.00  0.00     0.000 C 
BRANCH   2   3
ATOM      3  C   UNL     1     127.524 143.600 105.827  1.00  0.00     0.000 C 
BRANCH   3   4
ATOM      4  C   UNL     1     127.238 145.045 105.390  1.00  0.00     0.000 C 
BRANCH   4   5
ATOM      5  C   UNL     1     126.899 145.966 106.576  1.00  0.00     0.000 C 
BRANCH   5   6
ATOM      6  C   UNL     1     127.208 145.304 107.934  1.00  0.00     0.000 C 
BRANCH   6   7
ATOM      7  C   UNL     1     128.307 146.025 108.734  1.00  0.00     0.006 C 
BRANCH   7   8
ATOM      8  C   UNL     1     129.212 145.060 109.508  1.00  0.00     0.053 C 
BRANCH   8   9
ATOM      9  C   UNL     1     129.996 145.797 110.546  1.00  0.00     0.041 C 
ATOM     10  O   UNL     1     130.206 145.275 111.672  1.00  0.00    -0.550 OA
ATOM     11  O   UNL     1     130.462 147.079 110.285  1.00  0.00    -0.550 OA
ENDBRANCH   8   9
ENDBRANCH   7   8
ENDBRANCH   6   7
ENDBRANCH   5   6
ENDBRANCH   4   5
ENDBRANCH   3   4
ENDBRANCH   2   3
ENDBRANCH   1   2
BRANCH   1  12
ATOM     12  C   UNL     1     131.134 144.221 105.974  1.00  0.00     0.000 C 
BRANCH  12  13
ATOM     13  C   UNL     1     130.797 145.718 106.108  1.00  0.00    -0.000 C 
BRANCH  13  14
ATOM     14  C   UNL     1     131.951 146.606 106.613  1.00  0.00    -0.000 C 
BRANCH  14  15
ATOM     15  C   UNL     1     132.721 146.049 107.825  1.00  0.00    -0.000 C 
BRANCH  15  16
ATOM     16  C   UNL     1     134.242 146.311 107.771  1.00  0.00    -0.000 C 
BRANCH  16  17
ATOM     17  C   UNL     1     134.974 145.329 106.844  1.00  0.00    -0.000 C 
BRANCH  17  18
ATOM     18  C   UNL     1     135.551 146.052 105.622  1.00  0.00    -0.000 C 
BRANCH  18  19
ATOM     19  C   UNL     1     134.725 145.752 104.366  1.00  0.00    -0.003 C 
ATOM     20  C   UNL     1     134.470 144.254 104.218  1.00  0.00     0.004 C 
ENDBRANCH  18  19
ENDBRANCH  17  18
ENDBRANCH  16  17
ENDBRANCH  15  16
ENDBRANCH  14  15
ENDBRANCH  13  14
ENDBRANCH  12  13
ENDBRANCH   1  12
TORSDOF 16
ENDMDL
MODEL 3
REMARK VINA RESULT:    -3.964      0.909      2.906
REMARK INTER + INTRA:         -10.199
REMARK INTER:                  -7.815
REMARK INTRA:                  -2.384
REMARK UNBOUND:                -2.526
REMARK SMILES CCCCCCCCCCCCCCCCCC(=O)[O-]
REMARK SMILES IDX 10 1 11 2 12 3 13 4 14 5 15 6 16 7 17 8 18 9 19 10 20 11
REMARK SMILES IDX 9 12 8 13 7 14 6 15 5 16 4 17 3 18 2 19 1 20
REMARK H PARENT
REMARK Flexibility Score: inf
ROOT
ATOM      1  C   UNL     1     129.557 145.094 108.725  1.00  0.00     0.000 C 
ENDROOT
BRANCH   1   2
ATOM      2  C   UNL     1     130.863 145.495 108.019  1.00  0.00     0.000 C 
BRANCH   2   3
ATOM      3  C   UNL     1     130.640 145.931 106.560  1.00  0.00     0.000 C 
BRANCH   3   4
ATOM      4  C   UNL     1     131.841 146.697 105.984  1.00  0.00     0.000 C 
BRANCH   4   5
ATOM      5  C   UNL     1     133.168 145.935 106.156  1.00  0.00     0.000 C 
BRANCH   5   6
ATOM      6  C   UNL     1     134.086 146.080 104.924  1.00  0.00     0.000 C 
BRANCH   6   7
ATOM      7  C   UNL     1     134.574 144.735 104.360  1.00  0.00     0.006 C 
BRANCH   7   8
ATOM      8  C   UNL     1     134.938 143.726 105.455  1.00  0.00     0.053 C 
BRANCH   8   9
ATOM      9  C   UNL     1     136.411 143.738 105.709  1.00  0.00     0.041 C 
ATOM     10  O   UNL     1     136.929 144.662 106.390  1.00  0.00    -0.550 OA
ATOM     11  O   UNL     1     137.221 142.752 105.159  1.00  0.00    -0.550 OA
ENDBRANCH   8   9
ENDBRANCH   7   8
ENDBRANCH   6   7
ENDBRANCH   5   6
ENDBRANCH   4   5
ENDBRANCH   3   4
ENDBRANCH   2   3
ENDBRANCH   1   2
BRANCH   1  12
ATOM     12  C   UNL     1     128.678 146.308 109.071  1.00  0.00     0.000 C 
BRANCH  12  13
ATOM     13  C   UNL     1     127.227 146.157 108.576  1.00  0.00    -0.000 C 
BRANCH  13  14
ATOM     14  C   UNL     1     127.030 145.150 107.426  1.00  0.00    -0.000 C 
BRANCH  14  15
ATOM     15  C   UNL     1     126.912 145.775 106.023  1.00  0.00    -0.000 C 
BRANCH  15  16
ATOM     16  C   UNL     1     127.444 144.870 104.891  1.00  0.00    -0.000 C 
BRANCH  16  17
ATOM     17  C   UNL     1     127.718 143.435 105.366  1.00  0.00    -0.000 C 
BRANCH  17  18
ATOM     18  C   UNL     1     129.145 143.001 105.013  1.00  0.00    -0.000 C 
BRANCH  18  19
ATOM     19  C   UNL     1     129.821 142.315 106.206  1.00  0.00    -0.003 C 
ATOM     20  C   UNL     1     131.339 142.304 106.048  1.00  0.00     0.004 C 
ENDBRANCH  18  19
ENDBRANCH  17  18
ENDBRANCH  16  17
ENDBRANCH  15  16
ENDBRANCH  14  15
ENDBRANCH  13  14
ENDBRANCH  12  13
ENDBRANCH   1  12
TORSDOF 16
ENDMDL
MODEL 4
REMARK VINA RESULT:    -3.939      3.258      6.682
REMARK INTER + INTRA:         -10.150
REMARK INTER:                  -7.600
REMARK INTRA:                  -2.551
REMARK UNBOUND:                -2.526
REMARK SMILES CCCCCCCCCCCCCCCCCC(=O)[O-]
REMARK SMILES IDX 10 1 11 2 12 3 13 4 14 5 15 6 16 7 17 8 18 9 19 10 20 11
REMARK SMILES IDX 9 12 8 13 7 14 6 15 5 16 4 17 3 18 2 19 1 20
REMARK H PARENT
REMARK Flexibility Score: inf
ROOT
ATOM      1  C   UNL     1     128.099 145.830 108.564  1.00  0.00     0.000 C 
ENDROOT
BRANCH   1   2
ATOM      2  C   UNL     1     127.027 145.441 107.533  1.00  0.00     0.000 C 
BRANCH   2   3
ATOM      3  C   UNL     1     127.224 146.141 106.176  1.00  0.00     0.000 C 
BRANCH   3   4
ATOM      4  C   UNL     1     127.283 145.149 105.004  1.00  0.00     0.000 C 
BRANCH   4   5
ATOM      5  C   UNL     1     127.290 143.681 105.470  1.00  0.00     0.000 C 
BRANCH   5   6
ATOM      6  C   UNL     1     128.674 143.022 105.297  1.00  0.00     0.000 C 
BRANCH   6   7
ATOM      7  C   UNL     1     128.950 141.898 106.310  1.00  0.00     0.006 C 
BRANCH   7   8
ATOM      8  C   UNL     1     127.681 141.405 107.015  1.00  0.00     0.053 C 
BRANCH   8   9
ATOM      9  C   UNL     1     127.680 139.913 107.108  1.00  0.00     0.041 C 
ATOM     10  O   UNL     1     127.343 139.217 106.114  1.00  0.00    -0.550 OA
ATOM     11  O   UNL     1     128.010 139.290 108.304  1.00  0.00    -0.550 OA
ENDBRANCH   8   9
ENDBRANCH   7   8
ENDBRANCH   6   7
ENDBRANCH   5   6
ENDBRANCH   4   5
ENDBRANCH   3   4
ENDBRANCH   2   3
ENDBRANCH   1   2
BRANCH   1  12
ATOM     12  C   UNL     1     128.965 144.633 108.992  1.00  0.00     0.000 C 
BRANCH  12  13
ATOM     13  C   UNL     1     130.348 144.622 108.313  1.00  0.00    -0.000 C 
BRANCH  13  14
ATOM     14  C   UNL     1     130.696 145.895 107.517  1.00  0.00    -0.000 C 
BRANCH  14  15
ATOM     15  C   UNL     1     131.115 145.658 106.054  1.00  0.00    -0.000 C 
BRANCH  15  16
ATOM     16  C   UNL     1     131.875 144.332 105.832  1.00  0.00    -0.000 C 
BRANCH  16  17
ATOM     17  C   UNL     1     133.366 144.444 106.185  1.00  0.00    -0.000 C 
BRANCH  17  18
ATOM     18  C   UNL     1     134.229 143.671 105.182  1.00  0.00    -0.000 C 
BRANCH  18  19
ATOM     19  C   UNL     1     134.671 144.576 104.026  1.00  0.00    -0.003 C 
ATOM     20  C   UNL     1     134.671 146.044 104.443  1.00  0.00     0.004 C 
ENDBRANCH  18  19
ENDBRANCH  17  18
ENDBRANCH  16  17
ENDBRANCH  15  16
ENDBRANCH  14  15
ENDBRANCH  13  14
ENDBRANCH  12  13
ENDBRANCH   1  12
TORSDOF 16
ENDMDL
MODEL 5
REMARK VINA RESULT:    -3.831      1.857      3.273
REMARK INTER + INTRA:          -9.940
REMARK INTER:                  -7.457
REMARK INTRA:                  -2.483
REMARK UNBOUND:                -2.526
REMARK SMILES CCCCCCCCCCCCCCCCCC(=O)[O-]
REMARK SMILES IDX 10 1 11 2 12 3 13 4 14 5 15 6 16 7 17 8 18 9 19 10 20 11
REMARK SMILES IDX 9 12 8 13 7 14 6 15 5 16 4 17 3 18 2 19 1 20
REMARK H PARENT
REMARK Flexibility Score: inf
ROOT
ATOM      1  C   UNL     1     129.249 145.567 107.233  1.00  0.00     0.000 C 
ENDROOT
BRANCH   1   2
ATOM      2  C   UNL     1     130.278 145.914 106.144  1.00  0.00     0.000 C 
BRANCH   2   3
ATOM      3  C   UNL     1     131.540 145.035 106.218  1.00  0.00     0.000 C 
BRANCH   3   4
ATOM      4  C   UNL     1     131.298 143.610 105.697  1.00  0.00     0.000 C 
BRANCH   4   5
ATOM      5  C   UNL     1     132.481 143.071 104.874  1.00  0.00     0.000 C 
BRANCH   5   6
ATOM      6  C   UNL     1     133.835 143.612 105.379  1.00  0.00     0.000 C 
BRANCH   6   7
ATOM      7  C   UNL     1     134.638 144.361 104.300  1.00  0.00     0.006 C 
BRANCH   7   8
ATOM      8  C   UNL     1     134.712 145.870 104.552  1.00  0.00     0.053 C 
BRANCH   8   9
ATOM      9  C   UNL     1     135.442 146.153 105.827  1.00  0.00     0.041 C 
ATOM     10  O   UNL     1     134.807 146.498 106.857  1.00  0.00    -0.550 OA
ATOM     11  O   UNL     1     136.828 146.075 105.867  1.00  0.00    -0.550 OA
ENDBRANCH   8   9
ENDBRANCH   7   8
ENDBRANCH   6   7
ENDBRANCH   5   6
ENDBRANCH   4   5
ENDBRANCH   3   4
ENDBRANCH   2   3
ENDBRANCH   1   2
BRANCH   1  12
ATOM     12  C   UNL     1     127.806 145.567 106.699  1.00  0.00     0.000 C 
BRANCH  12  13
ATOM     13  C   UNL     1     127.727 145.272 105.188  1.00  0.00    -0.000 C 
BRANCH  13  14
ATOM     14  C   UNL     1     127.709 143.777 104.815  1.00  0.00    -0.000 C 
BRANCH  14  15
ATOM     15  C   UNL     1     127.289 142.825 105.950  1.00  0.00    -0.000 C 
BRANCH  15  16
ATOM     16  C   UNL     1     128.212 141.597 106.106  1.00  0.00    -0.000 C 
BRANCH  16  17
ATOM     17  C   UNL     1     128.457 141.230 107.577  1.00  0.00    -0.000 C 
BRANCH  17  18
ATOM     18  C   UNL     1     127.867 142.288 108.515  1.00  0.00    -0.000 C 
BRANCH  18  19
ATOM     19  C   UNL     1     128.880 142.694 109.592  1.00  0.00    -0.003 C 
ATOM     20  C   UNL     1     130.312 142.532 109.091  1.00  0.00     0.004 C 
ENDBRANCH  18  19
ENDBRANCH  17  18
ENDBRANCH  16  17
ENDBRANCH  15  16
ENDBRANCH  14  15
ENDBRANCH  13  14
ENDBRANCH  12  13
ENDBRANCH   1  12
TORSDOF 16
ENDMDL
MODEL 6
REMARK VINA RESULT:    -3.819      1.964      2.514
REMARK INTER + INTRA:          -9.918
REMARK INTER:                  -7.790
REMARK INTRA:                  -2.129
REMARK UNBOUND:                -2.526
REMARK SMILES CCCCCCCCCCCCCCCCCC(=O)[O-]
REMARK SMILES IDX 10 1 11 2 12 3 13 4 14 5 15 6 16 7 17 8 18 9 19 10 20 11
REMARK SMILES IDX 9 12 8 13 7 14 6 15 5 16 4 17 3 18 2 19 1 20
REMARK H PARENT
REMARK Flexibility Score: inf
ROOT
ATOM      1  C   UNL     1     130.781 144.311 106.368  1.00  0.00     0.000 C 
ENDROOT
BRANCH   1   2
ATOM      2  C   UNL     1     130.476 145.797 106.114  1.00  0.00     0.000 C 
BRANCH   2   3
ATOM      3  C   UNL     1     131.749 146.650 105.975  1.00  0.00     0.000 C 
BRANCH   3   4
ATOM      4  C   UNL     1     133.034 145.812 106.071  1.00  0.00     0.000 C 
BRANCH   4   5
ATOM      5  C   UNL     1     134.009 146.088 104.913  1.00  0.00     0.000 C 
BRANCH   5   6
ATOM      6  C   UNL     1     135.002 144.926 104.699  1.00  0.00     0.000 C 
BRANCH   6   7
ATOM      7  C   UNL     1     136.047 144.797 105.822  1.00  0.00     0.006 C 
BRANCH   7   8
ATOM      8  C   UNL     1     136.852 146.082 106.038  1.00  0.00     0.053 C 
BRANCH   8   9
ATOM      9  C   UNL     1     136.767 146.520 107.465  1.00  0.00     0.041 C 
ATOM     10  O   UNL     1     137.813 146.638 108.156  1.00  0.00    -0.550 OA
ATOM     11  O   UNL     1     135.528 146.757 108.047  1.00  0.00    -0.550 OA
ENDBRANCH   8   9
ENDBRANCH   7   8
ENDBRANCH   6   7
ENDBRANCH   5   6
ENDBRANCH   4   5
ENDBRANCH   3   4
ENDBRANCH   2   3
ENDBRANCH   1   2
BRANCH   1  12
ATOM     12  C   UNL     1     130.031 143.382 105.398  1.00  0.00     0.000 C 
BRANCH  12  13
ATOM     13  C   UNL     1     129.061 142.424 106.117  1.00  0.00    -0.000 C 
BRANCH  13  14
ATOM     14  C   UNL     1     127.611 142.930 106.234  1.00  0.00    -0.000 C 
BRANCH  14  15
ATOM     15  C   UNL     1     127.286 144.181 105.397  1.00  0.00    -0.000 C 
BRANCH  15  16
ATOM     16  C   UNL     1     126.902 145.414 106.244  1.00  0.00    -0.000 C 
BRANCH  16  17
ATOM     17  C   UNL     1     127.018 145.150 107.753  1.00  0.00    -0.000 C 
BRANCH  17  18
ATOM     18  C   UNL     1     127.667 146.337 108.472  1.00  0.00    -0.000 C 
BRANCH  18  19
ATOM     19  C   UNL     1     128.750 145.862 109.449  1.00  0.00    -0.003 C 
ATOM     20  C   UNL     1     128.844 144.339 109.469  1.00  0.00     0.004 C 
ENDBRANCH  18  19
ENDBRANCH  17  18
ENDBRANCH  16  17
ENDBRANCH  15  16
ENDBRANCH  14  15
ENDBRANCH  13  14
ENDBRANCH  12  13
ENDBRANCH   1  12
TORSDOF 16
ENDMDL
MODEL 7
REMARK VINA RESULT:    -3.794      3.465      6.654
REMARK INTER + INTRA:          -9.870
REMARK INTER:                  -7.125
REMARK INTRA:                  -2.745
REMARK UNBOUND:                -2.526
REMARK SMILES CCCCCCCCCCCCCCCCCC(=O)[O-]
REMARK SMILES IDX 10 1 11 2 12 3 13 4 14 5 15 6 16 7 17 8 18 9 19 10 20 11
REMARK SMILES IDX 9 12 8 13 7 14 6 15 5 16 4 17 3 18 2 19 1 20
REMARK H PARENT
REMARK Flexibility Score: inf
ROOT
ATOM      1  C   UNL     1     126.878 146.131 106.326  1.00  0.00     0.000 C 
ENDROOT
BRANCH   1   2
ATOM      2  C   UNL     1     127.310 145.210 105.173  1.00  0.00     0.000 C 
BRANCH   2   3
ATOM      3  C   UNL     1     127.398 143.732 105.593  1.00  0.00     0.000 C 
BRANCH   3   4
ATOM      4  C   UNL     1     128.777 143.119 105.306  1.00  0.00     0.000 C 
BRANCH   4   5
ATOM      5  C   UNL     1     129.238 142.153 106.413  1.00  0.00     0.000 C 
BRANCH   5   6
ATOM      6  C   UNL     1     128.121 141.868 107.438  1.00  0.00     0.000 C 
BRANCH   6   7
ATOM      7  C   UNL     1     127.729 140.382 107.523  1.00  0.00     0.006 C 
BRANCH   7   8
ATOM      8  C   UNL     1     127.648 139.708 106.149  1.00  0.00     0.053 C 
BRANCH   8   9
ATOM      9  C   UNL     1     127.839 138.230 106.279  1.00  0.00     0.041 C 
ATOM     10  O   UNL     1     127.142 137.571 107.094  1.00  0.00    -0.550 OA
ATOM     11  O   UNL     1     128.815 137.586 105.530  1.00  0.00    -0.550 OA
ENDBRANCH   8   9
ENDBRANCH   7   8
ENDBRANCH   6   7
ENDBRANCH   5   6
ENDBRANCH   4   5
ENDBRANCH   3   4
ENDBRANCH   2   3
ENDBRANCH   1   2
BRANCH   1  12
ATOM     12  C   UNL     1     126.960 145.436 107.696  1.00  0.00     0.000 C 
BRANCH  12  13
ATOM     13  C   UNL     1     128.068 146.016 108.596  1.00  0.00    -0.000 C 
BRANCH  13  14
ATOM     14  C   UNL     1     129.192 145.030 108.967  1.00  0.00    -0.000 C 
BRANCH  14  15
ATOM     15  C   UNL     1     130.595 145.420 108.466  1.00  0.00    -0.000 C 
BRANCH  15  16
ATOM     16  C   UNL     1     130.621 145.897 106.998  1.00  0.00    -0.000 C 
BRANCH  16  17
ATOM     17  C   UNL     1     131.563 145.056 106.123  1.00  0.00    -0.000 C 
BRANCH  17  18
ATOM     18  C   UNL     1     132.396 144.094 106.978  1.00  0.00    -0.000 C 
BRANCH  18  19
ATOM     19  C   UNL     1     133.407 143.328 106.116  1.00  0.00    -0.003 C 
ATOM     20  C   UNL     1     132.860 143.084 104.712  1.00  0.00     0.004 C 
ENDBRANCH  18  19
ENDBRANCH  17  18
ENDBRANCH  16  17
ENDBRANCH  15  16
ENDBRANCH  14  15
ENDBRANCH  13  14
ENDBRANCH  12  13
ENDBRANCH   1  12
TORSDOF 16
ENDMDL
MODEL 8
REMARK VINA RESULT:    -3.778      3.587      7.086
REMARK INTER + INTRA:          -9.839
REMARK INTER:                  -7.342
REMARK INTRA:                  -2.497
REMARK UNBOUND:                -2.526
REMARK SMILES CCCCCCCCCCCCCCCCCC(=O)[O-]
REMARK SMILES IDX 10 1 11 2 12 3 13 4 14 5 15 6 16 7 17 8 18 9 19 10 20 11
REMARK SMILES IDX 9 12 8 13 7 14 6 15 5 16 4 17 3 18 2 19 1 20
REMARK H PARENT
REMARK Flexibility Score: inf
ROOT
ATOM      1  C   UNL     1     129.465 142.157 105.936  1.00  0.00     0.000 C 
ENDROOT
BRANCH   1   2
ATOM      2  C   UNL     1     128.041 142.735 105.874  1.00  0.00     0.000 C 
BRANCH   2   3
ATOM      3  C   UNL     1     127.943 143.978 104.970  1.00  0.00     0.000 C 
BRANCH   3   4
ATOM      4  C   UNL     1     127.424 145.213 105.721  1.00  0.00     0.000 C 
BRANCH   4   5
ATOM      5  C   UNL     1     127.107 144.919 107.198  1.00  0.00     0.000 C 
BRANCH   5   6
ATOM      6  C   UNL     1     127.774 145.934 108.150  1.00  0.00     0.000 C 
BRANCH   6   7
ATOM      7  C   UNL     1     128.124 145.346 109.528  1.00  0.00     0.006 C 
BRANCH   7   8
ATOM      8  C   UNL     1     128.808 143.977 109.436  1.00  0.00     0.053 C 
BRANCH   8   9
ATOM      9  C   UNL     1     127.911 142.906 109.969  1.00  0.00     0.041 C 
ATOM     10  O   UNL     1     127.962 141.742 109.494  1.00  0.00    -0.550 OA
ATOM     11  O   UNL     1     126.988 143.204 110.963  1.00  0.00    -0.550 OA
ENDBRANCH   8   9
ENDBRANCH   7   8
ENDBRANCH   6   7
ENDBRANCH   5   6
ENDBRANCH   4   5
ENDBRANCH   3   4
ENDBRANCH   2   3
ENDBRANCH   1   2
BRANCH   1  12
ATOM     12  C   UNL     1     130.531 143.169 105.483  1.00  0.00     0.000 C 
BRANCH  12  13
ATOM     13  C   UNL     1     131.360 143.729 106.655  1.00  0.00    -0.000 C 
BRANCH  13  14
ATOM     14  C   UNL     1     131.158 145.230 106.939  1.00  0.00    -0.000 C 
BRANCH  14  15
ATOM     15  C   UNL     1     131.802 146.181 105.913  1.00  0.00    -0.000 C 
BRANCH  15  16
ATOM     16  C   UNL     1     133.311 146.418 106.144  1.00  0.00    -0.000 C 
BRANCH  16  17
ATOM     17  C   UNL     1     134.162 146.005 104.935  1.00  0.00    -0.000 C 
BRANCH  17  18
ATOM     18  C   UNL     1     134.702 144.580 105.102  1.00  0.00    -0.000 C 
BRANCH  18  19
ATOM     19  C   UNL     1     134.371 143.720 103.876  1.00  0.00    -0.003 C 
ATOM     20  C   UNL     1     134.633 142.242 104.153  1.00  0.00     0.004 C 
ENDBRANCH  18  19
ENDBRANCH  17  18
ENDBRANCH  16  17
ENDBRANCH  15  16
ENDBRANCH  14  15
ENDBRANCH  13  14
ENDBRANCH  12  13
ENDBRANCH   1  12
TORSDOF 16
ENDMDL
MODEL 9
REMARK VINA RESULT:    -3.778      1.806      3.951
REMARK INTER + INTRA:          -9.838
REMARK INTER:                  -7.334
REMARK INTRA:                  -2.504
REMARK UNBOUND:                -2.526
REMARK SMILES CCCCCCCCCCCCCCCCCC(=O)[O-]
REMARK SMILES IDX 10 1 11 2 12 3 13 4 14 5 15 6 16 7 17 8 18 9 19 10 20 11
REMARK SMILES IDX 9 12 8 13 7 14 6 15 5 16 4 17 3 18 2 19 1 20
REMARK H PARENT
REMARK Flexibility Score: inf
ROOT
ATOM      1  C   UNL     1     127.653 142.926 105.985  1.00  0.00     0.000 C 
ENDROOT
BRANCH   1   2
ATOM      2  C   UNL     1     129.089 142.487 106.319  1.00  0.00     0.000 C 
BRANCH   2   3
ATOM      3  C   UNL     1     130.130 143.065 105.344  1.00  0.00     0.000 C 
BRANCH   3   4
ATOM      4  C   UNL     1     131.210 143.893 106.057  1.00  0.00     0.000 C 
BRANCH   4   5
ATOM      5  C   UNL     1     130.930 145.406 106.001  1.00  0.00     0.000 C 
BRANCH   5   6
ATOM      6  C   UNL     1     132.229 146.239 106.032  1.00  0.00     0.000 C 
BRANCH   6   7
ATOM      7  C   UNL     1     133.502 145.387 106.175  1.00  0.00     0.006 C 
BRANCH   7   8
ATOM      8  C   UNL     1     134.683 145.940 105.371  1.00  0.00     0.053 C 
BRANCH   8   9
ATOM      9  C   UNL     1     135.827 146.266 106.277  1.00  0.00     0.041 C 
ATOM     10  O   UNL     1     137.012 146.070 105.898  1.00  0.00    -0.550 OA
ATOM     11  O   UNL     1     135.585 146.747 107.557  1.00  0.00    -0.550 OA
ENDBRANCH   8   9
ENDBRANCH   7   8
ENDBRANCH   6   7
ENDBRANCH   5   6
ENDBRANCH   4   5
ENDBRANCH   3   4
ENDBRANCH   2   3
ENDBRANCH   1   2
BRANCH   1  12
ATOM     12  C   UNL     1     127.613 144.078 104.966  1.00  0.00     0.000 C 
BRANCH  12  13
ATOM     13  C   UNL     1     127.224 145.426 105.602  1.00  0.00    -0.000 C 
BRANCH  13  14
ATOM     14  C   UNL     1     126.977 145.383 107.123  1.00  0.00    -0.000 C 
BRANCH  14  15
ATOM     15  C   UNL     1     128.059 146.067 107.979  1.00  0.00    -0.000 C 
BRANCH  15  16
ATOM     16  C   UNL     1     128.663 145.152 109.066  1.00  0.00    -0.000 C 
BRANCH  16  17
ATOM     17  C   UNL     1     129.604 145.909 110.016  1.00  0.00    -0.000 C 
BRANCH  17  18
ATOM     18  C   UNL     1     131.065 145.755 109.582  1.00  0.00    -0.000 C 
BRANCH  18  19
ATOM     19  C   UNL     1     131.758 144.639 110.373  1.00  0.00    -0.003 C 
ATOM     20  C   UNL     1     132.116 143.463 109.468  1.00  0.00     0.004 C 
ENDBRANCH  18  19
ENDBRANCH  17  18
ENDBRANCH  16  17
ENDBRANCH  15  16
ENDBRANCH  14  15
ENDBRANCH  13  14
ENDBRANCH  12  13
ENDBRANCH   1  12
TORSDOF 16
ENDMDL
