MODEL 1
REMARK VINA RESULT:    -4.907      0.000      0.000
REMARK INTER + INTRA:          -8.770
REMARK INTER:                  -7.488
REMARK INTRA:                  -1.281
REMARK UNBOUND:                -1.281
REMARK SMILES CC(=O)CCC=C(C)CCC=C(C)CCC=C(C)C
REMARK SMILES IDX 10 1 11 2 12 3 13 4 14 5 15 6 16 7 18 8 17 9 19 10 9 11 7 12
REMARK SMILES IDX 6 13 8 14 5 15 4 16 2 17 3 18 1 19
REMARK H PARENT
REMARK Flexibility Score: inf
ROOT
ATOM      1  C   UNL     1     155.267 160.369 199.755  1.00  0.00     0.032 C 
ENDROOT
BRANCH   1   2
ATOM      2  C   UNL     1     154.331 160.641 200.909  1.00  0.00    -0.028 C 
ATOM      3  C   UNL     1     153.037 160.994 200.748  1.00  0.00    -0.077 C 
ATOM      4  C   UNL     1     152.403 161.073 199.381  1.00  0.00     0.039 C 
BRANCH   3   5
ATOM      5  C   UNL     1     152.220 161.345 201.970  1.00  0.00     0.034 C 
BRANCH   5   6
ATOM      6  C   UNL     1     151.181 160.252 202.249  1.00  0.00     0.032 C 
BRANCH   6   7
ATOM      7  C   UNL     1     151.717 159.236 203.226  1.00  0.00    -0.028 C 
ATOM      8  C   UNL     1     152.164 157.536 201.442  1.00  0.00     0.039 C 
ATOM      9  C   UNL     1     152.116 157.992 202.883  1.00  0.00    -0.080 C 
ATOM     10  C   UNL     1     152.627 157.059 203.950  1.00  0.00     0.039 C 
ENDBRANCH   6   7
ENDBRANCH   5   6
ENDBRANCH   3   5
ENDBRANCH   1   2
BRANCH   1  11
ATOM     11  C   UNL     1     156.739 160.606 200.133  1.00  0.00     0.034 C 
BRANCH  11  12
ATOM     12  C   UNL     1     157.375 161.707 199.301  1.00  0.00    -0.077 C 
ATOM     13  C   UNL     1     158.267 162.542 199.880  1.00  0.00    -0.028 C 
ATOM     14  C   UNL     1     156.989 161.842 197.844  1.00  0.00     0.039 C 
BRANCH  13  15
ATOM     15  C   UNL     1     159.064 163.584 199.136  1.00  0.00     0.035 C 
BRANCH  15  16
ATOM     16  C   UNL     1     158.929 164.951 199.818  1.00  0.00     0.079 C 
BRANCH  16  17
ATOM     17  C   UNL     1     158.755 166.044 198.801  1.00  0.00     0.130 C 
ATOM     18  O   UNL     1     159.656 166.852 198.619  1.00  0.00    -0.300 OA
ATOM     19  C   UNL     1     157.478 166.164 198.027  1.00  0.00     0.087 C 
ENDBRANCH  16  17
ENDBRANCH  15  16
ENDBRANCH  13  15
ENDBRANCH  11  12
ENDBRANCH   1  11
TORSDOF 9
ENDMDL
MODEL 2
REMARK VINA RESULT:    -4.729      5.063      7.440
REMARK INTER + INTRA:          -8.498
REMARK INTER:                  -5.829
REMARK INTRA:                  -2.669
REMARK UNBOUND:                -1.281
REMARK SMILES CC(=O)CCC=C(C)CCC=C(C)CCC=C(C)C
REMARK SMILES IDX 10 1 11 2 12 3 13 4 14 5 15 6 16 7 18 8 17 9 19 10 9 11 7 12
REMARK SMILES IDX 6 13 8 14 5 15 4 16 2 17 3 18 1 19
REMARK H PARENT
REMARK Flexibility Score: inf
ROOT
ATOM      1  C   UNL     1     153.324 161.112 201.677  1.00  0.00     0.032 C 
ENDROOT
BRANCH   1   2
ATOM      2  C   UNL     1     152.158 161.078 200.718  1.00  0.00    -0.028 C 
ATOM      3  C   UNL     1     150.924 160.650 201.064  1.00  0.00    -0.077 C 
ATOM      4  C   UNL     1     150.598 160.237 202.478  1.00  0.00     0.039 C 
BRANCH   3   5
ATOM      5  C   UNL     1     149.859 160.560 199.996  1.00  0.00     0.034 C 
BRANCH   5   6
ATOM      6  C   UNL     1     150.461 160.038 198.685  1.00  0.00     0.032 C 
BRANCH   6   7
ATOM      7  C   UNL     1     150.925 158.612 198.835  1.00  0.00    -0.028 C 
ATOM      8  C   UNL     1     153.143 159.064 197.764  1.00  0.00     0.039 C 
ATOM      9  C   UNL     1     152.110 158.149 198.380  1.00  0.00    -0.080 C 
ATOM     10  C   UNL     1     152.463 156.698 198.581  1.00  0.00     0.039 C 
ENDBRANCH   6   7
ENDBRANCH   5   6
ENDBRANCH   3   5
ENDBRANCH   1   2
BRANCH   1  11
ATOM     11  C   UNL     1     154.578 160.440 201.093  1.00  0.00     0.034 C 
BRANCH  11  12
ATOM     12  C   UNL     1     154.527 158.926 201.212  1.00  0.00    -0.077 C 
ATOM     13  C   UNL     1     153.630 158.359 202.051  1.00  0.00    -0.028 C 
ATOM     14  C   UNL     1     155.485 158.092 200.390  1.00  0.00     0.039 C 
BRANCH  13  15
ATOM     15  C   UNL     1     153.389 156.874 202.160  1.00  0.00     0.035 C 
BRANCH  15  16
ATOM     16  C   UNL     1     151.890 156.583 202.300  1.00  0.00     0.079 C 
BRANCH  16  17
ATOM     17  C   UNL     1     151.629 155.103 202.303  1.00  0.00     0.130 C 
ATOM     18  O   UNL     1     152.011 154.421 203.244  1.00  0.00    -0.300 OA
ATOM     19  C   UNL     1     150.924 154.455 201.150  1.00  0.00     0.087 C 
ENDBRANCH  16  17
ENDBRANCH  15  16
ENDBRANCH  13  15
ENDBRANCH  11  12
ENDBRANCH   1  11
TORSDOF 9
ENDMDL
MODEL 3
REMARK VINA RESULT:    -4.675      1.896      3.502
REMARK INTER + INTRA:          -8.416
REMARK INTER:                  -7.144
REMARK INTRA:                  -1.272
REMARK UNBOUND:                -1.281
REMARK SMILES CC(=O)CCC=C(C)CCC=C(C)CCC=C(C)C
REMARK SMILES IDX 10 1 11 2 12 3 13 4 14 5 15 6 16 7 18 8 17 9 19 10 9 11 7 12
REMARK SMILES IDX 6 13 8 14 5 15 4 16 2 17 3 18 1 19
REMARK H PARENT
REMARK Flexibility Score: inf
ROOT
ATOM      1  C   UNL     1     154.643 160.652 201.036  1.00  0.00     0.032 C 
ENDROOT
BRANCH   1   2
ATOM      2  C   UNL     1     153.215 160.348 200.650  1.00  0.00    -0.028 C 
ATOM      3  C   UNL     1     152.148 160.939 201.230  1.00  0.00    -0.077 C 
ATOM      4  C   UNL     1     152.310 162.017 202.273  1.00  0.00     0.039 C 
BRANCH   3   5
ATOM      5  C   UNL     1     150.761 160.482 200.840  1.00  0.00     0.034 C 
BRANCH   5   6
ATOM      6  C   UNL     1     150.795 159.776 199.478  1.00  0.00     0.032 C 
BRANCH   6   7
ATOM      7  C   UNL     1     150.166 160.636 198.411  1.00  0.00    -0.028 C 
ATOM      8  C   UNL     1     152.331 160.969 197.195  1.00  0.00     0.039 C 
ATOM      9  C   UNL     1     150.855 161.220 197.405  1.00  0.00    -0.080 C 
ATOM     10  C   UNL     1     150.118 162.066 196.399  1.00  0.00     0.039 C 
ENDBRANCH   6   7
ENDBRANCH   5   6
ENDBRANCH   3   5
ENDBRANCH   1   2
BRANCH   1  11
ATOM     11  C   UNL     1     155.656 159.956 200.111  1.00  0.00     0.034 C 
BRANCH  11  12
ATOM     12  C   UNL     1     156.371 160.939 199.200  1.00  0.00    -0.077 C 
ATOM     13  C   UNL     1     157.323 161.749 199.719  1.00  0.00    -0.028 C 
ATOM     14  C   UNL     1     155.997 160.989 197.735  1.00  0.00     0.039 C 
BRANCH  13  15
ATOM     15  C   UNL     1     158.194 162.670 198.901  1.00  0.00     0.035 C 
BRANCH  15  16
ATOM     16  C   UNL     1     159.220 163.373 199.797  1.00  0.00     0.079 C 
BRANCH  16  17
ATOM     17  C   UNL     1     159.080 164.867 199.704  1.00  0.00     0.130 C 
ATOM     18  O   UNL     1     159.772 165.587 200.411  1.00  0.00    -0.300 OA
ATOM     19  C   UNL     1     158.082 165.478 198.768  1.00  0.00     0.087 C 
ENDBRANCH  16  17
ENDBRANCH  15  16
ENDBRANCH  13  15
ENDBRANCH  11  12
ENDBRANCH   1  11
TORSDOF 9
ENDMDL
MODEL 4
REMARK VINA RESULT:    -4.673      1.387      2.280
REMARK INTER + INTRA:          -8.413
REMARK INTER:                  -7.085
REMARK INTRA:                  -1.327
REMARK UNBOUND:                -1.281
REMARK SMILES CC(=O)CCC=C(C)CCC=C(C)CCC=C(C)C
REMARK SMILES IDX 10 1 11 2 12 3 13 4 14 5 15 6 16 7 18 8 17 9 19 10 9 11 7 12
REMARK SMILES IDX 6 13 8 14 5 15 4 16 2 17 3 18 1 19
REMARK H PARENT
REMARK Flexibility Score: inf
ROOT
ATOM      1  C   UNL     1     156.034 160.178 199.409  1.00  0.00     0.032 C 
ENDROOT
BRANCH   1   2
ATOM      2  C   UNL     1     154.921 160.879 200.150  1.00  0.00    -0.028 C 
ATOM      3  C   UNL     1     154.220 160.305 201.152  1.00  0.00    -0.077 C 
ATOM      4  C   UNL     1     154.552 158.924 201.659  1.00  0.00     0.039 C 
BRANCH   3   5
ATOM      5  C   UNL     1     153.057 161.061 201.753  1.00  0.00     0.034 C 
BRANCH   5   6
ATOM      6  C   UNL     1     151.830 160.148 201.870  1.00  0.00     0.032 C 
BRANCH   6   7
ATOM      7  C   UNL     1     150.812 160.475 200.806  1.00  0.00    -0.028 C 
ATOM      8  C   UNL     1     151.528 158.583 199.329  1.00  0.00     0.039 C 
ATOM      9  C   UNL     1     150.700 159.809 199.635  1.00  0.00    -0.080 C 
ATOM     10  C   UNL     1     149.647 160.233 198.644  1.00  0.00     0.039 C 
ENDBRANCH   6   7
ENDBRANCH   5   6
ENDBRANCH   3   5
ENDBRANCH   1   2
BRANCH   1  11
ATOM     11  C   UNL     1     157.426 160.619 199.895  1.00  0.00     0.034 C 
BRANCH  11  12
ATOM     12  C   UNL     1     157.891 161.898 199.222  1.00  0.00    -0.077 C 
ATOM     13  C   UNL     1     158.767 162.703 199.866  1.00  0.00    -0.028 C 
ATOM     14  C   UNL     1     157.358 162.241 197.848  1.00  0.00     0.039 C 
BRANCH  13  15
ATOM     15  C   UNL     1     159.405 163.926 199.255  1.00  0.00     0.035 C 
BRANCH  15  16
ATOM     16  C   UNL     1     158.755 165.201 199.805  1.00  0.00     0.079 C 
BRANCH  16  17
ATOM     17  C   UNL     1     158.556 166.216 198.714  1.00  0.00     0.130 C 
ATOM     18  O   UNL     1     159.398 167.084 198.531  1.00  0.00    -0.300 OA
ATOM     19  C   UNL     1     157.321 166.184 197.865  1.00  0.00     0.087 C 
ENDBRANCH  16  17
ENDBRANCH  15  16
ENDBRANCH  13  15
ENDBRANCH  11  12
ENDBRANCH   1  11
TORSDOF 9
ENDMDL
MODEL 5
REMARK VINA RESULT:    -4.555      3.647      4.904
REMARK INTER + INTRA:          -8.233
REMARK INTER:                  -5.873
REMARK INTRA:                  -2.359
REMARK UNBOUND:                -1.281
REMARK SMILES CC(=O)CCC=C(C)CCC=C(C)CCC=C(C)C
REMARK SMILES IDX 10 1 11 2 12 3 13 4 14 5 15 6 16 7 18 8 17 9 19 10 9 11 7 12
REMARK SMILES IDX 6 13 8 14 5 15 4 16 2 17 3 18 1 19
REMARK H PARENT
REMARK Flexibility Score: inf
ROOT
ATOM      1  C   UNL     1     151.889 161.174 199.300  1.00  0.00     0.032 C 
ENDROOT
BRANCH   1   2
ATOM      2  C   UNL     1     151.456 160.257 200.420  1.00  0.00    -0.028 C 
ATOM      3  C   UNL     1     151.637 160.545 201.727  1.00  0.00    -0.077 C 
ATOM      4  C   UNL     1     152.229 161.860 202.173  1.00  0.00     0.039 C 
BRANCH   3   5
ATOM      5  C   UNL     1     151.260 159.508 202.760  1.00  0.00     0.034 C 
BRANCH   5   6
ATOM      6  C   UNL     1     152.350 158.433 202.858  1.00  0.00     0.032 C 
BRANCH   6   7
ATOM      7  C   UNL     1     151.756 157.053 202.732  1.00  0.00    -0.028 C 
ATOM      8  C   UNL     1     152.626 156.730 200.406  1.00  0.00     0.039 C 
ATOM      9  C   UNL     1     151.831 156.295 201.615  1.00  0.00    -0.080 C 
ATOM     10  C   UNL     1     151.191 154.931 201.604  1.00  0.00     0.039 C 
ENDBRANCH   6   7
ENDBRANCH   5   6
ENDBRANCH   3   5
ENDBRANCH   1   2
BRANCH   1  11
ATOM     11  C   UNL     1     152.722 160.439 198.236  1.00  0.00     0.034 C 
BRANCH  11  12
ATOM     12  C   UNL     1     154.088 160.029 198.758  1.00  0.00    -0.077 C 
ATOM     13  C   UNL     1     154.712 160.815 199.664  1.00  0.00    -0.028 C 
ATOM     14  C   UNL     1     154.716 158.752 198.246  1.00  0.00     0.039 C 
BRANCH  13  15
ATOM     15  C   UNL     1     156.003 160.454 200.356  1.00  0.00     0.035 C 
BRANCH  15  16
ATOM     16  C   UNL     1     155.723 159.639 201.624  1.00  0.00     0.079 C 
BRANCH  16  17
ATOM     17  C   UNL     1     156.336 158.270 201.529  1.00  0.00     0.130 C 
ATOM     18  O   UNL     1     157.234 158.062 200.724  1.00  0.00    -0.300 OA
ATOM     19  C   UNL     1     155.839 157.154 202.396  1.00  0.00     0.087 C 
ENDBRANCH  16  17
ENDBRANCH  15  16
ENDBRANCH  13  15
ENDBRANCH  11  12
ENDBRANCH   1  11
TORSDOF 9
ENDMDL
MODEL 6
REMARK VINA RESULT:    -4.541      4.036      6.363
REMARK INTER + INTRA:          -8.212
REMARK INTER:                  -5.759
REMARK INTRA:                  -2.453
REMARK UNBOUND:                -1.281
REMARK SMILES CC(=O)CCC=C(C)CCC=C(C)CCC=C(C)C
REMARK SMILES IDX 10 1 11 2 12 3 13 4 14 5 15 6 16 7 18 8 17 9 19 10 9 11 7 12
REMARK SMILES IDX 6 13 8 14 5 15 4 16 2 17 3 18 1 19
REMARK H PARENT
REMARK Flexibility Score: inf
ROOT
ATOM      1  C   UNL     1     152.244 161.512 201.324  1.00  0.00     0.032 C 
ENDROOT
BRANCH   1   2
ATOM      2  C   UNL     1     153.438 160.701 201.770  1.00  0.00    -0.028 C 
ATOM      3  C   UNL     1     154.407 160.283 200.927  1.00  0.00    -0.077 C 
ATOM      4  C   UNL     1     154.404 160.663 199.467  1.00  0.00     0.039 C 
BRANCH   3   5
ATOM      5  C   UNL     1     155.502 159.389 201.463  1.00  0.00     0.034 C 
BRANCH   5   6
ATOM      6  C   UNL     1     154.897 158.159 202.152  1.00  0.00     0.032 C 
BRANCH   6   7
ATOM      7  C   UNL     1     154.074 157.349 201.183  1.00  0.00    -0.028 C 
ATOM      8  C   UNL     1     152.028 157.425 202.625  1.00  0.00     0.039 C 
ATOM      9  C   UNL     1     152.796 156.969 201.406  1.00  0.00    -0.080 C 
ATOM     10  C   UNL     1     152.076 156.151 200.365  1.00  0.00     0.039 C 
ENDBRANCH   6   7
ENDBRANCH   5   6
ENDBRANCH   3   5
ENDBRANCH   1   2
BRANCH   1  11
ATOM     11  C   UNL     1     150.919 160.760 201.536  1.00  0.00     0.034 C 
BRANCH  11  12
ATOM     12  C   UNL     1     150.313 160.284 200.227  1.00  0.00    -0.077 C 
ATOM     13  C   UNL     1     151.068 159.552 199.377  1.00  0.00    -0.028 C 
ATOM     14  C   UNL     1     148.879 160.646 199.907  1.00  0.00     0.039 C 
BRANCH  13  15
ATOM     15  C   UNL     1     150.547 158.910 198.115  1.00  0.00     0.035 C 
BRANCH  15  16
ATOM     16  C   UNL     1     151.437 159.275 196.921  1.00  0.00     0.079 C 
BRANCH  16  17
ATOM     17  C   UNL     1     151.189 160.690 196.478  1.00  0.00     0.130 C 
ATOM     18  O   UNL     1     152.136 161.438 196.277  1.00  0.00    -0.300 OA
ATOM     19  C   UNL     1     149.790 161.196 196.304  1.00  0.00     0.087 C 
ENDBRANCH  16  17
ENDBRANCH  15  16
ENDBRANCH  13  15
ENDBRANCH  11  12
ENDBRANCH   1  11
TORSDOF 9
ENDMDL
MODEL 7
REMARK VINA RESULT:    -4.514      3.841      6.676
REMARK INTER + INTRA:          -8.171
REMARK INTER:                  -5.480
REMARK INTRA:                  -2.691
REMARK UNBOUND:                -1.281
REMARK SMILES CC(=O)CCC=C(C)CCC=C(C)CCC=C(C)C
REMARK SMILES IDX 10 1 11 2 12 3 13 4 14 5 15 6 16 7 18 8 17 9 19 10 9 11 7 12
REMARK SMILES IDX 6 13 8 14 5 15 4 16 2 17 3 18 1 19
REMARK H PARENT
REMARK Flexibility Score: inf
ROOT
ATOM      1  C   UNL     1     151.857 157.373 202.682  1.00  0.00     0.032 C 
ENDROOT
BRANCH   1   2
ATOM      2  C   UNL     1     153.001 156.909 201.810  1.00  0.00    -0.028 C 
ATOM      3  C   UNL     1     152.932 156.857 200.462  1.00  0.00    -0.077 C 
ATOM      4  C   UNL     1     151.713 157.335 199.713  1.00  0.00     0.039 C 
BRANCH   3   5
ATOM      5  C   UNL     1     154.099 156.277 199.696  1.00  0.00     0.034 C 
BRANCH   5   6
ATOM      6  C   UNL     1     155.412 156.923 200.154  1.00  0.00     0.032 C 
BRANCH   6   7
ATOM      7  C   UNL     1     155.550 158.317 199.595  1.00  0.00    -0.028 C 
ATOM      8  C   UNL     1     156.098 159.317 201.825  1.00  0.00     0.039 C 
ATOM      9  C   UNL     1     155.809 159.412 200.345  1.00  0.00    -0.080 C 
ATOM     10  C   UNL     1     155.917 160.757 199.675  1.00  0.00     0.039 C 
ENDBRANCH   6   7
ENDBRANCH   5   6
ENDBRANCH   3   5
ENDBRANCH   1   2
BRANCH   1  11
ATOM     11  C   UNL     1     152.119 158.759 203.296  1.00  0.00     0.034 C 
BRANCH  11  12
ATOM     12  C   UNL     1     151.660 159.885 202.386  1.00  0.00    -0.077 C 
ATOM     13  C   UNL     1     152.557 160.481 201.568  1.00  0.00    -0.028 C 
ATOM     14  C   UNL     1     150.210 160.314 202.423  1.00  0.00     0.039 C 
BRANCH  13  15
ATOM     15  C   UNL     1     152.203 161.514 200.528  1.00  0.00     0.035 C 
BRANCH  15  16
ATOM     16  C   UNL     1     152.339 160.925 199.118  1.00  0.00     0.079 C 
BRANCH  16  17
ATOM     17  C   UNL     1     151.013 160.919 198.409  1.00  0.00     0.130 C 
ATOM     18  O   UNL     1     150.061 160.337 198.910  1.00  0.00    -0.300 OA
ATOM     19  C   UNL     1     150.858 161.600 197.084  1.00  0.00     0.087 C 
ENDBRANCH  16  17
ENDBRANCH  15  16
ENDBRANCH  13  15
ENDBRANCH  11  12
ENDBRANCH   1  11
TORSDOF 9
ENDMDL
MODEL 8
REMARK VINA RESULT:    -4.504      4.295      5.968
REMARK INTER + INTRA:          -8.156
REMARK INTER:                  -5.395
REMARK INTRA:                  -2.760
REMARK UNBOUND:                -1.281
REMARK SMILES CC(=O)CCC=C(C)CCC=C(C)CCC=C(C)C
REMARK SMILES IDX 10 1 11 2 12 3 13 4 14 5 15 6 16 7 18 8 17 9 19 10 9 11 7 12
REMARK SMILES IDX 6 13 8 14 5 15 4 16 2 17 3 18 1 19
REMARK H PARENT
REMARK Flexibility Score: inf
ROOT
ATOM      1  C   UNL     1     154.941 160.489 200.836  1.00  0.00     0.032 C 
ENDROOT
BRANCH   1   2
ATOM      2  C   UNL     1     153.879 159.750 201.616  1.00  0.00    -0.028 C 
ATOM      3  C   UNL     1     152.662 160.267 201.886  1.00  0.00    -0.077 C 
ATOM      4  C   UNL     1     152.240 161.616 201.357  1.00  0.00     0.039 C 
BRANCH   3   5
ATOM      5  C   UNL     1     151.715 159.482 202.764  1.00  0.00     0.034 C 
BRANCH   5   6
ATOM      6  C   UNL     1     152.316 158.112 203.105  1.00  0.00     0.032 C 
BRANCH   6   7
ATOM      7  C   UNL     1     151.634 157.016 202.324  1.00  0.00    -0.028 C 
ATOM      8  C   UNL     1     153.790 156.118 201.419  1.00  0.00     0.039 C 
ATOM      9  C   UNL     1     152.283 156.143 201.522  1.00  0.00    -0.080 C 
ATOM     10  C   UNL     1     151.493 155.093 200.784  1.00  0.00     0.039 C 
ENDBRANCH   6   7
ENDBRANCH   5   6
ENDBRANCH   3   5
ENDBRANCH   1   2
BRANCH   1  11
ATOM     11  C   UNL     1     155.246 159.817 199.486  1.00  0.00     0.034 C 
BRANCH  11  12
ATOM     12  C   UNL     1     153.996 159.628 198.644  1.00  0.00    -0.077 C 
ATOM     13  C   UNL     1     153.351 158.439 198.676  1.00  0.00    -0.028 C 
ATOM     14  C   UNL     1     153.507 160.775 197.787  1.00  0.00     0.039 C 
BRANCH  13  15
ATOM     15  C   UNL     1     152.033 158.169 197.994  1.00  0.00     0.035 C 
BRANCH  15  16
ATOM     16  C   UNL     1     150.868 158.424 198.957  1.00  0.00     0.079 C 
BRANCH  16  17
ATOM     17  C   UNL     1     150.050 159.604 198.510  1.00  0.00     0.130 C 
ATOM     18  O   UNL     1     150.057 159.935 197.332  1.00  0.00    -0.300 OA
ATOM     19  C   UNL     1     149.246 160.389 199.500  1.00  0.00     0.087 C 
ENDBRANCH  16  17
ENDBRANCH  15  16
ENDBRANCH  13  15
ENDBRANCH  11  12
ENDBRANCH   1  11
TORSDOF 9
ENDMDL
MODEL 9
REMARK VINA RESULT:    -4.443      1.647      2.840
REMARK INTER + INTRA:          -8.062
REMARK INTER:                  -6.207
REMARK INTRA:                  -1.855
REMARK UNBOUND:                -1.281
REMARK SMILES CC(=O)CCC=C(C)CCC=C(C)CCC=C(C)C
REMARK SMILES IDX 10 1 11 2 12 3 13 4 14 5 15 6 16 7 18 8 17 9 19 10 9 11 7 12
REMARK SMILES IDX 6 13 8 14 5 15 4 16 2 17 3 18 1 19
REMARK H PARENT
REMARK Flexibility Score: inf
ROOT
ATOM      1  C   UNL     1     152.518 161.073 199.430  1.00  0.00     0.032 C 
ENDROOT
BRANCH   1   2
ATOM      2  C   UNL     1     151.825 160.235 200.478  1.00  0.00    -0.028 C 
ATOM      3  C   UNL     1     151.764 160.580 201.782  1.00  0.00    -0.077 C 
ATOM      4  C   UNL     1     152.332 161.885 202.283  1.00  0.00     0.039 C 
BRANCH   3   5
ATOM      5  C   UNL     1     151.136 159.615 202.762  1.00  0.00     0.034 C 
BRANCH   5   6
ATOM      6  C   UNL     1     151.659 158.194 202.521  1.00  0.00     0.032 C 
BRANCH   6   7
ATOM      7  C   UNL     1     153.136 158.106 202.816  1.00  0.00    -0.028 C 
ATOM      8  C   UNL     1     153.668 157.065 200.601  1.00  0.00     0.039 C 
ATOM      9  C   UNL     1     154.044 157.554 201.981  1.00  0.00    -0.080 C 
ATOM     10  C   UNL     1     155.494 157.515 202.388  1.00  0.00     0.039 C 
ENDBRANCH   6   7
ENDBRANCH   5   6
ENDBRANCH   3   5
ENDBRANCH   1   2
BRANCH   1  11
ATOM     11  C   UNL     1     153.561 160.267 198.637  1.00  0.00     0.034 C 
BRANCH  11  12
ATOM     12  C   UNL     1     154.983 160.589 199.065  1.00  0.00    -0.077 C 
ATOM     13  C   UNL     1     155.935 160.760 198.119  1.00  0.00    -0.028 C 
ATOM     14  C   UNL     1     155.297 160.708 200.539  1.00  0.00     0.039 C 
BRANCH  13  15
ATOM     15  C   UNL     1     157.345 161.211 198.405  1.00  0.00     0.035 C 
BRANCH  15  16
ATOM     16  C   UNL     1     157.499 162.709 198.112  1.00  0.00     0.079 C 
BRANCH  16  17
ATOM     17  C   UNL     1     158.539 163.327 199.005  1.00  0.00     0.130 C 
ATOM     18  O   UNL     1     158.640 162.954 200.166  1.00  0.00    -0.300 OA
ATOM     19  C   UNL     1     159.434 164.411 198.489  1.00  0.00     0.087 C 
ENDBRANCH  16  17
ENDBRANCH  15  16
ENDBRANCH  13  15
ENDBRANCH  11  12
ENDBRANCH   1  11
TORSDOF 9
ENDMDL
