MODEL 1
REMARK VINA RESULT:    -3.871      0.000      0.000
REMARK INTER + INTRA:          -6.020
REMARK INTER:                  -5.682
REMARK INTRA:                  -0.338
REMARK UNBOUND:                -0.338
REMARK SMILES O=C([O-])CCCCCCCC(=O)[O-]
REMARK SMILES IDX 7 1 6 2 5 3 4 4 2 5 1 6 3 7 8 8 9 9 10 10 11 11 12 12 13 13
REMARK H PARENT
REMARK Flexibility Score: inf
ROOT
ATOM      1  C   UNL     1      26.279   4.933  41.383  1.00  0.00     0.000 C 
ENDROOT
BRANCH   1   2
ATOM      2  C   UNL     1      25.034   4.604  40.535  1.00  0.00     0.000 C 
BRANCH   2   3
ATOM      3  C   UNL     1      25.101   3.267  39.770  1.00  0.00     0.006 C 
BRANCH   3   4
ATOM      4  C   UNL     1      24.260   2.139  40.387  1.00  0.00     0.053 C 
BRANCH   4   5
ATOM      5  C   UNL     1      23.547   1.338  39.341  1.00  0.00     0.041 C 
ATOM      6  O   UNL     1      22.971   1.917  38.383  1.00  0.00    -0.550 OA
ATOM      7  O   UNL     1      23.545  -0.048  39.409  1.00  0.00    -0.550 OA
ENDBRANCH   4   5
ENDBRANCH   3   4
ENDBRANCH   2   3
ENDBRANCH   1   2
BRANCH   1   8
ATOM      8  C   UNL     1      27.504   4.036  41.123  1.00  0.00     0.000 C 
BRANCH   8   9
ATOM      9  C   UNL     1      28.795   4.789  40.754  1.00  0.00     0.006 C 
BRANCH   9  10
ATOM     10  C   UNL     1      29.384   4.338  39.411  1.00  0.00     0.053 C 
BRANCH  10  11
ATOM     11  C   UNL     1      30.580   5.165  39.062  1.00  0.00     0.041 C 
ATOM     12  O   UNL     1      30.508   6.032  38.150  1.00  0.00    -0.550 OA
ATOM     13  O   UNL     1      31.790   4.946  39.708  1.00  0.00    -0.550 OA
ENDBRANCH  10  11
ENDBRANCH   9  10
ENDBRANCH   8   9
ENDBRANCH   1   8
TORSDOF 8
ENDMDL
MODEL 2
REMARK VINA RESULT:    -3.730      0.925      6.937
REMARK INTER + INTRA:          -5.813
REMARK INTER:                  -5.574
REMARK INTRA:                  -0.238
REMARK UNBOUND:                -0.338
REMARK SMILES O=C([O-])CCCCCCCC(=O)[O-]
REMARK SMILES IDX 7 1 6 2 5 3 4 4 2 5 1 6 3 7 8 8 9 9 10 10 11 11 12 12 13 13
REMARK H PARENT
REMARK Flexibility Score: inf
ROOT
ATOM      1  C   UNL     1      26.351   4.718  41.123  1.00  0.00     0.000 C 
ENDROOT
BRANCH   1   2
ATOM      2  C   UNL     1      27.752   4.085  41.011  1.00  0.00     0.000 C 
BRANCH   2   3
ATOM      3  C   UNL     1      28.870   5.052  40.571  1.00  0.00     0.006 C 
BRANCH   3   4
ATOM      4  C   UNL     1      29.668   4.582  39.344  1.00  0.00     0.053 C 
BRANCH   4   5
ATOM      5  C   UNL     1      30.952   5.338  39.190  1.00  0.00     0.041 C 
ATOM      6  O   UNL     1      31.947   5.052  39.906  1.00  0.00    -0.550 OA
ATOM      7  O   UNL     1      31.058   6.338  38.233  1.00  0.00    -0.550 OA
ENDBRANCH   4   5
ENDBRANCH   3   4
ENDBRANCH   2   3
ENDBRANCH   1   2
BRANCH   1   8
ATOM      8  C   UNL     1      25.174   3.730  41.004  1.00  0.00     0.000 C 
BRANCH   8   9
ATOM      9  C   UNL     1      25.202   2.835  39.752  1.00  0.00     0.006 C 
BRANCH   9  10
ATOM     10  C   UNL     1      23.842   2.191  39.451  1.00  0.00     0.053 C 
BRANCH  10  11
ATOM     11  C   UNL     1      23.715   0.882  40.164  1.00  0.00     0.041 C 
ATOM     12  O   UNL     1      23.923  -0.198  39.549  1.00  0.00    -0.550 OA
ATOM     13  O   UNL     1      23.319   0.852  41.494  1.00  0.00    -0.550 OA
ENDBRANCH  10  11
ENDBRANCH   9  10
ENDBRANCH   8   9
ENDBRANCH   1   8
TORSDOF 8
ENDMDL
MODEL 3
REMARK VINA RESULT:    -3.683      8.790     10.815
REMARK INTER + INTRA:          -5.743
REMARK INTER:                  -5.228
REMARK INTRA:                  -0.515
REMARK UNBOUND:                -0.338
REMARK SMILES O=C([O-])CCCCCCCC(=O)[O-]
REMARK SMILES IDX 7 1 6 2 5 3 4 4 2 5 1 6 3 7 8 8 9 9 10 10 11 11 12 12 13 13
REMARK H PARENT
REMARK Flexibility Score: inf
ROOT
ATOM      1  C   UNL     1      31.774   5.383  46.090  1.00  0.00     0.000 C 
ENDROOT
BRANCH   1   2
ATOM      2  C   UNL     1      32.591   6.166  45.043  1.00  0.00     0.000 C 
BRANCH   2   3
ATOM      3  C   UNL     1      33.456   7.308  45.613  1.00  0.00     0.006 C 
BRANCH   3   4
ATOM      4  C   UNL     1      33.361   8.628  44.831  1.00  0.00     0.053 C 
BRANCH   4   5
ATOM      5  C   UNL     1      31.955   9.145  44.777  1.00  0.00     0.041 C 
ATOM      6  O   UNL     1      31.343   9.204  43.679  1.00  0.00    -0.550 OA
ATOM      7  O   UNL     1      31.312   9.530  45.945  1.00  0.00    -0.550 OA
ENDBRANCH   4   5
ENDBRANCH   3   4
ENDBRANCH   2   3
ENDBRANCH   1   2
BRANCH   1   8
ATOM      8  C   UNL     1      31.187   6.234  47.233  1.00  0.00     0.000 C 
BRANCH   8   9
ATOM      9  C   UNL     1      31.817   5.989  48.616  1.00  0.00     0.006 C 
BRANCH   9  10
ATOM     10  C   UNL     1      31.067   4.929  49.432  1.00  0.00     0.053 C 
BRANCH  10  11
ATOM     11  C   UNL     1      31.998   3.836  49.850  1.00  0.00     0.041 C 
ATOM     12  O   UNL     1      32.577   3.888  50.968  1.00  0.00    -0.550 OA
ATOM     13  O   UNL     1      32.266   2.784  48.984  1.00  0.00    -0.550 OA
ENDBRANCH  10  11
ENDBRANCH   9  10
ENDBRANCH   8   9
ENDBRANCH   1   8
TORSDOF 8
ENDMDL
MODEL 4
REMARK VINA RESULT:    -3.682      7.707     10.228
REMARK INTER + INTRA:          -5.742
REMARK INTER:                  -5.490
REMARK INTRA:                  -0.253
REMARK UNBOUND:                -0.338
REMARK SMILES O=C([O-])CCCCCCCC(=O)[O-]
REMARK SMILES IDX 7 1 6 2 5 3 4 4 2 5 1 6 3 7 8 8 9 9 10 10 11 11 12 12 13 13
REMARK H PARENT
REMARK Flexibility Score: inf
ROOT
ATOM      1  C   UNL     1      31.341   6.985  46.232  1.00  0.00     0.000 C 
ENDROOT
BRANCH   1   2
ATOM      2  C   UNL     1      31.753   5.878  45.241  1.00  0.00     0.000 C 
BRANCH   2   3
ATOM      3  C   UNL     1      33.097   6.115  44.522  1.00  0.00     0.006 C 
BRANCH   3   4
ATOM      4  C   UNL     1      32.984   6.906  43.209  1.00  0.00     0.053 C 
BRANCH   4   5
ATOM      5  C   UNL     1      33.420   6.093  42.028  1.00  0.00     0.041 C 
ATOM      6  O   UNL     1      34.432   6.435  41.362  1.00  0.00    -0.550 OA
ATOM      7  O   UNL     1      32.725   4.942  41.684  1.00  0.00    -0.550 OA
ENDBRANCH   4   5
ENDBRANCH   3   4
ENDBRANCH   2   3
ENDBRANCH   1   2
BRANCH   1   8
ATOM      8  C   UNL     1      30.770   6.483  47.573  1.00  0.00     0.000 C 
BRANCH   8   9
ATOM      9  C   UNL     1      31.807   5.875  48.533  1.00  0.00     0.006 C 
BRANCH   9  10
ATOM     10  C   UNL     1      31.179   4.934  49.569  1.00  0.00     0.053 C 
BRANCH  10  11
ATOM     11  C   UNL     1      32.183   3.930  50.039  1.00  0.00     0.041 C 
ATOM     12  O   UNL     1      32.633   3.985  51.215  1.00  0.00    -0.550 OA
ATOM     13  O   UNL     1      32.659   2.962  49.165  1.00  0.00    -0.550 OA
ENDBRANCH  10  11
ENDBRANCH   9  10
ENDBRANCH   8   9
ENDBRANCH   1   8
TORSDOF 8
ENDMDL
MODEL 5
REMARK VINA RESULT:    -3.648     16.664     18.527
REMARK INTER + INTRA:          -5.691
REMARK INTER:                  -4.828
REMARK INTRA:                  -0.863
REMARK UNBOUND:                -0.338
REMARK SMILES O=C([O-])CCCCCCCC(=O)[O-]
REMARK SMILES IDX 7 1 6 2 5 3 4 4 2 5 1 6 3 7 8 8 9 9 10 10 11 11 12 12 13 13
REMARK H PARENT
REMARK Flexibility Score: inf
ROOT
ATOM      1  C   UNL     1      22.431  -2.534  58.123  1.00  0.00     0.000 C 
ENDROOT
BRANCH   1   2
ATOM      2  C   UNL     1      23.759  -3.317  58.099  1.00  0.00     0.000 C 
BRANCH   2   3
ATOM      3  C   UNL     1      24.606  -3.124  56.825  1.00  0.00     0.006 C 
BRANCH   3   4
ATOM      4  C   UNL     1      23.941  -2.256  55.745  1.00  0.00     0.053 C 
BRANCH   4   5
ATOM      5  C   UNL     1      23.441  -3.078  54.597  1.00  0.00     0.041 C 
ATOM      6  O   UNL     1      23.223  -4.309  54.747  1.00  0.00    -0.550 OA
ATOM      7  O   UNL     1      23.187  -2.478  53.372  1.00  0.00    -0.550 OA
ENDBRANCH   4   5
ENDBRANCH   3   4
ENDBRANCH   2   3
ENDBRANCH   1   2
BRANCH   1   8
ATOM      8  C   UNL     1      21.162  -3.393  57.966  1.00  0.00     0.000 C 
BRANCH   8   9
ATOM      9  C   UNL     1      20.217  -2.955  56.833  1.00  0.00     0.006 C 
BRANCH   9  10
ATOM     10  C   UNL     1      20.140  -1.431  56.677  1.00  0.00     0.053 C 
BRANCH  10  11
ATOM     11  C   UNL     1      20.443  -1.035  55.267  1.00  0.00     0.041 C 
ATOM     12  O   UNL     1      19.851  -1.599  54.309  1.00  0.00    -0.550 OA
ATOM     13  O   UNL     1      21.415  -0.078  55.008  1.00  0.00    -0.550 OA
ENDBRANCH  10  11
ENDBRANCH   9  10
ENDBRANCH   8   9
ENDBRANCH   1   8
TORSDOF 8
ENDMDL
MODEL 6
REMARK VINA RESULT:    -3.597      6.887      9.208
REMARK INTER + INTRA:          -5.617
REMARK INTER:                  -5.329
REMARK INTRA:                  -0.288
REMARK UNBOUND:                -0.338
REMARK SMILES O=C([O-])CCCCCCCC(=O)[O-]
REMARK SMILES IDX 7 1 6 2 5 3 4 4 2 5 1 6 3 7 8 8 9 9 10 10 11 11 12 12 13 13
REMARK H PARENT
REMARK Flexibility Score: inf
ROOT
ATOM      1  C   UNL     1      30.428   6.111  45.604  1.00  0.00     0.000 C 
ENDROOT
BRANCH   1   2
ATOM      2  C   UNL     1      30.444   6.013  47.143  1.00  0.00     0.000 C 
BRANCH   2   3
ATOM      3  C   UNL     1      31.534   5.090  47.725  1.00  0.00     0.006 C 
BRANCH   3   4
ATOM      4  C   UNL     1      31.738   5.228  49.242  1.00  0.00     0.053 C 
BRANCH   4   5
ATOM      5  C   UNL     1      32.215   3.950  49.860  1.00  0.00     0.041 C 
ATOM      6  O   UNL     1      32.379   2.924  49.149  1.00  0.00    -0.550 OA
ATOM      7  O   UNL     1      32.508   3.901  51.216  1.00  0.00    -0.550 OA
ENDBRANCH   4   5
ENDBRANCH   3   4
ENDBRANCH   2   3
ENDBRANCH   1   2
BRANCH   1   8
ATOM      8  C   UNL     1      31.689   6.734  44.974  1.00  0.00     0.000 C 
BRANCH   8   9
ATOM      9  C   UNL     1      32.424   5.834  43.965  1.00  0.00     0.006 C 
BRANCH   9  10
ATOM     10  C   UNL     1      31.517   5.357  42.823  1.00  0.00     0.053 C 
BRANCH  10  11
ATOM     11  C   UNL     1      32.307   5.192  41.563  1.00  0.00     0.041 C 
ATOM     12  O   UNL     1      31.717   5.056  40.458  1.00  0.00    -0.550 OA
ATOM     13  O   UNL     1      33.693   5.138  41.615  1.00  0.00    -0.550 OA
ENDBRANCH  10  11
ENDBRANCH   9  10
ENDBRANCH   8   9
ENDBRANCH   1   8
TORSDOF 8
ENDMDL
MODEL 7
REMARK VINA RESULT:    -3.572     16.662     18.222
REMARK INTER + INTRA:          -5.580
REMARK INTER:                  -5.099
REMARK INTRA:                  -0.481
REMARK UNBOUND:                -0.338
REMARK SMILES O=C([O-])CCCCCCCC(=O)[O-]
REMARK SMILES IDX 7 1 6 2 5 3 4 4 2 5 1 6 3 7 8 8 9 9 10 10 11 11 12 12 13 13
REMARK H PARENT
REMARK Flexibility Score: inf
ROOT
ATOM      1  C   UNL     1      23.420  -2.632  54.186  1.00  0.00     0.000 C 
ENDROOT
BRANCH   1   2
ATOM      2  C   UNL     1      23.110  -4.140  54.104  1.00  0.00     0.000 C 
BRANCH   2   3
ATOM      3  C   UNL     1      24.231  -5.003  53.492  1.00  0.00     0.006 C 
BRANCH   3   4
ATOM      4  C   UNL     1      23.776  -5.911  52.338  1.00  0.00     0.053 C 
BRANCH   4   5
ATOM      5  C   UNL     1      22.683  -6.844  52.760  1.00  0.00     0.041 C 
ATOM      6  O   UNL     1      22.909  -7.742  53.612  1.00  0.00    -0.550 OA
ATOM      7  O   UNL     1      21.406  -6.700  52.235  1.00  0.00    -0.550 OA
ENDBRANCH   4   5
ENDBRANCH   3   4
ENDBRANCH   2   3
ENDBRANCH   1   2
BRANCH   1   8
ATOM      8  C   UNL     1      23.723  -2.101  55.601  1.00  0.00     0.000 C 
BRANCH   8   9
ATOM      9  C   UNL     1      24.462  -3.090  56.521  1.00  0.00     0.006 C 
BRANCH   9  10
ATOM     10  C   UNL     1      23.809  -3.218  57.903  1.00  0.00     0.053 C 
BRANCH  10  11
ATOM     11  C   UNL     1      22.353  -3.534  57.766  1.00  0.00     0.041 C 
ATOM     12  O   UNL     1      21.485  -2.695  58.125  1.00  0.00    -0.550 OA
ATOM     13  O   UNL     1      21.954  -4.775  57.287  1.00  0.00    -0.550 OA
ENDBRANCH  10  11
ENDBRANCH   9  10
ENDBRANCH   8   9
ENDBRANCH   1   8
TORSDOF 8
ENDMDL
MODEL 8
REMARK VINA RESULT:    -3.535     16.481     18.046
REMARK INTER + INTRA:          -5.526
REMARK INTER:                  -4.621
REMARK INTRA:                  -0.905
REMARK UNBOUND:                -0.338
REMARK SMILES O=C([O-])CCCCCCCC(=O)[O-]
REMARK SMILES IDX 7 1 6 2 5 3 4 4 2 5 1 6 3 7 8 8 9 9 10 10 11 11 12 12 13 13
REMARK H PARENT
REMARK Flexibility Score: inf
ROOT
ATOM      1  C   UNL     1      22.180  -2.906  58.004  1.00  0.00     0.000 C 
ENDROOT
BRANCH   1   2
ATOM      2  C   UNL     1      21.291  -4.020  57.414  1.00  0.00     0.000 C 
BRANCH   2   3
ATOM      3  C   UNL     1      20.178  -3.531  56.466  1.00  0.00     0.006 C 
BRANCH   3   4
ATOM      4  C   UNL     1      20.237  -2.031  56.138  1.00  0.00     0.053 C 
BRANCH   4   5
ATOM      5  C   UNL     1      19.997  -1.768  54.682  1.00  0.00     0.041 C 
ATOM      6  O   UNL     1      20.051  -2.712  53.850  1.00  0.00    -0.550 OA
ATOM      7  O   UNL     1      19.683  -0.487  54.251  1.00  0.00    -0.550 OA
ENDBRANCH   4   5
ENDBRANCH   3   4
ENDBRANCH   2   3
ENDBRANCH   1   2
BRANCH   1   8
ATOM      8  C   UNL     1      23.676  -3.257  58.121  1.00  0.00     0.000 C 
BRANCH   8   9
ATOM      9  C   UNL     1      24.450  -3.256  56.791  1.00  0.00     0.006 C 
BRANCH   9  10
ATOM     10  C   UNL     1      23.961  -2.174  55.819  1.00  0.00     0.053 C 
BRANCH  10  11
ATOM     11  C   UNL     1      23.554  -2.788  54.517  1.00  0.00     0.041 C 
ATOM     12  O   UNL     1      23.333  -4.026  54.441  1.00  0.00    -0.550 OA
ATOM     13  O   UNL     1      23.465  -2.002  53.376  1.00  0.00    -0.550 OA
ENDBRANCH  10  11
ENDBRANCH   9  10
ENDBRANCH   8   9
ENDBRANCH   1   8
TORSDOF 8
ENDMDL
MODEL 9
REMARK VINA RESULT:    -3.516     16.065     17.859
REMARK INTER + INTRA:          -5.498
REMARK INTER:                  -4.873
REMARK INTRA:                  -0.625
REMARK UNBOUND:                -0.338
REMARK SMILES O=C([O-])CCCCCCCC(=O)[O-]
REMARK SMILES IDX 7 1 6 2 5 3 4 4 2 5 1 6 3 7 8 8 9 9 10 10 11 11 12 12 13 13
REMARK H PARENT
REMARK Flexibility Score: inf
ROOT
ATOM      1  C   UNL     1      23.281  -1.736  54.279  1.00  0.00     0.000 C 
ENDROOT
BRANCH   1   2
ATOM      2  C   UNL     1      22.816  -2.654  53.130  1.00  0.00     0.000 C 
BRANCH   2   3
ATOM      3  C   UNL     1      22.657  -4.140  53.508  1.00  0.00     0.006 C 
BRANCH   3   4
ATOM      4  C   UNL     1      23.866  -4.743  54.240  1.00  0.00     0.053 C 
BRANCH   4   5
ATOM      5  C   UNL     1      24.761  -5.502  53.309  1.00  0.00     0.041 C 
ATOM      6  O   UNL     1      24.369  -5.792  52.148  1.00  0.00    -0.550 OA
ATOM      7  O   UNL     1      26.039  -5.863  53.714  1.00  0.00    -0.550 OA
ENDBRANCH   4   5
ENDBRANCH   3   4
ENDBRANCH   2   3
ENDBRANCH   1   2
BRANCH   1   8
ATOM      8  C   UNL     1      22.148  -1.079  55.091  1.00  0.00     0.000 C 
BRANCH   8   9
ATOM      9  C   UNL     1      22.411  -0.973  56.604  1.00  0.00     0.006 C 
BRANCH   9  10
ATOM     10  C   UNL     1      21.728  -2.087  57.407  1.00  0.00     0.053 C 
BRANCH  10  11
ATOM     11  C   UNL     1      22.639  -3.266  57.543  1.00  0.00     0.041 C 
ATOM     12  O   UNL     1      23.878  -3.096  57.697  1.00  0.00    -0.550 OA
ATOM     13  O   UNL     1      22.128  -4.554  57.449  1.00  0.00    -0.550 OA
ENDBRANCH  10  11
ENDBRANCH   9  10
ENDBRANCH   8   9
ENDBRANCH   1   8
TORSDOF 8
ENDMDL
