MODEL 1
REMARK VINA RESULT:    -4.981      0.000      0.000
REMARK INTER + INTRA:         -10.912
REMARK INTER:                 -10.513
REMARK INTRA:                  -0.400
REMARK UNBOUND:                -0.400
REMARK SMILES CCC(=O)CCCCC[C@H]1NC(=O)[C@H]2CCCCN2C(=O)[C@H]([C@@H](C)CC)NC(=O)[C@@H](Cc2cn(OC)c3ccccc23)NC1=O
REMARK SMILES IDX 9 1 10 2 44 3 43 4 45 6 30 7 28 8 27 9 29 11 22 12 23 14
REMARK SMILES IDX 24 15 25 16 26 17 31 18 32 19 33 20 42 21 34 22 37 23 41 24
REMARK SMILES IDX 38 25 40 26 39 27 35 28 36 29 11 30 12 31 13 33 14 34 19 35
REMARK SMILES IDX 15 36 18 37 16 38 17 39 20 40 21 41 8 43 7 44 6 45 5 46 3 47
REMARK SMILES IDX 4 48 2 49 1 50
REMARK H PARENT 43 5 27 10 11 32
REMARK Flexibility Score: 80.00
ROOT
ATOM      1  C   UNL     1     -20.488 -28.376 -20.505  1.00  0.00     0.035 C 
ENDROOT
BRANCH   1   2
ATOM      2  C   UNL     1     -20.255 -26.963 -19.925  1.00  0.00     0.171 C 
BRANCH   2   3
ATOM      3  C   UNL     1     -19.088 -26.861 -18.972  1.00  0.00     0.243 C 
ATOM      4  N   UNL     1     -19.013 -27.641 -17.769  1.00  0.00    -0.342 N 
ATOM      5  H   UNL     1     -19.504 -28.559 -17.712  1.00  0.00     0.164 HD
ATOM      6  O   UNL     1     -18.200 -25.997 -19.210  1.00  0.00    -0.273 OA
BRANCH   4   7
ATOM      7  C   UNL     1     -18.503 -27.065 -16.527  1.00  0.00     0.175 C 
BRANCH   7   8
ATOM      8  C   UNL     1     -19.640 -26.377 -15.820  1.00  0.00     0.243 C 
ATOM      9  N   UNL     1     -20.080 -25.089 -16.280  1.00  0.00    -0.342 N 
ATOM     10  H   UNL     1     -19.615 -24.684 -17.123  1.00  0.00     0.164 HD
ATOM     11  O   UNL     1     -20.270 -26.982 -14.905  1.00  0.00    -0.273 OA
BRANCH   9  12
ATOM     12  C   UNL     1     -21.118 -24.309 -15.595  1.00  0.00     0.174 CG0
ATOM     13  G   UNL     1     -22.488 -24.681 -16.133  1.00  0.00     0.000 G0
BRANCH  12  14
ATOM     14  C   UNL     1     -20.735 -22.795 -15.632  1.00  0.00     0.018 C 
ATOM     15  C   UNL     1     -19.221 -22.489 -15.621  1.00  0.00     0.010 C 
BRANCH  14  16
ATOM     16  C   UNL     1     -21.534 -21.951 -16.663  1.00  0.00     0.002 C 
ATOM     17  C   UNL     1     -21.024 -20.529 -16.910  1.00  0.00     0.004 C 
ENDBRANCH  14  16
ENDBRANCH  12  14
ENDBRANCH   9  12
ENDBRANCH   7   8
BRANCH   7  18
ATOM     18  C   UNL     1     -17.838 -28.156 -15.668  1.00  0.00     0.073 C 
BRANCH  18  19
ATOM     19  C   UNL     1     -16.425 -28.402 -16.109  1.00  0.00    -0.016 A 
ATOM     20  C   UNL     1     -15.693 -27.635 -17.003  1.00  0.00     0.134 A 
ATOM     21  C   UNL     1     -15.632 -29.493 -15.814  1.00  0.00     0.006 A 
ATOM     22  N   UNL     1     -14.497 -28.213 -17.253  1.00  0.00    -0.191 N 
ATOM     23  C   UNL     1     -14.456 -29.355 -16.519  1.00  0.00     0.087 A 
ATOM     24  C   UNL     1     -15.881 -30.590 -14.990  1.00  0.00     0.011 A 
ATOM     25  C   UNL     1     -13.440 -30.319 -16.404  1.00  0.00     0.030 A 
ATOM     26  C   UNL     1     -14.882 -31.567 -14.875  1.00  0.00     0.001 A 
ATOM     27  C   UNL     1     -13.668 -31.430 -15.575  1.00  0.00     0.002 A 
BRANCH  22  28
ATOM     28  O   UNL     1     -13.588 -27.672 -18.151  1.00  0.00    -0.417 OA
ATOM     29  C   UNL     1     -13.239 -26.299 -18.233  1.00  0.00     0.313 C 
ENDBRANCH  22  28
ENDBRANCH  18  19
ENDBRANCH   7  18
ENDBRANCH   4   7
ENDBRANCH   2   3
BRANCH   2  30
ATOM     30  N   UNL     1     -21.458 -26.414 -19.287  1.00  0.00    -0.343 N 
ATOM     31  C   UNL     1     -21.682 -25.020 -19.003  1.00  0.00     0.243 C 
ATOM     32  H   UNL     1     -22.242 -27.082 -19.106  1.00  0.00     0.164 HD
ATOM     33  O   UNL     1     -20.709 -24.220 -18.953  1.00  0.00    -0.273 OA
BRANCH  31  34
ATOM     34  C   UNL     1     -23.070 -24.560 -18.607  1.00  0.00     0.174 C 
ATOM     35  N   UNL     1     -23.217 -24.128 -17.196  1.00  0.00    -0.329 N 
ATOM     36  C   UNL     1     -24.099 -25.658 -18.921  1.00  0.00     0.035 C 
ATOM     37  C   UNL     1     -24.548 -23.603 -16.865  1.00  0.00     0.120 C 
ATOM     38  C   UNL     1     -25.518 -25.166 -18.603  1.00  0.00     0.004 C 
ATOM     39  C   UNL     1     -25.622 -24.659 -17.159  1.00  0.00     0.022 C 
BRANCH  35  40
ATOM     40  C   UNL     1     -22.491 -24.763 -16.126  1.00  0.00     0.246 CG0
ATOM     41  O   UNL     1     -22.968 -25.807 -15.604  1.00  0.00    -0.272 OA
ATOM     42  G   UNL     1     -21.139 -24.258 -15.653  1.00  0.00     0.000 G0
ENDBRANCH  35  40
ENDBRANCH  31  34
ENDBRANCH   2  30
ENDBRANCH   1   2
BRANCH   1  43
ATOM     43  C   UNL     1     -21.212 -28.323 -21.860  1.00  0.00     0.003 C 
BRANCH  43  44
ATOM     44  C   UNL     1     -20.391 -28.953 -22.995  1.00  0.00     0.001 C 
BRANCH  44  45
ATOM     45  C   UNL     1     -19.790 -27.901 -23.942  1.00  0.00     0.008 C 
BRANCH  45  46
ATOM     46  C   UNL     1     -19.288 -26.660 -23.183  1.00  0.00     0.075 C 
BRANCH  46  47
ATOM     47  C   UNL     1     -18.308 -25.809 -23.968  1.00  0.00     0.132 C 
ATOM     48  O   UNL     1     -17.510 -25.099 -23.374  1.00  0.00    -0.300 OA
BRANCH  47  49
ATOM     49  C   UNL     1     -18.228 -25.845 -25.478  1.00  0.00     0.072 C 
ATOM     50  C   UNL     1     -18.625 -24.545 -26.175  1.00  0.00     0.012 C 
ENDBRANCH  47  49
ENDBRANCH  46  47
ENDBRANCH  45  46
ENDBRANCH  44  45
ENDBRANCH  43  44
ENDBRANCH   1  43
TORSDOF 12
ENDMDL
MODEL 2
REMARK VINA RESULT:    -4.493      1.095      2.180
REMARK INTER + INTRA:          -9.884
REMARK INTER:                  -8.934
REMARK INTRA:                  -0.950
REMARK UNBOUND:                -0.400
REMARK SMILES CCC(=O)CCCCC[C@H]1NC(=O)[C@H]2CCCCN2C(=O)[C@H]([C@@H](C)CC)NC(=O)[C@@H](Cc2cn(OC)c3ccccc23)NC1=O
REMARK SMILES IDX 9 1 10 2 44 3 43 4 45 6 30 7 28 8 27 9 29 11 22 12 23 14
REMARK SMILES IDX 24 15 25 16 26 17 31 18 32 19 33 20 42 21 34 22 37 23 41 24
REMARK SMILES IDX 38 25 40 26 39 27 35 28 36 29 11 30 12 31 13 33 14 34 19 35
REMARK SMILES IDX 15 36 18 37 16 38 17 39 20 40 21 41 8 43 7 44 6 45 5 46 3 47
REMARK SMILES IDX 4 48 2 49 1 50
REMARK H PARENT 43 5 27 10 11 32
REMARK Flexibility Score: 80.00
ROOT
ATOM      1  C   UNL     1     -20.489 -28.500 -20.468  1.00  0.00     0.035 C 
ENDROOT
BRANCH   1   2
ATOM      2  C   UNL     1     -20.255 -27.092 -19.875  1.00  0.00     0.171 C 
BRANCH   2   3
ATOM      3  C   UNL     1     -19.135 -27.015 -18.866  1.00  0.00     0.243 C 
ATOM      4  N   UNL     1     -19.168 -27.744 -17.630  1.00  0.00    -0.342 N 
ATOM      5  H   UNL     1     -19.716 -28.628 -17.560  1.00  0.00     0.164 HD
ATOM      6  O   UNL     1     -18.184 -26.217 -19.091  1.00  0.00    -0.273 OA
BRANCH   4   7
ATOM      7  C   UNL     1     -18.689 -27.143 -16.386  1.00  0.00     0.175 C 
BRANCH   7   8
ATOM      8  C   UNL     1     -19.817 -26.357 -15.773  1.00  0.00     0.243 C 
ATOM      9  N   UNL     1     -20.143 -25.062 -16.302  1.00  0.00    -0.342 N 
ATOM     10  H   UNL     1     -19.604 -24.720 -17.129  1.00  0.00     0.164 HD
ATOM     11  O   UNL     1     -20.537 -26.885 -14.877  1.00  0.00    -0.273 OA
BRANCH   9  12
ATOM     12  C   UNL     1     -21.164 -24.191 -15.708  1.00  0.00     0.174 CG0
ATOM     13  G   UNL     1     -22.544 -24.607 -16.186  1.00  0.00     0.000 G0
BRANCH  12  14
ATOM     14  C   UNL     1     -20.763 -22.697 -15.931  1.00  0.00     0.018 C 
ATOM     15  C   UNL     1     -21.289 -21.701 -14.875  1.00  0.00     0.010 C 
BRANCH  14  16
ATOM     16  C   UNL     1     -19.272 -22.477 -16.308  1.00  0.00     0.002 C 
ATOM     17  C   UNL     1     -18.264 -22.589 -15.160  1.00  0.00     0.004 C 
ENDBRANCH  14  16
ENDBRANCH  12  14
ENDBRANCH   9  12
ENDBRANCH   7   8
BRANCH   7  18
ATOM     18  C   UNL     1     -18.140 -28.232 -15.446  1.00  0.00     0.073 C 
BRANCH  18  19
ATOM     19  C   UNL     1     -16.748 -28.632 -15.841  1.00  0.00    -0.016 A 
ATOM     20  C   UNL     1     -16.086 -29.792 -15.470  1.00  0.00     0.134 A 
ATOM     21  C   UNL     1     -15.824 -27.878 -16.536  1.00  0.00     0.006 A 
ATOM     22  N   UNL     1     -14.810 -29.772 -15.915  1.00  0.00    -0.191 N 
ATOM     23  C   UNL     1     -14.648 -28.595 -16.575  1.00  0.00     0.087 A 
ATOM     24  C   UNL     1     -15.944 -26.615 -17.114  1.00  0.00     0.011 A 
ATOM     25  C   UNL     1     -13.521 -28.079 -17.236  1.00  0.00     0.030 A 
ATOM     26  C   UNL     1     -14.825 -26.080 -17.767  1.00  0.00     0.001 A 
ATOM     27  C   UNL     1     -13.622 -26.809 -17.830  1.00  0.00     0.002 A 
BRANCH  22  28
ATOM     28  O   UNL     1     -13.915 -30.795 -15.641  1.00  0.00    -0.417 OA
ATOM     29  C   UNL     1     -14.272 -32.111 -15.249  1.00  0.00     0.313 C 
ENDBRANCH  22  28
ENDBRANCH  18  19
ENDBRANCH   7  18
ENDBRANCH   4   7
ENDBRANCH   2   3
BRANCH   2  30
ATOM     30  N   UNL     1     -21.475 -26.517 -19.298  1.00  0.00    -0.343 N 
ATOM     31  C   UNL     1     -21.683 -25.119 -19.026  1.00  0.00     0.243 C 
ATOM     32  H   UNL     1     -22.281 -27.169 -19.154  1.00  0.00     0.164 HD
ATOM     33  O   UNL     1     -20.697 -24.339 -18.929  1.00  0.00    -0.273 OA
BRANCH  31  34
ATOM     34  C   UNL     1     -23.079 -24.629 -18.698  1.00  0.00     0.174 C 
ATOM     35  N   UNL     1     -23.258 -24.095 -17.327  1.00  0.00    -0.329 N 
ATOM     36  C   UNL     1     -24.104 -25.745 -18.956  1.00  0.00     0.035 C 
ATOM     37  C   UNL     1     -24.596 -23.545 -17.067  1.00  0.00     0.120 C 
ATOM     38  C   UNL     1     -25.528 -25.230 -18.710  1.00  0.00     0.004 C 
ATOM     39  C   UNL     1     -25.666 -24.618 -17.309  1.00  0.00     0.022 C 
BRANCH  35  40
ATOM     40  C   UNL     1     -22.561 -24.651 -16.196  1.00  0.00     0.246 CG0
ATOM     41  O   UNL     1     -23.087 -25.611 -15.569  1.00  0.00    -0.272 OA
ATOM     42  G   UNL     1     -21.184 -24.167 -15.776  1.00  0.00     0.000 G0
ENDBRANCH  35  40
ENDBRANCH  31  34
ENDBRANCH   2  30
ENDBRANCH   1   2
BRANCH   1  43
ATOM     43  C   UNL     1     -21.369 -28.449 -21.728  1.00  0.00     0.003 C 
BRANCH  43  44
ATOM     44  C   UNL     1     -20.855 -29.367 -22.847  1.00  0.00     0.001 C 
BRANCH  44  45
ATOM     45  C   UNL     1     -19.650 -28.769 -23.592  1.00  0.00     0.008 C 
BRANCH  45  46
ATOM     46  C   UNL     1     -19.881 -27.297 -23.978  1.00  0.00     0.075 C 
BRANCH  46  47
ATOM     47  C   UNL     1     -18.644 -26.427 -23.868  1.00  0.00     0.132 C 
ATOM     48  O   UNL     1     -17.951 -26.230 -24.856  1.00  0.00    -0.300 OA
BRANCH  47  49
ATOM     49  C   UNL     1     -18.252 -25.727 -22.585  1.00  0.00     0.072 C 
ATOM     50  C   UNL     1     -17.008 -24.845 -22.686  1.00  0.00     0.012 C 
ENDBRANCH  47  49
ENDBRANCH  46  47
ENDBRANCH  45  46
ENDBRANCH  44  45
ENDBRANCH  43  44
ENDBRANCH   1  43
TORSDOF 12
ENDMDL
MODEL 3
REMARK VINA RESULT:    -4.352      2.349      8.264
REMARK INTER + INTRA:          -9.586
REMARK INTER:                  -9.510
REMARK INTRA:                  -0.076
REMARK UNBOUND:                -0.400
REMARK SMILES CCC(=O)CCCCC[C@H]1NC(=O)[C@H]2CCCCN2C(=O)[C@H]([C@@H](C)CC)NC(=O)[C@@H](Cc2cn(OC)c3ccccc23)NC1=O
REMARK SMILES IDX 9 1 10 2 44 3 43 4 45 6 30 7 28 8 27 9 29 11 22 12 23 14
REMARK SMILES IDX 24 15 25 16 26 17 31 18 32 19 33 20 42 21 34 22 37 23 41 24
REMARK SMILES IDX 38 25 40 26 39 27 35 28 36 29 11 30 12 31 13 33 14 34 19 35
REMARK SMILES IDX 15 36 18 37 16 38 17 39 20 40 21 41 8 43 7 44 6 45 5 46 3 47
REMARK SMILES IDX 4 48 2 49 1 50
REMARK H PARENT 43 5 27 10 11 32
REMARK Flexibility Score: 80.00
ROOT
ATOM      1  C   UNL     1     -18.659 -24.933 -21.328  1.00  0.00     0.035 C 
ENDROOT
BRANCH   1   2
ATOM      2  C   UNL     1     -18.900 -25.782 -20.060  1.00  0.00     0.171 C 
BRANCH   2   3
ATOM      3  C   UNL     1     -19.930 -25.216 -19.113  1.00  0.00     0.243 C 
ATOM      4  N   UNL     1     -19.805 -23.905 -18.542  1.00  0.00    -0.342 N 
ATOM      5  H   UNL     1     -19.268 -23.166 -19.045  1.00  0.00     0.164 HD
ATOM      6  O   UNL     1     -20.883 -25.961 -18.754  1.00  0.00    -0.273 OA
BRANCH   4   7
ATOM      7  C   UNL     1     -20.168 -23.650 -17.149  1.00  0.00     0.175 C 
BRANCH   7   8
ATOM      8  C   UNL     1     -19.047 -24.134 -16.269  1.00  0.00     0.243 C 
ATOM      9  N   UNL     1     -18.663 -25.518 -16.313  1.00  0.00    -0.342 N 
ATOM     10  H   UNL     1     -19.157 -26.142 -16.990  1.00  0.00     0.164 HD
ATOM     11  O   UNL     1     -18.380 -23.304 -15.586  1.00  0.00    -0.273 OA
BRANCH   9  12
ATOM     12  C   UNL     1     -17.646 -26.093 -15.426  1.00  0.00     0.174 CG0
ATOM     13  G   UNL     1     -16.293 -26.091 -16.116  1.00  0.00     0.000 G0
BRANCH  12  14
ATOM     14  C   UNL     1     -18.153 -27.464 -14.877  1.00  0.00     0.018 C 
ATOM     15  C   UNL     1     -19.553 -27.901 -15.363  1.00  0.00     0.010 C 
BRANCH  14  16
ATOM     16  C   UNL     1     -17.098 -28.604 -14.910  1.00  0.00     0.002 C 
ATOM     17  C   UNL     1     -17.650 -30.031 -14.982  1.00  0.00     0.004 C 
ENDBRANCH  14  16
ENDBRANCH  12  14
ENDBRANCH   9  12
ENDBRANCH   7   8
BRANCH   7  18
ATOM     18  C   UNL     1     -20.484 -22.157 -16.946  1.00  0.00     0.073 C 
BRANCH  18  19
ATOM     19  C   UNL     1     -21.966 -21.916 -16.937  1.00  0.00    -0.016 A 
ATOM     20  C   UNL     1     -22.955 -22.866 -16.733  1.00  0.00     0.134 A 
ATOM     21  C   UNL     1     -22.628 -20.746 -17.251  1.00  0.00     0.006 A 
ATOM     22  N   UNL     1     -24.179 -22.318 -16.904  1.00  0.00    -0.191 N 
ATOM     23  C   UNL     1     -23.979 -21.012 -17.219  1.00  0.00     0.087 A 
ATOM     24  C   UNL     1     -22.125 -19.486 -17.571  1.00  0.00     0.011 A 
ATOM     25  C   UNL     1     -24.911 -19.995 -17.486  1.00  0.00     0.030 A 
ATOM     26  C   UNL     1     -23.041 -18.463 -17.853  1.00  0.00     0.001 A 
ATOM     27  C   UNL     1     -24.425 -18.715 -17.806  1.00  0.00     0.002 A 
BRANCH  22  28
ATOM     28  O   UNL     1     -25.344 -23.064 -16.802  1.00  0.00    -0.417 OA
ATOM     29  C   UNL     1     -25.818 -23.978 -17.779  1.00  0.00     0.313 C 
ENDBRANCH  22  28
ENDBRANCH  18  19
ENDBRANCH   7  18
ENDBRANCH   4   7
ENDBRANCH   2   3
BRANCH   2  30
ATOM     30  N   UNL     1     -17.659 -26.058 -19.326  1.00  0.00    -0.343 N 
ATOM     31  C   UNL     1     -17.359 -27.287 -18.639  1.00  0.00     0.243 C 
ATOM     32  H   UNL     1     -16.907 -25.333 -19.383  1.00  0.00     0.164 HD
ATOM     33  O   UNL     1     -18.289 -28.075 -18.316  1.00  0.00    -0.273 OA
BRANCH  31  34
ATOM     34  C   UNL     1     -15.942 -27.544 -18.169  1.00  0.00     0.174 C 
ATOM     35  N   UNL     1     -15.668 -27.187 -16.756  1.00  0.00    -0.329 N 
ATOM     36  C   UNL     1     -14.943 -26.824 -19.087  1.00  0.00     0.035 C 
ATOM     37  C   UNL     1     -14.313 -27.530 -16.302  1.00  0.00     0.120 C 
ATOM     38  C   UNL     1     -13.502 -27.150 -18.669  1.00  0.00     0.004 C 
ATOM     39  C   UNL     1     -13.267 -26.838 -17.186  1.00  0.00     0.022 C 
BRANCH  35  40
ATOM     40  C   UNL     1     -16.290 -26.053 -16.123  1.00  0.00     0.246 CG0
ATOM     41  O   UNL     1     -15.713 -24.933 -16.181  1.00  0.00    -0.272 OA
ATOM     42  G   UNL     1     -17.648 -26.145 -15.450  1.00  0.00     0.000 G0
ENDBRANCH  35  40
ENDBRANCH  31  34
ENDBRANCH   2  30
ENDBRANCH   1   2
BRANCH   1  43
ATOM     43  C   UNL     1     -17.489 -25.477 -22.164  1.00  0.00     0.003 C 
BRANCH  43  44
ATOM     44  C   UNL     1     -17.757 -25.405 -23.675  1.00  0.00     0.001 C 
BRANCH  44  45
ATOM     45  C   UNL     1     -18.578 -26.601 -24.185  1.00  0.00     0.008 C 
BRANCH  45  46
ATOM     46  C   UNL     1     -19.419 -27.244 -23.068  1.00  0.00     0.075 C 
BRANCH  46  47
ATOM     47  C   UNL     1     -20.253 -28.426 -23.523  1.00  0.00     0.132 C 
ATOM     48  O   UNL     1     -20.080 -28.896 -24.638  1.00  0.00    -0.300 OA
BRANCH  47  49
ATOM     49  C   UNL     1     -21.263 -29.104 -22.623  1.00  0.00     0.072 C 
ATOM     50  C   UNL     1     -20.993 -28.956 -21.126  1.00  0.00     0.012 C 
ENDBRANCH  47  49
ENDBRANCH  46  47
ENDBRANCH  45  46
ENDBRANCH  44  45
ENDBRANCH  43  44
ENDBRANCH   1  43
TORSDOF 12
ENDMDL
MODEL 4
REMARK VINA RESULT:    -3.839      1.614      2.118
REMARK INTER + INTRA:          -8.502
REMARK INTER:                  -9.111
REMARK INTRA:                   0.609
REMARK UNBOUND:                -0.400
REMARK SMILES CCC(=O)CCCCC[C@H]1NC(=O)[C@H]2CCCCN2C(=O)[C@H]([C@@H](C)CC)NC(=O)[C@@H](Cc2cn(OC)c3ccccc23)NC1=O
REMARK SMILES IDX 9 1 10 2 44 3 43 4 45 6 30 7 28 8 27 9 29 11 22 12 23 14
REMARK SMILES IDX 24 15 25 16 26 17 31 18 32 19 33 20 42 21 34 22 37 23 41 24
REMARK SMILES IDX 38 25 40 26 39 27 35 28 36 29 11 30 12 31 13 33 14 34 19 35
REMARK SMILES IDX 15 36 18 37 16 38 17 39 20 40 21 41 8 43 7 44 6 45 5 46 3 47
REMARK SMILES IDX 4 48 2 49 1 50
REMARK H PARENT 43 5 27 10 11 32
REMARK Flexibility Score: 80.00
ROOT
ATOM      1  C   UNL     1     -19.822 -28.169 -20.326  1.00  0.00     0.035 C 
ENDROOT
BRANCH   1   2
ATOM      2  C   UNL     1     -19.798 -26.740 -19.737  1.00  0.00     0.171 C 
BRANCH   2   3
ATOM      3  C   UNL     1     -18.802 -26.538 -18.621  1.00  0.00     0.243 C 
ATOM      4  N   UNL     1     -18.856 -27.293 -17.402  1.00  0.00    -0.342 N 
ATOM      5  H   UNL     1     -19.283 -28.244 -17.396  1.00  0.00     0.164 HD
ATOM      6  O   UNL     1     -17.951 -25.614 -18.743  1.00  0.00    -0.273 OA
BRANCH   4   7
ATOM      7  C   UNL     1     -18.585 -26.664 -16.111  1.00  0.00     0.175 C 
BRANCH   7   8
ATOM      8  C   UNL     1     -19.873 -26.091 -15.582  1.00  0.00     0.243 C 
ATOM      9  N   UNL     1     -20.261 -24.761 -15.961  1.00  0.00    -0.342 N 
ATOM     10  H   UNL     1     -19.647 -24.242 -16.629  1.00  0.00     0.164 HD
ATOM     11  O   UNL     1     -20.655 -26.819 -14.905  1.00  0.00    -0.273 OA
BRANCH   9  12
ATOM     12  C   UNL     1     -21.450 -24.091 -15.422  1.00  0.00     0.174 CG0
ATOM     13  G   UNL     1     -22.694 -24.583 -16.141  1.00  0.00     0.000 G0
BRANCH  12  14
ATOM     14  C   UNL     1     -21.212 -22.547 -15.404  1.00  0.00     0.018 C 
ATOM     15  C   UNL     1     -19.803 -22.085 -15.835  1.00  0.00     0.010 C 
BRANCH  14  16
ATOM     16  C   UNL     1     -22.361 -21.709 -16.029  1.00  0.00     0.002 C 
ATOM     17  C   UNL     1     -21.978 -20.821 -17.216  1.00  0.00     0.004 C 
ENDBRANCH  14  16
ENDBRANCH  12  14
ENDBRANCH   9  12
ENDBRANCH   7   8
BRANCH   7  18
ATOM     18  C   UNL     1     -17.944 -27.679 -15.147  1.00  0.00     0.073 C 
BRANCH  18  19
ATOM     19  C   UNL     1     -16.510 -27.934 -15.510  1.00  0.00    -0.016 A 
ATOM     20  C   UNL     1     -15.621 -27.019 -16.056  1.00  0.00     0.134 A 
ATOM     21  C   UNL     1     -15.841 -29.141 -15.490  1.00  0.00     0.006 A 
ATOM     22  N   UNL     1     -14.449 -27.622 -16.358  1.00  0.00    -0.191 N 
ATOM     23  C   UNL     1     -14.582 -28.927 -16.007  1.00  0.00     0.087 A 
ATOM     24  C   UNL     1     -16.268 -30.399 -15.067  1.00  0.00     0.011 A 
ATOM     25  C   UNL     1     -13.661 -29.985 -16.099  1.00  0.00     0.030 A 
ATOM     26  C   UNL     1     -15.365 -31.467 -15.164  1.00  0.00     0.001 A 
ATOM     27  C   UNL     1     -14.069 -31.260 -15.672  1.00  0.00     0.002 A 
BRANCH  22  28
ATOM     28  O   UNL     1     -13.402 -26.940 -16.960  1.00  0.00    -0.417 OA
ATOM     29  C   UNL     1     -13.368 -26.527 -18.317  1.00  0.00     0.313 C 
ENDBRANCH  22  28
ENDBRANCH  18  19
ENDBRANCH   7  18
ENDBRANCH   4   7
ENDBRANCH   2   3
BRANCH   2  30
ATOM     30  N   UNL     1     -21.125 -26.294 -19.297  1.00  0.00    -0.343 N 
ATOM     31  C   UNL     1     -21.442 -24.968 -18.833  1.00  0.00     0.243 C 
ATOM     32  H   UNL     1     -21.912 -26.973 -19.411  1.00  0.00     0.164 HD
ATOM     33  O   UNL     1     -20.524 -24.202 -18.432  1.00  0.00    -0.273 OA
BRANCH  31  34
ATOM     34  C   UNL     1     -22.894 -24.565 -18.680  1.00  0.00     0.174 C 
ATOM     35  N   UNL     1     -23.282 -24.092 -17.330  1.00  0.00    -0.329 N 
ATOM     36  C   UNL     1     -23.810 -25.724 -19.105  1.00  0.00     0.035 C 
ATOM     37  C   UNL     1     -24.672 -23.624 -17.234  1.00  0.00     0.120 C 
ATOM     38  C   UNL     1     -25.282 -25.294 -19.035  1.00  0.00     0.004 C 
ATOM     39  C   UNL     1     -25.637 -24.743 -17.649  1.00  0.00     0.022 C 
BRANCH  35  40
ATOM     40  C   UNL     1     -22.709 -24.652 -16.132  1.00  0.00     0.246 CG0
ATOM     41  O   UNL     1     -23.220 -25.697 -15.645  1.00  0.00    -0.272 OA
ATOM     42  G   UNL     1     -21.470 -24.067 -15.478  1.00  0.00     0.000 G0
ENDBRANCH  35  40
ENDBRANCH  31  34
ENDBRANCH   2  30
ENDBRANCH   1   2
BRANCH   1  43
ATOM     43  C   UNL     1     -20.100 -28.157 -21.838  1.00  0.00     0.003 C 
BRANCH  43  44
ATOM     44  C   UNL     1     -21.477 -28.741 -22.191  1.00  0.00     0.001 C 
BRANCH  44  45
ATOM     45  C   UNL     1     -21.478 -29.471 -23.544  1.00  0.00     0.008 C 
BRANCH  45  46
ATOM     46  C   UNL     1     -20.091 -30.039 -23.895  1.00  0.00     0.075 C 
BRANCH  46  47
ATOM     47  C   UNL     1     -20.065 -30.865 -25.167  1.00  0.00     0.132 C 
ATOM     48  O   UNL     1     -20.875 -30.639 -26.054  1.00  0.00    -0.300 OA
BRANCH  47  49
ATOM     49  C   UNL     1     -19.024 -31.933 -25.422  1.00  0.00     0.072 C 
ATOM     50  C   UNL     1     -18.614 -32.097 -26.885  1.00  0.00     0.012 C 
ENDBRANCH  47  49
ENDBRANCH  46  47
ENDBRANCH  45  46
ENDBRANCH  44  45
ENDBRANCH  43  44
ENDBRANCH   1  43
TORSDOF 12
ENDMDL
MODEL 5
REMARK VINA RESULT:    -3.309      2.558      7.900
REMARK INTER + INTRA:          -7.384
REMARK INTER:                  -7.175
REMARK INTRA:                  -0.209
REMARK UNBOUND:                -0.400
REMARK SMILES CCC(=O)CCCCC[C@H]1NC(=O)[C@H]2CCCCN2C(=O)[C@H]([C@@H](C)CC)NC(=O)[C@@H](Cc2cn(OC)c3ccccc23)NC1=O
REMARK SMILES IDX 9 1 10 2 44 3 43 4 45 6 30 7 28 8 27 9 29 11 22 12 23 14
REMARK SMILES IDX 24 15 25 16 26 17 31 18 32 19 33 20 42 21 34 22 37 23 41 24
REMARK SMILES IDX 38 25 40 26 39 27 35 28 36 29 11 30 12 31 13 33 14 34 19 35
REMARK SMILES IDX 15 36 18 37 16 38 17 39 20 40 21 41 8 43 7 44 6 45 5 46 3 47
REMARK SMILES IDX 4 48 2 49 1 50
REMARK H PARENT 43 5 27 10 11 32
REMARK Flexibility Score: 80.00
ROOT
ATOM      1  C   UNL     1     -18.339 -24.747 -21.424  1.00  0.00     0.035 C 
ENDROOT
BRANCH   1   2
ATOM      2  C   UNL     1     -18.759 -25.681 -20.267  1.00  0.00     0.171 C 
BRANCH   2   3
ATOM      3  C   UNL     1     -19.843 -25.126 -19.376  1.00  0.00     0.243 C 
ATOM      4  N   UNL     1     -19.724 -23.848 -18.731  1.00  0.00    -0.342 N 
ATOM      5  H   UNL     1     -19.126 -23.105 -19.153  1.00  0.00     0.164 HD
ATOM      6  O   UNL     1     -20.843 -25.854 -19.130  1.00  0.00    -0.273 OA
BRANCH   4   7
ATOM      7  C   UNL     1     -20.188 -23.648 -17.360  1.00  0.00     0.175 C 
BRANCH   7   8
ATOM      8  C   UNL     1     -19.148 -24.197 -16.421  1.00  0.00     0.243 C 
ATOM      9  N   UNL     1     -18.895 -25.610 -16.397  1.00  0.00    -0.342 N 
ATOM     10  H   UNL     1     -19.422 -26.214 -17.068  1.00  0.00     0.164 HD
ATOM     11  O   UNL     1     -18.429 -23.404 -15.746  1.00  0.00    -0.273 OA
BRANCH   9  12
ATOM     12  C   UNL     1     -17.966 -26.240 -15.451  1.00  0.00     0.174 CG0
ATOM     13  G   UNL     1     -16.595 -26.385 -16.088  1.00  0.00     0.000 G0
BRANCH  12  14
ATOM     14  C   UNL     1     -18.616 -27.538 -14.875  1.00  0.00     0.018 C 
ATOM     15  C   UNL     1     -20.050 -27.839 -15.362  1.00  0.00     0.010 C 
BRANCH  14  16
ATOM     16  C   UNL     1     -17.684 -28.782 -14.875  1.00  0.00     0.002 C 
ATOM     17  C   UNL     1     -18.228 -30.031 -15.573  1.00  0.00     0.004 C 
ENDBRANCH  14  16
ENDBRANCH  12  14
ENDBRANCH   9  12
ENDBRANCH   7   8
BRANCH   7  18
ATOM     18  C   UNL     1     -20.490 -22.158 -17.112  1.00  0.00     0.073 C 
BRANCH  18  19
ATOM     19  C   UNL     1     -21.963 -21.884 -17.209  1.00  0.00    -0.016 A 
ATOM     20  C   UNL     1     -22.572 -20.638 -17.219  1.00  0.00     0.134 A 
ATOM     21  C   UNL     1     -22.991 -22.805 -17.179  1.00  0.00     0.006 A 
ATOM     22  N   UNL     1     -23.917 -20.769 -17.203  1.00  0.00    -0.191 N 
ATOM     23  C   UNL     1     -24.177 -22.102 -17.183  1.00  0.00     0.087 A 
ATOM     24  C   UNL     1     -22.951 -24.197 -17.136  1.00  0.00     0.011 A 
ATOM     25  C   UNL     1     -25.406 -22.782 -17.170  1.00  0.00     0.030 A 
ATOM     26  C   UNL     1     -24.170 -24.890 -17.111  1.00  0.00     0.001 A 
ATOM     27  C   UNL     1     -25.389 -24.187 -17.132  1.00  0.00     0.002 A 
BRANCH  22  28
ATOM     28  O   UNL     1     -24.766 -19.673 -17.163  1.00  0.00    -0.417 OA
ATOM     29  C   UNL     1     -25.369 -19.065 -18.294  1.00  0.00     0.313 C 
ENDBRANCH  22  28
ENDBRANCH  18  19
ENDBRANCH   7  18
ENDBRANCH   4   7
ENDBRANCH   2   3
BRANCH   2  30
ATOM     30  N   UNL     1     -17.618 -26.104 -19.446  1.00  0.00    -0.343 N 
ATOM     31  C   UNL     1     -17.533 -27.345 -18.722  1.00  0.00     0.243 C 
ATOM     32  H   UNL     1     -16.773 -25.487 -19.462  1.00  0.00     0.164 HD
ATOM     33  O   UNL     1     -18.581 -27.993 -18.452  1.00  0.00    -0.273 OA
BRANCH  31  34
ATOM     34  C   UNL     1     -16.198 -27.779 -18.152  1.00  0.00     0.174 C 
ATOM     35  N   UNL     1     -16.006 -27.504 -16.708  1.00  0.00    -0.329 N 
ATOM     36  C   UNL     1     -15.051 -27.147 -18.956  1.00  0.00     0.035 C 
ATOM     37  C   UNL     1     -14.741 -28.015 -16.163  1.00  0.00     0.120 C 
ATOM     38  C   UNL     1     -13.696 -27.650 -18.439  1.00  0.00     0.004 C 
ATOM     39  C   UNL     1     -13.553 -27.417 -16.930  1.00  0.00     0.022 C 
BRANCH  35  40
ATOM     40  C   UNL     1     -16.549 -26.328 -16.078  1.00  0.00     0.246 CG0
ATOM     41  O   UNL     1     -15.864 -25.268 -16.077  1.00  0.00    -0.272 OA
ATOM     42  G   UNL     1     -17.943 -26.301 -15.477  1.00  0.00     0.000 G0
ENDBRANCH  35  40
ENDBRANCH  31  34
ENDBRANCH   2  30
ENDBRANCH   1   2
BRANCH   1  43
ATOM     43  C   UNL     1     -18.086 -25.529 -22.724  1.00  0.00     0.003 C 
BRANCH  43  44
ATOM     44  C   UNL     1     -19.379 -26.087 -23.340  1.00  0.00     0.001 C 
BRANCH  44  45
ATOM     45  C   UNL     1     -19.483 -27.615 -23.206  1.00  0.00     0.008 C 
BRANCH  45  46
ATOM     46  C   UNL     1     -20.437 -28.224 -24.249  1.00  0.00     0.075 C 
BRANCH  46  47
ATOM     47  C   UNL     1     -20.412 -29.739 -24.301  1.00  0.00     0.132 C 
ATOM     48  O   UNL     1     -20.585 -30.384 -23.277  1.00  0.00    -0.300 OA
BRANCH  47  49
ATOM     49  C   UNL     1     -20.242 -30.506 -25.594  1.00  0.00     0.072 C 
ATOM     50  C   UNL     1     -19.410 -31.784 -25.480  1.00  0.00     0.012 C 
ENDBRANCH  47  49
ENDBRANCH  46  47
ENDBRANCH  45  46
ENDBRANCH  44  45
ENDBRANCH  43  44
ENDBRANCH   1  43
TORSDOF 12
ENDMDL
MODEL 6
REMARK VINA RESULT:    -2.621      2.083      2.956
REMARK INTER + INTRA:          -5.932
REMARK INTER:                  -9.506
REMARK INTRA:                   3.575
REMARK UNBOUND:                -0.400
REMARK SMILES CCC(=O)CCCCC[C@H]1NC(=O)[C@H]2CCCCN2C(=O)[C@H]([C@@H](C)CC)NC(=O)[C@@H](Cc2cn(OC)c3ccccc23)NC1=O
REMARK SMILES IDX 9 1 10 2 44 3 43 4 45 6 30 7 28 8 27 9 29 11 22 12 23 14
REMARK SMILES IDX 24 15 25 16 26 17 31 18 32 19 33 20 42 21 34 22 37 23 41 24
REMARK SMILES IDX 38 25 40 26 39 27 35 28 36 29 11 30 12 31 13 33 14 34 19 35
REMARK SMILES IDX 15 36 18 37 16 38 17 39 20 40 21 41 8 43 7 44 6 45 5 46 3 47
REMARK SMILES IDX 4 48 2 49 1 50
REMARK H PARENT 43 5 27 10 11 32
REMARK Flexibility Score: 80.00
ROOT
ATOM      1  C   UNL     1     -19.523 -26.855 -19.821  1.00  0.00     0.035 C 
ENDROOT
BRANCH   1   2
ATOM      2  C   UNL     1     -19.620 -25.414 -19.270  1.00  0.00     0.171 C 
BRANCH   2   3
ATOM      3  C   UNL     1     -18.994 -25.219 -17.911  1.00  0.00     0.243 C 
ATOM      4  N   UNL     1     -18.728 -26.318 -17.027  1.00  0.00    -0.342 N 
ATOM      5  H   UNL     1     -18.563 -27.272 -17.416  1.00  0.00     0.164 HD
ATOM      6  O   UNL     1     -18.782 -24.039 -17.517  1.00  0.00    -0.273 OA
BRANCH   4   7
ATOM      7  C   UNL     1     -18.954 -26.202 -15.588  1.00  0.00     0.175 C 
BRANCH   7   8
ATOM      8  C   UNL     1     -20.336 -25.646 -15.367  1.00  0.00     0.243 C 
ATOM      9  N   UNL     1     -20.526 -24.223 -15.336  1.00  0.00    -0.342 N 
ATOM     10  H   UNL     1     -19.695 -23.613 -15.505  1.00  0.00     0.164 HD
ATOM     11  O   UNL     1     -21.329 -26.428 -15.326  1.00  0.00    -0.273 OA
BRANCH   9  12
ATOM     12  C   UNL     1     -21.819 -23.596 -15.036  1.00  0.00     0.174 CG0
ATOM     13  G   UNL     1     -22.924 -24.287 -15.816  1.00  0.00     0.000 G0
BRANCH  12  14
ATOM     14  C   UNL     1     -21.697 -22.049 -15.210  1.00  0.00     0.018 C 
ATOM     15  C   UNL     1     -20.972 -21.576 -16.489  1.00  0.00     0.010 C 
BRANCH  14  16
ATOM     16  C   UNL     1     -23.000 -21.259 -14.905  1.00  0.00     0.002 C 
ATOM     17  C   UNL     1     -23.208 -19.969 -15.702  1.00  0.00     0.004 C 
ENDBRANCH  14  16
ENDBRANCH  12  14
ENDBRANCH   9  12
ENDBRANCH   7   8
BRANCH   7  18
ATOM     18  C   UNL     1     -18.744 -27.565 -14.904  1.00  0.00     0.073 C 
BRANCH  18  19
ATOM     19  C   UNL     1     -17.476 -28.215 -15.378  1.00  0.00    -0.016 A 
ATOM     20  C   UNL     1     -17.141 -29.556 -15.258  1.00  0.00     0.134 A 
ATOM     21  C   UNL     1     -16.361 -27.595 -15.904  1.00  0.00     0.006 A 
ATOM     22  N   UNL     1     -15.879 -29.768 -15.693  1.00  0.00    -0.191 N 
ATOM     23  C   UNL     1     -15.399 -28.562 -16.095  1.00  0.00     0.087 A 
ATOM     24  C   UNL     1     -16.137 -26.253 -16.207  1.00  0.00     0.011 A 
ATOM     25  C   UNL     1     -14.148 -28.224 -16.638  1.00  0.00     0.030 A 
ATOM     26  C   UNL     1     -14.889 -25.897 -16.737  1.00  0.00     0.001 A 
ATOM     27  C   UNL     1     -13.903 -26.877 -16.955  1.00  0.00     0.002 A 
BRANCH  22  28
ATOM     28  O   UNL     1     -15.279 -31.017 -15.640  1.00  0.00    -0.417 OA
ATOM     29  C   UNL     1     -15.910 -32.242 -15.979  1.00  0.00     0.313 C 
ENDBRANCH  22  28
ENDBRANCH  18  19
ENDBRANCH   7  18
ENDBRANCH   4   7
ENDBRANCH   2   3
BRANCH   2  30
ATOM     30  N   UNL     1     -21.000 -24.914 -19.251  1.00  0.00    -0.343 N 
ATOM     31  C   UNL     1     -22.051 -25.412 -18.402  1.00  0.00     0.243 C 
ATOM     32  H   UNL     1     -21.205 -24.076 -19.843  1.00  0.00     0.164 HD
ATOM     33  O   UNL     1     -21.950 -26.553 -17.875  1.00  0.00    -0.273 OA
BRANCH  31  34
ATOM     34  C   UNL     1     -23.340 -24.626 -18.282  1.00  0.00     0.174 C 
ATOM     35  N   UNL     1     -23.484 -23.831 -17.039  1.00  0.00    -0.329 N 
ATOM     36  C   UNL     1     -24.547 -25.564 -18.438  1.00  0.00     0.035 C 
ATOM     37  C   UNL     1     -24.701 -23.009 -16.990  1.00  0.00     0.120 C 
ATOM     38  C   UNL     1     -25.855 -24.762 -18.404  1.00  0.00     0.004 C 
ATOM     39  C   UNL     1     -25.945 -23.895 -17.142  1.00  0.00     0.022 C 
BRANCH  35  40
ATOM     40  C   UNL     1     -22.969 -24.293 -15.775  1.00  0.00     0.246 CG0
ATOM     41  O   UNL     1     -23.474 -25.324 -15.253  1.00  0.00    -0.272 OA
ATOM     42  G   UNL     1     -21.794 -23.622 -15.087  1.00  0.00     0.000 G0
ENDBRANCH  35  40
ENDBRANCH  31  34
ENDBRANCH   2  30
ENDBRANCH   1   2
BRANCH   1  43
ATOM     43  C   UNL     1     -20.362 -27.035 -21.097  1.00  0.00     0.003 C 
BRANCH  43  44
ATOM     44  C   UNL     1     -20.918 -28.460 -21.244  1.00  0.00     0.001 C 
BRANCH  44  45
ATOM     45  C   UNL     1     -21.237 -28.820 -22.704  1.00  0.00     0.008 C 
BRANCH  45  46
ATOM     46  C   UNL     1     -20.006 -29.371 -23.446  1.00  0.00     0.075 C 
BRANCH  46  47
ATOM     47  C   UNL     1     -20.343 -30.277 -24.615  1.00  0.00     0.132 C 
ATOM     48  O   UNL     1     -21.325 -30.039 -25.303  1.00  0.00    -0.300 OA
BRANCH  47  49
ATOM     49  C   UNL     1     -19.470 -31.446 -25.015  1.00  0.00     0.072 C 
ATOM     50  C   UNL     1     -19.399 -31.711 -26.519  1.00  0.00     0.012 C 
ENDBRANCH  47  49
ENDBRANCH  46  47
ENDBRANCH  45  46
ENDBRANCH  44  45
ENDBRANCH  43  44
ENDBRANCH   1  43
TORSDOF 12
ENDMDL
MODEL 7
REMARK VINA RESULT:    -2.341      2.589      8.191
REMARK INTER + INTRA:          -5.341
REMARK INTER:                  -5.254
REMARK INTRA:                  -0.087
REMARK UNBOUND:                -0.400
REMARK SMILES CCC(=O)CCCCC[C@H]1NC(=O)[C@H]2CCCCN2C(=O)[C@H]([C@@H](C)CC)NC(=O)[C@@H](Cc2cn(OC)c3ccccc23)NC1=O
REMARK SMILES IDX 9 1 10 2 44 3 43 4 45 6 30 7 28 8 27 9 29 11 22 12 23 14
REMARK SMILES IDX 24 15 25 16 26 17 31 18 32 19 33 20 42 21 34 22 37 23 41 24
REMARK SMILES IDX 38 25 40 26 39 27 35 28 36 29 11 30 12 31 13 33 14 34 19 35
REMARK SMILES IDX 15 36 18 37 16 38 17 39 20 40 21 41 8 43 7 44 6 45 5 46 3 47
REMARK SMILES IDX 4 48 2 49 1 50
REMARK H PARENT 43 5 27 10 11 32
REMARK Flexibility Score: 80.00
ROOT
ATOM      1  C   UNL     1     -18.318 -24.991 -21.636  1.00  0.00     0.035 C 
ENDROOT
BRANCH   1   2
ATOM      2  C   UNL     1     -18.737 -25.833 -20.410  1.00  0.00     0.171 C 
BRANCH   2   3
ATOM      3  C   UNL     1     -19.797 -25.196 -19.545  1.00  0.00     0.243 C 
ATOM      4  N   UNL     1     -19.615 -23.907 -18.938  1.00  0.00    -0.342 N 
ATOM      5  H   UNL     1     -18.977 -23.210 -19.376  1.00  0.00     0.164 HD
ATOM      6  O   UNL     1     -20.835 -25.864 -19.286  1.00  0.00    -0.273 OA
BRANCH   4   7
ATOM      7  C   UNL     1     -20.078 -23.642 -17.577  1.00  0.00     0.175 C 
BRANCH   7   8
ATOM      8  C   UNL     1     -19.038 -24.148 -16.614  1.00  0.00     0.243 C 
ATOM      9  N   UNL     1     -18.830 -25.563 -16.479  1.00  0.00    -0.342 N 
ATOM     10  H   UNL     1     -19.390 -26.201 -17.088  1.00  0.00     0.164 HD
ATOM     11  O   UNL     1     -18.280 -23.328 -16.019  1.00  0.00    -0.273 OA
BRANCH   9  12
ATOM     12  C   UNL     1     -17.904 -26.145 -15.501  1.00  0.00     0.174 CG0
ATOM     13  G   UNL     1     -16.527 -26.306 -16.121  1.00  0.00     0.000 G0
BRANCH  12  14
ATOM     14  C   UNL     1     -18.548 -27.423 -14.875  1.00  0.00     0.018 C 
ATOM     15  C   UNL     1     -20.031 -27.665 -15.230  1.00  0.00     0.010 C 
BRANCH  14  16
ATOM     16  C   UNL     1     -17.669 -28.701 -14.968  1.00  0.00     0.002 C 
ATOM     17  C   UNL     1     -18.397 -29.993 -15.349  1.00  0.00     0.004 C 
ENDBRANCH  14  16
ENDBRANCH  12  14
ENDBRANCH   9  12
ENDBRANCH   7   8
BRANCH   7  18
ATOM     18  C   UNL     1     -20.377 -22.142 -17.399  1.00  0.00     0.073 C 
BRANCH  18  19
ATOM     19  C   UNL     1     -21.848 -21.905 -17.215  1.00  0.00    -0.016 A 
ATOM     20  C   UNL     1     -22.839 -22.873 -17.152  1.00  0.00     0.134 A 
ATOM     21  C   UNL     1     -22.506 -20.691 -17.199  1.00  0.00     0.006 A 
ATOM     22  N   UNL     1     -24.060 -22.296 -17.093  1.00  0.00    -0.191 N 
ATOM     23  C   UNL     1     -23.857 -20.953 -17.118  1.00  0.00     0.087 A 
ATOM     24  C   UNL     1     -22.002 -19.393 -17.265  1.00  0.00     0.011 A 
ATOM     25  C   UNL     1     -24.784 -19.898 -17.070  1.00  0.00     0.030 A 
ATOM     26  C   UNL     1     -22.915 -18.330 -17.231  1.00  0.00     0.001 A 
ATOM     27  C   UNL     1     -24.297 -18.581 -17.130  1.00  0.00     0.002 A 
BRANCH  22  28
ATOM     28  O   UNL     1     -25.229 -23.041 -17.069  1.00  0.00    -0.417 OA
ATOM     29  C   UNL     1     -26.375 -22.792 -17.868  1.00  0.00     0.313 C 
ENDBRANCH  22  28
ENDBRANCH  18  19
ENDBRANCH   7  18
ENDBRANCH   4   7
ENDBRANCH   2   3
BRANCH   2  30
ATOM     30  N   UNL     1     -17.591 -26.219 -19.578  1.00  0.00    -0.343 N 
ATOM     31  C   UNL     1     -17.541 -27.376 -18.723  1.00  0.00     0.243 C 
ATOM     32  H   UNL     1     -16.719 -25.651 -19.685  1.00  0.00     0.164 HD
ATOM     33  O   UNL     1     -18.608 -27.937 -18.355  1.00  0.00    -0.273 OA
BRANCH  31  34
ATOM     34  C   UNL     1     -16.211 -27.810 -18.144  1.00  0.00     0.174 C 
ATOM     35  N   UNL     1     -16.001 -27.476 -16.715  1.00  0.00    -0.329 N 
ATOM     36  C   UNL     1     -15.058 -27.237 -18.983  1.00  0.00     0.035 C 
ATOM     37  C   UNL     1     -14.742 -27.988 -16.157  1.00  0.00     0.120 C 
ATOM     38  C   UNL     1     -13.709 -27.743 -18.454  1.00  0.00     0.004 C 
ATOM     39  C   UNL     1     -13.550 -27.447 -16.957  1.00  0.00     0.022 C 
BRANCH  35  40
ATOM     40  C   UNL     1     -16.516 -26.263 -16.133  1.00  0.00     0.246 CG0
ATOM     41  O   UNL     1     -15.814 -25.217 -16.188  1.00  0.00    -0.272 OA
ATOM     42  G   UNL     1     -17.903 -26.185 -15.518  1.00  0.00     0.000 G0
ENDBRANCH  35  40
ENDBRANCH  31  34
ENDBRANCH   2  30
ENDBRANCH   1   2
BRANCH   1  43
ATOM     43  C   UNL     1     -18.232 -25.846 -22.912  1.00  0.00     0.003 C 
BRANCH  43  44
ATOM     44  C   UNL     1     -17.359 -25.201 -23.999  1.00  0.00     0.001 C 
BRANCH  44  45
ATOM     45  C   UNL     1     -18.192 -24.463 -25.062  1.00  0.00     0.008 C 
BRANCH  45  46
ATOM     46  C   UNL     1     -18.527 -25.366 -26.262  1.00  0.00     0.075 C 
BRANCH  46  47
ATOM     47  C   UNL     1     -18.884 -24.607 -27.526  1.00  0.00     0.132 C 
ATOM     48  O   UNL     1     -18.146 -24.667 -28.499  1.00  0.00    -0.300 OA
BRANCH  47  49
ATOM     49  C   UNL     1     -20.166 -23.814 -27.663  1.00  0.00     0.072 C 
ATOM     50  C   UNL     1     -20.963 -24.095 -28.937  1.00  0.00     0.012 C 
ENDBRANCH  47  49
ENDBRANCH  46  47
ENDBRANCH  45  46
ENDBRANCH  44  45
ENDBRANCH  43  44
ENDBRANCH   1  43
TORSDOF 12
ENDMDL
MODEL 8
REMARK VINA RESULT:    -2.209      2.314      6.871
REMARK INTER + INTRA:          -5.063
REMARK INTER:                  -7.886
REMARK INTRA:                   2.823
REMARK UNBOUND:                -0.400
REMARK SMILES CCC(=O)CCCCC[C@H]1NC(=O)[C@H]2CCCCN2C(=O)[C@H]([C@@H](C)CC)NC(=O)[C@@H](Cc2cn(OC)c3ccccc23)NC1=O
REMARK SMILES IDX 9 1 10 2 44 3 43 4 45 6 30 7 28 8 27 9 29 11 22 12 23 14
REMARK SMILES IDX 24 15 25 16 26 17 31 18 32 19 33 20 42 21 34 22 37 23 41 24
REMARK SMILES IDX 38 25 40 26 39 27 35 28 36 29 11 30 12 31 13 33 14 34 19 35
REMARK SMILES IDX 15 36 18 37 16 38 17 39 20 40 21 41 8 43 7 44 6 45 5 46 3 47
REMARK SMILES IDX 4 48 2 49 1 50
REMARK H PARENT 43 5 27 10 11 32
REMARK Flexibility Score: 80.00
ROOT
ATOM      1  C   UNL     1     -17.499 -22.876 -15.479  1.00  0.00     0.035 C 
ENDROOT
BRANCH   1   2
ATOM      2  C   UNL     1     -18.767 -23.630 -15.021  1.00  0.00     0.171 C 
BRANCH   2   3
ATOM      3  C   UNL     1     -19.134 -24.818 -15.876  1.00  0.00     0.243 C 
ATOM      4  N   UNL     1     -18.418 -25.146 -17.076  1.00  0.00    -0.342 N 
ATOM      5  H   UNL     1     -17.419 -24.865 -17.181  1.00  0.00     0.164 HD
ATOM      6  O   UNL     1     -20.157 -25.485 -15.561  1.00  0.00    -0.273 OA
BRANCH   4   7
ATOM      7  C   UNL     1     -19.118 -25.617 -18.269  1.00  0.00     0.175 C 
BRANCH   7   8
ATOM      8  C   UNL     1     -20.246 -24.665 -18.565  1.00  0.00     0.243 C 
ATOM      9  N   UNL     1     -20.974 -24.074 -17.476  1.00  0.00    -0.342 N 
ATOM     10  H   UNL     1     -20.669 -24.299 -16.503  1.00  0.00     0.164 HD
ATOM     11  O   UNL     1     -20.469 -24.305 -19.757  1.00  0.00    -0.273 OA
BRANCH   9  12
ATOM     12  C   UNL     1     -22.143 -23.209 -17.674  1.00  0.00     0.174 CG0
ATOM     13  G   UNL     1     -21.780 -21.767 -17.369  1.00  0.00     0.000 G0
BRANCH  12  14
ATOM     14  C   UNL     1     -23.364 -23.805 -16.903  1.00  0.00     0.018 C 
ATOM     15  C   UNL     1     -24.752 -23.313 -17.368  1.00  0.00     0.010 C 
BRANCH  14  16
ATOM     16  C   UNL     1     -23.294 -25.340 -16.667  1.00  0.00     0.002 C 
ATOM     17  C   UNL     1     -23.368 -25.801 -15.209  1.00  0.00     0.004 C 
ENDBRANCH  14  16
ENDBRANCH  12  14
ENDBRANCH   9  12
ENDBRANCH   7   8
BRANCH   7  18
ATOM     18  C   UNL     1     -18.134 -25.759 -19.444  1.00  0.00     0.073 C 
BRANCH  18  19
ATOM     19  C   UNL     1     -18.810 -26.356 -20.644  1.00  0.00    -0.016 A 
ATOM     20  C   UNL     1     -19.761 -27.365 -20.639  1.00  0.00     0.134 A 
ATOM     21  C   UNL     1     -18.529 -26.111 -21.973  1.00  0.00     0.006 A 
ATOM     22  N   UNL     1     -20.069 -27.731 -21.903  1.00  0.00    -0.191 N 
ATOM     23  C   UNL     1     -19.314 -26.957 -22.726  1.00  0.00     0.087 A 
ATOM     24  C   UNL     1     -17.632 -25.215 -22.553  1.00  0.00     0.011 A 
ATOM     25  C   UNL     1     -19.253 -26.923 -24.129  1.00  0.00     0.030 A 
ATOM     26  C   UNL     1     -17.551 -25.178 -23.953  1.00  0.00     0.001 A 
ATOM     27  C   UNL     1     -18.359 -26.024 -24.735  1.00  0.00     0.002 A 
BRANCH  22  28
ATOM     28  O   UNL     1     -20.963 -28.754 -22.180  1.00  0.00    -0.417 OA
ATOM     29  C   UNL     1     -21.015 -29.489 -23.392  1.00  0.00     0.313 C 
ENDBRANCH  22  28
ENDBRANCH  18  19
ENDBRANCH   7  18
ENDBRANCH   4   7
ENDBRANCH   2   3
BRANCH   2  30
ATOM     30  N   UNL     1     -19.929 -22.742 -14.889  1.00  0.00    -0.343 N 
ATOM     31  C   UNL     1     -19.901 -21.312 -15.047  1.00  0.00     0.243 C 
ATOM     32  H   UNL     1     -20.859 -23.202 -14.752  1.00  0.00     0.164 HD
ATOM     33  O   UNL     1     -18.810 -20.686 -14.953  1.00  0.00    -0.273 OA
BRANCH  31  34
ATOM     34  C   UNL     1     -21.208 -20.555 -15.164  1.00  0.00     0.174 C 
ATOM     35  N   UNL     1     -22.185 -21.121 -16.125  1.00  0.00    -0.329 N 
ATOM     36  C   UNL     1     -20.936 -19.083 -15.511  1.00  0.00     0.035 C 
ATOM     37  C   UNL     1     -23.476 -20.420 -16.152  1.00  0.00     0.120 C 
ATOM     38  C   UNL     1     -22.250 -18.291 -15.547  1.00  0.00     0.004 C 
ATOM     39  C   UNL     1     -23.267 -18.939 -16.494  1.00  0.00     0.022 C 
BRANCH  35  40
ATOM     40  C   UNL     1     -21.769 -21.750 -17.352  1.00  0.00     0.246 CG0
ATOM     41  O   UNL     1     -21.032 -21.105 -18.146  1.00  0.00    -0.272 OA
ATOM     42  G   UNL     1     -22.130 -23.186 -17.689  1.00  0.00     0.000 G0
ENDBRANCH  35  40
ENDBRANCH  31  34
ENDBRANCH   2  30
ENDBRANCH   1   2
BRANCH   1  43
ATOM     43  C   UNL     1     -16.215 -23.586 -15.018  1.00  0.00     0.003 C 
BRANCH  43  44
ATOM     44  C   UNL     1     -16.300 -25.114 -15.161  1.00  0.00     0.001 C 
BRANCH  44  45
ATOM     45  C   UNL     1     -15.129 -25.695 -15.971  1.00  0.00     0.008 C 
BRANCH  45  46
ATOM     46  C   UNL     1     -15.589 -26.798 -16.942  1.00  0.00     0.075 C 
BRANCH  46  47
ATOM     47  C   UNL     1     -14.452 -27.536 -17.622  1.00  0.00     0.132 C 
ATOM     48  O   UNL     1     -14.548 -27.847 -18.800  1.00  0.00    -0.300 OA
BRANCH  47  49
ATOM     49  C   UNL     1     -13.153 -27.858 -16.914  1.00  0.00     0.072 C 
ATOM     50  C   UNL     1     -11.889 -27.519 -17.704  1.00  0.00     0.012 C 
ENDBRANCH  47  49
ENDBRANCH  46  47
ENDBRANCH  45  46
ENDBRANCH  44  45
ENDBRANCH  43  44
ENDBRANCH   1  43
TORSDOF 12
ENDMDL
MODEL 9
REMARK VINA RESULT:    -2.060      1.997      6.682
REMARK INTER + INTRA:          -4.747
REMARK INTER:                  -6.496
REMARK INTRA:                   1.748
REMARK UNBOUND:                -0.400
REMARK SMILES CCC(=O)CCCCC[C@H]1NC(=O)[C@H]2CCCCN2C(=O)[C@H]([C@@H](C)CC)NC(=O)[C@@H](Cc2cn(OC)c3ccccc23)NC1=O
REMARK SMILES IDX 9 1 10 2 44 3 43 4 45 6 30 7 28 8 27 9 29 11 22 12 23 14
REMARK SMILES IDX 24 15 25 16 26 17 31 18 32 19 33 20 42 21 34 22 37 23 41 24
REMARK SMILES IDX 38 25 40 26 39 27 35 28 36 29 11 30 12 31 13 33 14 34 19 35
REMARK SMILES IDX 15 36 18 37 16 38 17 39 20 40 21 41 8 43 7 44 6 45 5 46 3 47
REMARK SMILES IDX 4 48 2 49 1 50
REMARK H PARENT 43 5 27 10 11 32
REMARK Flexibility Score: 80.00
ROOT
ATOM      1  C   UNL     1     -17.659 -23.756 -15.715  1.00  0.00     0.035 C 
ENDROOT
BRANCH   1   2
ATOM      2  C   UNL     1     -18.905 -24.654 -15.550  1.00  0.00     0.171 C 
BRANCH   2   3
ATOM      3  C   UNL     1     -19.164 -25.587 -16.708  1.00  0.00     0.243 C 
ATOM      4  N   UNL     1     -18.357 -25.574 -17.895  1.00  0.00    -0.342 N 
ATOM      5  H   UNL     1     -17.367 -25.251 -17.849  1.00  0.00     0.164 HD
ATOM      6  O   UNL     1     -20.176 -26.338 -16.653  1.00  0.00    -0.273 OA
BRANCH   4   7
ATOM      7  C   UNL     1     -18.957 -25.735 -19.218  1.00  0.00     0.175 C 
BRANCH   7   8
ATOM      8  C   UNL     1     -20.151 -24.823 -19.313  1.00  0.00     0.243 C 
ATOM      9  N   UNL     1     -21.090 -24.776 -18.227  1.00  0.00    -0.342 N 
ATOM     10  H   UNL     1     -20.891 -25.356 -17.381  1.00  0.00     0.164 HD
ATOM     11  O   UNL     1     -20.258 -24.026 -20.289  1.00  0.00    -0.273 OA
BRANCH   9  12
ATOM     12  C   UNL     1     -22.326 -23.986 -18.274  1.00  0.00     0.174 CG0
ATOM     13  G   UNL     1     -22.096 -22.623 -17.645  1.00  0.00     0.000 G0
BRANCH  12  14
ATOM     14  C   UNL     1     -23.505 -24.835 -17.700  1.00  0.00     0.018 C 
ATOM     15  C   UNL     1     -24.308 -25.648 -18.738  1.00  0.00     0.010 C 
BRANCH  14  16
ATOM     16  C   UNL     1     -23.159 -25.636 -16.414  1.00  0.00     0.002 C 
ATOM     17  C   UNL     1     -23.598 -25.005 -15.090  1.00  0.00     0.004 C 
ENDBRANCH  14  16
ENDBRANCH  12  14
ENDBRANCH   9  12
ENDBRANCH   7   8
BRANCH   7  18
ATOM     18  C   UNL     1     -17.910 -25.464 -20.314  1.00  0.00     0.073 C 
BRANCH  18  19
ATOM     19  C   UNL     1     -18.346 -26.040 -21.629  1.00  0.00    -0.016 A 
ATOM     20  C   UNL     1     -17.946 -25.619 -22.889  1.00  0.00     0.134 A 
ATOM     21  C   UNL     1     -19.313 -27.003 -21.844  1.00  0.00     0.006 A 
ATOM     22  N   UNL     1     -18.623 -26.289 -23.848  1.00  0.00    -0.191 N 
ATOM     23  C   UNL     1     -19.462 -27.144 -23.207  1.00  0.00     0.087 A 
ATOM     24  C   UNL     1     -20.067 -27.740 -20.933  1.00  0.00     0.011 A 
ATOM     25  C   UNL     1     -20.376 -28.074 -23.730  1.00  0.00     0.030 A 
ATOM     26  C   UNL     1     -20.993 -28.663 -21.439  1.00  0.00     0.001 A 
ATOM     27  C   UNL     1     -21.143 -28.831 -22.828  1.00  0.00     0.002 A 
BRANCH  22  28
ATOM     28  O   UNL     1     -18.445 -26.026 -25.198  1.00  0.00    -0.417 OA
ATOM     29  C   UNL     1     -19.085 -24.986 -25.920  1.00  0.00     0.313 C 
ENDBRANCH  22  28
ENDBRANCH  18  19
ENDBRANCH   7  18
ENDBRANCH   4   7
ENDBRANCH   2   3
BRANCH   2  30
ATOM     30  N   UNL     1     -20.119 -23.880 -15.263  1.00  0.00    -0.343 N 
ATOM     31  C   UNL     1     -20.216 -22.444 -15.306  1.00  0.00     0.243 C 
ATOM     32  H   UNL     1     -20.997 -24.425 -15.096  1.00  0.00     0.164 HD
ATOM     33  O   UNL     1     -19.174 -21.738 -15.242  1.00  0.00    -0.273 OA
BRANCH  31  34
ATOM     34  C   UNL     1     -21.583 -21.794 -15.267  1.00  0.00     0.174 C 
ATOM     35  N   UNL     1     -22.530 -22.243 -16.315  1.00  0.00    -0.329 N 
ATOM     36  C   UNL     1     -21.441 -20.264 -15.320  1.00  0.00     0.035 C 
ATOM     37  C   UNL     1     -23.875 -21.663 -16.199  1.00  0.00     0.120 C 
ATOM     38  C   UNL     1     -22.817 -19.596 -15.194  1.00  0.00     0.004 C 
ATOM     39  C   UNL     1     -23.797 -20.131 -16.245  1.00  0.00     0.022 C 
BRANCH  35  40
ATOM     40  C   UNL     1     -22.090 -22.583 -17.644  1.00  0.00     0.246 CG0
ATOM     41  O   UNL     1     -21.441 -21.728 -18.307  1.00  0.00    -0.272 OA
ATOM     42  G   UNL     1     -22.320 -23.958 -18.247  1.00  0.00     0.000 G0
ENDBRANCH  35  40
ENDBRANCH  31  34
ENDBRANCH   2  30
ENDBRANCH   1   2
BRANCH   1  43
ATOM     43  C   UNL     1     -16.453 -24.306 -14.937  1.00  0.00     0.003 C 
BRANCH  43  44
ATOM     44  C   UNL     1     -16.060 -25.724 -15.379  1.00  0.00     0.001 C 
BRANCH  44  45
ATOM     45  C   UNL     1     -15.099 -25.721 -16.580  1.00  0.00     0.008 C 
BRANCH  45  46
ATOM     46  C   UNL     1     -14.893 -27.133 -17.159  1.00  0.00     0.075 C 
BRANCH  46  47
ATOM     47  C   UNL     1     -13.447 -27.471 -17.462  1.00  0.00     0.132 C 
ATOM     48  O   UNL     1     -12.811 -26.775 -18.240  1.00  0.00    -0.300 OA
BRANCH  47  49
ATOM     49  C   UNL     1     -12.721 -28.615 -16.788  1.00  0.00     0.072 C 
ATOM     50  C   UNL     1     -13.605 -29.800 -16.402  1.00  0.00     0.012 C 
ENDBRANCH  47  49
ENDBRANCH  46  47
ENDBRANCH  45  46
ENDBRANCH  44  45
ENDBRANCH  43  44
ENDBRANCH   1  43
TORSDOF 12
ENDMDL
