MODEL 1
REMARK VINA RESULT:    -4.444      0.000      0.000
REMARK INTER + INTRA:          -4.444
REMARK INTER:                  -4.444
REMARK INTRA:                   0.000
REMARK UNBOUND:                 0.000
REMARK SMILES CC(C)=C1CC[C@@H](C)CC1=O
REMARK SMILES IDX 8 1 7 2 6 3 5 4 4 5 2 6 1 7 3 8 10 9 11 10 9 11
REMARK H PARENT
REMARK Flexibility Score: inf
ROOT
ATOM      1  C   UNL     1      28.519  34.336  28.811  1.00  0.00     0.008 C 
ATOM      2  C   UNL     1      29.881  33.637  28.878  1.00  0.00    -0.006 C 
ATOM      3  C   UNL     1      30.861  34.264  27.873  1.00  0.00     0.008 C 
ATOM      4  C   UNL     1      32.259  33.645  27.996  1.00  0.00     0.039 C 
ATOM      5  C   UNL     1      32.234  32.125  27.918  1.00  0.00    -0.006 C 
ATOM      6  C   UNL     1      33.275  31.425  27.379  1.00  0.00    -0.070 C 
ATOM      7  C   UNL     1      33.237  29.920  27.243  1.00  0.00     0.039 C 
ATOM      8  C   UNL     1      34.506  32.129  26.855  1.00  0.00     0.039 C 
ATOM      9  C   UNL     1      31.067  31.454  28.564  1.00  0.00     0.159 C 
ATOM     10  O   UNL     1      31.178  30.317  29.097  1.00  0.00    -0.295 OA
ATOM     11  C   UNL     1      29.729  32.135  28.594  1.00  0.00     0.084 C 
ENDROOT
TORSDOF 0
ENDMDL
MODEL 2
REMARK VINA RESULT:    -4.409     11.556     13.374
REMARK INTER + INTRA:          -4.409
REMARK INTER:                  -4.409
REMARK INTRA:                   0.000
REMARK UNBOUND:                 0.000
REMARK SMILES CC(C)=C1CC[C@@H](C)CC1=O
REMARK SMILES IDX 8 1 7 2 6 3 5 4 4 5 2 6 1 7 3 8 10 9 11 10 9 11
REMARK H PARENT
REMARK Flexibility Score: inf
ROOT
ATOM      1  C   UNL     1      16.754  24.999  27.493  1.00  0.00     0.008 C 
ATOM      2  C   UNL     1      17.719  25.884  28.290  1.00  0.00    -0.006 C 
ATOM      3  C   UNL     1      17.504  27.367  27.945  1.00  0.00     0.008 C 
ATOM      4  C   UNL     1      18.390  28.274  28.807  1.00  0.00     0.039 C 
ATOM      5  C   UNL     1      19.857  27.870  28.763  1.00  0.00    -0.006 C 
ATOM      6  C   UNL     1      20.852  28.798  28.877  1.00  0.00    -0.070 C 
ATOM      7  C   UNL     1      22.311  28.418  28.778  1.00  0.00     0.039 C 
ATOM      8  C   UNL     1      20.539  30.265  29.071  1.00  0.00     0.039 C 
ATOM      9  C   UNL     1      20.133  26.404  28.706  1.00  0.00     0.159 C 
ATOM     10  O   UNL     1      21.160  25.909  29.244  1.00  0.00    -0.295 OA
ATOM     11  C   UNL     1      19.174  25.485  28.005  1.00  0.00     0.084 C 
ENDROOT
TORSDOF 0
ENDMDL
MODEL 3
REMARK VINA RESULT:    -4.370     10.680     13.239
REMARK INTER + INTRA:          -4.370
REMARK INTER:                  -4.370
REMARK INTRA:                   0.000
REMARK UNBOUND:                 0.000
REMARK SMILES CC(C)=C1CC[C@@H](C)CC1=O
REMARK SMILES IDX 8 1 7 2 6 3 5 4 4 5 2 6 1 7 3 8 10 9 11 10 9 11
REMARK H PARENT
REMARK Flexibility Score: inf
ROOT
ATOM      1  C   UNL     1      21.636  34.769  29.873  1.00  0.00     0.008 C 
ATOM      2  C   UNL     1      20.484  33.894  29.367  1.00  0.00    -0.006 C 
ATOM      3  C   UNL     1      19.140  34.399  29.915  1.00  0.00     0.008 C 
ATOM      4  C   UNL     1      17.966  33.597  29.339  1.00  0.00     0.039 C 
ATOM      5  C   UNL     1      18.142  32.096  29.515  1.00  0.00    -0.006 C 
ATOM      6  C   UNL     1      17.067  31.271  29.688  1.00  0.00    -0.070 C 
ATOM      7  C   UNL     1      17.232  29.787  29.921  1.00  0.00     0.039 C 
ATOM      8  C   UNL     1      15.655  31.812  29.694  1.00  0.00     0.039 C 
ATOM      9  C   UNL     1      19.534  31.577  29.371  1.00  0.00     0.159 C 
ATOM     10  O   UNL     1      19.760  30.428  28.904  1.00  0.00    -0.295 OA
ATOM     11  C   UNL     1      20.701  32.430  29.779  1.00  0.00     0.084 C 
ENDROOT
TORSDOF 0
ENDMDL
MODEL 4
REMARK VINA RESULT:    -4.312     12.479     14.196
REMARK INTER + INTRA:          -4.312
REMARK INTER:                  -4.312
REMARK INTRA:                   0.000
REMARK UNBOUND:                 0.000
REMARK SMILES CC(C)=C1CC[C@@H](C)CC1=O
REMARK SMILES IDX 8 1 7 2 6 3 5 4 4 5 2 6 1 7 3 8 10 9 11 10 9 11
REMARK H PARENT
REMARK Flexibility Score: inf
ROOT
ATOM      1  C   UNL     1      18.938  26.856  28.530  1.00  0.00     0.008 C 
ATOM      2  C   UNL     1      18.649  28.200  29.207  1.00  0.00    -0.006 C 
ATOM      3  C   UNL     1      17.173  28.592  29.023  1.00  0.00     0.008 C 
ATOM      4  C   UNL     1      16.841  29.885  29.780  1.00  0.00     0.039 C 
ATOM      5  C   UNL     1      17.795  31.021  29.441  1.00  0.00    -0.006 C 
ATOM      6  C   UNL     1      17.379  32.322  29.446  1.00  0.00    -0.070 C 
ATOM      7  C   UNL     1      18.301  33.454  29.057  1.00  0.00     0.039 C 
ATOM      8  C   UNL     1      15.958  32.690  29.807  1.00  0.00     0.039 C 
ATOM      9  C   UNL     1      19.221  30.638  29.222  1.00  0.00     0.159 C 
ATOM     10  O   UNL     1      20.164  31.418  29.525  1.00  0.00    -0.295 OA
ATOM     11  C   UNL     1      19.558  29.297  28.635  1.00  0.00     0.084 C 
ENDROOT
TORSDOF 0
ENDMDL
MODEL 5
REMARK VINA RESULT:    -4.277     11.174     13.857
REMARK INTER + INTRA:          -4.277
REMARK INTER:                  -4.277
REMARK INTRA:                   0.000
REMARK UNBOUND:                 0.000
REMARK SMILES CC(C)=C1CC[C@@H](C)CC1=O
REMARK SMILES IDX 8 1 7 2 6 3 5 4 4 5 2 6 1 7 3 8 10 9 11 10 9 11
REMARK H PARENT
REMARK Flexibility Score: inf
ROOT
ATOM      1  C   UNL     1      15.137  29.821  29.454  1.00  0.00     0.008 C 
ATOM      2  C   UNL     1      16.235  30.755  29.974  1.00  0.00    -0.006 C 
ATOM      3  C   UNL     1      15.987  32.197  29.501  1.00  0.00     0.008 C 
ATOM      4  C   UNL     1      17.019  33.164  30.095  1.00  0.00     0.039 C 
ATOM      5  C   UNL     1      18.452  32.708  29.857  1.00  0.00    -0.006 C 
ATOM      6  C   UNL     1      19.466  33.609  29.697  1.00  0.00    -0.070 C 
ATOM      7  C   UNL     1      20.881  33.170  29.403  1.00  0.00     0.039 C 
ATOM      8  C   UNL     1      19.211  35.098  29.771  1.00  0.00     0.039 C 
ATOM      9  C   UNL     1      18.692  31.236  29.924  1.00  0.00     0.159 C 
ATOM     10  O   UNL     1      19.787  30.769  30.337  1.00  0.00    -0.295 OA
ATOM     11  C   UNL     1      17.615  30.279  29.500  1.00  0.00     0.084 C 
ENDROOT
TORSDOF 0
ENDMDL
MODEL 6
REMARK VINA RESULT:    -4.265     12.041     13.477
REMARK INTER + INTRA:          -4.265
REMARK INTER:                  -4.265
REMARK INTRA:                   0.000
REMARK UNBOUND:                 0.000
REMARK SMILES CC(C)=C1CC[C@@H](C)CC1=O
REMARK SMILES IDX 8 1 7 2 6 3 5 4 4 5 2 6 1 7 3 8 10 9 11 10 9 11
REMARK H PARENT
REMARK Flexibility Score: inf
ROOT
ATOM      1  C   UNL     1      16.616  29.208  29.824  1.00  0.00     0.008 C 
ATOM      2  C   UNL     1      17.718  28.541  28.994  1.00  0.00    -0.006 C 
ATOM      3  C   UNL     1      17.252  27.169  28.478  1.00  0.00     0.008 C 
ATOM      4  C   UNL     1      18.303  26.531  27.562  1.00  0.00     0.039 C 
ATOM      5  C   UNL     1      19.682  26.476  28.203  1.00  0.00    -0.006 C 
ATOM      6  C   UNL     1      20.556  25.466  27.921  1.00  0.00    -0.070 C 
ATOM      7  C   UNL     1      21.905  25.370  28.595  1.00  0.00     0.039 C 
ATOM      8  C   UNL     1      20.198  24.369  26.944  1.00  0.00     0.039 C 
ATOM      9  C   UNL     1      20.055  27.643  29.057  1.00  0.00     0.159 C 
ATOM     10  O   UNL     1      21.249  28.035  29.146  1.00  0.00    -0.295 OA
ATOM     11  C   UNL     1      18.997  28.379  29.828  1.00  0.00     0.084 C 
ENDROOT
TORSDOF 0
ENDMDL
MODEL 7
REMARK VINA RESULT:    -4.250     10.314     12.175
REMARK INTER + INTRA:          -4.250
REMARK INTER:                  -4.250
REMARK INTRA:                   0.000
REMARK UNBOUND:                 0.000
REMARK SMILES CC(C)=C1CC[C@@H](C)CC1=O
REMARK SMILES IDX 8 1 7 2 6 3 5 4 4 5 2 6 1 7 3 8 10 9 11 10 9 11
REMARK H PARENT
REMARK Flexibility Score: inf
ROOT
ATOM      1  C   UNL     1      24.155  29.071  29.306  1.00  0.00     0.008 C 
ATOM      2  C   UNL     1      23.042  28.017  29.338  1.00  0.00    -0.006 C 
ATOM      3  C   UNL     1      23.264  26.962  28.243  1.00  0.00     0.008 C 
ATOM      4  C   UNL     1      22.216  25.844  28.325  1.00  0.00     0.039 C 
ATOM      5  C   UNL     1      20.792  26.379  28.342  1.00  0.00    -0.006 C 
ATOM      6  C   UNL     1      19.762  25.673  27.789  1.00  0.00    -0.070 C 
ATOM      7  C   UNL     1      18.353  26.218  27.749  1.00  0.00     0.039 C 
ATOM      8  C   UNL     1      19.991  24.320  27.154  1.00  0.00     0.039 C 
ATOM      9  C   UNL     1      20.577  27.651  29.093  1.00  0.00     0.159 C 
ATOM     10  O   UNL     1      19.491  27.886  29.688  1.00  0.00    -0.295 OA
ATOM     11  C   UNL     1      21.669  28.680  29.156  1.00  0.00     0.084 C 
ENDROOT
TORSDOF 0
ENDMDL
MODEL 8
REMARK VINA RESULT:    -4.242      1.097      3.998
REMARK INTER + INTRA:          -4.242
REMARK INTER:                  -4.242
REMARK INTRA:                   0.000
REMARK UNBOUND:                 0.000
REMARK SMILES CC(C)=C1CC[C@@H](C)CC1=O
REMARK SMILES IDX 8 1 7 2 6 3 5 4 4 5 2 6 1 7 3 8 10 9 11 10 9 11
REMARK H PARENT
REMARK Flexibility Score: inf
ROOT
ATOM      1  C   UNL     1      34.800  33.163  27.589  1.00  0.00     0.008 C 
ATOM      2  C   UNL     1      33.277  33.106  27.434  1.00  0.00    -0.006 C 
ATOM      3  C   UNL     1      32.625  34.367  28.025  1.00  0.00     0.008 C 
ATOM      4  C   UNL     1      31.109  34.374  27.788  1.00  0.00     0.039 C 
ATOM      5  C   UNL     1      30.438  33.092  28.261  1.00  0.00    -0.006 C 
ATOM      6  C   UNL     1      29.160  33.096  28.742  1.00  0.00    -0.070 C 
ATOM      7  C   UNL     1      28.503  31.841  29.267  1.00  0.00     0.039 C 
ATOM      8  C   UNL     1      28.351  34.372  28.809  1.00  0.00     0.039 C 
ATOM      9  C   UNL     1      31.213  31.832  28.057  1.00  0.00     0.159 C 
ATOM     10  O   UNL     1      30.633  30.737  27.825  1.00  0.00    -0.295 OA
ATOM     11  C   UNL     1      32.713  31.854  28.121  1.00  0.00     0.084 C 
ENDROOT
TORSDOF 0
ENDMDL
MODEL 9
REMARK VINA RESULT:    -4.241     11.350     13.363
REMARK INTER + INTRA:          -4.241
REMARK INTER:                  -4.241
REMARK INTRA:                   0.000
REMARK UNBOUND:                 0.000
REMARK SMILES CC(C)=C1CC[C@@H](C)CC1=O
REMARK SMILES IDX 8 1 7 2 6 3 5 4 4 5 2 6 1 7 3 8 10 9 11 10 9 11
REMARK H PARENT
REMARK Flexibility Score: inf
ROOT
ATOM      1  C   UNL     1      20.695  27.677  28.967  1.00  0.00     0.008 C 
ATOM      2  C   UNL     1      19.909  28.882  29.495  1.00  0.00    -0.006 C 
ATOM      3  C   UNL     1      18.574  29.028  28.747  1.00  0.00     0.008 C 
ATOM      4  C   UNL     1      17.729  30.168  29.331  1.00  0.00     0.039 C 
ATOM      5  C   UNL     1      18.497  31.479  29.416  1.00  0.00    -0.006 C 
ATOM      6  C   UNL     1      17.866  32.682  29.276  1.00  0.00    -0.070 C 
ATOM      7  C   UNL     1      18.626  33.988  29.302  1.00  0.00     0.039 C 
ATOM      8  C   UNL     1      16.373  32.762  29.050  1.00  0.00     0.039 C 
ATOM      9  C   UNL     1      19.943  31.371  29.774  1.00  0.00     0.159 C 
ATOM     10  O   UNL     1      20.523  32.271  30.439  1.00  0.00    -0.295 OA
ATOM     11  C   UNL     1      20.735  30.169  29.347  1.00  0.00     0.084 C 
ENDROOT
TORSDOF 0
ENDMDL
