MODEL 1
REMARK VINA RESULT:    -3.069      0.000      0.000
REMARK INTER + INTRA:          -6.130
REMARK INTER:                  -4.863
REMARK INTRA:                  -1.268
REMARK UNBOUND:                -1.268
REMARK SMILES CCCCCCCCCCCC(=O)[O-]
REMARK SMILES IDX 7 1 8 2 9 3 10 4 11 5 12 6 13 7 14 8 6 9 5 10 4 11 3 12 2 13
REMARK SMILES IDX 1 14
REMARK H PARENT
REMARK Flexibility Score: inf
ROOT
ATOM      1  C   UNL     1      -2.665  12.721  10.688  1.00  0.00     0.000 C 
ENDROOT
BRANCH   1   2
ATOM      2  C   UNL     1      -1.849  13.931  10.215  1.00  0.00     0.000 C 
BRANCH   2   3
ATOM      3  C   UNL     1      -0.482  13.978  10.914  1.00  0.00     0.000 C 
BRANCH   3   4
ATOM      4  C   UNL     1      -0.202  15.338  11.573  1.00  0.00     0.006 C 
BRANCH   4   5
ATOM      5  C   UNL     1      -1.219  16.412  11.169  1.00  0.00     0.053 C 
BRANCH   5   6
ATOM      6  C   UNL     1      -1.288  17.484  12.212  1.00  0.00     0.041 C 
ATOM      7  O   UNL     1      -2.399  17.975  12.542  1.00  0.00    -0.550 OA
ATOM      8  O   UNL     1      -0.121  17.975  12.783  1.00  0.00    -0.550 OA
ENDBRANCH   5   6
ENDBRANCH   4   5
ENDBRANCH   3   4
ENDBRANCH   2   3
ENDBRANCH   1   2
BRANCH   1   9
ATOM      9  C   UNL     1      -1.805  11.773  11.531  1.00  0.00     0.000 C 
BRANCH   9  10
ATOM     10  C   UNL     1      -1.979  10.318  11.070  1.00  0.00    -0.000 C 
BRANCH  10  11
ATOM     11  C   UNL     1      -1.283  10.034   9.730  1.00  0.00    -0.000 C 
BRANCH  11  12
ATOM     12  C   UNL     1       0.184  10.489   9.715  1.00  0.00    -0.000 C 
BRANCH  12  13
ATOM     13  C   UNL     1       0.528  11.188   8.395  1.00  0.00    -0.003 C 
ATOM     14  C   UNL     1      -0.733  11.517   7.600  1.00  0.00     0.004 C 
ENDBRANCH  12  13
ENDBRANCH  11  12
ENDBRANCH  10  11
ENDBRANCH   9  10
ENDBRANCH   1   9
TORSDOF 10
ENDMDL
MODEL 2
REMARK VINA RESULT:    -3.045     12.926     14.354
REMARK INTER + INTRA:          -6.092
REMARK INTER:                  -5.034
REMARK INTRA:                  -1.059
REMARK UNBOUND:                -1.268
REMARK SMILES CCCCCCCCCCCC(=O)[O-]
REMARK SMILES IDX 7 1 8 2 9 3 10 4 11 5 12 6 13 7 14 8 6 9 5 10 4 11 3 12 2 13
REMARK SMILES IDX 1 14
REMARK H PARENT
REMARK Flexibility Score: inf
ROOT
ATOM      1  C   UNL     1     -15.414  10.749   6.591  1.00  0.00     0.000 C 
ENDROOT
BRANCH   1   2
ATOM      2  C   UNL     1     -15.288   9.699   7.702  1.00  0.00     0.000 C 
BRANCH   2   3
ATOM      3  C   UNL     1     -13.817   9.491   8.097  1.00  0.00     0.000 C 
BRANCH   3   4
ATOM      4  C   UNL     1     -13.631   9.318   9.612  1.00  0.00     0.006 C 
BRANCH   4   5
ATOM      5  C   UNL     1     -14.902   9.643  10.406  1.00  0.00     0.053 C 
BRANCH   5   6
ATOM      6  C   UNL     1     -14.565  10.440  11.628  1.00  0.00     0.041 C 
ATOM      7  O   UNL     1     -15.456  11.110  12.212  1.00  0.00    -0.550 OA
ATOM      8  O   UNL     1     -13.257  10.481  12.092  1.00  0.00    -0.550 OA
ENDBRANCH   5   6
ENDBRANCH   4   5
ENDBRANCH   3   4
ENDBRANCH   2   3
ENDBRANCH   1   2
BRANCH   1   9
ATOM      9  C   UNL     1     -16.076  10.153   5.343  1.00  0.00     0.000 C 
BRANCH   9  10
ATOM     10  C   UNL     1     -15.183  10.338   4.107  1.00  0.00    -0.000 C 
BRANCH  10  11
ATOM     11  C   UNL     1     -14.112   9.243   3.980  1.00  0.00    -0.000 C 
BRANCH  11  12
ATOM     12  C   UNL     1     -12.713   9.811   3.698  1.00  0.00    -0.000 C 
BRANCH  12  13
ATOM     13  C   UNL     1     -11.876   9.869   4.981  1.00  0.00    -0.003 C 
ATOM     14  C   UNL     1     -11.825  11.287   5.544  1.00  0.00     0.004 C 
ENDBRANCH  12  13
ENDBRANCH  11  12
ENDBRANCH  10  11
ENDBRANCH   9  10
ENDBRANCH   1   9
TORSDOF 10
ENDMDL
MODEL 3
REMARK VINA RESULT:    -2.954      3.080      6.119
REMARK INTER + INTRA:          -5.948
REMARK INTER:                  -5.032
REMARK INTRA:                  -0.916
REMARK UNBOUND:                -1.268
REMARK SMILES CCCCCCCCCCCC(=O)[O-]
REMARK SMILES IDX 7 1 8 2 9 3 10 4 11 5 12 6 13 7 14 8 6 9 5 10 4 11 3 12 2 13
REMARK SMILES IDX 1 14
REMARK H PARENT
REMARK Flexibility Score: inf
ROOT
ATOM      1  C   UNL     1      -2.674  12.673  10.909  1.00  0.00     0.000 C 
ENDROOT
BRANCH   1   2
ATOM      2  C   UNL     1      -1.733  11.545  11.350  1.00  0.00     0.000 C 
BRANCH   2   3
ATOM      3  C   UNL     1      -2.069  10.234  10.623  1.00  0.00     0.000 C 
BRANCH   3   4
ATOM      4  C   UNL     1      -0.839   9.593   9.962  1.00  0.00     0.006 C 
BRANCH   4   5
ATOM      5  C   UNL     1      -0.838   9.750   8.436  1.00  0.00     0.053 C 
BRANCH   5   6
ATOM      6  C   UNL     1      -0.291  11.089   8.050  1.00  0.00     0.041 C 
ATOM      7  O   UNL     1       0.874  11.420   8.393  1.00  0.00    -0.550 OA
ATOM      8  O   UNL     1      -1.086  11.990   7.353  1.00  0.00    -0.550 OA
ENDBRANCH   5   6
ENDBRANCH   4   5
ENDBRANCH   3   4
ENDBRANCH   2   3
ENDBRANCH   1   2
BRANCH   1   9
ATOM      9  C   UNL     1      -1.890  13.829  10.277  1.00  0.00     0.000 C 
BRANCH   9  10
ATOM     10  C   UNL     1      -0.444  13.859  10.795  1.00  0.00    -0.000 C 
BRANCH  10  11
ATOM     11  C   UNL     1      -0.102  15.169  11.522  1.00  0.00    -0.000 C 
BRANCH  11  12
ATOM     12  C   UNL     1      -1.143  16.272  11.277  1.00  0.00    -0.000 C 
BRANCH  12  13
ATOM     13  C   UNL     1      -0.960  17.429  12.267  1.00  0.00    -0.003 C 
ATOM     14  C   UNL     1      -2.293  18.102  12.580  1.00  0.00     0.004 C 
ENDBRANCH  12  13
ENDBRANCH  11  12
ENDBRANCH  10  11
ENDBRANCH   9  10
ENDBRANCH   1   9
TORSDOF 10
ENDMDL
MODEL 4
REMARK VINA RESULT:    -2.952      3.252      6.632
REMARK INTER + INTRA:          -5.946
REMARK INTER:                  -5.206
REMARK INTRA:                  -0.741
REMARK UNBOUND:                -1.268
REMARK SMILES CCCCCCCCCCCC(=O)[O-]
REMARK SMILES IDX 7 1 8 2 9 3 10 4 11 5 12 6 13 7 14 8 6 9 5 10 4 11 3 12 2 13
REMARK SMILES IDX 1 14
REMARK H PARENT
REMARK Flexibility Score: inf
ROOT
ATOM      1  C   UNL     1      -0.359  13.878  10.814  1.00  0.00     0.000 C 
ENDROOT
BRANCH   1   2
ATOM      2  C   UNL     1      -1.830  13.825  10.384  1.00  0.00     0.000 C 
BRANCH   2   3
ATOM      3  C   UNL     1      -2.365  12.385  10.430  1.00  0.00     0.000 C 
BRANCH   3   4
ATOM      4  C   UNL     1      -1.243  11.341  10.536  1.00  0.00     0.006 C 
BRANCH   4   5
ATOM      5  C   UNL     1      -1.085  10.510   9.256  1.00  0.00     0.053 C 
BRANCH   5   6
ATOM      6  C   UNL     1      -0.309  11.275   8.230  1.00  0.00     0.041 C 
ATOM      7  O   UNL     1       0.946  11.336   8.300  1.00  0.00    -0.550 OA
ATOM      8  O   UNL     1      -0.977  11.962   7.224  1.00  0.00    -0.550 OA
ENDBRANCH   5   6
ENDBRANCH   4   5
ENDBRANCH   3   4
ENDBRANCH   2   3
ENDBRANCH   1   2
BRANCH   1   9
ATOM      9  C   UNL     1       0.057  15.308  11.178  1.00  0.00     0.000 C 
BRANCH   9  10
ATOM     10  C   UNL     1      -1.143  16.265  11.102  1.00  0.00    -0.000 C 
BRANCH  10  11
ATOM     11  C   UNL     1      -1.484  16.896  12.460  1.00  0.00    -0.000 C 
BRANCH  11  12
ATOM     12  C   UNL     1      -1.394  18.429  12.442  1.00  0.00    -0.000 C 
BRANCH  12  13
ATOM     13  C   UNL     1      -0.438  18.936  13.528  1.00  0.00    -0.003 C 
ATOM     14  C   UNL     1       0.961  18.352  13.348  1.00  0.00     0.004 C 
ENDBRANCH  12  13
ENDBRANCH  11  12
ENDBRANCH  10  11
ENDBRANCH   9  10
ENDBRANCH   1   9
TORSDOF 10
ENDMDL
MODEL 5
REMARK VINA RESULT:    -2.877      1.313      2.360
REMARK INTER + INTRA:          -5.827
REMARK INTER:                  -5.069
REMARK INTRA:                  -0.758
REMARK UNBOUND:                -1.268
REMARK SMILES CCCCCCCCCCCC(=O)[O-]
REMARK SMILES IDX 7 1 8 2 9 3 10 4 11 5 12 6 13 7 14 8 6 9 5 10 4 11 3 12 2 13
REMARK SMILES IDX 1 14
REMARK H PARENT
REMARK Flexibility Score: inf
ROOT
ATOM      1  C   UNL     1      -0.672  14.223  11.330  1.00  0.00     0.000 C 
ENDROOT
BRANCH   1   2
ATOM      2  C   UNL     1      -0.140  15.651  11.159  1.00  0.00     0.000 C 
BRANCH   2   3
ATOM      3  C   UNL     1       0.378  16.208  12.494  1.00  0.00     0.000 C 
BRANCH   3   4
ATOM      4  C   UNL     1      -0.206  17.589  12.826  1.00  0.00     0.006 C 
BRANCH   4   5
ATOM      5  C   UNL     1      -1.605  17.798  12.232  1.00  0.00     0.053 C 
BRANCH   5   6
ATOM      6  C   UNL     1      -2.640  17.778  13.314  1.00  0.00     0.041 C 
ATOM      7  O   UNL     1      -2.689  16.817  14.125  1.00  0.00    -0.550 OA
ATOM      8  O   UNL     1      -3.580  18.797  13.394  1.00  0.00    -0.550 OA
ENDBRANCH   5   6
ENDBRANCH   4   5
ENDBRANCH   3   4
ENDBRANCH   2   3
ENDBRANCH   1   2
BRANCH   1   9
ATOM      9  C   UNL     1      -1.856  13.961  10.393  1.00  0.00     0.000 C 
BRANCH   9  10
ATOM     10  C   UNL     1      -2.465  12.574  10.652  1.00  0.00    -0.000 C 
BRANCH  10  11
ATOM     11  C   UNL     1      -1.702  11.449   9.936  1.00  0.00    -0.000 C 
BRANCH  11  12
ATOM     12  C   UNL     1      -1.053  11.914   8.624  1.00  0.00    -0.000 C 
BRANCH  12  13
ATOM     13  C   UNL     1       0.280  11.194   8.386  1.00  0.00    -0.003 C 
ATOM     14  C   UNL     1       1.022  10.958   9.698  1.00  0.00     0.004 C 
ENDBRANCH  12  13
ENDBRANCH  11  12
ENDBRANCH  10  11
ENDBRANCH   9  10
ENDBRANCH   1   9
TORSDOF 10
ENDMDL
MODEL 6
REMARK VINA RESULT:    -2.799     12.730     14.535
REMARK INTER + INTRA:          -5.703
REMARK INTER:                  -5.027
REMARK INTRA:                  -0.676
REMARK UNBOUND:                -1.268
REMARK SMILES CCCCCCCCCCCC(=O)[O-]
REMARK SMILES IDX 7 1 8 2 9 3 10 4 11 5 12 6 13 7 14 8 6 9 5 10 4 11 3 12 2 13
REMARK SMILES IDX 1 14
REMARK H PARENT
REMARK Flexibility Score: inf
ROOT
ATOM      1  C   UNL     1     -14.316   9.551  10.558  1.00  0.00     0.000 C 
ENDROOT
BRANCH   1   2
ATOM      2  C   UNL     1     -13.727   9.288   9.167  1.00  0.00     0.000 C 
BRANCH   2   3
ATOM      3  C   UNL     1     -14.745   9.627   8.067  1.00  0.00     0.000 C 
BRANCH   3   4
ATOM      4  C   UNL     1     -14.093   9.778   6.684  1.00  0.00     0.006 C 
BRANCH   4   5
ATOM      5  C   UNL     1     -12.560   9.772   6.748  1.00  0.00     0.053 C 
BRANCH   5   6
ATOM      6  C   UNL     1     -11.983  10.376   5.506  1.00  0.00     0.041 C 
ATOM      7  O   UNL     1     -11.604  11.576   5.503  1.00  0.00    -0.550 OA
ATOM      8  O   UNL     1     -11.910   9.627   4.338  1.00  0.00    -0.550 OA
ENDBRANCH   5   6
ENDBRANCH   4   5
ENDBRANCH   3   4
ENDBRANCH   2   3
ENDBRANCH   1   2
BRANCH   1   9
ATOM      9  C   UNL     1     -13.206   9.720  11.602  1.00  0.00     0.000 C 
BRANCH   9  10
ATOM     10  C   UNL     1     -13.562  10.825  12.609  1.00  0.00    -0.000 C 
BRANCH  10  11
ATOM     11  C   UNL     1     -14.345  10.292  13.820  1.00  0.00    -0.000 C 
BRANCH  11  12
ATOM     12  C   UNL     1     -15.829  10.684  13.785  1.00  0.00    -0.000 C 
BRANCH  12  13
ATOM     13  C   UNL     1     -16.050  11.923  12.909  1.00  0.00    -0.003 C 
ATOM     14  C   UNL     1     -17.092  11.657  11.827  1.00  0.00     0.004 C 
ENDBRANCH  12  13
ENDBRANCH  11  12
ENDBRANCH  10  11
ENDBRANCH   9  10
ENDBRANCH   1   9
TORSDOF 10
ENDMDL
MODEL 7
REMARK VINA RESULT:    -2.798     12.884     14.608
REMARK INTER + INTRA:          -5.702
REMARK INTER:                  -4.987
REMARK INTRA:                  -0.715
REMARK UNBOUND:                -1.268
REMARK SMILES CCCCCCCCCCCC(=O)[O-]
REMARK SMILES IDX 7 1 8 2 9 3 10 4 11 5 12 6 13 7 14 8 6 9 5 10 4 11 3 12 2 13
REMARK SMILES IDX 1 14
REMARK H PARENT
REMARK Flexibility Score: inf
ROOT
ATOM      1  C   UNL     1     -15.558   9.742   6.729  1.00  0.00     0.000 C 
ENDROOT
BRANCH   1   2
ATOM      2  C   UNL     1     -16.090  10.426   5.463  1.00  0.00     0.000 C 
BRANCH   2   3
ATOM      3  C   UNL     1     -14.936  10.974   4.609  1.00  0.00     0.000 C 
BRANCH   3   4
ATOM      4  C   UNL     1     -14.013   9.865   4.080  1.00  0.00     0.006 C 
BRANCH   4   5
ATOM      5  C   UNL     1     -12.550  10.314   3.978  1.00  0.00     0.053 C 
BRANCH   5   6
ATOM      6  C   UNL     1     -11.997  10.606   5.338  1.00  0.00     0.041 C 
ATOM      7  O   UNL     1     -11.487  11.729   5.586  1.00  0.00    -0.550 OA
ATOM      8  O   UNL     1     -12.001   9.620   6.317  1.00  0.00    -0.550 OA
ENDBRANCH   5   6
ENDBRANCH   4   5
ENDBRANCH   3   4
ENDBRANCH   2   3
ENDBRANCH   1   2
BRANCH   1   9
ATOM      9  C   UNL     1     -16.139  10.393   7.990  1.00  0.00     0.000 C 
BRANCH   9  10
ATOM     10  C   UNL     1     -15.583   9.724   9.257  1.00  0.00    -0.000 C 
BRANCH  10  11
ATOM     11  C   UNL     1     -14.113   9.302   9.108  1.00  0.00    -0.000 C 
BRANCH  11  12
ATOM     12  C   UNL     1     -13.375   9.236  10.453  1.00  0.00    -0.000 C 
BRANCH  12  13
ATOM     13  C   UNL     1     -14.234   9.825  11.579  1.00  0.00    -0.003 C 
ATOM     14  C   UNL     1     -13.397  10.693  12.515  1.00  0.00     0.004 C 
ENDBRANCH  12  13
ENDBRANCH  11  12
ENDBRANCH  10  11
ENDBRANCH   9  10
ENDBRANCH   1   9
TORSDOF 10
ENDMDL
MODEL 8
REMARK VINA RESULT:    -2.767      3.499      6.608
REMARK INTER + INTRA:          -5.652
REMARK INTER:                  -4.626
REMARK INTRA:                  -1.025
REMARK UNBOUND:                -1.268
REMARK SMILES CCCCCCCCCCCC(=O)[O-]
REMARK SMILES IDX 7 1 8 2 9 3 10 4 11 5 12 6 13 7 14 8 6 9 5 10 4 11 3 12 2 13
REMARK SMILES IDX 1 14
REMARK H PARENT
REMARK Flexibility Score: inf
ROOT
ATOM      1  C   UNL     1      -0.874  15.469  10.747  1.00  0.00     0.000 C 
ENDROOT
BRANCH   1   2
ATOM      2  C   UNL     1      -1.531  14.372  11.594  1.00  0.00     0.000 C 
BRANCH   2   3
ATOM      3  C   UNL     1      -1.794  13.113  10.754  1.00  0.00     0.000 C 
BRANCH   3   4
ATOM      4  C   UNL     1      -0.651  12.090  10.849  1.00  0.00     0.006 C 
BRANCH   4   5
ATOM      5  C   UNL     1       0.171  12.000   9.557  1.00  0.00     0.053 C 
BRANCH   5   6
ATOM      6  C   UNL     1      -0.603  11.283   8.495  1.00  0.00     0.041 C 
ATOM      7  O   UNL     1      -0.777  11.817   7.369  1.00  0.00    -0.550 OA
ATOM      8  O   UNL     1      -1.173  10.046   8.766  1.00  0.00    -0.550 OA
ENDBRANCH   5   6
ENDBRANCH   4   5
ENDBRANCH   3   4
ENDBRANCH   2   3
ENDBRANCH   1   2
BRANCH   1   9
ATOM      9  C   UNL     1       0.603  15.641  11.119  1.00  0.00     0.000 C 
BRANCH   9  10
ATOM     10  C   UNL     1       0.760  15.954  12.615  1.00  0.00    -0.000 C 
BRANCH  10  11
ATOM     11  C   UNL     1       0.934  17.456  12.891  1.00  0.00    -0.000 C 
BRANCH  11  12
ATOM     12  C   UNL     1      -0.274  18.071  13.612  1.00  0.00    -0.000 C 
BRANCH  12  13
ATOM     13  C   UNL     1      -1.274  18.655  12.606  1.00  0.00    -0.003 C 
ATOM     14  C   UNL     1      -2.706  18.267  12.962  1.00  0.00     0.004 C 
ENDBRANCH  12  13
ENDBRANCH  11  12
ENDBRANCH  10  11
ENDBRANCH   9  10
ENDBRANCH   1   9
TORSDOF 10
ENDMDL
MODEL 9
REMARK VINA RESULT:    -2.761     13.683     15.433
REMARK INTER + INTRA:          -5.643
REMARK INTER:                  -4.563
REMARK INTRA:                  -1.081
REMARK UNBOUND:                -1.268
REMARK SMILES CCCCCCCCCCCC(=O)[O-]
REMARK SMILES IDX 7 1 8 2 9 3 10 4 11 5 12 6 13 7 14 8 6 9 5 10 4 11 3 12 2 13
REMARK SMILES IDX 1 14
REMARK H PARENT
REMARK Flexibility Score: inf
ROOT
ATOM      1  C   UNL     1     -12.403  10.420   6.315  1.00  0.00     0.000 C 
ENDROOT
BRANCH   1   2
ATOM      2  C   UNL     1     -11.960  10.345   4.849  1.00  0.00     0.000 C 
BRANCH   2   3
ATOM      3  C   UNL     1     -12.469   9.056   4.186  1.00  0.00     0.000 C 
BRANCH   3   4
ATOM      4  C   UNL     1     -13.664   9.303   3.252  1.00  0.00     0.006 C 
BRANCH   4   5
ATOM      5  C   UNL     1     -15.013   9.146   3.963  1.00  0.00     0.053 C 
BRANCH   5   6
ATOM      6  C   UNL     1     -15.770  10.438   3.939  1.00  0.00     0.041 C 
ATOM      7  O   UNL     1     -15.289  11.463   4.488  1.00  0.00    -0.550 OA
ATOM      8  O   UNL     1     -17.028  10.495   3.354  1.00  0.00    -0.550 OA
ENDBRANCH   5   6
ENDBRANCH   4   5
ENDBRANCH   3   4
ENDBRANCH   2   3
ENDBRANCH   1   2
BRANCH   1   9
ATOM      9  C   UNL     1     -12.712   9.024   6.869  1.00  0.00     0.000 C 
BRANCH   9  10
ATOM     10  C   UNL     1     -13.703   9.105   8.040  1.00  0.00    -0.000 C 
BRANCH  10  11
ATOM     11  C   UNL     1     -14.989   9.864   7.676  1.00  0.00    -0.000 C 
BRANCH  11  12
ATOM     12  C   UNL     1     -16.046   9.808   8.789  1.00  0.00    -0.000 C 
BRANCH  12  13
ATOM     13  C   UNL     1     -15.447   9.252  10.086  1.00  0.00    -0.003 C 
ATOM     14  C   UNL     1     -15.393  10.322  11.172  1.00  0.00     0.004 C 
ENDBRANCH  12  13
ENDBRANCH  11  12
ENDBRANCH  10  11
ENDBRANCH   9  10
ENDBRANCH   1   9
TORSDOF 10
ENDMDL
