MODEL 1
REMARK VINA RESULT:    -3.612      0.000      0.000
REMARK INTER + INTRA:          -4.377
REMARK INTER:                  -4.246
REMARK INTRA:                  -0.131
REMARK UNBOUND:                -0.131
REMARK SMILES O=C([O-])CCC(=O)[O-]
REMARK SMILES IDX 4 1 2 2 1 3 3 4 5 5 6 6 7 7 8 8
REMARK H PARENT
REMARK Flexibility Score: inf
ROOT
ATOM      1  C   UNL     1      50.807  30.309  42.686  1.00  0.00     0.059 C 
ENDROOT
BRANCH   1   2
ATOM      2  C   UNL     1      52.096  29.763  42.157  1.00  0.00     0.042 C 
ATOM      3  O   UNL     1      52.113  29.106  41.084  1.00  0.00    -0.550 OA
ATOM      4  O   UNL     1      53.286  30.021  42.825  1.00  0.00    -0.550 OA
ENDBRANCH   1   2
BRANCH   1   5
ATOM      5  C   UNL     1      50.494  31.659  42.041  1.00  0.00     0.059 C 
BRANCH   5   6
ATOM      6  C   UNL     1      51.022  32.777  42.882  1.00  0.00     0.042 C 
ATOM      7  O   UNL     1      50.339  33.227  43.840  1.00  0.00    -0.550 OA
ATOM      8  O   UNL     1      52.246  33.358  42.578  1.00  0.00    -0.550 OA
ENDBRANCH   5   6
ENDBRANCH   1   5
TORSDOF 3
ENDMDL
MODEL 2
REMARK VINA RESULT:    -3.567      0.740      3.743
REMARK INTER + INTRA:          -4.324
REMARK INTER:                  -4.228
REMARK INTRA:                  -0.097
REMARK UNBOUND:                -0.131
REMARK SMILES O=C([O-])CCC(=O)[O-]
REMARK SMILES IDX 4 1 2 2 1 3 3 4 5 5 6 6 7 7 8 8
REMARK H PARENT
REMARK Flexibility Score: inf
ROOT
ATOM      1  C   UNL     1      50.594  31.828  42.052  1.00  0.00     0.059 C 
ENDROOT
BRANCH   1   2
ATOM      2  C   UNL     1      51.233  32.902  42.875  1.00  0.00     0.042 C 
ATOM      3  O   UNL     1      52.421  33.253  42.648  1.00  0.00    -0.550 OA
ATOM      4  O   UNL     1      50.500  33.550  43.861  1.00  0.00    -0.550 OA
ENDBRANCH   1   2
BRANCH   1   5
ATOM      5  C   UNL     1      50.481  30.534  42.858  1.00  0.00     0.059 C 
BRANCH   5   6
ATOM      6  C   UNL     1      51.598  29.600  42.511  1.00  0.00     0.042 C 
ATOM      7  O   UNL     1      52.012  29.522  41.324  1.00  0.00    -0.550 OA
ATOM      8  O   UNL     1      52.147  28.780  43.487  1.00  0.00    -0.550 OA
ENDBRANCH   5   6
ENDBRANCH   1   5
TORSDOF 3
ENDMDL
MODEL 3
REMARK VINA RESULT:    -3.360      9.527     11.233
REMARK INTER + INTRA:          -4.080
REMARK INTER:                  -4.038
REMARK INTRA:                  -0.042
REMARK UNBOUND:                -0.131
REMARK SMILES O=C([O-])CCC(=O)[O-]
REMARK SMILES IDX 4 1 2 2 1 3 3 4 5 5 6 6 7 7 8 8
REMARK H PARENT
REMARK Flexibility Score: inf
ROOT
ATOM      1  C   UNL     1      45.971  36.167  49.885  1.00  0.00     0.059 C 
ENDROOT
BRANCH   1   2
ATOM      2  C   UNL     1      44.749  36.895  50.351  1.00  0.00     0.042 C 
ATOM      3  O   UNL     1      44.809  37.657  51.352  1.00  0.00    -0.550 OA
ATOM      4  O   UNL     1      43.556  36.769  49.652  1.00  0.00    -0.550 OA
ENDBRANCH   1   2
BRANCH   1   5
ATOM      5  C   UNL     1      47.056  36.199  50.962  1.00  0.00     0.059 C 
BRANCH   5   6
ATOM      6  C   UNL     1      48.386  35.849  50.375  1.00  0.00     0.042 C 
ATOM      7  O   UNL     1      48.811  36.457  49.358  1.00  0.00    -0.550 OA
ATOM      8  O   UNL     1      49.137  34.815  50.922  1.00  0.00    -0.550 OA
ENDBRANCH   5   6
ENDBRANCH   1   5
TORSDOF 3
ENDMDL
MODEL 4
REMARK VINA RESULT:    -3.348     11.300     12.298
REMARK INTER + INTRA:          -4.067
REMARK INTER:                  -3.971
REMARK INTRA:                  -0.096
REMARK UNBOUND:                -0.131
REMARK SMILES O=C([O-])CCC(=O)[O-]
REMARK SMILES IDX 4 1 2 2 1 3 3 4 5 5 6 6 7 7 8 8
REMARK H PARENT
REMARK Flexibility Score: inf
ROOT
ATOM      1  C   UNL     1      58.837  38.538  37.964  1.00  0.00     0.059 C 
ENDROOT
BRANCH   1   2
ATOM      2  C   UNL     1      58.392  37.598  36.888  1.00  0.00     0.042 C 
ATOM      3  O   UNL     1      59.140  36.654  36.522  1.00  0.00    -0.550 OA
ATOM      4  O   UNL     1      57.131  37.736  36.322  1.00  0.00    -0.550 OA
ENDBRANCH   1   2
BRANCH   1   5
ATOM      5  C   UNL     1      60.280  38.240  38.371  1.00  0.00     0.059 C 
BRANCH   5   6
ATOM      6  C   UNL     1      61.166  39.401  38.048  1.00  0.00     0.042 C 
ATOM      7  O   UNL     1      60.893  40.156  37.078  1.00  0.00    -0.550 OA
ATOM      8  O   UNL     1      62.321  39.621  38.788  1.00  0.00    -0.550 OA
ENDBRANCH   5   6
ENDBRANCH   1   5
TORSDOF 3
ENDMDL
MODEL 5
REMARK VINA RESULT:    -3.317     11.310     12.450
REMARK INTER + INTRA:          -4.030
REMARK INTER:                  -3.924
REMARK INTRA:                  -0.105
REMARK UNBOUND:                -0.131
REMARK SMILES O=C([O-])CCC(=O)[O-]
REMARK SMILES IDX 4 1 2 2 1 3 3 4 5 5 6 6 7 7 8 8
REMARK H PARENT
REMARK Flexibility Score: inf
ROOT
ATOM      1  C   UNL     1      60.238  38.244  38.432  1.00  0.00     0.059 C 
ENDROOT
BRANCH   1   2
ATOM      2  C   UNL     1      61.233  39.268  37.985  1.00  0.00     0.042 C 
ATOM      3  O   UNL     1      62.158  39.633  38.758  1.00  0.00    -0.550 OA
ATOM      4  O   UNL     1      61.169  39.784  36.697  1.00  0.00    -0.550 OA
ENDBRANCH   1   2
BRANCH   1   5
ATOM      5  C   UNL     1      58.835  38.618  37.951  1.00  0.00     0.059 C 
BRANCH   5   6
ATOM      6  C   UNL     1      58.366  37.657  36.905  1.00  0.00     0.042 C 
ATOM      7  O   UNL     1      57.197  37.742  36.444  1.00  0.00    -0.550 OA
ATOM      8  O   UNL     1      59.202  36.634  36.476  1.00  0.00    -0.550 OA
ENDBRANCH   5   6
ENDBRANCH   1   5
TORSDOF 3
ENDMDL
MODEL 6
REMARK VINA RESULT:    -3.314     10.335     11.169
REMARK INTER + INTRA:          -4.026
REMARK INTER:                  -3.971
REMARK INTRA:                  -0.055
REMARK UNBOUND:                -0.131
REMARK SMILES O=C([O-])CCC(=O)[O-]
REMARK SMILES IDX 4 1 2 2 1 3 3 4 5 5 6 6 7 7 8 8
REMARK H PARENT
REMARK Flexibility Score: inf
ROOT
ATOM      1  C   UNL     1      46.300  35.732  51.416  1.00  0.00     0.059 C 
ENDROOT
BRANCH   1   2
ATOM      2  C   UNL     1      46.733  34.302  51.330  1.00  0.00     0.042 C 
ATOM      3  O   UNL     1      45.877  33.386  51.207  1.00  0.00    -0.550 OA
ATOM      4  O   UNL     1      48.085  33.983  51.337  1.00  0.00    -0.550 OA
ENDBRANCH   1   2
BRANCH   1   5
ATOM      5  C   UNL     1      45.824  36.229  50.051  1.00  0.00     0.059 C 
BRANCH   5   6
ATOM      6  C   UNL     1      44.469  36.852  50.164  1.00  0.00     0.042 C 
ATOM      7  O   UNL     1      43.524  36.454  49.432  1.00  0.00    -0.550 OA
ATOM      8  O   UNL     1      44.260  37.908  51.042  1.00  0.00    -0.550 OA
ENDBRANCH   5   6
ENDBRANCH   1   5
TORSDOF 3
ENDMDL
MODEL 7
REMARK VINA RESULT:    -3.302     11.942     12.616
REMARK INTER + INTRA:          -4.012
REMARK INTER:                  -3.875
REMARK INTRA:                  -0.137
REMARK UNBOUND:                -0.131
REMARK SMILES O=C([O-])CCC(=O)[O-]
REMARK SMILES IDX 4 1 2 2 1 3 3 4 5 5 6 6 7 7 8 8
REMARK H PARENT
REMARK Flexibility Score: inf
ROOT
ATOM      1  C   UNL     1      59.533  36.928  36.555  1.00  0.00     0.059 C 
ENDROOT
BRANCH   1   2
ATOM      2  C   UNL     1      60.179  36.870  35.207  1.00  0.00     0.042 C 
ATOM      3  O   UNL     1      59.474  36.889  34.164  1.00  0.00    -0.550 OA
ATOM      4  O   UNL     1      61.564  36.844  35.101  1.00  0.00    -0.550 OA
ENDBRANCH   1   2
BRANCH   1   5
ATOM      5  C   UNL     1      60.323  37.846  37.488  1.00  0.00     0.059 C 
BRANCH   5   6
ATOM      6  C   UNL     1      59.919  39.272  37.287  1.00  0.00     0.042 C 
ATOM      7  O   UNL     1      58.701  39.592  37.290  1.00  0.00    -0.550 OA
ATOM      8  O   UNL     1      60.884  40.241  37.045  1.00  0.00    -0.550 OA
ENDBRANCH   5   6
ENDBRANCH   1   5
TORSDOF 3
ENDMDL
MODEL 8
REMARK VINA RESULT:    -3.289     11.990     13.058
REMARK INTER + INTRA:          -3.997
REMARK INTER:                  -3.851
REMARK INTRA:                  -0.146
REMARK UNBOUND:                -0.131
REMARK SMILES O=C([O-])CCC(=O)[O-]
REMARK SMILES IDX 4 1 2 2 1 3 3 4 5 5 6 6 7 7 8 8
REMARK H PARENT
REMARK Flexibility Score: inf
ROOT
ATOM      1  C   UNL     1      60.298  37.828  37.513  1.00  0.00     0.059 C 
ENDROOT
BRANCH   1   2
ATOM      2  C   UNL     1      59.952  39.263  37.273  1.00  0.00     0.042 C 
ATOM      3  O   UNL     1      60.861  40.132  37.204  1.00  0.00    -0.550 OA
ATOM      4  O   UNL     1      58.628  39.636  37.077  1.00  0.00    -0.550 OA
ENDBRANCH   1   2
BRANCH   1   5
ATOM      5  C   UNL     1      59.540  36.925  36.539  1.00  0.00     0.059 C 
BRANCH   5   6
ATOM      6  C   UNL     1      60.219  36.906  35.206  1.00  0.00     0.042 C 
ATOM      7  O   UNL     1      59.537  36.915  34.147  1.00  0.00    -0.550 OA
ATOM      8  O   UNL     1      61.604  36.828  35.132  1.00  0.00    -0.550 OA
ENDBRANCH   5   6
ENDBRANCH   1   5
TORSDOF 3
ENDMDL
MODEL 9
REMARK VINA RESULT:    -3.277     10.416     11.502
REMARK INTER + INTRA:          -3.983
REMARK INTER:                  -3.934
REMARK INTRA:                  -0.049
REMARK UNBOUND:                -0.131
REMARK SMILES O=C([O-])CCC(=O)[O-]
REMARK SMILES IDX 4 1 2 2 1 3 3 4 5 5 6 6 7 7 8 8
REMARK H PARENT
REMARK Flexibility Score: inf
ROOT
ATOM      1  C   UNL     1      46.222  35.908  51.396  1.00  0.00     0.059 C 
ENDROOT
BRANCH   1   2
ATOM      2  C   UNL     1      47.688  36.177  51.519  1.00  0.00     0.042 C 
ATOM      3  O   UNL     1      48.226  36.254  52.655  1.00  0.00    -0.550 OA
ATOM      4  O   UNL     1      48.471  36.296  50.378  1.00  0.00    -0.550 OA
ENDBRANCH   1   2
BRANCH   1   5
ATOM      5  C   UNL     1      45.726  36.276  49.997  1.00  0.00     0.059 C 
BRANCH   5   6
ATOM      6  C   UNL     1      44.341  36.839  50.064  1.00  0.00     0.042 C 
ATOM      7  O   UNL     1      44.072  37.767  50.872  1.00  0.00    -0.550 OA
ATOM      8  O   UNL     1      43.335  36.304  49.270  1.00  0.00    -0.550 OA
ENDBRANCH   5   6
ENDBRANCH   1   5
TORSDOF 3
ENDMDL
