MODEL 1
REMARK VINA RESULT:    -4.344      0.000      0.000
REMARK INTER + INTRA:          -7.201
REMARK INTER:                  -6.629
REMARK INTRA:                  -0.572
REMARK UNBOUND:                -0.572
REMARK SMILES CC1=CCC[C@H](C)C(=O)C[C@H](C(C)C)C(=O)C1
REMARK SMILES IDX 8 1 9 2 6 3 7 4 5 5 4 6 3 7 2 8 1 9 10 11 11 12 15 13 16 14
REMARK SMILES IDX 17 15 12 17 13 18 14 19
REMARK H PARENT
REMARK Flexibility Score: 70.00
ROOT
ATOM      1  C   UNL     1      17.561 -31.010  23.046  1.00  0.00     0.136 C 
ATOM      2  O   UNL     1      18.519 -31.119  23.798  1.00  0.00    -0.299 OA
ENDROOT
BRANCH   1   3
ATOM      3  C   UNL     1      17.776 -30.641  21.586  1.00  0.00     0.053 C 
ATOM      4  C   UNL     1      17.992 -29.133  21.389  1.00  0.00     0.016 C 
BRANCH   3   5
ATOM      5  C   UNL     1      18.919 -31.467  20.955  1.00  0.00     0.015 C 
BRANCH   5   6
ATOM      6  C   UNL     1      18.428 -32.771  20.297  1.00  0.00     0.028 C 
BRANCH   6   7
ATOM      7  C   UNL     1      18.620 -34.000  21.152  1.00  0.00    -0.028 C 
ATOM      8  C   UNL     1      17.666 -34.645  21.874  1.00  0.00    -0.070 CG0
ATOM      9  C   UNL     1      18.134 -35.755  22.785  1.00  0.00     0.039 C 
ATOM     10  G   UNL     1      16.161 -34.412  21.746  1.00  0.00     0.000 G0
ENDBRANCH   6   7
ENDBRANCH   5   6
ENDBRANCH   3   5
ENDBRANCH   1   3
BRANCH   1  11
ATOM     11  C   UNL     1      16.164 -31.249  23.577  1.00  0.00     0.087 C 
BRANCH  11  12
ATOM     12  C   UNL     1      15.252 -32.145  22.689  1.00  0.00     0.066 C 
BRANCH  12  13
ATOM     13  C   UNL     1      15.496 -33.641  22.869  1.00  0.00     0.140 C 
ATOM     14  O   UNL     1      15.077 -34.224  23.857  1.00  0.00    -0.299 OA
BRANCH  13  15
ATOM     15  C   UNL     1      16.150 -34.421  21.757  1.00  0.00     0.106 CG0
ATOM     16  G   UNL     1      17.658 -34.629  21.884  1.00  0.00     0.000 G0
ENDBRANCH  13  15
ENDBRANCH  12  13
BRANCH  12  17
ATOM     17  C   UNL     1      13.749 -31.716  22.687  1.00  0.00    -0.006 C 
ATOM     18  C   UNL     1      13.485 -30.559  23.664  1.00  0.00     0.008 C 
ATOM     19  C   UNL     1      13.176 -31.388  21.300  1.00  0.00     0.008 C 
ENDBRANCH  12  17
ENDBRANCH  11  12
ENDBRANCH   1  11
TORSDOF 1
ENDMDL
MODEL 2
REMARK VINA RESULT:    -4.154      1.854      4.276
REMARK INTER + INTRA:          -6.911
REMARK INTER:                  -6.452
REMARK INTRA:                  -0.459
REMARK UNBOUND:                -0.572
REMARK SMILES CC1=CCC[C@H](C)C(=O)C[C@H](C(C)C)C(=O)C1
REMARK SMILES IDX 8 1 9 2 6 3 7 4 5 5 4 6 3 7 2 8 1 9 10 11 11 12 15 13 16 14
REMARK SMILES IDX 17 15 12 17 13 18 14 19
REMARK H PARENT
REMARK Flexibility Score: 70.00
ROOT
ATOM      1  C   UNL     1      14.596 -32.846  22.231  1.00  0.00     0.136 C 
ATOM      2  O   UNL     1      14.362 -32.991  23.423  1.00  0.00    -0.299 OA
ENDROOT
BRANCH   1   3
ATOM      3  C   UNL     1      14.348 -31.502  21.563  1.00  0.00     0.053 C 
ATOM      4  C   UNL     1      12.855 -31.242  21.309  1.00  0.00     0.016 C 
BRANCH   3   5
ATOM      5  C   UNL     1      15.001 -30.347  22.353  1.00  0.00     0.015 C 
BRANCH   5   6
ATOM      6  C   UNL     1      16.496 -30.163  22.027  1.00  0.00     0.028 C 
BRANCH   6   7
ATOM      7  C   UNL     1      17.421 -30.540  23.158  1.00  0.00    -0.028 C 
ATOM      8  C   UNL     1      18.220 -31.638  23.223  1.00  0.00    -0.070 CG0
ATOM      9  C   UNL     1      18.932 -31.887  24.532  1.00  0.00     0.039 C 
ATOM     10  G   UNL     1      18.539 -32.561  22.048  1.00  0.00     0.000 G0
ENDBRANCH   6   7
ENDBRANCH   5   6
ENDBRANCH   3   5
ENDBRANCH   1   3
BRANCH   1  11
ATOM     11  C   UNL     1      15.139 -34.010  21.431  1.00  0.00     0.087 C 
BRANCH  11  12
ATOM     12  C   UNL     1      16.570 -33.816  20.849  1.00  0.00     0.066 C 
BRANCH  12  13
ATOM     13  C   UNL     1      17.668 -33.802  21.909  1.00  0.00     0.140 C 
ATOM     14  O   UNL     1      17.905 -34.800  22.572  1.00  0.00    -0.299 OA
BRANCH  13  15
ATOM     15  C   UNL     1      18.547 -32.584  22.044  1.00  0.00     0.106 CG0
ATOM     16  G   UNL     1      18.228 -31.659  23.217  1.00  0.00     0.000 G0
ENDBRANCH  13  15
ENDBRANCH  12  13
BRANCH  12  17
ATOM     17  C   UNL     1      16.871 -34.702  19.596  1.00  0.00    -0.006 C 
ATOM     18  C   UNL     1      18.317 -34.522  19.106  1.00  0.00     0.008 C 
ATOM     19  C   UNL     1      16.545 -36.193  19.772  1.00  0.00     0.008 C 
ENDBRANCH  12  17
ENDBRANCH  11  12
ENDBRANCH   1  11
TORSDOF 1
ENDMDL
MODEL 3
REMARK VINA RESULT:    -3.981      1.964      4.753
REMARK INTER + INTRA:          -6.648
REMARK INTER:                  -6.343
REMARK INTRA:                  -0.305
REMARK UNBOUND:                -0.572
REMARK SMILES CC1=CCC[C@H](C)C(=O)C[C@H](C(C)C)C(=O)C1
REMARK SMILES IDX 8 1 9 2 6 3 7 4 5 5 4 6 3 7 2 8 1 9 10 11 11 12 15 13 16 14
REMARK SMILES IDX 17 15 12 17 13 18 14 19
REMARK H PARENT
REMARK Flexibility Score: 70.00
ROOT
ATOM      1  C   UNL     1      15.024 -33.610  20.975  1.00  0.00     0.136 C 
ATOM      2  O   UNL     1      14.644 -34.122  19.931  1.00  0.00    -0.299 OA
ENDROOT
BRANCH   1   3
ATOM      3  C   UNL     1      14.514 -32.235  21.379  1.00  0.00     0.053 C 
ATOM      4  C   UNL     1      13.309 -31.787  20.537  1.00  0.00     0.016 C 
BRANCH   3   5
ATOM      5  C   UNL     1      14.209 -32.165  22.892  1.00  0.00     0.015 C 
BRANCH   5   6
ATOM      6  C   UNL     1      15.066 -31.120  23.632  1.00  0.00     0.028 C 
BRANCH   6   7
ATOM      7  C   UNL     1      16.319 -30.719  22.892  1.00  0.00    -0.028 C 
ATOM      8  C   UNL     1      17.548 -31.290  23.005  1.00  0.00    -0.070 CG0
ATOM      9  C   UNL     1      18.686 -30.606  22.285  1.00  0.00     0.039 C 
ATOM     10  G   UNL     1      17.838 -32.617  23.703  1.00  0.00     0.000 G0
ENDBRANCH   6   7
ENDBRANCH   5   6
ENDBRANCH   3   5
ENDBRANCH   1   3
BRANCH   1  11
ATOM     11  C   UNL     1      15.996 -34.356  21.861  1.00  0.00     0.087 C 
BRANCH  11  12
ATOM     12  C   UNL     1      17.504 -34.106  21.564  1.00  0.00     0.066 C 
BRANCH  12  13
ATOM     13  C   UNL     1      18.323 -33.746  22.801  1.00  0.00     0.140 C 
ATOM     14  O   UNL     1      19.400 -34.282  23.012  1.00  0.00    -0.299 OA
BRANCH  13  15
ATOM     15  C   UNL     1      17.851 -32.629  23.698  1.00  0.00     0.106 CG0
ATOM     16  G   UNL     1      17.543 -31.302  23.006  1.00  0.00     0.000 G0
ENDBRANCH  13  15
ENDBRANCH  12  13
BRANCH  12  17
ATOM     17  C   UNL     1      18.154 -35.178  20.631  1.00  0.00    -0.006 C 
ATOM     18  C   UNL     1      17.621 -36.589  20.926  1.00  0.00     0.008 C 
ATOM     19  C   UNL     1      18.052 -34.869  19.129  1.00  0.00     0.008 C 
ENDBRANCH  12  17
ENDBRANCH  11  12
ENDBRANCH   1  11
TORSDOF 1
ENDMDL
MODEL 4
REMARK VINA RESULT:    -3.932      1.968      4.406
REMARK INTER + INTRA:          -6.573
REMARK INTER:                  -5.887
REMARK INTRA:                  -0.686
REMARK UNBOUND:                -0.572
REMARK SMILES CC1=CCC[C@H](C)C(=O)C[C@H](C(C)C)C(=O)C1
REMARK SMILES IDX 8 1 9 2 6 3 7 4 5 5 4 6 3 7 2 8 1 9 10 11 11 12 15 13 16 14
REMARK SMILES IDX 17 15 12 17 13 18 14 19
REMARK H PARENT
REMARK Flexibility Score: 70.00
ROOT
ATOM      1  C   UNL     1      19.084 -32.644  21.242  1.00  0.00     0.136 C 
ATOM      2  O   UNL     1      19.750 -31.759  20.725  1.00  0.00    -0.299 OA
ENDROOT
BRANCH   1   3
ATOM      3  C   UNL     1      19.288 -32.993  22.709  1.00  0.00     0.053 C 
ATOM      4  C   UNL     1      20.717 -33.475  23.003  1.00  0.00     0.016 C 
BRANCH   3   5
ATOM      5  C   UNL     1      18.880 -31.824  23.633  1.00  0.00     0.015 C 
BRANCH   5   6
ATOM      6  C   UNL     1      17.424 -31.927  24.127  1.00  0.00     0.028 C 
BRANCH   6   7
ATOM      7  C   UNL     1      16.445 -31.107  23.324  1.00  0.00    -0.028 C 
ATOM      8  C   UNL     1      15.502 -31.579  22.466  1.00  0.00    -0.070 CG0
ATOM      9  C   UNL     1      14.749 -30.554  21.650  1.00  0.00     0.039 C 
ATOM     10  G   UNL     1      15.072 -33.040  22.351  1.00  0.00     0.000 G0
ENDBRANCH   6   7
ENDBRANCH   5   6
ENDBRANCH   3   5
ENDBRANCH   1   3
BRANCH   1  11
ATOM     11  C   UNL     1      18.054 -33.382  20.416  1.00  0.00     0.087 C 
BRANCH  11  12
ATOM     12  C   UNL     1      17.077 -34.292  21.217  1.00  0.00     0.066 C 
BRANCH  12  13
ATOM     13  C   UNL     1      15.625 -33.822  21.175  1.00  0.00     0.140 C 
ATOM     14  O   UNL     1      14.891 -34.150  20.256  1.00  0.00    -0.299 OA
BRANCH  13  15
ATOM     15  C   UNL     1      15.066 -33.050  22.344  1.00  0.00     0.106 CG0
ATOM     16  G   UNL     1      15.513 -31.594  22.458  1.00  0.00     0.000 G0
ENDBRANCH  13  15
ENDBRANCH  12  13
BRANCH  12  17
ATOM     17  C   UNL     1      17.283 -35.821  20.965  1.00  0.00    -0.006 C 
ATOM     18  C   UNL     1      17.681 -36.111  19.509  1.00  0.00     0.008 C 
ATOM     19  C   UNL     1      18.259 -36.505  21.935  1.00  0.00     0.008 C 
ENDBRANCH  12  17
ENDBRANCH  11  12
ENDBRANCH   1  11
TORSDOF 1
ENDMDL
MODEL 5
REMARK VINA RESULT:    -3.919      2.099      4.491
REMARK INTER + INTRA:          -6.553
REMARK INTER:                  -6.633
REMARK INTRA:                   0.080
REMARK UNBOUND:                -0.572
REMARK SMILES CC1=CCC[C@H](C)C(=O)C[C@H](C(C)C)C(=O)C1
REMARK SMILES IDX 8 1 9 2 6 3 7 4 5 5 4 6 3 7 2 8 1 9 10 11 11 12 15 13 16 14
REMARK SMILES IDX 17 15 12 17 13 18 14 19
REMARK H PARENT
REMARK Flexibility Score: 70.00
ROOT
ATOM      1  C   UNL     1      14.474 -32.583  21.863  1.00  0.00     0.136 C 
ATOM      2  O   UNL     1      13.825 -31.800  21.184  1.00  0.00    -0.299 OA
ENDROOT
BRANCH   1   3
ATOM      3  C   UNL     1      14.628 -32.348  23.359  1.00  0.00     0.053 C 
ATOM      4  C   UNL     1      13.503 -31.472  23.932  1.00  0.00     0.016 C 
BRANCH   3   5
ATOM      5  C   UNL     1      14.764 -33.678  24.131  1.00  0.00     0.015 C 
BRANCH   5   6
ATOM      6  C   UNL     1      16.229 -34.119  24.319  1.00  0.00     0.028 C 
BRANCH   6   7
ATOM      7  C   UNL     1      17.207 -32.973  24.407  1.00  0.00    -0.028 C 
ATOM      8  C   UNL     1      18.177 -32.662  23.506  1.00  0.00    -0.070 CG0
ATOM      9  C   UNL     1      19.143 -31.568  23.895  1.00  0.00     0.039 C 
ATOM     10  G   UNL     1      18.289 -33.249  22.100  1.00  0.00     0.000 G0
ENDBRANCH   6   7
ENDBRANCH   5   6
ENDBRANCH   3   5
ENDBRANCH   1   3
BRANCH   1  11
ATOM     11  C   UNL     1      15.115 -33.786  21.208  1.00  0.00     0.087 C 
BRANCH  11  12
ATOM     12  C   UNL     1      16.364 -33.487  20.329  1.00  0.00     0.066 C 
BRANCH  12  13
ATOM     13  C   UNL     1      17.416 -32.629  21.027  1.00  0.00     0.140 C 
ATOM     14  O   UNL     1      17.487 -31.429  20.807  1.00  0.00    -0.299 OA
BRANCH  13  15
ATOM     15  C   UNL     1      18.287 -33.250  22.090  1.00  0.00     0.106 CG0
ATOM     16  G   UNL     1      18.175 -32.639  23.486  1.00  0.00     0.000 G0
ENDBRANCH  13  15
ENDBRANCH  12  13
BRANCH  12  17
ATOM     17  C   UNL     1      16.925 -34.737  19.577  1.00  0.00    -0.006 C 
ATOM     18  C   UNL     1      18.355 -34.499  19.064  1.00  0.00     0.008 C 
ATOM     19  C   UNL     1      16.852 -36.051  20.371  1.00  0.00     0.008 C 
ENDBRANCH  12  17
ENDBRANCH  11  12
ENDBRANCH   1  11
TORSDOF 1
ENDMDL
MODEL 6
REMARK VINA RESULT:    -3.915      1.559      3.419
REMARK INTER + INTRA:          -6.547
REMARK INTER:                  -6.752
REMARK INTRA:                   0.205
REMARK UNBOUND:                -0.572
REMARK SMILES CC1=CCC[C@H](C)C(=O)C[C@H](C(C)C)C(=O)C1
REMARK SMILES IDX 8 1 9 2 6 3 7 4 5 5 4 6 3 7 2 8 1 9 10 11 11 12 15 13 16 14
REMARK SMILES IDX 17 15 12 17 13 18 14 19
REMARK H PARENT
REMARK Flexibility Score: 70.00
ROOT
ATOM      1  C   UNL     1      15.981 -33.859  24.013  1.00  0.00     0.136 C 
ATOM      2  O   UNL     1      16.328 -33.881  25.186  1.00  0.00    -0.299 OA
ENDROOT
BRANCH   1   3
ATOM      3  C   UNL     1      16.882 -34.453  22.941  1.00  0.00     0.053 C 
ATOM      4  C   UNL     1      17.657 -35.681  23.442  1.00  0.00     0.016 C 
BRANCH   3   5
ATOM      5  C   UNL     1      16.096 -34.764  21.648  1.00  0.00     0.015 C 
BRANCH   5   6
ATOM      6  C   UNL     1      16.414 -33.787  20.499  1.00  0.00     0.028 C 
BRANCH   6   7
ATOM      7  C   UNL     1      17.554 -32.843  20.795  1.00  0.00    -0.028 C 
ATOM      8  C   UNL     1      17.453 -31.556  21.220  1.00  0.00    -0.070 CG0
ATOM      9  C   UNL     1      18.733 -30.758  21.288  1.00  0.00     0.039 C 
ATOM     10  G   UNL     1      16.174 -30.901  21.739  1.00  0.00     0.000 G0
ENDBRANCH   6   7
ENDBRANCH   5   6
ENDBRANCH   3   5
ENDBRANCH   1   3
BRANCH   1  11
ATOM     11  C   UNL     1      14.650 -33.244  23.641  1.00  0.00     0.087 C 
BRANCH  11  12
ATOM     12  C   UNL     1      14.595 -31.689  23.675  1.00  0.00     0.066 C 
BRANCH  12  13
ATOM     13  C   UNL     1      15.883 -31.017  23.206  1.00  0.00     0.140 C 
ATOM     14  O   UNL     1      16.734 -30.674  24.011  1.00  0.00    -0.299 OA
BRANCH  13  15
ATOM     15  C   UNL     1      16.154 -30.896  21.727  1.00  0.00     0.106 CG0
ATOM     16  G   UNL     1      17.450 -31.535  21.231  1.00  0.00     0.000 G0
ENDBRANCH  13  15
ENDBRANCH  12  13
BRANCH  12  17
ATOM     17  C   UNL     1      13.281 -31.087  23.079  1.00  0.00    -0.006 C 
ATOM     18  C   UNL     1      13.163 -29.581  23.365  1.00  0.00     0.008 C 
ATOM     19  C   UNL     1      13.067 -31.367  21.583  1.00  0.00     0.008 C 
ENDBRANCH  12  17
ENDBRANCH  11  12
ENDBRANCH   1  11
TORSDOF 1
ENDMDL
MODEL 7
REMARK VINA RESULT:    -3.908      1.946      4.096
REMARK INTER + INTRA:          -6.535
REMARK INTER:                  -6.056
REMARK INTRA:                  -0.480
REMARK UNBOUND:                -0.572
REMARK SMILES CC1=CCC[C@H](C)C(=O)C[C@H](C(C)C)C(=O)C1
REMARK SMILES IDX 8 1 9 2 6 3 7 4 5 5 4 6 3 7 2 8 1 9 10 11 11 12 15 13 16 14
REMARK SMILES IDX 17 15 12 17 13 18 14 19
REMARK H PARENT
REMARK Flexibility Score: 70.00
ROOT
ATOM      1  C   UNL     1      18.277 -32.068  21.388  1.00  0.00     0.136 C 
ATOM      2  O   UNL     1      18.004 -32.090  20.196  1.00  0.00    -0.299 OA
ENDROOT
BRANCH   1   3
ATOM      3  C   UNL     1      18.581 -30.746  22.076  1.00  0.00     0.053 C 
ATOM      4  C   UNL     1      19.959 -30.187  21.689  1.00  0.00     0.016 C 
BRANCH   3   5
ATOM      5  C   UNL     1      17.460 -29.711  21.835  1.00  0.00     0.015 C 
BRANCH   5   6
ATOM      6  C   UNL     1      16.219 -29.949  22.718  1.00  0.00     0.028 C 
BRANCH   6   7
ATOM      7  C   UNL     1      14.963 -30.256  21.940  1.00  0.00    -0.028 C 
ATOM      8  C   UNL     1      14.342 -31.462  21.842  1.00  0.00    -0.070 CG0
ATOM      9  C   UNL     1      13.191 -31.559  20.869  1.00  0.00     0.039 C 
ATOM     10  G   UNL     1      14.644 -32.678  22.716  1.00  0.00     0.000 G0
ENDBRANCH   6   7
ENDBRANCH   5   6
ENDBRANCH   3   5
ENDBRANCH   1   3
BRANCH   1  11
ATOM     11  C   UNL     1      18.306 -33.362  22.171  1.00  0.00     0.087 C 
BRANCH  11  12
ATOM     12  C   UNL     1      17.048 -33.647  23.043  1.00  0.00     0.066 C 
BRANCH  12  13
ATOM     13  C   UNL     1      15.737 -33.607  22.263  1.00  0.00     0.140 C 
ATOM     14  O   UNL     1      15.540 -34.378  21.336  1.00  0.00    -0.299 OA
BRANCH  13  15
ATOM     15  C   UNL     1      14.631 -32.692  22.727  1.00  0.00     0.106 CG0
ATOM     16  G   UNL     1      14.364 -31.470  21.850  1.00  0.00     0.000 G0
ENDBRANCH  13  15
ENDBRANCH  12  13
BRANCH  12  17
ATOM     17  C   UNL     1      17.207 -34.869  24.006  1.00  0.00    -0.006 C 
ATOM     18  C   UNL     1      18.497 -35.655  23.721  1.00  0.00     0.008 C 
ATOM     19  C   UNL     1      17.106 -34.526  25.500  1.00  0.00     0.008 C 
ENDBRANCH  12  17
ENDBRANCH  11  12
ENDBRANCH   1  11
TORSDOF 1
ENDMDL
MODEL 8
REMARK VINA RESULT:    -3.905      2.028      4.929
REMARK INTER + INTRA:          -6.532
REMARK INTER:                  -6.183
REMARK INTRA:                  -0.350
REMARK UNBOUND:                -0.572
REMARK SMILES CC1=CCC[C@H](C)C(=O)C[C@H](C(C)C)C(=O)C1
REMARK SMILES IDX 8 1 9 2 6 3 7 4 5 5 4 6 3 7 2 8 1 9 10 11 11 12 15 13 16 14
REMARK SMILES IDX 17 15 12 17 13 18 14 19
REMARK H PARENT
REMARK Flexibility Score: 70.00
ROOT
ATOM      1  C   UNL     1      16.950 -33.431  21.824  1.00  0.00     0.136 C 
ATOM      2  O   UNL     1      16.529 -33.740  22.929  1.00  0.00    -0.299 OA
ENDROOT
BRANCH   1   3
ATOM      3  C   UNL     1      16.260 -33.952  20.572  1.00  0.00     0.053 C 
ATOM      4  C   UNL     1      16.639 -35.408  20.258  1.00  0.00     0.016 C 
BRANCH   3   5
ATOM      5  C   UNL     1      14.729 -33.766  20.649  1.00  0.00     0.015 C 
BRANCH   5   6
ATOM      6  C   UNL     1      14.296 -32.289  20.573  1.00  0.00     0.028 C 
BRANCH   6   7
ATOM      7  C   UNL     1      13.707 -31.756  21.856  1.00  0.00    -0.028 C 
ATOM      8  C   UNL     1      14.274 -30.850  22.696  1.00  0.00    -0.070 CG0
ATOM      9  C   UNL     1      13.565 -30.597  24.005  1.00  0.00     0.039 C 
ATOM     10  G   UNL     1      15.497 -29.994  22.368  1.00  0.00     0.000 G0
ENDBRANCH   6   7
ENDBRANCH   5   6
ENDBRANCH   3   5
ENDBRANCH   1   3
BRANCH   1  11
ATOM     11  C   UNL     1      18.156 -32.524  21.711  1.00  0.00     0.087 C 
BRANCH  11  12
ATOM     12  C   UNL     1      17.851 -30.997  21.721  1.00  0.00     0.066 C 
BRANCH  12  13
ATOM     13  C   UNL     1      16.849 -30.577  22.794  1.00  0.00     0.140 C 
ATOM     14  O   UNL     1      17.152 -30.615  23.977  1.00  0.00    -0.299 OA
BRANCH  13  15
ATOM     15  C   UNL     1      15.523 -29.992  22.376  1.00  0.00     0.106 CG0
ATOM     16  G   UNL     1      14.291 -30.839  22.691  1.00  0.00     0.000 G0
ENDBRANCH  13  15
ENDBRANCH  12  13
BRANCH  12  17
ATOM     17  C   UNL     1      19.124 -30.095  21.617  1.00  0.00    -0.006 C 
ATOM     18  C   UNL     1      20.323 -30.866  21.042  1.00  0.00     0.008 C 
ATOM     19  C   UNL     1      18.916 -28.778  20.852  1.00  0.00     0.008 C 
ENDBRANCH  12  17
ENDBRANCH  11  12
ENDBRANCH   1  11
TORSDOF 1
ENDMDL
MODEL 9
REMARK VINA RESULT:    -3.838      1.893      3.946
REMARK INTER + INTRA:          -6.430
REMARK INTER:                  -5.949
REMARK INTRA:                  -0.481
REMARK UNBOUND:                -0.572
REMARK SMILES CC1=CCC[C@H](C)C(=O)C[C@H](C(C)C)C(=O)C1
REMARK SMILES IDX 8 1 9 2 6 3 7 4 5 5 4 6 3 7 2 8 1 9 10 11 11 12 15 13 16 14
REMARK SMILES IDX 17 15 12 17 13 18 14 19
REMARK H PARENT
REMARK Flexibility Score: 70.00
ROOT
ATOM      1  C   UNL     1      15.955 -30.641  22.756  1.00  0.00     0.136 C 
ATOM      2  O   UNL     1      15.985 -29.954  21.744  1.00  0.00    -0.299 OA
ENDROOT
BRANCH   1   3
ATOM      3  C   UNL     1      14.689 -31.401  23.124  1.00  0.00     0.053 C 
ATOM      4  C   UNL     1      13.546 -30.464  23.548  1.00  0.00     0.016 C 
BRANCH   3   5
ATOM      5  C   UNL     1      14.252 -32.357  21.993  1.00  0.00     0.015 C 
BRANCH   5   6
ATOM      6  C   UNL     1      15.007 -33.699  22.012  1.00  0.00     0.028 C 
BRANCH   6   7
ATOM      7  C   UNL     1      15.788 -33.982  20.752  1.00  0.00    -0.028 C 
ATOM      8  C   UNL     1      17.141 -33.959  20.613  1.00  0.00    -0.070 CG0
ATOM      9  C   UNL     1      17.684 -34.112  19.212  1.00  0.00     0.039 C 
ATOM     10  G   UNL     1      18.141 -33.908  21.766  1.00  0.00     0.000 G0
ENDBRANCH   6   7
ENDBRANCH   5   6
ENDBRANCH   3   5
ENDBRANCH   1   3
BRANCH   1  11
ATOM     11  C   UNL     1      17.184 -30.732  23.633  1.00  0.00     0.087 C 
BRANCH  11  12
ATOM     12  C   UNL     1      17.883 -32.122  23.667  1.00  0.00     0.066 C 
BRANCH  12  13
ATOM     13  C   UNL     1      18.481 -32.543  22.327  1.00  0.00     0.140 C 
ATOM     14  O   UNL     1      19.292 -31.831  21.756  1.00  0.00    -0.299 OA
BRANCH  13  15
ATOM     15  C   UNL     1      18.158 -33.908  21.772  1.00  0.00     0.106 CG0
ATOM     16  G   UNL     1      17.139 -33.942  20.634  1.00  0.00     0.000 G0
ENDBRANCH  13  15
ENDBRANCH  12  13
BRANCH  12  17
ATOM     17  C   UNL     1      18.818 -32.333  24.902  1.00  0.00    -0.006 C 
ATOM     18  C   UNL     1      19.170 -31.001  25.584  1.00  0.00     0.008 C 
ATOM     19  C   UNL     1      18.299 -33.344  25.936  1.00  0.00     0.008 C 
ENDBRANCH  12  17
ENDBRANCH  11  12
ENDBRANCH   1  11
TORSDOF 1
ENDMDL
