MODEL 1
REMARK VINA RESULT:    -4.492      0.000      0.000
REMARK INTER + INTRA:          -5.974
REMARK INTER:                  -6.330
REMARK INTRA:                   0.355
REMARK UNBOUND:                 0.355
REMARK SMILES CC1=CCC(=C(C)C)C(=O)CC(C)=CCC1
REMARK SMILES IDX 12 1 14 2 13 3 15 4 16 5 2 6 1 7 3 8 11 10 9 11 10 12 5 13
REMARK SMILES IDX 6 14 7 15 8 16 4 17
REMARK H PARENT
REMARK Flexibility Score: 60.00
ROOT
ATOM      1  C   UNL     1      -7.967  74.126  21.072  1.00  0.00    -0.070 C 
ATOM      2  C   UNL     1      -6.809  73.541  20.684  1.00  0.00    -0.027 C 
ATOM      3  C   UNL     1      -9.020  74.380  20.024  1.00  0.00     0.039 C 
ENDROOT
BRANCH   2   4
ATOM      4  C   UNL     1      -5.675  73.158  21.608  1.00  0.00     0.032 C 
BRANCH   4   5
ATOM      5  C   UNL     1      -5.945  71.820  22.312  1.00  0.00     0.034 C 
BRANCH   5   6
ATOM      6  C   UNL     1      -5.675  71.856  23.809  1.00  0.00    -0.077 C 
ATOM      7  C   UNL     1      -4.247  71.945  24.289  1.00  0.00     0.039 C 
ATOM      8  C   UNL     1      -6.653  71.830  24.744  1.00  0.00    -0.023 CG0
ATOM      9  G   UNL     1      -8.130  71.674  24.462  1.00  0.00     0.000 G0
ENDBRANCH   5   6
ENDBRANCH   4   5
ENDBRANCH   2   4
BRANCH   1  10
ATOM     10  C   UNL     1      -8.246  74.536  22.505  1.00  0.00     0.111 C 
BRANCH  10  11
ATOM     11  C   UNL     1      -9.231  73.603  23.154  1.00  0.00     0.163 C 
ATOM     12  O   UNL     1     -10.322  73.357  22.573  1.00  0.00    -0.294 OA
BRANCH  11  13
ATOM     13  C   UNL     1      -8.934  72.949  24.453  1.00  0.00    -0.002 C 
ATOM     14  C   UNL     1      -9.370  73.504  25.616  1.00  0.00    -0.069 C 
ATOM     15  C   UNL     1     -10.241  74.740  25.616  1.00  0.00     0.039 C 
ATOM     16  C   UNL     1      -9.033  72.880  26.952  1.00  0.00     0.039 C 
BRANCH  13  17
ATOM     17  C   UNL     1      -8.137  71.648  24.465  1.00  0.00     0.066 CG0
ATOM     18  G   UNL     1      -6.664  71.840  24.746  1.00  0.00     0.000 G0
ENDBRANCH  13  17
ENDBRANCH  11  13
ENDBRANCH  10  11
ENDBRANCH   1  10
TORSDOF 0
ENDMDL
MODEL 2
REMARK VINA RESULT:    -3.994      1.937      4.660
REMARK INTER + INTRA:          -5.273
REMARK INTER:                  -5.534
REMARK INTRA:                   0.261
REMARK UNBOUND:                 0.355
REMARK SMILES CC1=CCC(=C(C)C)C(=O)CC(C)=CCC1
REMARK SMILES IDX 12 1 14 2 13 3 15 4 16 5 2 6 1 7 3 8 11 10 9 11 10 12 5 13
REMARK SMILES IDX 6 14 7 15 8 16 4 17
REMARK H PARENT
REMARK Flexibility Score: 60.00
ROOT
ATOM      1  C   UNL     1      -9.336  72.983  24.930  1.00  0.00    -0.070 C 
ATOM      2  C   UNL     1      -9.629  74.102  24.227  1.00  0.00    -0.027 C 
ATOM      3  C   UNL     1      -9.651  72.968  26.404  1.00  0.00     0.039 C 
ENDROOT
BRANCH   2   4
ATOM      4  C   UNL     1      -9.439  74.270  22.737  1.00  0.00     0.032 C 
BRANCH   4   5
ATOM      5  C   UNL     1      -7.988  74.632  22.388  1.00  0.00     0.034 C 
BRANCH   5   6
ATOM      6  C   UNL     1      -7.404  73.790  21.263  1.00  0.00    -0.077 C 
ATOM      7  C   UNL     1      -8.006  73.901  19.884  1.00  0.00     0.039 C 
ATOM      8  C   UNL     1      -6.355  72.952  21.427  1.00  0.00    -0.023 CG0
ATOM      9  G   UNL     1      -5.668  72.656  22.740  1.00  0.00     0.000 G0
ENDBRANCH   5   6
ENDBRANCH   4   5
ENDBRANCH   2   4
BRANCH   1  10
ATOM     10  C   UNL     1      -8.706  71.755  24.302  1.00  0.00     0.111 C 
BRANCH  10  11
ATOM     11  C   UNL     1      -7.231  71.697  24.590  1.00  0.00     0.163 C 
ATOM     12  O   UNL     1      -6.828  71.834  25.777  1.00  0.00    -0.294 OA
BRANCH  11  13
ATOM     13  C   UNL     1      -6.242  71.457  23.508  1.00  0.00    -0.002 C 
ATOM     14  C   UNL     1      -5.862  70.188  23.195  1.00  0.00    -0.069 C 
ATOM     15  C   UNL     1      -6.496  68.993  23.869  1.00  0.00     0.039 C 
ATOM     16  C   UNL     1      -4.819  69.927  22.132  1.00  0.00     0.039 C 
BRANCH  13  17
ATOM     17  C   UNL     1      -5.664  72.649  22.753  1.00  0.00     0.066 CG0
ATOM     18  G   UNL     1      -6.364  72.939  21.445  1.00  0.00     0.000 G0
ENDBRANCH  13  17
ENDBRANCH  11  13
ENDBRANCH  10  11
ENDBRANCH   1  10
TORSDOF 0
ENDMDL
MODEL 3
REMARK VINA RESULT:    -3.548      1.529      3.947
REMARK INTER + INTRA:          -4.644
REMARK INTER:                  -5.226
REMARK INTRA:                   0.581
REMARK UNBOUND:                 0.355
REMARK SMILES CC1=CCC(=C(C)C)C(=O)CC(C)=CCC1
REMARK SMILES IDX 12 1 14 2 13 3 15 4 16 5 2 6 1 7 3 8 11 10 9 11 10 12 5 13
REMARK SMILES IDX 6 14 7 15 8 16 4 17
REMARK H PARENT
REMARK Flexibility Score: 60.00
ROOT
ATOM      1  C   UNL     1      -8.394  72.395  25.492  1.00  0.00    -0.070 C 
ATOM      2  C   UNL     1      -7.191  71.805  25.684  1.00  0.00    -0.027 C 
ATOM      3  C   UNL     1      -8.992  73.176  26.635  1.00  0.00     0.039 C 
ENDROOT
BRANCH   2   4
ATOM      4  C   UNL     1      -6.420  71.039  24.633  1.00  0.00     0.032 C 
BRANCH   4   5
ATOM      5  C   UNL     1      -5.506  71.962  23.815  1.00  0.00     0.034 C 
BRANCH   5   6
ATOM      6  C   UNL     1      -5.758  71.895  22.316  1.00  0.00    -0.077 C 
ATOM      7  C   UNL     1      -5.154  70.759  21.527  1.00  0.00     0.039 C 
ATOM      8  C   UNL     1      -6.515  72.794  21.647  1.00  0.00    -0.023 CG0
ATOM      9  G   UNL     1      -7.142  74.031  22.248  1.00  0.00     0.000 G0
ENDBRANCH   5   6
ENDBRANCH   4   5
ENDBRANCH   2   4
BRANCH   1  10
ATOM     10  C   UNL     1      -9.162  72.300  24.188  1.00  0.00     0.111 C 
BRANCH  10  11
ATOM     11  C   UNL     1      -9.346  73.658  23.568  1.00  0.00     0.163 C 
ATOM     12  O   UNL     1     -10.069  74.510  24.150  1.00  0.00    -0.294 OA
BRANCH  11  13
ATOM     13  C   UNL     1      -8.672  74.021  22.295  1.00  0.00    -0.002 C 
ATOM     14  C   UNL     1      -9.408  74.331  21.194  1.00  0.00    -0.069 C 
ATOM     15  C   UNL     1     -10.917  74.405  21.256  1.00  0.00     0.039 C 
ATOM     16  C   UNL     1      -8.741  74.654  19.876  1.00  0.00     0.039 C 
BRANCH  13  17
ATOM     17  C   UNL     1      -7.148  74.045  22.242  1.00  0.00     0.066 CG0
ATOM     18  G   UNL     1      -6.540  72.780  21.680  1.00  0.00     0.000 G0
ENDBRANCH  13  17
ENDBRANCH  11  13
ENDBRANCH  10  11
ENDBRANCH   1  10
TORSDOF 0
ENDMDL
MODEL 4
REMARK VINA RESULT:    -3.175     11.386     14.089
REMARK INTER + INTRA:          -4.118
REMARK INTER:                  -4.560
REMARK INTRA:                   0.442
REMARK UNBOUND:                 0.355
REMARK SMILES CC1=CCC(=C(C)C)C(=O)CC(C)=CCC1
REMARK SMILES IDX 12 1 14 2 13 3 15 4 16 5 2 6 1 7 3 8 11 10 9 11 10 12 5 13
REMARK SMILES IDX 6 14 7 15 8 16 4 17
REMARK H PARENT
REMARK Flexibility Score: 60.00
ROOT
ATOM      1  C   UNL     1      -3.962  69.984  36.948  1.00  0.00    -0.070 C 
ATOM      2  C   UNL     1      -5.169  70.180  37.529  1.00  0.00    -0.027 C 
ATOM      3  C   UNL     1      -2.741  69.985  37.832  1.00  0.00     0.039 C 
ENDROOT
BRANCH   2   4
ATOM      4  C   UNL     1      -6.498  70.149  36.808  1.00  0.00     0.032 C 
BRANCH   4   5
ATOM      5  C   UNL     1      -7.414  69.045  37.356  1.00  0.00     0.034 C 
BRANCH   5   6
ATOM      6  C   UNL     1      -6.761  67.671  37.382  1.00  0.00    -0.077 C 
ATOM      7  C   UNL     1      -6.591  66.971  38.708  1.00  0.00     0.039 C 
ATOM      8  C   UNL     1      -6.336  67.027  36.271  1.00  0.00    -0.023 CG0
ATOM      9  G   UNL     1      -6.358  67.591  34.869  1.00  0.00     0.000 G0
ENDBRANCH   5   6
ENDBRANCH   4   5
ENDBRANCH   2   4
BRANCH   1  10
ATOM     10  C   UNL     1      -3.788  69.768  35.457  1.00  0.00     0.111 C 
BRANCH  10  11
ATOM     11  C   UNL     1      -3.882  68.309  35.107  1.00  0.00     0.163 C 
ATOM     12  O   UNL     1      -3.026  67.507  35.569  1.00  0.00    -0.294 OA
BRANCH  11  13
ATOM     13  C   UNL     1      -4.975  67.790  34.246  1.00  0.00    -0.002 C 
ATOM     14  C   UNL     1      -4.742  67.509  32.936  1.00  0.00    -0.069 C 
ATOM     15  C   UNL     1      -3.356  67.625  32.345  1.00  0.00     0.039 C 
ATOM     16  C   UNL     1      -5.855  67.029  32.031  1.00  0.00     0.039 C 
BRANCH  13  17
ATOM     17  C   UNL     1      -6.359  67.576  34.852  1.00  0.00     0.066 CG0
ATOM     18  G   UNL     1      -6.328  67.033  36.262  1.00  0.00     0.000 G0
ENDBRANCH  13  17
ENDBRANCH  11  13
ENDBRANCH  10  11
ENDBRANCH   1  10
TORSDOF 0
ENDMDL
MODEL 5
REMARK VINA RESULT:    -3.094      7.542      9.718
REMARK INTER + INTRA:          -4.004
REMARK INTER:                  -4.566
REMARK INTRA:                   0.562
REMARK UNBOUND:                 0.355
REMARK SMILES CC1=CCC(=C(C)C)C(=O)CC(C)=CCC1
REMARK SMILES IDX 12 1 14 2 13 3 15 4 16 5 2 6 1 7 3 8 11 10 9 11 10 12 5 13
REMARK SMILES IDX 6 14 7 15 8 16 4 17
REMARK H PARENT
REMARK Flexibility Score: 60.00
ROOT
ATOM      1  C   UNL     1     -10.700  75.396  31.963  1.00  0.00    -0.070 C 
ATOM      2  C   UNL     1      -9.971  75.020  30.887  1.00  0.00    -0.027 C 
ATOM      3  C   UNL     1     -11.771  76.438  31.766  1.00  0.00     0.039 C 
ENDROOT
BRANCH   2   4
ATOM      4  C   UNL     1      -8.903  73.950  30.889  1.00  0.00     0.032 C 
BRANCH   4   5
ATOM      5  C   UNL     1      -9.271  72.781  29.964  1.00  0.00     0.034 C 
BRANCH   5   6
ATOM      6  C   UNL     1     -10.665  72.223  30.214  1.00  0.00    -0.077 C 
ATOM      7  C   UNL     1     -11.717  72.389  29.145  1.00  0.00     0.039 C 
ATOM      8  C   UNL     1     -11.013  71.566  31.344  1.00  0.00    -0.023 CG0
ATOM      9  G   UNL     1     -10.122  71.363  32.549  1.00  0.00     0.000 G0
ENDBRANCH   5   6
ENDBRANCH   4   5
ENDBRANCH   2   4
BRANCH   1  10
ATOM     10  C   UNL     1     -10.485  74.819  33.349  1.00  0.00     0.111 C 
BRANCH  10  11
ATOM     11  C   UNL     1     -11.217  73.516  33.514  1.00  0.00     0.163 C 
ATOM     12  O   UNL     1     -12.474  73.500  33.428  1.00  0.00    -0.294 OA
BRANCH  11  13
ATOM     13  C   UNL     1     -10.486  72.246  33.752  1.00  0.00    -0.002 C 
ATOM     14  C   UNL     1     -10.141  71.879  35.015  1.00  0.00    -0.069 C 
ATOM     15  C   UNL     1     -10.568  72.698  36.212  1.00  0.00     0.039 C 
ATOM     16  C   UNL     1      -9.352  70.614  35.272  1.00  0.00     0.039 C 
BRANCH  13  17
ATOM     17  C   UNL     1     -10.131  71.359  32.562  1.00  0.00     0.066 CG0
ATOM     18  G   UNL     1     -11.024  71.569  31.360  1.00  0.00     0.000 G0
ENDBRANCH  13  17
ENDBRANCH  11  13
ENDBRANCH  10  11
ENDBRANCH   1  10
TORSDOF 0
ENDMDL
MODEL 6
REMARK VINA RESULT:    -3.035      4.474      6.010
REMARK INTER + INTRA:          -3.922
REMARK INTER:                  -4.415
REMARK INTRA:                   0.493
REMARK UNBOUND:                 0.355
REMARK SMILES CC1=CCC(=C(C)C)C(=O)CC(C)=CCC1
REMARK SMILES IDX 12 1 14 2 13 3 15 4 16 5 2 6 1 7 3 8 11 10 9 11 10 12 5 13
REMARK SMILES IDX 6 14 7 15 8 16 4 17
REMARK H PARENT
REMARK Flexibility Score: 60.00
ROOT
ATOM      1  C   UNL     1      -5.667  70.988  24.066  1.00  0.00    -0.070 C 
ATOM      2  C   UNL     1      -6.301  70.154  23.208  1.00  0.00    -0.027 C 
ATOM      3  C   UNL     1      -5.014  72.224  23.503  1.00  0.00     0.039 C 
ENDROOT
BRANCH   2   4
ATOM      4  C   UNL     1      -7.059  68.908  23.605  1.00  0.00     0.032 C 
BRANCH   4   5
ATOM      5  C   UNL     1      -6.548  67.671  22.851  1.00  0.00     0.034 C 
BRANCH   5   6
ATOM      6  C   UNL     1      -5.050  67.449  22.992  1.00  0.00    -0.077 C 
ATOM      7  C   UNL     1      -4.207  67.361  21.743  1.00  0.00     0.039 C 
ATOM      8  C   UNL     1      -4.421  67.342  24.185  1.00  0.00    -0.023 CG0
ATOM      9  G   UNL     1      -5.100  67.335  25.535  1.00  0.00     0.000 G0
ENDBRANCH   5   6
ENDBRANCH   4   5
ENDBRANCH   2   4
BRANCH   1  10
ATOM     10  C   UNL     1      -5.584  70.730  25.558  1.00  0.00     0.111 C 
BRANCH  10  11
ATOM     11  C   UNL     1      -4.438  69.815  25.887  1.00  0.00     0.163 C 
ATOM     12  O   UNL     1      -3.257  70.207  25.684  1.00  0.00    -0.294 OA
BRANCH  11  13
ATOM     13  C   UNL     1      -4.668  68.468  26.469  1.00  0.00    -0.002 C 
ATOM     14  C   UNL     1      -4.493  68.257  27.801  1.00  0.00    -0.069 C 
ATOM     15  C   UNL     1      -4.153  69.395  28.736  1.00  0.00     0.039 C 
ATOM     16  C   UNL     1      -4.673  66.881  28.403  1.00  0.00     0.039 C 
BRANCH  13  17
ATOM     17  C   UNL     1      -5.105  67.328  25.553  1.00  0.00     0.066 CG0
ATOM     18  G   UNL     1      -4.424  67.338  24.204  1.00  0.00     0.000 G0
ENDBRANCH  13  17
ENDBRANCH  11  13
ENDBRANCH  10  11
ENDBRANCH   1  10
TORSDOF 0
ENDMDL
MODEL 7
REMARK VINA RESULT:    -3.021      2.713      6.045
REMARK INTER + INTRA:          -3.902
REMARK INTER:                  -5.520
REMARK INTRA:                   1.618
REMARK UNBOUND:                 0.355
REMARK SMILES CC1=CCC(=C(C)C)C(=O)CC(C)=CCC1
REMARK SMILES IDX 12 1 14 2 13 3 15 4 16 5 2 6 1 7 3 8 11 10 9 11 10 12 5 13
REMARK SMILES IDX 6 14 7 15 8 16 4 17
REMARK H PARENT
REMARK Flexibility Score: 60.00
ROOT
ATOM      1  C   UNL     1     -11.677  74.238  28.130  1.00  0.00    -0.070 C 
ATOM      2  C   UNL     1     -11.334  74.277  29.439  1.00  0.00    -0.027 C 
ATOM      3  C   UNL     1     -12.967  73.554  27.755  1.00  0.00     0.039 C 
ENDROOT
BRANCH   2   4
ATOM      4  C   UNL     1     -10.113  74.971  29.998  1.00  0.00     0.032 C 
BRANCH   4   5
ATOM      5  C   UNL     1      -9.001  73.970  30.346  1.00  0.00     0.034 C 
BRANCH   5   6
ATOM      6  C   UNL     1      -9.240  72.577  29.781  1.00  0.00    -0.077 C 
ATOM      7  C   UNL     1      -9.824  71.517  30.683  1.00  0.00     0.039 C 
ATOM      8  C   UNL     1      -8.972  72.236  28.500  1.00  0.00    -0.023 CG0
ATOM      9  G   UNL     1      -8.324  73.135  27.472  1.00  0.00     0.000 G0
ENDBRANCH   5   6
ENDBRANCH   4   5
ENDBRANCH   2   4
BRANCH   1  10
ATOM     10  C   UNL     1     -10.824  74.844  27.033  1.00  0.00     0.111 C 
BRANCH  10  11
ATOM     11  C   UNL     1     -10.389  73.799  26.044  1.00  0.00     0.163 C 
ATOM     12  O   UNL     1     -11.174  73.464  25.116  1.00  0.00    -0.294 OA
BRANCH  11  13
ATOM     13  C   UNL     1      -9.046  73.171  26.125  1.00  0.00    -0.002 C 
ATOM     14  C   UNL     1      -8.470  72.638  25.014  1.00  0.00    -0.069 C 
ATOM     15  C   UNL     1      -9.130  72.750  23.659  1.00  0.00     0.039 C 
ATOM     16  C   UNL     1      -7.125  71.949  25.087  1.00  0.00     0.039 C 
BRANCH  13  17
ATOM     17  C   UNL     1      -8.323  73.135  27.468  1.00  0.00     0.066 CG0
ATOM     18  G   UNL     1      -8.978  72.232  28.487  1.00  0.00     0.000 G0
ENDBRANCH  13  17
ENDBRANCH  11  13
ENDBRANCH  10  11
ENDBRANCH   1  10
TORSDOF 0
ENDMDL
MODEL 8
REMARK VINA RESULT:    -2.930      4.077      6.305
REMARK INTER + INTRA:          -3.773
REMARK INTER:                  -4.287
REMARK INTRA:                   0.514
REMARK UNBOUND:                 0.355
REMARK SMILES CC1=CCC(=C(C)C)C(=O)CC(C)=CCC1
REMARK SMILES IDX 12 1 14 2 13 3 15 4 16 5 2 6 1 7 3 8 11 10 9 11 10 12 5 13
REMARK SMILES IDX 6 14 7 15 8 16 4 17
REMARK H PARENT
REMARK Flexibility Score: 60.00
ROOT
ATOM      1  C   UNL     1      -3.634  71.022  25.394  1.00  0.00    -0.070 C 
ATOM      2  C   UNL     1      -4.517  71.792  24.717  1.00  0.00    -0.027 C 
ATOM      3  C   UNL     1      -2.177  71.406  25.349  1.00  0.00     0.039 C 
ENDROOT
BRANCH   2   4
ATOM      4  C   UNL     1      -6.016  71.591  24.702  1.00  0.00     0.032 C 
BRANCH   4   5
ATOM      5  C   UNL     1      -6.531  71.273  23.291  1.00  0.00     0.034 C 
BRANCH   5   6
ATOM      6  C   UNL     1      -5.610  70.354  22.501  1.00  0.00    -0.077 C 
ATOM      7  C   UNL     1      -4.867  70.915  21.313  1.00  0.00     0.039 C 
ATOM      8  C   UNL     1      -5.404  69.055  22.817  1.00  0.00    -0.023 CG0
ATOM      9  G   UNL     1      -6.106  68.300  23.922  1.00  0.00     0.000 G0
ENDBRANCH   5   6
ENDBRANCH   4   5
ENDBRANCH   2   4
BRANCH   1  10
ATOM     10  C   UNL     1      -4.045  69.795  26.185  1.00  0.00     0.111 C 
BRANCH  10  11
ATOM     11  C   UNL     1      -3.945  68.551  25.347  1.00  0.00     0.163 C 
ATOM     12  O   UNL     1      -2.812  68.161  24.954  1.00  0.00    -0.294 OA
BRANCH  11  13
ATOM     13  C   UNL     1      -5.151  67.761  24.992  1.00  0.00    -0.002 C 
ATOM     14  C   UNL     1      -5.411  66.585  25.625  1.00  0.00    -0.069 C 
ATOM     15  C   UNL     1      -4.541  66.098  26.761  1.00  0.00     0.039 C 
ATOM     16  C   UNL     1      -6.607  65.741  25.242  1.00  0.00     0.039 C 
BRANCH  13  17
ATOM     17  C   UNL     1      -6.093  68.286  23.913  1.00  0.00     0.066 CG0
ATOM     18  G   UNL     1      -5.393  69.061  22.820  1.00  0.00     0.000 G0
ENDBRANCH  13  17
ENDBRANCH  11  13
ENDBRANCH  10  11
ENDBRANCH   1  10
TORSDOF 0
ENDMDL
MODEL 9
REMARK VINA RESULT:    -2.820     11.109     13.670
REMARK INTER + INTRA:          -3.619
REMARK INTER:                  -4.067
REMARK INTRA:                   0.448
REMARK UNBOUND:                 0.355
REMARK SMILES CC1=CCC(=C(C)C)C(=O)CC(C)=CCC1
REMARK SMILES IDX 12 1 14 2 13 3 15 4 16 5 2 6 1 7 3 8 11 10 9 11 10 12 5 13
REMARK SMILES IDX 6 14 7 15 8 16 4 17
REMARK H PARENT
REMARK Flexibility Score: 60.00
ROOT
ATOM      1  C   UNL     1      -6.574  68.209  36.525  1.00  0.00    -0.070 C 
ATOM      2  C   UNL     1      -5.778  69.120  37.133  1.00  0.00    -0.027 C 
ATOM      3  C   UNL     1      -7.413  67.307  37.394  1.00  0.00     0.039 C 
ENDROOT
BRANCH   2   4
ATOM      4  C   UNL     1      -4.920  70.140  36.421  1.00  0.00     0.032 C 
BRANCH   4   5
ATOM      5  C   UNL     1      -3.438  69.995  36.795  1.00  0.00     0.034 C 
BRANCH   5   6
ATOM      6  C   UNL     1      -2.934  68.560  36.736  1.00  0.00    -0.077 C 
ATOM      7  C   UNL     1      -2.448  67.907  38.007  1.00  0.00     0.039 C 
ATOM      8  C   UNL     1      -2.912  67.824  35.602  1.00  0.00    -0.023 CG0
ATOM      9  G   UNL     1      -3.292  68.324  34.226  1.00  0.00     0.000 G0
ENDBRANCH   5   6
ENDBRANCH   4   5
ENDBRANCH   2   4
BRANCH   1  10
ATOM     10  C   UNL     1      -6.652  68.056  35.019  1.00  0.00     0.111 C 
BRANCH  10  11
ATOM     11  C   UNL     1      -5.589  67.121  34.513  1.00  0.00     0.163 C 
ATOM     12  O   UNL     1      -5.630  65.904  34.841  1.00  0.00    -0.294 OA
BRANCH  11  13
ATOM     13  C   UNL     1      -4.506  67.597  33.615  1.00  0.00    -0.002 C 
ATOM     14  C   UNL     1      -4.590  67.396  32.272  1.00  0.00    -0.069 C 
ATOM     15  C   UNL     1      -5.817  66.772  31.650  1.00  0.00     0.039 C 
ATOM     16  C   UNL     1      -3.473  67.828  31.348  1.00  0.00     0.039 C 
BRANCH  13  17
ATOM     17  C   UNL     1      -3.303  68.315  34.219  1.00  0.00     0.066 CG0
ATOM     18  G   UNL     1      -2.929  67.820  35.597  1.00  0.00     0.000 G0
ENDBRANCH  13  17
ENDBRANCH  11  13
ENDBRANCH  10  11
ENDBRANCH   1  10
TORSDOF 0
ENDMDL
