MODEL 1
REMARK VINA RESULT:    -7.501      0.000      0.000
REMARK INTER + INTRA:          -9.086
REMARK INTER:                  -8.817
REMARK INTRA:                  -0.269
REMARK UNBOUND:                -0.269
REMARK SMILES O=c1cc(-c2ccc(O)c(O)c2)oc2cc(O)cc(O)c12
REMARK SMILES IDX 4 1 3 2 2 3 1 4 21 5 19 6 18 7 16 8 15 9 14 10 13 11 5 12
REMARK SMILES IDX 6 13 7 14 8 15 12 16 10 17 9 18 11 20 20 22 17 24
REMARK H PARENT 9 19 11 21 20 23 17 25
REMARK Flexibility Score: inf
ROOT
ATOM      1  C   UNL     1      30.912   6.238  19.749  1.00  0.00     0.138 A 
ATOM      2  C   UNL     1      32.000   5.776  20.503  1.00  0.00     0.100 A 
ATOM      3  C   UNL     1      32.237   4.405  20.605  1.00  0.00     0.197 A 
ATOM      4  O   UNL     1      33.252   4.024  21.242  1.00  0.00    -0.289 OA
ATOM      5  C   UNL     1      31.358   3.490  19.976  1.00  0.00     0.107 A 
ATOM      6  C   UNL     1      31.481   2.069  20.037  1.00  0.00     0.134 A 
ATOM      7  C   UNL     1      30.607   1.267  19.292  1.00  0.00     0.093 A 
ATOM      8  C   UNL     1      29.582   1.830  18.533  1.00  0.00     0.123 A 
ATOM      9  C   UNL     1      29.421   3.217  18.506  1.00  0.00     0.094 A 
ATOM     10  C   UNL     1      30.297   4.044  19.211  1.00  0.00     0.146 A 
ATOM     11  O   UNL     1      30.121   5.360  19.143  1.00  0.00    -0.456 OA
ENDROOT
BRANCH   1  12
ATOM     12  C   UNL     1      30.611   7.685  19.611  1.00  0.00     0.021 A 
ATOM     13  C   UNL     1      30.058   8.430  20.671  1.00  0.00     0.016 A 
ATOM     14  C   UNL     1      29.793   9.793  20.516  1.00  0.00     0.051 A 
ATOM     15  C   UNL     1      30.081  10.438  19.310  1.00  0.00     0.157 A 
ATOM     16  C   UNL     1      30.909   8.342  18.404  1.00  0.00     0.062 A 
ATOM     17  C   UNL     1      30.644   9.710  18.248  1.00  0.00     0.158 A 
BRANCH  15  18
ATOM     18  O   UNL     1      29.804  11.799  19.185  1.00  0.00    -0.504 OA
ATOM     19  H   UNL     1      29.291  12.311  19.892  1.00  0.00     0.293 HD
ENDBRANCH  15  18
BRANCH  17  20
ATOM     20  O   UNL     1      30.937  10.347  17.043  1.00  0.00    -0.504 OA
ATOM     21  H   UNL     1      30.252  10.415  16.298  1.00  0.00     0.293 HD
ENDBRANCH  17  20
ENDBRANCH   1  12
BRANCH   6  22
ATOM     22  O   UNL     1      32.420   1.396  20.826  1.00  0.00    -0.507 OA
ATOM     23  H   UNL     1      32.610   0.407  20.784  1.00  0.00     0.293 HD
ENDBRANCH   6  22
BRANCH   8  24
ATOM     24  O   UNL     1      28.721   1.001  17.817  1.00  0.00    -0.508 OA
ATOM     25  H   UNL     1      28.525   1.162  16.836  1.00  0.00     0.293 HD
ENDBRANCH   8  24
TORSDOF 5
ENDMDL
MODEL 2
REMARK VINA RESULT:    -7.400      2.090      2.509
REMARK INTER + INTRA:          -8.967
REMARK INTER:                  -8.697
REMARK INTRA:                  -0.270
REMARK UNBOUND:                -0.269
REMARK SMILES O=c1cc(-c2ccc(O)c(O)c2)oc2cc(O)cc(O)c12
REMARK SMILES IDX 4 1 3 2 2 3 1 4 21 5 19 6 18 7 16 8 15 9 14 10 13 11 5 12
REMARK SMILES IDX 6 13 7 14 8 15 12 16 10 17 9 18 11 20 20 22 17 24
REMARK H PARENT 9 19 11 21 20 23 17 25
REMARK Flexibility Score: inf
ROOT
ATOM      1  C   UNL     1      31.145   6.197  17.998  1.00  0.00     0.138 A 
ATOM      2  C   UNL     1      32.394   5.803  17.498  1.00  0.00     0.100 A 
ATOM      3  C   UNL     1      32.620   4.464  17.180  1.00  0.00     0.197 A 
ATOM      4  O   UNL     1      33.733   4.152  16.682  1.00  0.00    -0.289 OA
ATOM      5  C   UNL     1      31.600   3.507  17.396  1.00  0.00     0.107 A 
ATOM      6  C   UNL     1      31.727   2.108  17.140  1.00  0.00     0.134 A 
ATOM      7  C   UNL     1      30.614   1.273  17.300  1.00  0.00     0.093 A 
ATOM      8  C   UNL     1      29.397   1.773  17.761  1.00  0.00     0.123 A 
ATOM      9  C   UNL     1      29.275   3.131  18.063  1.00  0.00     0.094 A 
ATOM     10  C   UNL     1      30.357   3.995  17.881  1.00  0.00     0.146 A 
ATOM     11  O   UNL     1      30.194   5.284  18.162  1.00  0.00    -0.456 OA
ENDROOT
BRANCH   1  12
ATOM     12  C   UNL     1      30.851   7.607  18.357  1.00  0.00     0.021 A 
ATOM     13  C   UNL     1      30.733   8.611  17.376  1.00  0.00     0.016 A 
ATOM     14  C   UNL     1      30.445   9.928  17.743  1.00  0.00     0.051 A 
ATOM     15  C   UNL     1      30.263  10.266  19.087  1.00  0.00     0.157 A 
ATOM     16  C   UNL     1      30.655   7.951  19.706  1.00  0.00     0.062 A 
ATOM     17  C   UNL     1      30.366   9.272  20.075  1.00  0.00     0.158 A 
BRANCH  15  18
ATOM     18  O   UNL     1      29.979  11.590  19.422  1.00  0.00    -0.504 OA
ATOM     19  H   UNL     1      30.390  12.040  20.230  1.00  0.00     0.293 HD
ENDBRANCH  15  18
BRANCH  17  20
ATOM     20  O   UNL     1      30.183   9.601  21.418  1.00  0.00    -0.504 OA
ATOM     21  H   UNL     1      30.849   9.321  22.128  1.00  0.00     0.293 HD
ENDBRANCH  17  20
ENDBRANCH   1  12
BRANCH   6  22
ATOM     22  O   UNL     1      32.919   1.487  16.752  1.00  0.00    -0.507 OA
ATOM     23  H   UNL     1      33.774   1.969  16.521  1.00  0.00     0.293 HD
ENDBRANCH   6  22
BRANCH   8  24
ATOM     24  O   UNL     1      28.316   0.910  17.924  1.00  0.00    -0.508 OA
ATOM     25  H   UNL     1      27.376   1.259  18.068  1.00  0.00     0.293 HD
ENDBRANCH   8  24
TORSDOF 5
ENDMDL
MODEL 3
REMARK VINA RESULT:    -7.331      4.927      7.787
REMARK INTER + INTRA:          -8.886
REMARK INTER:                  -8.595
REMARK INTRA:                  -0.291
REMARK UNBOUND:                -0.269
REMARK SMILES O=c1cc(-c2ccc(O)c(O)c2)oc2cc(O)cc(O)c12
REMARK SMILES IDX 4 1 3 2 2 3 1 4 21 5 19 6 18 7 16 8 15 9 14 10 13 11 5 12
REMARK SMILES IDX 6 13 7 14 8 15 12 16 10 17 9 18 11 20 20 22 17 24
REMARK H PARENT 9 19 11 21 20 23 17 25
REMARK Flexibility Score: inf
ROOT
ATOM      1  C   UNL     1      27.265   0.966  20.125  1.00  0.00     0.138 A 
ATOM      2  C   UNL     1      26.253   1.893  20.413  1.00  0.00     0.100 A 
ATOM      3  C   UNL     1      25.266   1.570  21.344  1.00  0.00     0.197 A 
ATOM      4  O   UNL     1      24.404   2.443  21.622  1.00  0.00    -0.289 OA
ATOM      5  C   UNL     1      25.272   0.298  21.964  1.00  0.00     0.107 A 
ATOM      6  C   UNL     1      24.298  -0.155  22.905  1.00  0.00     0.134 A 
ATOM      7  C   UNL     1      24.464  -1.399  23.527  1.00  0.00     0.093 A 
ATOM      8  C   UNL     1      25.536  -2.230  23.202  1.00  0.00     0.123 A 
ATOM      9  C   UNL     1      26.467  -1.820  22.246  1.00  0.00     0.094 A 
ATOM     10  C   UNL     1      26.348  -0.570  21.634  1.00  0.00     0.146 A 
ATOM     11  O   UNL     1      27.266  -0.209  20.744  1.00  0.00    -0.456 OA
ENDROOT
BRANCH   1  12
ATOM     12  C   UNL     1      28.337   1.255  19.140  1.00  0.00     0.021 A 
ATOM     13  C   UNL     1      29.114   0.227  18.569  1.00  0.00     0.016 A 
ATOM     14  C   UNL     1      30.110   0.528  17.636  1.00  0.00     0.051 A 
ATOM     15  C   UNL     1      30.344   1.850  17.251  1.00  0.00     0.157 A 
ATOM     16  C   UNL     1      28.570   2.583  18.739  1.00  0.00     0.062 A 
ATOM     17  C   UNL     1      29.570   2.884  17.803  1.00  0.00     0.158 A 
BRANCH  15  18
ATOM     18  O   UNL     1      31.347   2.118  16.319  1.00  0.00    -0.504 OA
ATOM     19  H   UNL     1      32.151   2.692  16.544  1.00  0.00     0.293 HD
ENDBRANCH  15  18
BRANCH  17  20
ATOM     20  O   UNL     1      29.796   4.206  17.421  1.00  0.00    -0.504 OA
ATOM     21  H   UNL     1      30.474   4.443  16.706  1.00  0.00     0.293 HD
ENDBRANCH  17  20
ENDBRANCH   1  12
BRANCH   6  22
ATOM     22  O   UNL     1      23.145   0.560  23.245  1.00  0.00    -0.507 OA
ATOM     23  H   UNL     1      22.616   1.141  22.613  1.00  0.00     0.293 HD
ENDBRANCH   6  22
BRANCH   8  24
ATOM     24  O   UNL     1      25.660  -3.468  23.829  1.00  0.00    -0.508 OA
ATOM     25  H   UNL     1      25.816  -4.317  23.298  1.00  0.00     0.293 HD
ENDBRANCH   8  24
TORSDOF 5
ENDMDL
MODEL 4
REMARK VINA RESULT:    -7.325      5.250      8.228
REMARK INTER + INTRA:          -8.878
REMARK INTER:                  -8.614
REMARK INTRA:                  -0.264
REMARK UNBOUND:                -0.269
REMARK SMILES O=c1cc(-c2ccc(O)c(O)c2)oc2cc(O)cc(O)c12
REMARK SMILES IDX 4 1 3 2 2 3 1 4 21 5 19 6 18 7 16 8 15 9 14 10 13 11 5 12
REMARK SMILES IDX 6 13 7 14 8 15 12 16 10 17 9 18 11 20 20 22 17 24
REMARK H PARENT 9 19 11 21 20 23 17 25
REMARK Flexibility Score: inf
ROOT
ATOM      1  C   UNL     1      27.609  -0.214  19.873  1.00  0.00     0.138 A 
ATOM      2  C   UNL     1      26.443  -0.823  19.389  1.00  0.00     0.100 A 
ATOM      3  C   UNL     1      25.538  -1.392  20.284  1.00  0.00     0.197 A 
ATOM      4  O   UNL     1      24.475  -1.882  19.823  1.00  0.00    -0.289 OA
ATOM      5  C   UNL     1      25.820  -1.383  21.672  1.00  0.00     0.107 A 
ATOM      6  C   UNL     1      24.987  -1.963  22.676  1.00  0.00     0.134 A 
ATOM      7  C   UNL     1      25.322  -1.804  24.027  1.00  0.00     0.093 A 
ATOM      8  C   UNL     1      26.486  -1.138  24.408  1.00  0.00     0.123 A 
ATOM      9  C   UNL     1      27.334  -0.611  23.432  1.00  0.00     0.094 A 
ATOM     10  C   UNL     1      27.010  -0.723  22.079  1.00  0.00     0.146 A 
ATOM     11  O   UNL     1      27.835  -0.191  21.182  1.00  0.00    -0.456 OA
ENDROOT
BRANCH   1  12
ATOM     12  C   UNL     1      28.609   0.403  18.966  1.00  0.00     0.021 A 
ATOM     13  C   UNL     1      29.646  -0.352  18.384  1.00  0.00     0.016 A 
ATOM     14  C   UNL     1      30.567   0.254  17.525  1.00  0.00     0.051 A 
ATOM     15  C   UNL     1      30.466   1.615  17.225  1.00  0.00     0.157 A 
ATOM     16  C   UNL     1      28.506   1.770  18.650  1.00  0.00     0.062 A 
ATOM     17  C   UNL     1      29.430   2.378  17.788  1.00  0.00     0.158 A 
BRANCH  15  18
ATOM     18  O   UNL     1      31.402   2.191  16.366  1.00  0.00    -0.504 OA
ATOM     19  H   UNL     1      31.444   1.956  15.382  1.00  0.00     0.293 HD
ENDBRANCH  15  18
BRANCH  17  20
ATOM     20  O   UNL     1      29.322   3.736  17.491  1.00  0.00    -0.504 OA
ATOM     21  H   UNL     1      30.035   4.221  16.959  1.00  0.00     0.293 HD
ENDBRANCH  17  20
ENDBRANCH   1  12
BRANCH   6  22
ATOM     22  O   UNL     1      23.841  -2.717  22.405  1.00  0.00    -0.507 OA
ATOM     23  H   UNL     1      23.561  -3.545  22.907  1.00  0.00     0.293 HD
ENDBRANCH   6  22
BRANCH   8  24
ATOM     24  O   UNL     1      26.795  -1.013  25.760  1.00  0.00    -0.508 OA
ATOM     25  H   UNL     1      26.084  -0.798  26.449  1.00  0.00     0.293 HD
ENDBRANCH   8  24
TORSDOF 5
ENDMDL
MODEL 5
REMARK VINA RESULT:    -7.310      3.952      6.792
REMARK INTER + INTRA:          -8.860
REMARK INTER:                  -8.598
REMARK INTRA:                  -0.262
REMARK UNBOUND:                -0.269
REMARK SMILES O=c1cc(-c2ccc(O)c(O)c2)oc2cc(O)cc(O)c12
REMARK SMILES IDX 4 1 3 2 2 3 1 4 21 5 19 6 18 7 16 8 15 9 14 10 13 11 5 12
REMARK SMILES IDX 6 13 7 14 8 15 12 16 10 17 9 18 11 20 20 22 17 24
REMARK H PARENT 9 19 11 21 20 23 17 25
REMARK Flexibility Score: inf
ROOT
ATOM      1  C   UNL     1      28.227   2.379  20.657  1.00  0.00     0.138 A 
ATOM      2  C   UNL     1      29.015   3.410  21.189  1.00  0.00     0.100 A 
ATOM      3  C   UNL     1      30.146   3.842  20.496  1.00  0.00     0.197 A 
ATOM      4  O   UNL     1      30.801   4.805  20.972  1.00  0.00    -0.289 OA
ATOM      5  C   UNL     1      30.511   3.213  19.281  1.00  0.00     0.107 A 
ATOM      6  C   UNL     1      31.662   3.546  18.505  1.00  0.00     0.134 A 
ATOM      7  C   UNL     1      31.865   2.921  17.268  1.00  0.00     0.093 A 
ATOM      8  C   UNL     1      30.993   1.935  16.806  1.00  0.00     0.123 A 
ATOM      9  C   UNL     1      29.892   1.566  17.580  1.00  0.00     0.094 A 
ATOM     10  C   UNL     1      29.643   2.195  18.802  1.00  0.00     0.146 A 
ATOM     11  O   UNL     1      28.573   1.827  19.499  1.00  0.00    -0.456 OA
ENDROOT
BRANCH   1  12
ATOM     12  C   UNL     1      27.015   1.878  21.353  1.00  0.00     0.021 A 
ATOM     13  C   UNL     1      27.049   0.722  22.158  1.00  0.00     0.016 A 
ATOM     14  C   UNL     1      25.896   0.279  22.809  1.00  0.00     0.051 A 
ATOM     15  C   UNL     1      24.694   0.980  22.677  1.00  0.00     0.157 A 
ATOM     16  C   UNL     1      25.806   2.586  21.234  1.00  0.00     0.062 A 
ATOM     17  C   UNL     1      24.648   2.141  21.887  1.00  0.00     0.158 A 
BRANCH  15  18
ATOM     18  O   UNL     1      23.559   0.511  23.339  1.00  0.00    -0.504 OA
ATOM     19  H   UNL     1      23.348  -0.477  23.412  1.00  0.00     0.293 HD
ENDBRANCH  15  18
BRANCH  17  20
ATOM     20  O   UNL     1      23.453   2.847  21.754  1.00  0.00    -0.504 OA
ATOM     21  H   UNL     1      23.440   3.857  21.672  1.00  0.00     0.293 HD
ENDBRANCH  17  20
ENDBRANCH   1  12
BRANCH   6  22
ATOM     22  O   UNL     1      32.641   4.459  18.907  1.00  0.00    -0.507 OA
ATOM     23  H   UNL     1      32.458   5.361  19.319  1.00  0.00     0.293 HD
ENDBRANCH   6  22
BRANCH   8  24
ATOM     24  O   UNL     1      31.236   1.324  15.579  1.00  0.00    -0.508 OA
ATOM     25  H   UNL     1      32.176   1.097  15.277  1.00  0.00     0.293 HD
ENDBRANCH   8  24
TORSDOF 5
ENDMDL
MODEL 6
REMARK VINA RESULT:    -7.304      2.419      6.871
REMARK INTER + INTRA:          -8.854
REMARK INTER:                  -8.590
REMARK INTRA:                  -0.263
REMARK UNBOUND:                -0.269
REMARK SMILES O=c1cc(-c2ccc(O)c(O)c2)oc2cc(O)cc(O)c12
REMARK SMILES IDX 4 1 3 2 2 3 1 4 21 5 19 6 18 7 16 8 15 9 14 10 13 11 5 12
REMARK SMILES IDX 6 13 7 14 8 15 12 16 10 17 9 18 11 20 20 22 17 24
REMARK H PARENT 9 19 11 21 20 23 17 25
REMARK Flexibility Score: inf
ROOT
ATOM      1  C   UNL     1      31.310   4.493  18.489  1.00  0.00     0.138 A 
ATOM      2  C   UNL     1      31.542   4.566  19.869  1.00  0.00     0.100 A 
ATOM      3  C   UNL     1      31.461   5.797  20.520  1.00  0.00     0.197 A 
ATOM      4  O   UNL     1      31.619   5.820  21.768  1.00  0.00    -0.289 OA
ATOM      5  C   UNL     1      31.180   6.969  19.777  1.00  0.00     0.107 A 
ATOM      6  C   UNL     1      31.105   8.284  20.327  1.00  0.00     0.134 A 
ATOM      7  C   UNL     1      30.722   9.354  19.508  1.00  0.00     0.093 A 
ATOM      8  C   UNL     1      30.467   9.168  18.150  1.00  0.00     0.123 A 
ATOM      9  C   UNL     1      30.587   7.895  17.590  1.00  0.00     0.094 A 
ATOM     10  C   UNL     1      30.933   6.802  18.387  1.00  0.00     0.146 A 
ATOM     11  O   UNL     1      31.018   5.603  17.819  1.00  0.00    -0.456 OA
ENDROOT
BRANCH   1  12
ATOM     12  C   UNL     1      31.388   3.211  17.745  1.00  0.00     0.021 A 
ATOM     13  C   UNL     1      30.269   2.368  17.604  1.00  0.00     0.016 A 
ATOM     14  C   UNL     1      30.369   1.171  16.890  1.00  0.00     0.051 A 
ATOM     15  C   UNL     1      31.579   0.799  16.298  1.00  0.00     0.157 A 
ATOM     16  C   UNL     1      32.599   2.836  17.136  1.00  0.00     0.062 A 
ATOM     17  C   UNL     1      32.700   1.636  16.419  1.00  0.00     0.158 A 
BRANCH  15  18
ATOM     18  O   UNL     1      31.647  -0.403  15.593  1.00  0.00    -0.504 OA
ATOM     19  H   UNL     1      32.155  -1.205  15.945  1.00  0.00     0.293 HD
ENDBRANCH  15  18
BRANCH  17  20
ATOM     20  O   UNL     1      33.910   1.272  15.829  1.00  0.00    -0.504 OA
ATOM     21  H   UNL     1      34.766   1.211  16.367  1.00  0.00     0.293 HD
ENDBRANCH  17  20
ENDBRANCH   1  12
BRANCH   6  22
ATOM     22  O   UNL     1      31.415   8.598  21.654  1.00  0.00    -0.507 OA
ATOM     23  H   UNL     1      32.184   8.207  22.177  1.00  0.00     0.293 HD
ENDBRANCH   6  22
BRANCH   8  24
ATOM     24  O   UNL     1      30.105  10.259  17.363  1.00  0.00    -0.508 OA
ATOM     25  H   UNL     1      29.427  10.170  16.615  1.00  0.00     0.293 HD
ENDBRANCH   8  24
TORSDOF 5
ENDMDL
MODEL 7
REMARK VINA RESULT:    -7.301      0.960      1.593
REMARK INTER + INTRA:          -8.850
REMARK INTER:                  -8.585
REMARK INTRA:                  -0.265
REMARK UNBOUND:                -0.269
REMARK SMILES O=c1cc(-c2ccc(O)c(O)c2)oc2cc(O)cc(O)c12
REMARK SMILES IDX 4 1 3 2 2 3 1 4 21 5 19 6 18 7 16 8 15 9 14 10 13 11 5 12
REMARK SMILES IDX 6 13 7 14 8 15 12 16 10 17 9 18 11 20 20 22 17 24
REMARK H PARENT 9 19 11 21 20 23 17 25
REMARK Flexibility Score: inf
ROOT
ATOM      1  C   UNL     1      30.845   5.618  19.469  1.00  0.00     0.138 A 
ATOM      2  C   UNL     1      31.966   5.105  20.136  1.00  0.00     0.100 A 
ATOM      3  C   UNL     1      32.087   3.728  20.327  1.00  0.00     0.197 A 
ATOM      4  O   UNL     1      33.130   3.295  20.880  1.00  0.00    -0.289 OA
ATOM      5  C   UNL     1      31.060   2.863  19.878  1.00  0.00     0.107 A 
ATOM      6  C   UNL     1      31.058   1.445  20.047  1.00  0.00     0.134 A 
ATOM      7  C   UNL     1      30.033   0.682  19.473  1.00  0.00     0.093 A 
ATOM      8  C   UNL     1      28.981   1.289  18.786  1.00  0.00     0.123 A 
ATOM      9  C   UNL     1      28.946   2.678  18.658  1.00  0.00     0.094 A 
ATOM     10  C   UNL     1      29.972   3.463  19.190  1.00  0.00     0.146 A 
ATOM     11  O   UNL     1      29.911   4.781  19.030  1.00  0.00    -0.456 OA
ENDROOT
BRANCH   1  12
ATOM     12  C   UNL     1      30.664   7.073  19.242  1.00  0.00     0.021 A 
ATOM     13  C   UNL     1      30.654   7.625  17.946  1.00  0.00     0.016 A 
ATOM     14  C   UNL     1      30.470   8.997  17.762  1.00  0.00     0.051 A 
ATOM     15  C   UNL     1      30.287   9.841  18.861  1.00  0.00     0.157 A 
ATOM     16  C   UNL     1      30.465   7.926  20.343  1.00  0.00     0.062 A 
ATOM     17  C   UNL     1      30.282   9.304  20.159  1.00  0.00     0.158 A 
BRANCH  15  18
ATOM     18  O   UNL     1      30.108  11.208  18.645  1.00  0.00    -0.504 OA
ATOM     19  H   UNL     1      30.294  11.895  19.365  1.00  0.00     0.293 HD
ENDBRANCH  15  18
BRANCH  17  20
ATOM     20  O   UNL     1      30.096  10.139  21.259  1.00  0.00    -0.504 OA
ATOM     21  H   UNL     1      30.256  11.138  21.201  1.00  0.00     0.293 HD
ENDBRANCH  17  20
ENDBRANCH   1  12
BRANCH   6  22
ATOM     22  O   UNL     1      32.017   0.741  20.782  1.00  0.00    -0.507 OA
ATOM     23  H   UNL     1      32.477   1.084  21.612  1.00  0.00     0.293 HD
ENDBRANCH   6  22
BRANCH   8  24
ATOM     24  O   UNL     1      27.970   0.500  18.242  1.00  0.00    -0.508 OA
ATOM     25  H   UNL     1      27.879  -0.481  18.479  1.00  0.00     0.293 HD
ENDBRANCH   8  24
TORSDOF 5
ENDMDL
MODEL 8
REMARK VINA RESULT:    -7.187      3.956      7.187
REMARK INTER + INTRA:          -8.716
REMARK INTER:                  -8.425
REMARK INTRA:                  -0.291
REMARK UNBOUND:                -0.269
REMARK SMILES O=c1cc(-c2ccc(O)c(O)c2)oc2cc(O)cc(O)c12
REMARK SMILES IDX 4 1 3 2 2 3 1 4 21 5 19 6 18 7 16 8 15 9 14 10 13 11 5 12
REMARK SMILES IDX 6 13 7 14 8 15 12 16 10 17 9 18 11 20 20 22 17 24
REMARK H PARENT 9 19 11 21 20 23 17 25
REMARK Flexibility Score: inf
ROOT
ATOM      1  C   UNL     1      28.494   2.213  21.305  1.00  0.00     0.138 A 
ATOM      2  C   UNL     1      29.410   1.355  20.680  1.00  0.00     0.100 A 
ATOM      3  C   UNL     1      30.628   1.859  20.225  1.00  0.00     0.197 A 
ATOM      4  O   UNL     1      31.451   1.053  19.718  1.00  0.00    -0.289 OA
ATOM      5  C   UNL     1      30.916   3.238  20.363  1.00  0.00     0.107 A 
ATOM      6  C   UNL     1      32.111   3.871  19.907  1.00  0.00     0.134 A 
ATOM      7  C   UNL     1      32.326   5.226  20.189  1.00  0.00     0.093 A 
ATOM      8  C   UNL     1      31.367   5.984  20.860  1.00  0.00     0.123 A 
ATOM      9  C   UNL     1      30.173   5.388  21.267  1.00  0.00     0.094 A 
ATOM     10  C   UNL     1      29.943   4.031  21.031  1.00  0.00     0.146 A 
ATOM     11  O   UNL     1      28.801   3.497  21.451  1.00  0.00    -0.456 OA
ENDROOT
BRANCH   1  12
ATOM     12  C   UNL     1      27.181   1.732  21.804  1.00  0.00     0.021 A 
ATOM     13  C   UNL     1      27.071   0.575  22.601  1.00  0.00     0.016 A 
ATOM     14  C   UNL     1      25.824   0.151  23.066  1.00  0.00     0.051 A 
ATOM     15  C   UNL     1      24.669   0.874  22.754  1.00  0.00     0.157 A 
ATOM     16  C   UNL     1      26.017   2.461  21.505  1.00  0.00     0.062 A 
ATOM     17  C   UNL     1      24.764   2.036  21.971  1.00  0.00     0.158 A 
BRANCH  15  18
ATOM     18  O   UNL     1      23.438   0.424  23.231  1.00  0.00    -0.504 OA
ATOM     19  H   UNL     1      22.712   1.063  23.533  1.00  0.00     0.293 HD
ENDBRANCH  15  18
BRANCH  17  20
ATOM     20  O   UNL     1      23.617   2.763  21.659  1.00  0.00    -0.504 OA
ATOM     21  H   UNL     1      23.036   2.523  20.864  1.00  0.00     0.293 HD
ENDBRANCH  17  20
ENDBRANCH   1  12
BRANCH   6  22
ATOM     22  O   UNL     1      33.102   3.228  19.158  1.00  0.00    -0.507 OA
ATOM     23  H   UNL     1      33.342   2.252  19.233  1.00  0.00     0.293 HD
ENDBRANCH   6  22
BRANCH   8  24
ATOM     24  O   UNL     1      31.609   7.333  21.110  1.00  0.00    -0.508 OA
ATOM     25  H   UNL     1      32.296   7.855  20.578  1.00  0.00     0.293 HD
ENDBRANCH   8  24
TORSDOF 5
ENDMDL
MODEL 9
REMARK VINA RESULT:    -7.066      1.963      2.504
REMARK INTER + INTRA:          -8.574
REMARK INTER:                  -8.285
REMARK INTRA:                  -0.290
REMARK UNBOUND:                -0.269
REMARK SMILES O=c1cc(-c2ccc(O)c(O)c2)oc2cc(O)cc(O)c12
REMARK SMILES IDX 4 1 3 2 2 3 1 4 21 5 19 6 18 7 16 8 15 9 14 10 13 11 5 12
REMARK SMILES IDX 6 13 7 14 8 15 12 16 10 17 9 18 11 20 20 22 17 24
REMARK H PARENT 9 19 11 21 20 23 17 25
REMARK Flexibility Score: inf
ROOT
ATOM      1  C   UNL     1      30.579   5.376  19.093  1.00  0.00     0.138 A 
ATOM      2  C   UNL     1      30.103   4.645  20.189  1.00  0.00     0.100 A 
ATOM      3  C   UNL     1      30.172   3.252  20.173  1.00  0.00     0.197 A 
ATOM      4  O   UNL     1      29.787   2.626  21.195  1.00  0.00    -0.289 OA
ATOM      5  C   UNL     1      30.690   2.586  19.036  1.00  0.00     0.107 A 
ATOM      6  C   UNL     1      30.779   1.168  18.892  1.00  0.00     0.134 A 
ATOM      7  C   UNL     1      31.401   0.626  17.761  1.00  0.00     0.093 A 
ATOM      8  C   UNL     1      31.886   1.446  16.742  1.00  0.00     0.123 A 
ATOM      9  C   UNL     1      31.759   2.832  16.848  1.00  0.00     0.094 A 
ATOM     10  C   UNL     1      31.174   3.404  17.980  1.00  0.00     0.146 A 
ATOM     11  O   UNL     1      31.089   4.728  18.051  1.00  0.00    -0.456 OA
ENDROOT
BRANCH   1  12
ATOM     12  C   UNL     1      30.526   6.859  19.054  1.00  0.00     0.021 A 
ATOM     13  C   UNL     1      30.559   7.570  17.839  1.00  0.00     0.016 A 
ATOM     14  C   UNL     1      30.497   8.966  17.833  1.00  0.00     0.051 A 
ATOM     15  C   UNL     1      30.394   9.675  19.032  1.00  0.00     0.157 A 
ATOM     16  C   UNL     1      30.410   7.579  20.257  1.00  0.00     0.062 A 
ATOM     17  C   UNL     1      30.348   8.980  20.251  1.00  0.00     0.158 A 
BRANCH  15  18
ATOM     18  O   UNL     1      30.336  11.069  18.993  1.00  0.00    -0.504 OA
ATOM     19  H   UNL     1      30.955  11.617  18.408  1.00  0.00     0.293 HD
ENDBRANCH  15  18
BRANCH  17  20
ATOM     20  O   UNL     1      30.242   9.681  21.452  1.00  0.00    -0.504 OA
ATOM     21  H   UNL     1      30.952   9.613  22.171  1.00  0.00     0.293 HD
ENDBRANCH  17  20
ENDBRANCH   1  12
BRANCH   6  22
ATOM     22  O   UNL     1      30.257   0.253  19.812  1.00  0.00    -0.507 OA
ATOM     23  H   UNL     1      30.277  -0.750  19.706  1.00  0.00     0.293 HD
ENDBRANCH   6  22
BRANCH   8  24
ATOM     24  O   UNL     1      32.485   0.872  15.623  1.00  0.00    -0.508 OA
ATOM     25  H   UNL     1      33.479   0.961  15.450  1.00  0.00     0.293 HD
ENDBRANCH   8  24
TORSDOF 5
ENDMDL
