MODEL 1
REMARK VINA RESULT:    -4.813      0.000      0.000
REMARK INTER + INTRA:          -5.309
REMARK INTER:                  -5.939
REMARK INTRA:                   0.630
REMARK UNBOUND:                 0.630
REMARK SMILES C=C1[C@@H]2CC[C@H]3[C@@H]2C(C)(C)CCC[C@@]13C
REMARK SMILES IDX 14 1 6 2 7 3 3 4 2 5 1 6 4 7 5 8 15 9 8 10 9 11 10 12 11 13
REMARK SMILES IDX 13 15 12 16
REMARK H PARENT
REMARK Flexibility Score: 80.00
ROOT
ATOM      1  C   UNL     1     143.135 146.417 162.255  1.00  0.00    -0.008 C 
ATOM      2  C   UNL     1     142.110 147.618 162.201  1.00  0.00     0.003 C 
ATOM      3  C   UNL     1     140.911 147.146 163.049  1.00  0.00     0.006 C 
ATOM      4  C   UNL     1     140.764 145.829 162.287  1.00  0.00     0.019 C 
ATOM      5  C   UNL     1     142.159 145.271 162.352  1.00  0.00    -0.068 C 
ATOM      6  C   UNL     1     142.464 143.969 162.395  1.00  0.00     0.009 C 
ATOM      7  C   UNL     1     140.563 146.347 160.842  1.00  0.00     0.008 C 
ATOM      8  C   UNL     1     141.411 147.643 160.814  1.00  0.00     0.005 C 
ATOM      9  C   UNL     1     144.006 146.288 160.975  1.00  0.00     0.016 C 
ENDROOT
BRANCH   3  10
ATOM     10  C   UNL     1     141.016 147.135 164.634  1.00  0.00    -0.032 C 
ATOM     11  C   UNL     1     140.189 148.334 165.175  1.00  0.00     0.011 C 
ATOM     12  C   UNL     1     140.372 145.861 165.238  1.00  0.00     0.011 C 
BRANCH  10  13
ATOM     13  C   UNL     1     142.451 147.341 165.198  1.00  0.00     0.007 CG0
ATOM     14  G   UNL     1     143.470 146.262 164.836  1.00  0.00     0.000 G0
ENDBRANCH  10  13
ENDBRANCH   3  10
BRANCH   1  15
ATOM     15  C   UNL     1     144.101 146.503 163.466  1.00  0.00     0.011 C 
BRANCH  15  16
ATOM     16  C   UNL     1     143.475 146.270 164.838  1.00  0.00     0.001 CG0
ATOM     17  G   UNL     1     142.443 147.337 165.197  1.00  0.00     0.000 G0
ENDBRANCH  15  16
ENDBRANCH   1  15
TORSDOF 0
ENDMDL
MODEL 2
REMARK VINA RESULT:    -4.781      5.505      7.718
REMARK INTER + INTRA:          -5.269
REMARK INTER:                  -5.901
REMARK INTRA:                   0.631
REMARK UNBOUND:                 0.630
REMARK SMILES C=C1[C@@H]2CC[C@H]3[C@@H]2C(C)(C)CCC[C@@]13C
REMARK SMILES IDX 14 1 6 2 7 3 3 4 2 5 1 6 4 7 5 8 15 9 8 10 9 11 10 12 11 13
REMARK SMILES IDX 13 15 12 16
REMARK H PARENT
REMARK Flexibility Score: 80.00
ROOT
ATOM      1  C   UNL     1     147.643 144.372 162.203  1.00  0.00    -0.008 C 
ATOM      2  C   UNL     1     148.635 143.144 162.210  1.00  0.00     0.003 C 
ATOM      3  C   UNL     1     149.825 143.608 163.074  1.00  0.00     0.006 C 
ATOM      4  C   UNL     1     150.027 144.899 162.279  1.00  0.00     0.019 C 
ATOM      5  C   UNL     1     148.647 145.495 162.292  1.00  0.00    -0.068 C 
ATOM      6  C   UNL     1     148.375 146.805 162.290  1.00  0.00     0.009 C 
ATOM      7  C   UNL     1     150.250 144.335 160.855  1.00  0.00     0.008 C 
ATOM      8  C   UNL     1     149.368 143.061 160.842  1.00  0.00     0.005 C 
ATOM      9  C   UNL     1     146.807 144.487 160.898  1.00  0.00     0.016 C 
ENDROOT
BRANCH   3  10
ATOM     10  C   UNL     1     149.681 143.668 164.655  1.00  0.00    -0.032 C 
ATOM     11  C   UNL     1     150.460 142.463 165.250  1.00  0.00     0.011 C 
ATOM     12  C   UNL     1     150.346 144.941 165.240  1.00  0.00     0.011 C 
BRANCH  10  13
ATOM     13  C   UNL     1     148.227 143.519 165.188  1.00  0.00     0.007 CG0
ATOM     14  G   UNL     1     147.248 144.611 164.763  1.00  0.00     0.000 G0
ENDBRANCH  10  13
ENDBRANCH   3  10
BRANCH   1  15
ATOM     15  C   UNL     1     146.645 144.347 163.391  1.00  0.00     0.011 C 
BRANCH  15  16
ATOM     16  C   UNL     1     147.242 144.607 164.771  1.00  0.00     0.001 CG0
ATOM     17  G   UNL     1     148.233 143.523 165.191  1.00  0.00     0.000 G0
ENDBRANCH  15  16
ENDBRANCH   1  15
TORSDOF 0
ENDMDL
MODEL 3
REMARK VINA RESULT:    -4.730      3.786      5.347
REMARK INTER + INTRA:          -5.207
REMARK INTER:                  -5.839
REMARK INTRA:                   0.632
REMARK UNBOUND:                 0.630
REMARK SMILES C=C1[C@@H]2CC[C@H]3[C@@H]2C(C)(C)CCC[C@@]13C
REMARK SMILES IDX 14 1 6 2 7 3 3 4 2 5 1 6 4 7 5 8 15 9 8 10 9 11 10 12 11 13
REMARK SMILES IDX 13 15 12 16
REMARK H PARENT
REMARK Flexibility Score: 80.00
ROOT
ATOM      1  C   UNL     1     146.364 147.469 162.296  1.00  0.00    -0.008 C 
ATOM      2  C   UNL     1     147.549 148.512 162.240  1.00  0.00     0.003 C 
ATOM      3  C   UNL     1     147.051 149.714 163.069  1.00  0.00     0.006 C 
ATOM      4  C   UNL     1     145.739 149.831 162.293  1.00  0.00     0.019 C 
ATOM      5  C   UNL     1     145.202 148.428 162.372  1.00  0.00    -0.068 C 
ATOM      6  C   UNL     1     143.904 148.102 162.407  1.00  0.00     0.009 C 
ATOM      7  C   UNL     1     146.265 150.022 160.851  1.00  0.00     0.008 C 
ATOM      8  C   UNL     1     147.575 149.194 160.844  1.00  0.00     0.005 C 
ATOM      9  C   UNL     1     146.260 146.580 161.027  1.00  0.00     0.016 C 
ENDROOT
BRANCH   3  10
ATOM     10  C   UNL     1     147.028 149.629 164.655  1.00  0.00    -0.032 C 
ATOM     11  C   UNL     1     148.210 150.481 165.195  1.00  0.00     0.011 C 
ATOM     12  C   UNL     1     145.739 150.260 165.240  1.00  0.00     0.011 C 
BRANCH  10  13
ATOM     13  C   UNL     1     147.252 148.204 165.239  1.00  0.00     0.007 CG0
ATOM     14  G   UNL     1     146.195 147.163 164.877  1.00  0.00     0.000 G0
ENDBRANCH  10  13
ENDBRANCH   3  10
BRANCH   1  15
ATOM     15  C   UNL     1     146.455 146.520 163.521  1.00  0.00     0.011 C 
BRANCH  15  16
ATOM     16  C   UNL     1     146.195 147.158 164.882  1.00  0.00     0.001 CG0
ATOM     17  G   UNL     1     147.247 148.203 165.247  1.00  0.00     0.000 G0
ENDBRANCH  15  16
ENDBRANCH   1  15
TORSDOF 0
ENDMDL
MODEL 4
REMARK VINA RESULT:    -4.708      3.893      5.343
REMARK INTER + INTRA:          -5.179
REMARK INTER:                  -5.816
REMARK INTRA:                   0.637
REMARK UNBOUND:                 0.630
REMARK SMILES C=C1[C@@H]2CC[C@H]3[C@@H]2C(C)(C)CCC[C@@]13C
REMARK SMILES IDX 14 1 6 2 7 3 3 4 2 5 1 6 4 7 5 8 15 9 8 10 9 11 10 12 11 13
REMARK SMILES IDX 13 15 12 16
REMARK H PARENT
REMARK Flexibility Score: 80.00
ROOT
ATOM      1  C   UNL     1     144.331 143.262 162.205  1.00  0.00    -0.008 C 
ATOM      2  C   UNL     1     143.070 142.311 162.238  1.00  0.00     0.003 C 
ATOM      3  C   UNL     1     143.534 141.076 163.037  1.00  0.00     0.006 C 
ATOM      4  C   UNL     1     144.778 140.861 162.173  1.00  0.00     0.019 C 
ATOM      5  C   UNL     1     145.421 142.220 162.206  1.00  0.00    -0.068 C 
ATOM      6  C   UNL     1     146.738 142.449 162.150  1.00  0.00     0.009 C 
ATOM      7  C   UNL     1     144.140 140.708 160.772  1.00  0.00     0.008 C 
ATOM      8  C   UNL     1     142.898 141.632 160.851  1.00  0.00     0.005 C 
ATOM      9  C   UNL     1     144.412 144.141 160.927  1.00  0.00     0.016 C 
ENDROOT
BRANCH   3  10
ATOM     10  C   UNL     1     143.674 141.160 164.617  1.00  0.00    -0.032 C 
ATOM     11  C   UNL     1     142.476 140.392 165.242  1.00  0.00     0.011 C 
ATOM     12  C   UNL     1     144.954 140.441 165.115  1.00  0.00     0.011 C 
BRANCH  10  13
ATOM     13  C   UNL     1     143.591 142.597 165.207  1.00  0.00     0.007 CG0
ATOM     14  G   UNL     1     144.692 143.561 164.770  1.00  0.00     0.000 G0
ENDBRANCH  10  13
ENDBRANCH   3  10
BRANCH   1  15
ATOM     15  C   UNL     1     144.395 144.217 163.428  1.00  0.00     0.011 C 
BRANCH  15  16
ATOM     16  C   UNL     1     144.687 143.560 164.774  1.00  0.00     0.001 CG0
ATOM     17  G   UNL     1     143.588 142.590 165.200  1.00  0.00     0.000 G0
ENDBRANCH  15  16
ENDBRANCH   1  15
TORSDOF 0
ENDMDL
MODEL 5
REMARK VINA RESULT:    -4.630      4.921      6.942
REMARK INTER + INTRA:          -5.083
REMARK INTER:                  -5.718
REMARK INTRA:                   0.635
REMARK UNBOUND:                 0.630
REMARK SMILES C=C1[C@@H]2CC[C@H]3[C@@H]2C(C)(C)CCC[C@@]13C
REMARK SMILES IDX 14 1 6 2 7 3 3 4 2 5 1 6 4 7 5 8 15 9 8 10 9 11 10 12 11 13
REMARK SMILES IDX 13 15 12 16
REMARK H PARENT
REMARK Flexibility Score: 80.00
ROOT
ATOM      1  C   UNL     1     148.845 143.860 164.329  1.00  0.00    -0.008 C 
ATOM      2  C   UNL     1     149.589 145.252 164.354  1.00  0.00     0.003 C 
ATOM      3  C   UNL     1     148.884 146.091 163.269  1.00  0.00     0.006 C 
ATOM      4  C   UNL     1     149.054 145.021 162.191  1.00  0.00     0.019 C 
ATOM      5  C   UNL     1     148.487 143.802 162.865  1.00  0.00    -0.068 C 
ATOM      6  C   UNL     1     147.855 142.801 162.240  1.00  0.00     0.009 C 
ATOM      7  C   UNL     1     150.592 144.848 162.188  1.00  0.00     0.008 C 
ATOM      8  C   UNL     1     150.975 145.112 163.666  1.00  0.00     0.005 C 
ATOM      9  C   UNL     1     149.755 142.663 164.718  1.00  0.00     0.016 C 
ENDROOT
BRANCH   3  10
ATOM     10  C   UNL     1     147.447 146.707 163.552  1.00  0.00    -0.032 C 
ATOM     11  C   UNL     1     147.622 148.231 163.798  1.00  0.00     0.011 C 
ATOM     12  C   UNL     1     146.517 146.574 162.319  1.00  0.00     0.011 C 
BRANCH  10  13
ATOM     13  C   UNL     1     146.741 146.165 164.828  1.00  0.00     0.007 CG0
ATOM     14  G   UNL     1     146.418 144.673 164.827  1.00  0.00     0.000 G0
ENDBRANCH  10  13
ENDBRANCH   3  10
BRANCH   1  15
ATOM     15  C   UNL     1     147.607 143.823 165.264  1.00  0.00     0.011 C 
BRANCH  15  16
ATOM     16  C   UNL     1     146.416 144.673 164.831  1.00  0.00     0.001 CG0
ATOM     17  G   UNL     1     146.741 146.166 164.818  1.00  0.00     0.000 G0
ENDBRANCH  15  16
ENDBRANCH   1  15
TORSDOF 0
ENDMDL
MODEL 6
REMARK VINA RESULT:    -4.585      3.954      6.217
REMARK INTER + INTRA:          -5.028
REMARK INTER:                  -5.665
REMARK INTRA:                   0.638
REMARK UNBOUND:                 0.630
REMARK SMILES C=C1[C@@H]2CC[C@H]3[C@@H]2C(C)(C)CCC[C@@]13C
REMARK SMILES IDX 14 1 6 2 7 3 3 4 2 5 1 6 4 7 5 8 15 9 8 10 9 11 10 12 11 13
REMARK SMILES IDX 13 15 12 16
REMARK H PARENT
REMARK Flexibility Score: 80.00
ROOT
ATOM      1  C   UNL     1     145.526 142.443 163.512  1.00  0.00    -0.008 C 
ATOM      2  C   UNL     1     145.052 141.024 163.006  1.00  0.00     0.003 C 
ATOM      3  C   UNL     1     143.655 141.271 162.401  1.00  0.00     0.006 C 
ATOM      4  C   UNL     1     143.131 141.980 163.651  1.00  0.00     0.019 C 
ATOM      5  C   UNL     1     144.185 143.028 163.882  1.00  0.00    -0.068 C 
ATOM      6  C   UNL     1     143.965 144.236 164.415  1.00  0.00     0.009 C 
ATOM      7  C   UNL     1     143.352 140.887 164.724  1.00  0.00     0.008 C 
ATOM      8  C   UNL     1     144.623 140.157 164.222  1.00  0.00     0.005 C 
ATOM      9  C   UNL     1     146.458 142.380 164.753  1.00  0.00     0.016 C 
ENDROOT
BRANCH   3  10
ATOM     10  C   UNL     1     143.518 141.967 160.980  1.00  0.00    -0.032 C 
ATOM     11  C   UNL     1     143.125 140.873 159.950  1.00  0.00     0.011 C 
ATOM     12  C   UNL     1     142.368 143.007 160.964  1.00  0.00     0.011 C 
BRANCH  10  13
ATOM     13  C   UNL     1     144.830 142.596 160.429  1.00  0.00     0.007 CG0
ATOM     14  G   UNL     1     145.414 143.744 161.249  1.00  0.00     0.000 G0
ENDBRANCH  10  13
ENDBRANCH   3  10
BRANCH   1  15
ATOM     15  C   UNL     1     146.266 143.256 162.417  1.00  0.00     0.011 C 
BRANCH  15  16
ATOM     16  C   UNL     1     145.409 143.746 161.254  1.00  0.00     0.001 CG0
ATOM     17  G   UNL     1     144.829 142.598 160.432  1.00  0.00     0.000 G0
ENDBRANCH  15  16
ENDBRANCH   1  15
TORSDOF 0
ENDMDL
MODEL 7
REMARK VINA RESULT:    -4.576      3.785      6.207
REMARK INTER + INTRA:          -5.017
REMARK INTER:                  -5.655
REMARK INTRA:                   0.638
REMARK UNBOUND:                 0.630
REMARK SMILES C=C1[C@@H]2CC[C@H]3[C@@H]2C(C)(C)CCC[C@@]13C
REMARK SMILES IDX 14 1 6 2 7 3 3 4 2 5 1 6 4 7 5 8 15 9 8 10 9 11 10 12 11 13
REMARK SMILES IDX 13 15 12 16
REMARK H PARENT
REMARK Flexibility Score: 80.00
ROOT
ATOM      1  C   UNL     1     145.227 148.341 163.544  1.00  0.00    -0.008 C 
ATOM      2  C   UNL     1     145.708 149.755 163.030  1.00  0.00     0.003 C 
ATOM      3  C   UNL     1     147.102 149.496 162.422  1.00  0.00     0.006 C 
ATOM      4  C   UNL     1     147.625 148.790 163.674  1.00  0.00     0.019 C 
ATOM      5  C   UNL     1     146.565 147.750 163.913  1.00  0.00    -0.068 C 
ATOM      6  C   UNL     1     146.780 146.543 164.451  1.00  0.00     0.009 C 
ATOM      7  C   UNL     1     147.414 149.889 164.742  1.00  0.00     0.008 C 
ATOM      8  C   UNL     1     146.146 150.625 164.241  1.00  0.00     0.005 C 
ATOM      9  C   UNL     1     144.299 148.415 164.788  1.00  0.00     0.016 C 
ENDROOT
BRANCH   3  10
ATOM     10  C   UNL     1     147.230 148.792 161.004  1.00  0.00    -0.032 C 
ATOM     11  C   UNL     1     147.624 149.880 159.967  1.00  0.00     0.011 C 
ATOM     12  C   UNL     1     148.375 147.747 160.989  1.00  0.00     0.011 C 
BRANCH  10  13
ATOM     13  C   UNL     1     145.914 148.167 160.461  1.00  0.00     0.007 CG0
ATOM     14  G   UNL     1     145.326 147.028 161.291  1.00  0.00     0.000 G0
ENDBRANCH  10  13
ENDBRANCH   3  10
BRANCH   1  15
ATOM     15  C   UNL     1     144.478 147.528 162.455  1.00  0.00     0.011 C 
BRANCH  15  16
ATOM     16  C   UNL     1     145.329 147.027 161.291  1.00  0.00     0.001 CG0
ATOM     17  G   UNL     1     145.912 148.169 160.462  1.00  0.00     0.000 G0
ENDBRANCH  15  16
ENDBRANCH   1  15
TORSDOF 0
ENDMDL
MODEL 8
REMARK VINA RESULT:    -4.568      5.583      7.929
REMARK INTER + INTRA:          -5.007
REMARK INTER:                  -5.647
REMARK INTRA:                   0.641
REMARK UNBOUND:                 0.630
REMARK SMILES C=C1[C@@H]2CC[C@H]3[C@@H]2C(C)(C)CCC[C@@]13C
REMARK SMILES IDX 14 1 6 2 7 3 3 4 2 5 1 6 4 7 5 8 15 9 8 10 9 11 10 12 11 13
REMARK SMILES IDX 13 15 12 16
REMARK H PARENT
REMARK Flexibility Score: 80.00
ROOT
ATOM      1  C   UNL     1     148.351 145.521 163.614  1.00  0.00    -0.008 C 
ATOM      2  C   UNL     1     149.763 145.044 163.093  1.00  0.00     0.003 C 
ATOM      3  C   UNL     1     149.504 143.649 162.487  1.00  0.00     0.006 C 
ATOM      4  C   UNL     1     148.805 143.125 163.742  1.00  0.00     0.019 C 
ATOM      5  C   UNL     1     147.765 144.182 163.987  1.00  0.00    -0.068 C 
ATOM      6  C   UNL     1     146.561 143.966 164.531  1.00  0.00     0.009 C 
ATOM      7  C   UNL     1     149.910 143.338 164.804  1.00  0.00     0.008 C 
ATOM      8  C   UNL     1     150.640 144.607 164.299  1.00  0.00     0.005 C 
ATOM      9  C   UNL     1     148.430 146.450 164.857  1.00  0.00     0.016 C 
ENDROOT
BRANCH   3  10
ATOM     10  C   UNL     1     148.793 143.519 161.072  1.00  0.00    -0.032 C 
ATOM     11  C   UNL     1     149.875 143.125 160.029  1.00  0.00     0.011 C 
ATOM     12  C   UNL     1     147.748 142.373 161.063  1.00  0.00     0.011 C 
BRANCH  10  13
ATOM     13  C   UNL     1     148.163 144.835 160.531  1.00  0.00     0.007 CG0
ATOM     14  G   UNL     1     147.022 145.418 161.362  1.00  0.00     0.000 G0
ENDBRANCH  10  13
ENDBRANCH   3  10
BRANCH   1  15
ATOM     15  C   UNL     1     147.530 146.269 162.529  1.00  0.00     0.011 C 
BRANCH  15  16
ATOM     16  C   UNL     1     147.022 145.417 161.370  1.00  0.00     0.001 CG0
ATOM     17  G   UNL     1     148.159 144.838 160.530  1.00  0.00     0.000 G0
ENDBRANCH  15  16
ENDBRANCH   1  15
TORSDOF 0
ENDMDL
MODEL 9
REMARK VINA RESULT:    -4.562      1.795      3.793
REMARK INTER + INTRA:          -4.999
REMARK INTER:                  -5.638
REMARK INTRA:                   0.638
REMARK UNBOUND:                 0.630
REMARK SMILES C=C1[C@@H]2CC[C@H]3[C@@H]2C(C)(C)CCC[C@@]13C
REMARK SMILES IDX 14 1 6 2 7 3 3 4 2 5 1 6 4 7 5 8 15 9 8 10 9 11 10 12 11 13
REMARK SMILES IDX 13 15 12 16
REMARK H PARENT
REMARK Flexibility Score: 80.00
ROOT
ATOM      1  C   UNL     1     142.419 145.230 163.573  1.00  0.00    -0.008 C 
ATOM      2  C   UNL     1     141.002 145.711 163.066  1.00  0.00     0.003 C 
ATOM      3  C   UNL     1     141.259 147.103 162.453  1.00  0.00     0.006 C 
ATOM      4  C   UNL     1     141.974 147.629 163.699  1.00  0.00     0.019 C 
ATOM      5  C   UNL     1     143.013 146.569 163.936  1.00  0.00    -0.068 C 
ATOM      6  C   UNL     1     144.223 146.783 164.466  1.00  0.00     0.009 C 
ATOM      7  C   UNL     1     140.880 147.422 164.774  1.00  0.00     0.008 C 
ATOM      8  C   UNL     1     140.140 146.154 164.280  1.00  0.00     0.005 C 
ATOM      9  C   UNL     1     142.350 144.306 164.820  1.00  0.00     0.016 C 
ENDROOT
BRANCH   3  10
ATOM     10  C   UNL     1     141.956 147.227 161.031  1.00  0.00    -0.032 C 
ATOM     11  C   UNL     1     140.863 147.621 159.999  1.00  0.00     0.011 C 
ATOM     12  C   UNL     1     143.003 148.370 161.007  1.00  0.00     0.011 C 
BRANCH  10  13
ATOM     13  C   UNL     1     142.576 145.908 160.487  1.00  0.00     0.007 CG0
ATOM     14  G   UNL     1     143.717 145.319 161.313  1.00  0.00     0.000 G0
ENDBRANCH  10  13
ENDBRANCH   3  10
BRANCH   1  15
ATOM     15  C   UNL     1     143.225 144.477 162.482  1.00  0.00     0.011 C 
BRANCH  15  16
ATOM     16  C   UNL     1     143.721 145.324 161.313  1.00  0.00     0.001 CG0
ATOM     17  G   UNL     1     142.575 145.906 160.488  1.00  0.00     0.000 G0
ENDBRANCH  15  16
ENDBRANCH   1  15
TORSDOF 0
ENDMDL
