MODEL 1
REMARK VINA RESULT:    -6.024      0.000      0.000
REMARK INTER + INTRA:          -9.067
REMARK INTER:                  -8.313
REMARK INTRA:                  -0.754
REMARK UNBOUND:                -0.754
REMARK SMILES C[C@@H]1C(=O)O[C@H](C)[C@@H]1C[C@H](O)[C@](C)(O)[C@H]1CC[C@]2(O)C3=CC(=O)[C@@H]4C[C@@H](O)[C@H](O)C[C@@]4(C)[C@H]3CC[C@]12C
REMARK SMILES IDX 12 1 13 2 10 3 9 4 8 5 1 6 2 7 3 8 6 9 5 10 4 11 7 12 11 13
REMARK SMILES IDX 15 15 16 16 36 17 17 18 18 19 35 20 37 21 20 22 34 23 33 24
REMARK SMILES IDX 21 25 31 26 22 27 24 28 30 29 32 30 23 31 25 32 28 33 26 34
REMARK SMILES IDX 19 35 29 37 27 39 14 41
REMARK H PARENT 11 14 19 36 29 38 27 40 14 42
REMARK Flexibility Score: inf
ROOT
ATOM      1  C   UNL     1      16.899  15.932  15.170  1.00  0.00     0.091 C 
ATOM      2  C   UNL     1      16.635  14.469  15.636  1.00  0.00     0.045 C 
ENDROOT
BRANCH   1   3
ATOM      3  C   UNL     1      17.592  16.717  16.375  1.00  0.00     0.146 C 
BRANCH   3   4
ATOM      4  C   UNL     1      17.276  18.241  16.468  1.00  0.00     0.043 C 
BRANCH   4   5
ATOM      5  C   UNL     1      18.332  19.215  15.876  1.00  0.00     0.046 C 
ATOM      6  C   UNL     1      17.783  20.991  17.731  1.00  0.00     0.020 C 
ATOM      7  C   UNL     1      18.819  20.393  16.769  1.00  0.00     0.103 C 
ATOM      8  C   UNL     1      19.162  21.401  15.734  1.00  0.00     0.309 C 
ATOM      9  C   UNL     1      17.947  19.867  14.510  1.00  0.00     0.177 C 
ATOM     10  O   UNL     1      18.663  21.089  14.488  1.00  0.00    -0.462 OA
ATOM     11  O   UNL     1      19.840  22.437  15.957  1.00  0.00    -0.252 OA
ATOM     12  C   UNL     1      16.453  20.157  14.323  1.00  0.00     0.053 C 
ENDBRANCH   4   5
ENDBRANCH   3   4
BRANCH   3  13
ATOM     13  O   UNL     1      18.985  16.498  16.386  1.00  0.00    -0.390 OA
ATOM     14  H   UNL     1      19.423  17.308  16.008  1.00  0.00     0.211 HD
ENDBRANCH   3  13
ENDBRANCH   1   3
BRANCH   1  15
ATOM     15  C   UNL     1      15.528  16.635  14.748  1.00  0.00     0.032 C 
ATOM     16  C   UNL     1      15.161  16.412  13.262  1.00  0.00     0.010 C 
ATOM     17  C   UNL     1      14.181  16.356  15.558  1.00  0.00     0.006 C 
ATOM     18  C   UNL     1      13.899  15.581  13.198  1.00  0.00     0.041 C 
ATOM     19  C   UNL     1      13.139  15.742  14.524  1.00  0.00     0.092 C 
ATOM     20  C   UNL     1      13.654  17.711  16.163  1.00  0.00     0.011 C 
ATOM     21  C   UNL     1      14.328  15.400  16.777  1.00  0.00     0.015 C 
ATOM     22  C   UNL     1      11.937  16.685  14.358  1.00  0.00    -0.031 C 
ATOM     23  C   UNL     1      13.131  18.743  15.134  1.00  0.00     0.009 C 
ATOM     24  C   UNL     1      12.265  18.129  13.994  1.00  0.00     0.025 C 
ATOM     25  C   UNL     1      10.710  16.357  14.829  1.00  0.00     0.050 C 
ATOM     26  C   UNL     1      10.988  18.948  13.565  1.00  0.00    -0.013 C 
ATOM     27  C   UNL     1       9.621  17.348  14.931  1.00  0.00     0.159 C 
ATOM     28  C   UNL     1       9.921  18.805  14.688  1.00  0.00     0.070 C 
ATOM     29  C   UNL     1      11.318  20.460  13.337  1.00  0.00     0.042 C 
ATOM     30  C   UNL     1      10.484  18.341  12.213  1.00  0.00     0.013 C 
ATOM     31  O   UNL     1       8.479  16.977  15.316  1.00  0.00    -0.295 OA
ATOM     32  C   UNL     1       8.662  19.656  14.422  1.00  0.00     0.047 C 
ATOM     33  C   UNL     1      10.071  21.359  13.140  1.00  0.00     0.143 C 
ATOM     34  C   UNL     1       9.020  21.143  14.251  1.00  0.00     0.143 C 
BRANCH  19  35
ATOM     35  O   UNL     1      12.705  14.456  14.932  1.00  0.00    -0.385 OA
ATOM     36  H   UNL     1      11.744  14.515  15.187  1.00  0.00     0.211 HD
ENDBRANCH  19  35
BRANCH  33  37
ATOM     37  O   UNL     1       9.484  21.147  11.883  1.00  0.00    -0.390 OA
ATOM     38  H   UNL     1       8.899  21.929  11.699  1.00  0.00     0.211 HD
ENDBRANCH  33  37
BRANCH  34  39
ATOM     39  O   UNL     1       9.502  21.648  15.471  1.00  0.00    -0.390 OA
ATOM     40  H   UNL     1       9.398  20.923  16.143  1.00  0.00     0.211 HD
ENDBRANCH  34  39
ENDBRANCH   1  15
BRANCH   1  41
ATOM     41  O   UNL     1      17.767  15.872  14.059  1.00  0.00    -0.387 OA
ATOM     42  H   UNL     1      17.892  14.925  13.801  1.00  0.00     0.211 HD
ENDBRANCH   1  41
TORSDOF 9
ENDMDL
MODEL 2
REMARK VINA RESULT:    -5.758      3.924      6.575
REMARK INTER + INTRA:          -8.699
REMARK INTER:                  -8.426
REMARK INTRA:                  -0.274
REMARK UNBOUND:                -0.754
REMARK SMILES C[C@@H]1C(=O)O[C@H](C)[C@@H]1C[C@H](O)[C@](C)(O)[C@H]1CC[C@]2(O)C3=CC(=O)[C@@H]4C[C@@H](O)[C@H](O)C[C@@]4(C)[C@H]3CC[C@]12C
REMARK SMILES IDX 12 1 13 2 10 3 9 4 8 5 1 6 2 7 3 8 6 9 5 10 4 11 7 12 11 13
REMARK SMILES IDX 15 15 16 16 36 17 17 18 18 19 35 20 37 21 20 22 34 23 33 24
REMARK SMILES IDX 21 25 31 26 22 27 24 28 30 29 32 30 23 31 25 32 28 33 26 34
REMARK SMILES IDX 19 35 29 37 27 39 14 41
REMARK H PARENT 11 14 19 36 29 38 27 40 14 42
REMARK Flexibility Score: inf
ROOT
ATOM      1  C   UNL     1      10.821  18.066  12.915  1.00  0.00     0.091 C 
ATOM      2  C   UNL     1      11.357  17.018  11.893  1.00  0.00     0.045 C 
ENDROOT
BRANCH   1   3
ATOM      3  C   UNL     1      11.545  17.807  14.314  1.00  0.00     0.146 C 
BRANCH   3   4
ATOM      4  C   UNL     1      12.804  18.681  14.601  1.00  0.00     0.043 C 
BRANCH   4   5
ATOM      5  C   UNL     1      14.187  17.987  14.468  1.00  0.00     0.046 C 
ATOM      6  C   UNL     1      14.451  17.935  17.081  1.00  0.00     0.020 C 
ATOM      7  C   UNL     1      14.776  17.287  15.727  1.00  0.00     0.103 C 
ATOM      8  C   UNL     1      16.231  17.419  15.462  1.00  0.00     0.309 C 
ATOM      9  C   UNL     1      15.338  18.890  13.924  1.00  0.00     0.177 C 
ATOM     10  O   UNL     1      16.519  18.318  14.458  1.00  0.00    -0.462 OA
ATOM     11  O   UNL     1      17.121  16.779  16.080  1.00  0.00    -0.252 OA
ATOM     12  C   UNL     1      15.263  20.364  14.339  1.00  0.00     0.053 C 
ENDBRANCH   4   5
ENDBRANCH   3   4
BRANCH   3  13
ATOM     13  O   UNL     1      11.842  16.440  14.483  1.00  0.00    -0.390 OA
ATOM     14  H   UNL     1      11.067  16.014  14.939  1.00  0.00     0.211 HD
ENDBRANCH   3  13
ENDBRANCH   1   3
BRANCH   1  15
ATOM     15  C   UNL     1       9.236  17.936  13.062  1.00  0.00     0.032 C 
ATOM     16  C   UNL     1       8.781  16.540  13.550  1.00  0.00     0.010 C 
ATOM     17  C   UNL     1       8.406  18.978  13.942  1.00  0.00     0.006 C 
ATOM     18  C   UNL     1       8.156  16.691  14.919  1.00  0.00     0.041 C 
ATOM     19  C   UNL     1       7.676  18.142  15.082  1.00  0.00     0.092 C 
ATOM     20  C   UNL     1       7.365  19.717  13.020  1.00  0.00     0.011 C 
ATOM     21  C   UNL     1       9.249  20.114  14.590  1.00  0.00     0.015 C 
ATOM     22  C   UNL     1       6.151  18.239  14.918  1.00  0.00    -0.031 C 
ATOM     23  C   UNL     1       6.204  18.842  12.489  1.00  0.00     0.009 C 
ATOM     24  C   UNL     1       5.601  17.868  13.545  1.00  0.00     0.025 C 
ATOM     25  C   UNL     1       5.386  18.924  15.801  1.00  0.00     0.050 C 
ATOM     26  C   UNL     1       4.032  17.717  13.544  1.00  0.00    -0.013 C 
ATOM     27  C   UNL     1       3.979  19.264  15.518  1.00  0.00     0.159 C 
ATOM     28  C   UNL     1       3.420  19.017  14.140  1.00  0.00     0.070 C 
ATOM     29  C   UNL     1       3.472  17.480  12.102  1.00  0.00     0.042 C 
ATOM     30  C   UNL     1       3.689  16.467  14.421  1.00  0.00     0.013 C 
ATOM     31  O   UNL     1       3.292  19.848  16.401  1.00  0.00    -0.295 OA
ATOM     32  C   UNL     1       1.878  19.025  14.091  1.00  0.00     0.047 C 
ATOM     33  C   UNL     1       1.927  17.555  12.002  1.00  0.00     0.143 C 
ATOM     34  C   UNL     1       1.366  18.837  12.652  1.00  0.00     0.143 C 
BRANCH  19  35
ATOM     35  O   UNL     1       8.063  18.583  16.372  1.00  0.00    -0.385 OA
ATOM     36  H   UNL     1       8.875  19.150  16.281  1.00  0.00     0.211 HD
ENDBRANCH  19  35
BRANCH  33  37
ATOM     37  O   UNL     1       1.325  16.426  12.579  1.00  0.00    -0.390 OA
ATOM     38  H   UNL     1       1.148  16.646  13.532  1.00  0.00     0.211 HD
ENDBRANCH  33  37
BRANCH  34  39
ATOM     39  O   UNL     1       1.720  19.959  11.883  1.00  0.00    -0.390 OA
ATOM     40  H   UNL     1       2.672  20.157  12.086  1.00  0.00     0.211 HD
ENDBRANCH  34  39
ENDBRANCH   1  15
BRANCH   1  41
ATOM     41  O   UNL     1      11.151  19.346  12.420  1.00  0.00    -0.387 OA
ATOM     42  H   UNL     1      10.906  20.024  13.097  1.00  0.00     0.211 HD
ENDBRANCH   1  41
TORSDOF 9
ENDMDL
MODEL 3
REMARK VINA RESULT:    -5.728      3.281      5.899
REMARK INTER + INTRA:          -8.659
REMARK INTER:                  -8.148
REMARK INTRA:                  -0.510
REMARK UNBOUND:                -0.754
REMARK SMILES C[C@@H]1C(=O)O[C@H](C)[C@@H]1C[C@H](O)[C@](C)(O)[C@H]1CC[C@]2(O)C3=CC(=O)[C@@H]4C[C@@H](O)[C@H](O)C[C@@]4(C)[C@H]3CC[C@]12C
REMARK SMILES IDX 12 1 13 2 10 3 9 4 8 5 1 6 2 7 3 8 6 9 5 10 4 11 7 12 11 13
REMARK SMILES IDX 15 15 16 16 36 17 17 18 18 19 35 20 37 21 20 22 34 23 33 24
REMARK SMILES IDX 21 25 31 26 22 27 24 28 30 29 32 30 23 31 25 32 28 33 26 34
REMARK SMILES IDX 19 35 29 37 27 39 14 41
REMARK H PARENT 11 14 19 36 29 38 27 40 14 42
REMARK Flexibility Score: inf
ROOT
ATOM      1  C   UNL     1      12.353  18.986  13.899  1.00  0.00     0.091 C 
ATOM      2  C   UNL     1      13.018  20.126  13.070  1.00  0.00     0.045 C 
ENDROOT
BRANCH   1   3
ATOM      3  C   UNL     1      12.845  17.590  13.303  1.00  0.00     0.146 C 
BRANCH   3   4
ATOM      4  C   UNL     1      14.178  17.031  13.890  1.00  0.00     0.043 C 
BRANCH   4   5
ATOM      5  C   UNL     1      14.098  15.680  14.654  1.00  0.00     0.046 C 
ATOM      6  C   UNL     1      14.607  16.897  16.925  1.00  0.00     0.020 C 
ATOM      7  C   UNL     1      13.926  15.727  16.200  1.00  0.00     0.103 C 
ATOM      8  C   UNL     1      14.594  14.460  16.591  1.00  0.00     0.309 C 
ATOM      9  C   UNL     1      15.285  14.699  14.402  1.00  0.00     0.177 C 
ATOM     10  O   UNL     1      15.346  13.908  15.576  1.00  0.00    -0.462 OA
ATOM     11  O   UNL     1      14.490  13.929  17.727  1.00  0.00    -0.252 OA
ATOM     12  C   UNL     1      16.647  15.365  14.174  1.00  0.00     0.053 C 
ENDBRANCH   4   5
ENDBRANCH   3   4
BRANCH   3  13
ATOM     13  O   UNL     1      12.904  17.633  11.896  1.00  0.00    -0.390 OA
ATOM     14  H   UNL     1      12.168  17.064  11.542  1.00  0.00     0.211 HD
ENDBRANCH   3  13
ENDBRANCH   1   3
BRANCH   1  15
ATOM     15  C   UNL     1      10.762  19.106  13.828  1.00  0.00     0.032 C 
ATOM     16  C   UNL     1      10.238  19.456  12.416  1.00  0.00     0.010 C 
ATOM     17  C   UNL     1       9.828  17.915  14.338  1.00  0.00     0.006 C 
ATOM     18  C   UNL     1       9.437  18.283  11.896  1.00  0.00     0.041 C 
ATOM     19  C   UNL     1       8.947  17.455  13.095  1.00  0.00     0.092 C 
ATOM     20  C   UNL     1       8.923  18.438  15.516  1.00  0.00     0.011 C 
ATOM     21  C   UNL     1      10.582  16.687  14.923  1.00  0.00     0.015 C 
ATOM     22  C   UNL     1       7.459  17.716  13.373  1.00  0.00    -0.031 C 
ATOM     23  C   UNL     1       7.838  19.469  15.118  1.00  0.00     0.009 C 
ATOM     24  C   UNL     1       7.095  19.137  13.790  1.00  0.00     0.025 C 
ATOM     25  C   UNL     1       6.586  16.698  13.569  1.00  0.00     0.050 C 
ATOM     26  C   UNL     1       5.539  19.391  13.775  1.00  0.00    -0.013 C 
ATOM     27  C   UNL     1       5.230  16.923  14.107  1.00  0.00     0.159 C 
ATOM     28  C   UNL     1       4.860  18.285  14.634  1.00  0.00     0.070 C 
ATOM     29  C   UNL     1       5.176  20.802  14.344  1.00  0.00     0.042 C 
ATOM     30  C   UNL     1       5.075  19.323  12.282  1.00  0.00     0.013 C 
ATOM     31  O   UNL     1       4.435  15.950  14.210  1.00  0.00    -0.295 OA
ATOM     32  C   UNL     1       3.338  18.496  14.778  1.00  0.00     0.047 C 
ATOM     33  C   UNL     1       3.659  21.023  14.572  1.00  0.00     0.143 C 
ATOM     34  C   UNL     1       3.022  19.875  15.384  1.00  0.00     0.143 C 
BRANCH  19  35
ATOM     35  O   UNL     1       9.160  16.087  12.790  1.00  0.00    -0.385 OA
ATOM     36  H   UNL     1       8.273  15.647  12.685  1.00  0.00     0.211 HD
ENDBRANCH  19  35
BRANCH  33  37
ATOM     37  O   UNL     1       2.979  21.177  13.354  1.00  0.00    -0.390 OA
ATOM     38  H   UNL     1       3.584  20.845  12.639  1.00  0.00     0.211 HD
ENDBRANCH  33  37
BRANCH  34  39
ATOM     39  O   UNL     1       3.481  19.915  16.712  1.00  0.00    -0.390 OA
ATOM     40  H   UNL     1       4.180  20.620  16.753  1.00  0.00     0.211 HD
ENDBRANCH  34  39
ENDBRANCH   1  15
BRANCH   1  41
ATOM     41  O   UNL     1      12.783  19.130  15.235  1.00  0.00    -0.387 OA
ATOM     42  H   UNL     1      12.488  20.012  15.574  1.00  0.00     0.211 HD
ENDBRANCH   1  41
TORSDOF 9
ENDMDL
MODEL 4
REMARK VINA RESULT:    -5.584      2.142      8.187
REMARK INTER + INTRA:          -8.460
REMARK INTER:                  -8.336
REMARK INTRA:                  -0.124
REMARK UNBOUND:                -0.754
REMARK SMILES C[C@@H]1C(=O)O[C@H](C)[C@@H]1C[C@H](O)[C@](C)(O)[C@H]1CC[C@]2(O)C3=CC(=O)[C@@H]4C[C@@H](O)[C@H](O)C[C@@]4(C)[C@H]3CC[C@]12C
REMARK SMILES IDX 12 1 13 2 10 3 9 4 8 5 1 6 2 7 3 8 6 9 5 10 4 11 7 12 11 13
REMARK SMILES IDX 15 15 16 16 36 17 17 18 18 19 35 20 37 21 20 22 34 23 33 24
REMARK SMILES IDX 21 25 31 26 22 27 24 28 30 29 32 30 23 31 25 32 28 33 26 34
REMARK SMILES IDX 19 35 29 37 27 39 14 41
REMARK H PARENT 11 14 19 36 29 38 27 40 14 42
REMARK Flexibility Score: inf
ROOT
ATOM      1  C   UNL     1      11.173  15.198  14.588  1.00  0.00     0.091 C 
ATOM      2  C   UNL     1      11.428  13.908  13.752  1.00  0.00     0.045 C 
ENDROOT
BRANCH   1   3
ATOM      3  C   UNL     1      10.140  16.111  13.784  1.00  0.00     0.146 C 
BRANCH   3   4
ATOM      4  C   UNL     1       9.693  17.424  14.497  1.00  0.00     0.043 C 
BRANCH   4   5
ATOM      5  C   UNL     1       8.225  17.485  15.003  1.00  0.00     0.046 C 
ATOM      6  C   UNL     1       7.447  18.533  12.724  1.00  0.00     0.020 C 
ATOM      7  C   UNL     1       7.097  17.674  13.948  1.00  0.00     0.103 C 
ATOM      8  C   UNL     1       6.073  18.378  14.760  1.00  0.00     0.309 C 
ATOM      9  C   UNL     1       7.942  18.555  16.103  1.00  0.00     0.177 C 
ATOM     10  O   UNL     1       6.567  18.862  15.952  1.00  0.00    -0.462 OA
ATOM     11  O   UNL     1       4.873  18.523  14.411  1.00  0.00    -0.252 OA
ATOM     12  C   UNL     1       8.761  19.846  15.985  1.00  0.00     0.053 C 
ENDBRANCH   4   5
ENDBRANCH   3   4
BRANCH   3  13
ATOM     13  O   UNL     1       9.018  15.364  13.373  1.00  0.00    -0.390 OA
ATOM     14  H   UNL     1       9.130  14.435  13.712  1.00  0.00     0.211 HD
ENDBRANCH   3  13
ENDBRANCH   1   3
BRANCH   1  15
ATOM     15  C   UNL     1      12.545  15.976  14.838  1.00  0.00     0.032 C 
ATOM     16  C   UNL     1      13.568  15.159  15.663  1.00  0.00     0.010 C 
ATOM     17  C   UNL     1      13.379  16.580  13.618  1.00  0.00     0.006 C 
ATOM     18  C   UNL     1      14.758  14.850  14.783  1.00  0.00     0.041 C 
ATOM     19  C   UNL     1      14.811  15.887  13.649  1.00  0.00     0.092 C 
ATOM     20  C   UNL     1      13.496  18.140  13.796  1.00  0.00     0.011 C 
ATOM     21  C   UNL     1      12.736  16.381  12.215  1.00  0.00     0.015 C 
ATOM     22  C   UNL     1      15.903  16.935  13.913  1.00  0.00    -0.031 C 
ATOM     23  C   UNL     1      14.380  18.613  14.976  1.00  0.00     0.009 C 
ATOM     24  C   UNL     1      15.705  17.812  15.145  1.00  0.00     0.025 C 
ATOM     25  C   UNL     1      16.790  17.292  12.953  1.00  0.00     0.050 C 
ATOM     26  C   UNL     1      16.991  18.651  15.503  1.00  0.00    -0.013 C 
ATOM     27  C   UNL     1      17.655  18.479  13.089  1.00  0.00     0.159 C 
ATOM     28  C   UNL     1      17.425  19.436  14.231  1.00  0.00     0.070 C 
ATOM     29  C   UNL     1      16.725  19.650  16.677  1.00  0.00     0.042 C 
ATOM     30  C   UNL     1      18.092  17.636  15.955  1.00  0.00     0.013 C 
ATOM     31  O   UNL     1      18.508  18.730  12.195  1.00  0.00    -0.295 OA
ATOM     32  C   UNL     1      18.619  20.378  14.494  1.00  0.00     0.047 C 
ATOM     33  C   UNL     1      17.873  20.661  16.921  1.00  0.00     0.143 C 
ATOM     34  C   UNL     1      18.302  21.376  15.622  1.00  0.00     0.143 C 
BRANCH  19  35
ATOM     35  O   UNL     1      15.075  15.194  12.441  1.00  0.00    -0.385 OA
ATOM     36  H   UNL     1      15.960  15.490  12.096  1.00  0.00     0.211 HD
ENDBRANCH  19  35
BRANCH  33  37
ATOM     37  O   UNL     1      18.984  20.038  17.510  1.00  0.00    -0.390 OA
ATOM     38  H   UNL     1      19.561  19.712  16.769  1.00  0.00     0.211 HD
ENDBRANCH  33  37
BRANCH  34  39
ATOM     39  O   UNL     1      17.287  22.250  15.197  1.00  0.00    -0.390 OA
ATOM     40  H   UNL     1      16.736  22.461  15.997  1.00  0.00     0.211 HD
ENDBRANCH  34  39
ENDBRANCH   1  15
BRANCH   1  41
ATOM     41  O   UNL     1      10.618  14.798  15.822  1.00  0.00    -0.387 OA
ATOM     42  H   UNL     1       9.719  14.418  15.661  1.00  0.00     0.211 HD
ENDBRANCH   1  41
TORSDOF 9
ENDMDL
MODEL 5
REMARK VINA RESULT:    -5.434      2.525      9.443
REMARK INTER + INTRA:          -8.252
REMARK INTER:                  -7.546
REMARK INTRA:                  -0.706
REMARK UNBOUND:                -0.754
REMARK SMILES C[C@@H]1C(=O)O[C@H](C)[C@@H]1C[C@H](O)[C@](C)(O)[C@H]1CC[C@]2(O)C3=CC(=O)[C@@H]4C[C@@H](O)[C@H](O)C[C@@]4(C)[C@H]3CC[C@]12C
REMARK SMILES IDX 12 1 13 2 10 3 9 4 8 5 1 6 2 7 3 8 6 9 5 10 4 11 7 12 11 13
REMARK SMILES IDX 15 15 16 16 36 17 17 18 18 19 35 20 37 21 20 22 34 23 33 24
REMARK SMILES IDX 21 25 31 26 22 27 24 28 30 29 32 30 23 31 25 32 28 33 26 34
REMARK SMILES IDX 19 35 29 37 27 39 14 41
REMARK H PARENT 11 14 19 36 29 38 27 40 14 42
REMARK Flexibility Score: inf
ROOT
ATOM      1  C   UNL     1       7.961  21.741  13.050  1.00  0.00     0.091 C 
ATOM      2  C   UNL     1       8.227  23.228  12.665  1.00  0.00     0.045 C 
ENDROOT
BRANCH   1   3
ATOM      3  C   UNL     1       6.886  21.721  14.229  1.00  0.00     0.146 C 
BRANCH   3   4
ATOM      4  C   UNL     1       5.639  20.813  13.999  1.00  0.00     0.043 C 
BRANCH   4   5
ATOM      5  C   UNL     1       5.657  19.411  14.670  1.00  0.00     0.046 C 
ATOM      6  C   UNL     1       4.676  18.320  12.491  1.00  0.00     0.020 C 
ATOM      7  C   UNL     1       5.542  18.161  13.749  1.00  0.00     0.103 C 
ATOM      8  C   UNL     1       4.889  17.198  14.671  1.00  0.00     0.309 C 
ATOM      9  C   UNL     1       4.593  19.194  15.792  1.00  0.00     0.177 C 
ATOM     10  O   UNL     1       4.366  17.796  15.798  1.00  0.00    -0.462 OA
ATOM     11  O   UNL     1       4.816  15.960  14.461  1.00  0.00    -0.252 OA
ATOM     12  C   UNL     1       3.259  19.918  15.577  1.00  0.00     0.053 C 
ENDBRANCH   4   5
ENDBRANCH   3   4
BRANCH   3  13
ATOM     13  O   UNL     1       6.489  23.029  14.573  1.00  0.00    -0.390 OA
ATOM     14  H   UNL     1       5.722  23.278  13.990  1.00  0.00     0.211 HD
ENDBRANCH   3  13
ENDBRANCH   1   3
BRANCH   1  15
ATOM     15  C   UNL     1       9.319  21.035  13.506  1.00  0.00     0.032 C 
ATOM     16  C   UNL     1       9.540  21.070  15.037  1.00  0.00     0.010 C 
ATOM     17  C   UNL     1       9.650  19.536  13.069  1.00  0.00     0.006 C 
ATOM     18  C   UNL     1       9.491  19.652  15.561  1.00  0.00     0.041 C 
ATOM     19  C   UNL     1       9.818  18.691  14.407  1.00  0.00     0.092 C 
ATOM     20  C   UNL     1      10.976  19.528  12.219  1.00  0.00     0.011 C 
ATOM     21  C   UNL     1       8.584  18.862  12.159  1.00  0.00     0.015 C 
ATOM     22  C   UNL     1      11.255  18.160  14.523  1.00  0.00    -0.031 C 
ATOM     23  C   UNL     1      12.271  19.864  12.998  1.00  0.00     0.009 C 
ATOM     24  C   UNL     1      12.364  19.199  14.404  1.00  0.00     0.025 C 
ATOM     25  C   UNL     1      11.535  16.840  14.397  1.00  0.00     0.050 C 
ATOM     26  C   UNL     1      13.774  18.628  14.817  1.00  0.00    -0.013 C 
ATOM     27  C   UNL     1      12.914  16.346  14.227  1.00  0.00     0.159 C 
ATOM     28  C   UNL     1      14.031  17.332  13.995  1.00  0.00     0.070 C 
ATOM     29  C   UNL     1      14.920  19.660  14.550  1.00  0.00     0.042 C 
ATOM     30  C   UNL     1      13.720  18.333  16.352  1.00  0.00     0.013 C 
ATOM     31  O   UNL     1      13.126  15.104  14.178  1.00  0.00    -0.295 OA
ATOM     32  C   UNL     1      15.434  16.741  14.241  1.00  0.00     0.047 C 
ATOM     33  C   UNL     1      16.347  19.079  14.716  1.00  0.00     0.143 C 
ATOM     34  C   UNL     1      16.535  17.768  13.923  1.00  0.00     0.143 C 
BRANCH  19  35
ATOM     35  O   UNL     1       8.890  17.620  14.460  1.00  0.00    -0.385 OA
ATOM     36  H   UNL     1       9.347  16.828  14.853  1.00  0.00     0.211 HD
ENDBRANCH  19  35
BRANCH  33  37
ATOM     37  O   UNL     1      16.655  18.866  16.068  1.00  0.00    -0.390 OA
ATOM     38  H   UNL     1      15.926  18.307  16.448  1.00  0.00     0.211 HD
ENDBRANCH  33  37
BRANCH  34  39
ATOM     39  O   UNL     1      16.534  18.037  12.544  1.00  0.00    -0.390 OA
ATOM     40  H   UNL     1      15.604  17.898  12.225  1.00  0.00     0.211 HD
ENDBRANCH  34  39
ENDBRANCH   1  15
BRANCH   1  41
ATOM     41  O   UNL     1       7.448  21.094  11.906  1.00  0.00    -0.387 OA
ATOM     42  H   UNL     1       7.638  21.651  11.110  1.00  0.00     0.211 HD
ENDBRANCH   1  41
TORSDOF 9
ENDMDL
MODEL 6
REMARK VINA RESULT:    -5.430      1.549      7.516
REMARK INTER + INTRA:          -8.247
REMARK INTER:                  -7.703
REMARK INTRA:                  -0.544
REMARK UNBOUND:                -0.754
REMARK SMILES C[C@@H]1C(=O)O[C@H](C)[C@@H]1C[C@H](O)[C@](C)(O)[C@H]1CC[C@]2(O)C3=CC(=O)[C@@H]4C[C@@H](O)[C@H](O)C[C@@]4(C)[C@H]3CC[C@]12C
REMARK SMILES IDX 12 1 13 2 10 3 9 4 8 5 1 6 2 7 3 8 6 9 5 10 4 11 7 12 11 13
REMARK SMILES IDX 15 15 16 16 36 17 17 18 18 19 35 20 37 21 20 22 34 23 33 24
REMARK SMILES IDX 21 25 31 26 22 27 24 28 30 29 32 30 23 31 25 32 28 33 26 34
REMARK SMILES IDX 19 35 29 37 27 39 14 41
REMARK H PARENT 11 14 19 36 29 38 27 40 14 42
REMARK Flexibility Score: inf
ROOT
ATOM      1  C   UNL     1      12.226  14.759  14.334  1.00  0.00     0.091 C 
ATOM      2  C   UNL     1      12.571  13.905  13.077  1.00  0.00     0.045 C 
ENDROOT
BRANCH   1   3
ATOM      3  C   UNL     1      10.819  15.469  14.078  1.00  0.00     0.146 C 
BRANCH   3   4
ATOM      4  C   UNL     1      10.881  16.912  13.489  1.00  0.00     0.043 C 
BRANCH   4   5
ATOM      5  C   UNL     1      10.191  18.037  14.309  1.00  0.00     0.046 C 
ATOM      6  C   UNL     1       8.580  18.559  12.302  1.00  0.00     0.020 C 
ATOM      7  C   UNL     1       8.806  18.550  13.821  1.00  0.00     0.103 C 
ATOM      8  C   UNL     1       8.840  19.950  14.316  1.00  0.00     0.309 C 
ATOM      9  C   UNL     1      11.050  19.321  14.534  1.00  0.00     0.177 C 
ATOM     10  O   UNL     1      10.098  20.357  14.703  1.00  0.00    -0.462 OA
ATOM     11  O   UNL     1       7.831  20.699  14.384  1.00  0.00    -0.252 OA
ATOM     12  C   UNL     1      11.992  19.687  13.381  1.00  0.00     0.053 C 
ENDBRANCH   4   5
ENDBRANCH   3   4
BRANCH   3  13
ATOM     13  O   UNL     1      10.022  15.443  15.240  1.00  0.00    -0.390 OA
ATOM     14  H   UNL     1       9.697  16.369  15.409  1.00  0.00     0.211 HD
ENDBRANCH   3  13
ENDBRANCH   1   3
BRANCH   1  15
ATOM     15  C   UNL     1      13.370  15.842  14.599  1.00  0.00     0.032 C 
ATOM     16  C   UNL     1      13.205  16.587  15.944  1.00  0.00     0.010 C 
ATOM     17  C   UNL     1      14.913  15.437  14.531  1.00  0.00     0.006 C 
ATOM     18  C   UNL     1      14.367  16.223  16.841  1.00  0.00     0.041 C 
ATOM     19  C   UNL     1      15.536  15.752  15.960  1.00  0.00     0.092 C 
ATOM     20  C   UNL     1      15.617  16.279  13.402  1.00  0.00     0.011 C 
ATOM     21  C   UNL     1      15.191  13.952  14.159  1.00  0.00     0.015 C 
ATOM     22  C   UNL     1      16.610  16.845  15.842  1.00  0.00    -0.031 C 
ATOM     23  C   UNL     1      15.758  17.794  13.689  1.00  0.00     0.009 C 
ATOM     24  C   UNL     1      16.180  18.134  15.149  1.00  0.00     0.025 C 
ATOM     25  C   UNL     1      17.924  16.570  16.024  1.00  0.00     0.050 C 
ATOM     26  C   UNL     1      17.233  19.294  15.323  1.00  0.00    -0.013 C 
ATOM     27  C   UNL     1      18.983  17.525  15.646  1.00  0.00     0.159 C 
ATOM     28  C   UNL     1      18.620  18.761  14.862  1.00  0.00     0.070 C 
ATOM     29  C   UNL     1      16.847  20.559  14.486  1.00  0.00     0.042 C 
ATOM     30  C   UNL     1      17.242  19.685  16.838  1.00  0.00     0.013 C 
ATOM     31  O   UNL     1      20.187  17.247  15.895  1.00  0.00    -0.295 OA
ATOM     32  C   UNL     1      19.713  19.849  14.889  1.00  0.00     0.047 C 
ATOM     33  C   UNL     1      17.953  21.643  14.430  1.00  0.00     0.143 C 
ATOM     34  C   UNL     1      19.320  21.055  14.019  1.00  0.00     0.143 C 
BRANCH  19  35
ATOM     35  O   UNL     1      16.082  14.587  16.554  1.00  0.00    -0.385 OA
ATOM     36  H   UNL     1      15.598  14.411  17.406  1.00  0.00     0.211 HD
ENDBRANCH  19  35
BRANCH  33  37
ATOM     37  O   UNL     1      18.073  22.311  15.658  1.00  0.00    -0.390 OA
ATOM     38  H   UNL     1      17.234  22.827  15.792  1.00  0.00     0.211 HD
ENDBRANCH  33  37
BRANCH  34  39
ATOM     39  O   UNL     1      19.286  20.663  12.669  1.00  0.00    -0.390 OA
ATOM     40  H   UNL     1      19.335  19.671  12.658  1.00  0.00     0.211 HD
ENDBRANCH  34  39
ENDBRANCH   1  15
BRANCH   1  41
ATOM     41  O   UNL     1      12.139  13.878  15.433  1.00  0.00    -0.387 OA
ATOM     42  H   UNL     1      12.165  12.946  15.099  1.00  0.00     0.211 HD
ENDBRANCH   1  41
TORSDOF 9
ENDMDL
MODEL 7
REMARK VINA RESULT:    -5.377      3.884      7.103
REMARK INTER + INTRA:          -8.174
REMARK INTER:                  -8.209
REMARK INTRA:                   0.035
REMARK UNBOUND:                -0.754
REMARK SMILES C[C@@H]1C(=O)O[C@H](C)[C@@H]1C[C@H](O)[C@](C)(O)[C@H]1CC[C@]2(O)C3=CC(=O)[C@@H]4C[C@@H](O)[C@H](O)C[C@@]4(C)[C@H]3CC[C@]12C
REMARK SMILES IDX 12 1 13 2 10 3 9 4 8 5 1 6 2 7 3 8 6 9 5 10 4 11 7 12 11 13
REMARK SMILES IDX 15 15 16 16 36 17 17 18 18 19 35 20 37 21 20 22 34 23 33 24
REMARK SMILES IDX 21 25 31 26 22 27 24 28 30 29 32 30 23 31 25 32 28 33 26 34
REMARK SMILES IDX 19 35 29 37 27 39 14 41
REMARK H PARENT 11 14 19 36 29 38 27 40 14 42
REMARK Flexibility Score: inf
ROOT
ATOM      1  C   UNL     1      16.802  22.550  13.587  1.00  0.00     0.091 C 
ATOM      2  C   UNL     1      18.032  22.894  14.480  1.00  0.00     0.045 C 
ENDROOT
BRANCH   1   3
ATOM      3  C   UNL     1      15.664  23.630  13.876  1.00  0.00     0.146 C 
BRANCH   3   4
ATOM      4  C   UNL     1      16.049  25.116  13.602  1.00  0.00     0.043 C 
BRANCH   4   5
ATOM      5  C   UNL     1      15.545  26.174  14.622  1.00  0.00     0.046 C 
ATOM      6  C   UNL     1      13.717  26.991  12.922  1.00  0.00     0.020 C 
ATOM      7  C   UNL     1      14.141  26.803  14.386  1.00  0.00     0.103 C 
ATOM      8  C   UNL     1      14.326  28.136  15.014  1.00  0.00     0.309 C 
ATOM      9  C   UNL     1      16.503  27.384  14.858  1.00  0.00     0.177 C 
ATOM     10  O   UNL     1      15.647  28.438  15.264  1.00  0.00    -0.462 OA
ATOM     11  O   UNL     1      13.383  28.918  15.298  1.00  0.00    -0.252 OA
ATOM     12  C   UNL     1      17.305  27.832  13.630  1.00  0.00     0.053 C 
ENDBRANCH   4   5
ENDBRANCH   3   4
BRANCH   3  13
ATOM     13  O   UNL     1      15.149  23.486  15.181  1.00  0.00    -0.390 OA
ATOM     14  H   UNL     1      14.876  22.536  15.297  1.00  0.00     0.211 HD
ENDBRANCH   3  13
ENDBRANCH   1   3
BRANCH   1  15
ATOM     15  C   UNL     1      16.280  21.074  13.908  1.00  0.00     0.032 C 
ATOM     16  C   UNL     1      15.238  20.560  12.887  1.00  0.00     0.010 C 
ATOM     17  C   UNL     1      17.306  19.867  14.103  1.00  0.00     0.006 C 
ATOM     18  C   UNL     1      15.837  19.391  12.138  1.00  0.00     0.041 C 
ATOM     19  C   UNL     1      16.955  18.779  12.997  1.00  0.00     0.092 C 
ATOM     20  C   UNL     1      17.141  19.279  15.555  1.00  0.00     0.011 C 
ATOM     21  C   UNL     1      18.810  20.252  13.993  1.00  0.00     0.015 C 
ATOM     22  C   UNL     1      16.486  17.476  13.663  1.00  0.00    -0.031 C 
ATOM     23  C   UNL     1      15.809  18.537  15.827  1.00  0.00     0.009 C 
ATOM     24  C   UNL     1      15.343  17.610  14.665  1.00  0.00     0.025 C 
ATOM     25  C   UNL     1      17.241  16.352  13.631  1.00  0.00     0.050 C 
ATOM     26  C   UNL     1      14.737  16.215  15.080  1.00  0.00    -0.013 C 
ATOM     27  C   UNL     1      16.949  15.187  14.489  1.00  0.00     0.159 C 
ATOM     28  C   UNL     1      15.903  15.307  15.568  1.00  0.00     0.070 C 
ATOM     29  C   UNL     1      13.669  16.361  16.214  1.00  0.00     0.042 C 
ATOM     30  C   UNL     1      14.038  15.621  13.813  1.00  0.00     0.013 C 
ATOM     31  O   UNL     1      17.645  14.142  14.374  1.00  0.00    -0.295 OA
ATOM     32  C   UNL     1      15.411  13.946  16.102  1.00  0.00     0.047 C 
ATOM     33  C   UNL     1      13.206  15.014  16.826  1.00  0.00     0.143 C 
ATOM     34  C   UNL     1      14.399  14.129  17.246  1.00  0.00     0.143 C 
BRANCH  19  35
ATOM     35  O   UNL     1      18.063  18.528  12.149  1.00  0.00    -0.385 OA
ATOM     36  H   UNL     1      17.931  17.643  11.713  1.00  0.00     0.211 HD
ENDBRANCH  19  35
BRANCH  33  37
ATOM     37  O   UNL     1      12.381  14.309  15.937  1.00  0.00    -0.390 OA
ATOM     38  H   UNL     1      11.454  14.640  16.076  1.00  0.00     0.211 HD
ENDBRANCH  33  37
BRANCH  34  39
ATOM     39  O   UNL     1      15.050  14.696  18.355  1.00  0.00    -0.390 OA
ATOM     40  H   UNL     1      15.974  14.916  18.064  1.00  0.00     0.211 HD
ENDBRANCH  34  39
ENDBRANCH   1  15
BRANCH   1  41
ATOM     41  O   UNL     1      17.222  22.625  12.242  1.00  0.00    -0.387 OA
ATOM     42  H   UNL     1      18.200  22.481  12.204  1.00  0.00     0.211 HD
ENDBRANCH   1  41
TORSDOF 9
ENDMDL
MODEL 8
REMARK VINA RESULT:    -5.289      3.924     10.295
REMARK INTER + INTRA:          -8.052
REMARK INTER:                  -7.710
REMARK INTRA:                  -0.342
REMARK UNBOUND:                -0.754
REMARK SMILES C[C@@H]1C(=O)O[C@H](C)[C@@H]1C[C@H](O)[C@](C)(O)[C@H]1CC[C@]2(O)C3=CC(=O)[C@@H]4C[C@@H](O)[C@H](O)C[C@@]4(C)[C@H]3CC[C@]12C
REMARK SMILES IDX 12 1 13 2 10 3 9 4 8 5 1 6 2 7 3 8 6 9 5 10 4 11 7 12 11 13
REMARK SMILES IDX 15 15 16 16 36 17 17 18 18 19 35 20 37 21 20 22 34 23 33 24
REMARK SMILES IDX 21 25 31 26 22 27 24 28 30 29 32 30 23 31 25 32 28 33 26 34
REMARK SMILES IDX 19 35 29 37 27 39 14 41
REMARK H PARENT 11 14 19 36 29 38 27 40 14 42
REMARK Flexibility Score: inf
ROOT
ATOM      1  C   UNL     1       6.005  21.395  13.645  1.00  0.00     0.091 C 
ATOM      2  C   UNL     1       6.470  22.557  14.573  1.00  0.00     0.045 C 
ENDROOT
BRANCH   1   3
ATOM      3  C   UNL     1       4.661  20.786  14.252  1.00  0.00     0.146 C 
BRANCH   3   4
ATOM      4  C   UNL     1       3.954  19.698  13.387  1.00  0.00     0.043 C 
BRANCH   4   5
ATOM      5  C   UNL     1       3.715  18.315  14.054  1.00  0.00     0.046 C 
ATOM      6  C   UNL     1       5.577  17.231  12.552  1.00  0.00     0.020 C 
ATOM      7  C   UNL     1       4.811  17.223  13.883  1.00  0.00     0.103 C 
ATOM      8  C   UNL     1       3.989  15.990  13.964  1.00  0.00     0.309 C 
ATOM      9  C   UNL     1       2.373  17.613  13.673  1.00  0.00     0.177 C 
ATOM     10  O   UNL     1       2.637  16.231  13.841  1.00  0.00    -0.462 OA
ATOM     11  O   UNL     1       4.462  14.836  14.131  1.00  0.00    -0.252 OA
ATOM     12  C   UNL     1       1.891  17.861  12.239  1.00  0.00     0.053 C 
ENDBRANCH   4   5
ENDBRANCH   3   4
BRANCH   3  13
ATOM     13  O   UNL     1       3.754  21.808  14.599  1.00  0.00    -0.390 OA
ATOM     14  H   UNL     1       4.275  22.553  15.004  1.00  0.00     0.211 HD
ENDBRANCH   3  13
ENDBRANCH   1   3
BRANCH   1  15
ATOM     15  C   UNL     1       7.142  20.277  13.546  1.00  0.00     0.032 C 
ATOM     16  C   UNL     1       7.790  20.189  12.144  1.00  0.00     0.010 C 
ATOM     17  C   UNL     1       8.364  20.258  14.574  1.00  0.00     0.006 C 
ATOM     18  C   UNL     1       9.240  20.605  12.258  1.00  0.00     0.041 C 
ATOM     19  C   UNL     1       9.693  20.405  13.713  1.00  0.00     0.092 C 
ATOM     20  C   UNL     1       8.346  18.900  15.370  1.00  0.00     0.011 C 
ATOM     21  C   UNL     1       8.327  21.366  15.665  1.00  0.00     0.015 C 
ATOM     22  C   UNL     1      10.558  19.141  13.850  1.00  0.00    -0.031 C 
ATOM     23  C   UNL     1       8.682  17.636  14.541  1.00  0.00     0.009 C 
ATOM     24  C   UNL     1       9.864  17.819  13.543  1.00  0.00     0.025 C 
ATOM     25  C   UNL     1      11.736  19.159  14.520  1.00  0.00     0.050 C 
ATOM     26  C   UNL     1      10.877  16.617  13.427  1.00  0.00    -0.013 C 
ATOM     27  C   UNL     1      12.437  17.917  14.902  1.00  0.00     0.159 C 
ATOM     28  C   UNL     1      11.745  16.591  14.718  1.00  0.00     0.070 C 
ATOM     29  C   UNL     1      10.139  15.249  13.257  1.00  0.00     0.042 C 
ATOM     30  C   UNL     1      11.750  16.871  12.154  1.00  0.00     0.013 C 
ATOM     31  O   UNL     1      13.561  17.989  15.467  1.00  0.00    -0.295 OA
ATOM     32  C   UNL     1      12.707  15.385  14.763  1.00  0.00     0.047 C 
ATOM     33  C   UNL     1      11.064  14.010  13.370  1.00  0.00     0.143 C 
ATOM     34  C   UNL     1      11.940  14.056  14.640  1.00  0.00     0.143 C 
BRANCH  19  35
ATOM     35  O   UNL     1      10.433  21.552  14.096  1.00  0.00    -0.385 OA
ATOM     36  H   UNL     1      10.463  22.179  13.324  1.00  0.00     0.211 HD
ENDBRANCH  19  35
BRANCH  33  37
ATOM     37  O   UNL     1      11.878  13.878  12.235  1.00  0.00    -0.390 OA
ATOM     38  H   UNL     1      12.417  14.711  12.165  1.00  0.00     0.211 HD
ENDBRANCH  33  37
BRANCH  34  39
ATOM     39  O   UNL     1      11.140  13.875  15.782  1.00  0.00    -0.390 OA
ATOM     40  H   UNL     1      10.631  13.032  15.645  1.00  0.00     0.211 HD
ENDBRANCH  34  39
ENDBRANCH   1  15
BRANCH   1  41
ATOM     41  O   UNL     1       5.763  21.944  12.368  1.00  0.00    -0.387 OA
ATOM     42  H   UNL     1       5.279  22.801  12.474  1.00  0.00     0.211 HD
ENDBRANCH   1  41
TORSDOF 9
ENDMDL
MODEL 9
REMARK VINA RESULT:    -5.279      1.878      3.522
REMARK INTER + INTRA:          -8.039
REMARK INTER:                  -7.706
REMARK INTRA:                  -0.332
REMARK UNBOUND:                -0.754
REMARK SMILES C[C@@H]1C(=O)O[C@H](C)[C@@H]1C[C@H](O)[C@](C)(O)[C@H]1CC[C@]2(O)C3=CC(=O)[C@@H]4C[C@@H](O)[C@H](O)C[C@@]4(C)[C@H]3CC[C@]12C
REMARK SMILES IDX 12 1 13 2 10 3 9 4 8 5 1 6 2 7 3 8 6 9 5 10 4 11 7 12 11 13
REMARK SMILES IDX 15 15 16 16 36 17 17 18 18 19 35 20 37 21 20 22 34 23 33 24
REMARK SMILES IDX 21 25 31 26 22 27 24 28 30 29 32 30 23 31 25 32 28 33 26 34
REMARK SMILES IDX 19 35 29 37 27 39 14 41
REMARK H PARENT 11 14 19 36 29 38 27 40 14 42
REMARK Flexibility Score: inf
ROOT
ATOM      1  C   UNL     1      14.930  15.817  14.118  1.00  0.00     0.091 C 
ATOM      2  C   UNL     1      14.762  14.273  14.251  1.00  0.00     0.045 C 
ENDROOT
BRANCH   1   3
ATOM      3  C   UNL     1      15.987  16.296  15.213  1.00  0.00     0.146 C 
BRANCH   3   4
ATOM      4  C   UNL     1      16.847  17.539  14.832  1.00  0.00     0.043 C 
BRANCH   4   5
ATOM      5  C   UNL     1      17.579  18.270  15.992  1.00  0.00     0.046 C 
ATOM      6  C   UNL     1      16.565  20.569  15.228  1.00  0.00     0.020 C 
ATOM      7  C   UNL     1      17.092  19.697  16.377  1.00  0.00     0.103 C 
ATOM      8  C   UNL     1      18.351  20.287  16.897  1.00  0.00     0.309 C 
ATOM      9  C   UNL     1      19.127  18.393  15.832  1.00  0.00     0.177 C 
ATOM     10  O   UNL     1      19.469  19.547  16.579  1.00  0.00    -0.462 OA
ATOM     11  O   UNL     1      18.407  21.352  17.565  1.00  0.00    -0.252 OA
ATOM     12  C   UNL     1      19.624  18.562  14.391  1.00  0.00     0.053 C 
ENDBRANCH   4   5
ENDBRANCH   3   4
BRANCH   3  13
ATOM     13  O   UNL     1      16.812  15.228  15.619  1.00  0.00    -0.390 OA
ATOM     14  H   UNL     1      17.664  15.290  15.109  1.00  0.00     0.211 HD
ENDBRANCH   3  13
ENDBRANCH   1   3
BRANCH   1  15
ATOM     15  C   UNL     1      13.524  16.546  14.326  1.00  0.00     0.032 C 
ATOM     16  C   UNL     1      13.393  17.235  15.704  1.00  0.00     0.010 C 
ATOM     17  C   UNL     1      12.994  17.619  13.269  1.00  0.00     0.006 C 
ATOM     18  C   UNL     1      13.302  18.730  15.488  1.00  0.00     0.041 C 
ATOM     19  C   UNL     1      12.801  18.987  14.058  1.00  0.00     0.092 C 
ATOM     20  C   UNL     1      11.632  17.114  12.661  1.00  0.00     0.011 C 
ATOM     21  C   UNL     1      13.921  17.853  12.042  1.00  0.00     0.015 C 
ATOM     22  C   UNL     1      11.319  19.396  14.060  1.00  0.00    -0.031 C 
ATOM     23  C   UNL     1      10.431  17.094  13.638  1.00  0.00     0.009 C 
ATOM     24  C   UNL     1      10.336  18.344  14.563  1.00  0.00     0.025 C 
ATOM     25  C   UNL     1      10.878  20.465  13.355  1.00  0.00     0.050 C 
ATOM     26  C   UNL     1       8.893  18.932  14.802  1.00  0.00    -0.013 C 
ATOM     27  C   UNL     1       9.442  20.708  13.117  1.00  0.00     0.159 C 
ATOM     28  C   UNL     1       8.440  19.648  13.498  1.00  0.00     0.070 C 
ATOM     29  C   UNL     1       7.866  17.813  15.177  1.00  0.00     0.042 C 
ATOM     30  C   UNL     1       8.996  19.932  16.001  1.00  0.00     0.013 C 
ATOM     31  O   UNL     1       9.082  21.752  12.509  1.00  0.00    -0.295 OA
ATOM     32  C   UNL     1       6.992  20.173  13.581  1.00  0.00     0.047 C 
ATOM     33  C   UNL     1       6.391  18.288  15.198  1.00  0.00     0.143 C 
ATOM     34  C   UNL     1       6.005  19.037  13.904  1.00  0.00     0.143 C 
BRANCH  19  35
ATOM     35  O   UNL     1      13.596  20.020  13.501  1.00  0.00    -0.385 OA
ATOM     36  H   UNL     1      13.466  20.845  14.044  1.00  0.00     0.211 HD
ENDBRANCH  19  35
BRANCH  33  37
ATOM     37  O   UNL     1       6.134  19.101  16.312  1.00  0.00    -0.390 OA
ATOM     38  H   UNL     1       5.177  18.974  16.552  1.00  0.00     0.211 HD
ENDBRANCH  33  37
BRANCH  34  39
ATOM     39  O   UNL     1       5.962  18.138  12.824  1.00  0.00    -0.390 OA
ATOM     40  H   UNL     1       6.091  18.676  11.998  1.00  0.00     0.211 HD
ENDBRANCH  34  39
ENDBRANCH   1  15
BRANCH   1  41
ATOM     41  O   UNL     1      15.415  16.078  12.819  1.00  0.00    -0.387 OA
ATOM     42  H   UNL     1      16.194  16.685  12.884  1.00  0.00     0.211 HD
ENDBRANCH   1  41
TORSDOF 9
ENDMDL
