MODEL 1
REMARK VINA RESULT:    -3.956      0.000      0.000
REMARK INTER + INTRA:          -6.611
REMARK INTER:                  -6.037
REMARK INTRA:                  -0.574
REMARK UNBOUND:                -0.574
REMARK SMILES CCCCCCCCCCC(=O)[O-]
REMARK SMILES IDX 7 1 8 2 9 3 10 4 11 5 12 6 13 7 6 8 5 9 4 10 3 11 2 12 1 13
REMARK H PARENT
REMARK Flexibility Score: inf
ROOT
ATOM      1  C   UNL     1       4.799 124.752 111.636  1.00  0.00     0.000 C 
ENDROOT
BRANCH   1   2
ATOM      2  C   UNL     1       3.600 124.723 110.673  1.00  0.00     0.000 C 
BRANCH   2   3
ATOM      3  C   UNL     1       2.460 125.657 111.116  1.00  0.00     0.006 C 
BRANCH   3   4
ATOM      4  C   UNL     1       2.867 127.135 111.052  1.00  0.00     0.053 C 
BRANCH   4   5
ATOM      5  C   UNL     1       2.057 127.889 110.042  1.00  0.00     0.041 C 
ATOM      6  O   UNL     1       0.801 127.806 110.047  1.00  0.00    -0.550 OA
ATOM      7  O   UNL     1       2.692 128.656 109.073  1.00  0.00    -0.550 OA
ENDBRANCH   4   5
ENDBRANCH   3   4
ENDBRANCH   2   3
ENDBRANCH   1   2
BRANCH   1   8
ATOM      8  C   UNL     1       5.685 123.501 111.513  1.00  0.00     0.000 C 
BRANCH   8   9
ATOM      9  C   UNL     1       7.179 123.798 111.736  1.00  0.00    -0.000 C 
BRANCH   9  10
ATOM     10  C   UNL     1       7.753 124.945 110.882  1.00  0.00    -0.000 C 
BRANCH  10  11
ATOM     11  C   UNL     1       8.010 124.535 109.424  1.00  0.00    -0.000 C 
BRANCH  11  12
ATOM     12  C   UNL     1       7.046 125.255 108.474  1.00  0.00    -0.003 C 
ATOM     13  C   UNL     1       7.411 124.995 107.016  1.00  0.00     0.004 C 
ENDBRANCH  11  12
ENDBRANCH  10  11
ENDBRANCH   9  10
ENDBRANCH   8   9
ENDBRANCH   1   8
TORSDOF 9
ENDMDL
MODEL 2
REMARK VINA RESULT:    -3.766      1.143      1.732
REMARK INTER + INTRA:          -6.321
REMARK INTER:                  -5.509
REMARK INTRA:                  -0.811
REMARK UNBOUND:                -0.574
REMARK SMILES CCCCCCCCCCC(=O)[O-]
REMARK SMILES IDX 7 1 8 2 9 3 10 4 11 5 12 6 13 7 6 8 5 9 4 10 3 11 2 12 1 13
REMARK H PARENT
REMARK Flexibility Score: inf
ROOT
ATOM      1  C   UNL     1       5.766 125.629 112.200  1.00  0.00     0.000 C 
ENDROOT
BRANCH   1   2
ATOM      2  C   UNL     1       4.628 124.620 112.422  1.00  0.00     0.000 C 
BRANCH   2   3
ATOM      3  C   UNL     1       3.687 124.511 111.208  1.00  0.00     0.006 C 
BRANCH   3   4
ATOM      4  C   UNL     1       3.695 125.785 110.354  1.00  0.00     0.053 C 
BRANCH   4   5
ATOM      5  C   UNL     1       2.626 126.744 110.780  1.00  0.00     0.041 C 
ATOM      6  O   UNL     1       1.489 126.319 111.113  1.00  0.00    -0.550 OA
ATOM      7  O   UNL     1       2.876 128.111 110.777  1.00  0.00    -0.550 OA
ENDBRANCH   4   5
ENDBRANCH   3   4
ENDBRANCH   2   3
ENDBRANCH   1   2
BRANCH   1   8
ATOM      8  C   UNL     1       7.145 124.953 112.120  1.00  0.00     0.000 C 
BRANCH   8   9
ATOM      9  C   UNL     1       7.923 125.323 110.844  1.00  0.00    -0.000 C 
BRANCH   9  10
ATOM     10  C   UNL     1       7.636 124.431 109.621  1.00  0.00    -0.000 C 
BRANCH  10  11
ATOM     11  C   UNL     1       6.883 125.168 108.504  1.00  0.00    -0.000 C 
BRANCH  11  12
ATOM     12  C   UNL     1       7.609 125.019 107.162  1.00  0.00    -0.003 C 
ATOM     13  C   UNL     1       9.089 124.707 107.366  1.00  0.00     0.004 C 
ENDBRANCH  11  12
ENDBRANCH  10  11
ENDBRANCH   9  10
ENDBRANCH   8   9
ENDBRANCH   1   8
TORSDOF 9
ENDMDL
MODEL 3
REMARK VINA RESULT:    -3.762      4.009      5.891
REMARK INTER + INTRA:          -6.315
REMARK INTER:                  -5.299
REMARK INTRA:                  -1.016
REMARK UNBOUND:                -0.574
REMARK SMILES CCCCCCCCCCC(=O)[O-]
REMARK SMILES IDX 7 1 8 2 9 3 10 4 11 5 12 6 13 7 6 8 5 9 4 10 3 11 2 12 1 13
REMARK H PARENT
REMARK Flexibility Score: inf
ROOT
ATOM      1  C   UNL     1       4.173 122.375 113.902  1.00  0.00     0.000 C 
ENDROOT
BRANCH   1   2
ATOM      2  C   UNL     1       4.872 123.033 112.702  1.00  0.00     0.000 C 
BRANCH   2   3
ATOM      3  C   UNL     1       5.843 124.152 113.120  1.00  0.00     0.006 C 
BRANCH   3   4
ATOM      4  C   UNL     1       6.763 124.578 111.969  1.00  0.00     0.053 C 
BRANCH   4   5
ATOM      5  C   UNL     1       8.150 124.039 112.138  1.00  0.00     0.041 C 
ATOM      6  O   UNL     1       9.090 124.468 111.419  1.00  0.00    -0.550 OA
ATOM      7  O   UNL     1       8.397 123.036 113.067  1.00  0.00    -0.550 OA
ENDBRANCH   4   5
ENDBRANCH   3   4
ENDBRANCH   2   3
ENDBRANCH   1   2
BRANCH   1   8
ATOM      8  C   UNL     1       2.835 123.050 114.248  1.00  0.00     0.000 C 
BRANCH   8   9
ATOM      9  C   UNL     1       2.155 123.698 113.028  1.00  0.00    -0.000 C 
BRANCH   9  10
ATOM     10  C   UNL     1       1.865 125.204 113.164  1.00  0.00    -0.000 C 
BRANCH  10  11
ATOM     11  C   UNL     1       2.048 125.971 111.846  1.00  0.00    -0.000 C 
BRANCH  11  12
ATOM     12  C   UNL     1       2.726 125.091 110.789  1.00  0.00    -0.003 C 
ATOM     13  C   UNL     1       3.849 125.844 110.082  1.00  0.00     0.004 C 
ENDBRANCH  11  12
ENDBRANCH  10  11
ENDBRANCH   9  10
ENDBRANCH   8   9
ENDBRANCH   1   8
TORSDOF 9
ENDMDL
MODEL 4
REMARK VINA RESULT:    -3.758      3.696      6.036
REMARK INTER + INTRA:          -6.310
REMARK INTER:                  -5.143
REMARK INTRA:                  -1.167
REMARK UNBOUND:                -0.574
REMARK SMILES CCCCCCCCCCC(=O)[O-]
REMARK SMILES IDX 7 1 8 2 9 3 10 4 11 5 12 6 13 7 6 8 5 9 4 10 3 11 2 12 1 13
REMARK H PARENT
REMARK Flexibility Score: inf
ROOT
ATOM      1  C   UNL     1       3.066 124.864 110.599  1.00  0.00     0.000 C 
ENDROOT
BRANCH   1   2
ATOM      2  C   UNL     1       4.577 124.962 110.868  1.00  0.00     0.000 C 
BRANCH   2   3
ATOM      3  C   UNL     1       5.049 123.987 111.961  1.00  0.00     0.006 C 
BRANCH   3   4
ATOM      4  C   UNL     1       6.448 123.427 111.671  1.00  0.00     0.053 C 
BRANCH   4   5
ATOM      5  C   UNL     1       7.441 123.852 112.709  1.00  0.00     0.041 C 
ATOM      6  O   UNL     1       7.284 124.935 113.331  1.00  0.00    -0.550 OA
ATOM      7  O   UNL     1       8.558 123.066 112.965  1.00  0.00    -0.550 OA
ENDBRANCH   4   5
ENDBRANCH   3   4
ENDBRANCH   2   3
ENDBRANCH   1   2
BRANCH   1   8
ATOM      8  C   UNL     1       2.275 126.007 111.257  1.00  0.00     0.000 C 
BRANCH   8   9
ATOM      9  C   UNL     1       1.519 125.563 112.523  1.00  0.00    -0.000 C 
BRANCH   9  10
ATOM     10  C   UNL     1       2.281 125.768 113.846  1.00  0.00    -0.000 C 
BRANCH  10  11
ATOM     11  C   UNL     1       2.943 127.150 113.948  1.00  0.00    -0.000 C 
BRANCH  11  12
ATOM     12  C   UNL     1       4.461 127.019 114.118  1.00  0.00    -0.003 C 
ATOM     13  C   UNL     1       5.206 127.821 113.056  1.00  0.00     0.004 C 
ENDBRANCH  11  12
ENDBRANCH  10  11
ENDBRANCH   9  10
ENDBRANCH   8   9
ENDBRANCH   1   8
TORSDOF 9
ENDMDL
MODEL 5
REMARK VINA RESULT:    -3.731      3.576      5.923
REMARK INTER + INTRA:          -6.267
REMARK INTER:                  -5.201
REMARK INTRA:                  -1.066
REMARK UNBOUND:                -0.574
REMARK SMILES CCCCCCCCCCC(=O)[O-]
REMARK SMILES IDX 7 1 8 2 9 3 10 4 11 5 12 6 13 7 6 8 5 9 4 10 3 11 2 12 1 13
REMARK H PARENT
REMARK Flexibility Score: inf
ROOT
ATOM      1  C   UNL     1       5.065 126.747 113.878  1.00  0.00     0.000 C 
ENDROOT
BRANCH   1   2
ATOM      2  C   UNL     1       5.989 125.642 113.340  1.00  0.00     0.000 C 
BRANCH   2   3
ATOM      3  C   UNL     1       6.392 125.869 111.872  1.00  0.00     0.006 C 
BRANCH   3   4
ATOM      4  C   UNL     1       7.678 125.118 111.504  1.00  0.00     0.053 C 
BRANCH   4   5
ATOM      5  C   UNL     1       7.576 123.657 111.818  1.00  0.00     0.041 C 
ATOM      6  O   UNL     1       8.274 123.156 112.739  1.00  0.00    -0.550 OA
ATOM      7  O   UNL     1       6.734 122.842 111.072  1.00  0.00    -0.550 OA
ENDBRANCH   4   5
ENDBRANCH   3   4
ENDBRANCH   2   3
ENDBRANCH   1   2
BRANCH   1   8
ATOM      8  C   UNL     1       4.961 127.947 112.921  1.00  0.00     0.000 C 
BRANCH   8   9
ATOM      9  C   UNL     1       3.510 128.278 112.527  1.00  0.00    -0.000 C 
BRANCH   9  10
ATOM     10  C   UNL     1       2.474 127.191 112.872  1.00  0.00    -0.000 C 
BRANCH  10  11
ATOM     11  C   UNL     1       1.701 126.688 111.644  1.00  0.00    -0.000 C 
BRANCH  11  12
ATOM     12  C   UNL     1       2.663 126.250 110.533  1.00  0.00    -0.003 C 
ATOM     13  C   UNL     1       3.078 124.792 110.704  1.00  0.00     0.004 C 
ENDBRANCH  11  12
ENDBRANCH  10  11
ENDBRANCH   9  10
ENDBRANCH   8   9
ENDBRANCH   1   8
TORSDOF 9
ENDMDL
MODEL 6
REMARK VINA RESULT:    -3.707      3.739      6.283
REMARK INTER + INTRA:          -6.231
REMARK INTER:                  -5.298
REMARK INTRA:                  -0.933
REMARK UNBOUND:                -0.574
REMARK SMILES CCCCCCCCCCC(=O)[O-]
REMARK SMILES IDX 7 1 8 2 9 3 10 4 11 5 12 6 13 7 6 8 5 9 4 10 3 11 2 12 1 13
REMARK H PARENT
REMARK Flexibility Score: inf
ROOT
ATOM      1  C   UNL     1       3.249 124.927 110.645  1.00  0.00     0.000 C 
ENDROOT
BRANCH   1   2
ATOM      2  C   UNL     1       4.710 125.319 110.922  1.00  0.00     0.000 C 
BRANCH   2   3
ATOM      3  C   UNL     1       5.302 124.582 112.136  1.00  0.00     0.006 C 
BRANCH   3   4
ATOM      4  C   UNL     1       6.329 123.520 111.722  1.00  0.00     0.053 C 
BRANCH   4   5
ATOM      5  C   UNL     1       7.723 123.920 112.099  1.00  0.00     0.041 C 
ATOM      6  O   UNL     1       8.435 123.155 112.800  1.00  0.00    -0.550 OA
ATOM      7  O   UNL     1       8.223 125.154 111.702  1.00  0.00    -0.550 OA
ENDBRANCH   4   5
ENDBRANCH   3   4
ENDBRANCH   2   3
ENDBRANCH   1   2
BRANCH   1   8
ATOM      8  C   UNL     1       2.247 125.941 111.223  1.00  0.00     0.000 C 
BRANCH   8   9
ATOM      9  C   UNL     1       1.724 125.543 112.615  1.00  0.00    -0.000 C 
BRANCH   9  10
ATOM     10  C   UNL     1       1.606 124.026 112.860  1.00  0.00    -0.000 C 
BRANCH  10  11
ATOM     11  C   UNL     1       2.462 123.542 114.040  1.00  0.00    -0.000 C 
BRANCH  11  12
ATOM     12  C   UNL     1       3.057 122.158 113.755  1.00  0.00    -0.003 C 
ATOM     13  C   UNL     1       4.071 121.762 114.823  1.00  0.00     0.004 C 
ENDBRANCH  11  12
ENDBRANCH  10  11
ENDBRANCH   9  10
ENDBRANCH   8   9
ENDBRANCH   1   8
TORSDOF 9
ENDMDL
MODEL 7
REMARK VINA RESULT:    -3.671      2.799      5.202
REMARK INTER + INTRA:          -6.176
REMARK INTER:                  -5.304
REMARK INTRA:                  -0.872
REMARK UNBOUND:                -0.574
REMARK SMILES CCCCCCCCCCC(=O)[O-]
REMARK SMILES IDX 7 1 8 2 9 3 10 4 11 5 12 6 13 7 6 8 5 9 4 10 3 11 2 12 1 13
REMARK H PARENT
REMARK Flexibility Score: inf
ROOT
ATOM      1  C   UNL     1       3.818 123.789 112.883  1.00  0.00     0.000 C 
ENDROOT
BRANCH   1   2
ATOM      2  C   UNL     1       4.902 123.127 112.017  1.00  0.00     0.000 C 
BRANCH   2   3
ATOM      3  C   UNL     1       6.316 123.644 112.339  1.00  0.00     0.006 C 
BRANCH   3   4
ATOM      4  C   UNL     1       7.192 123.746 111.084  1.00  0.00     0.053 C 
BRANCH   4   5
ATOM      5  C   UNL     1       7.222 125.141 110.540  1.00  0.00     0.041 C 
ATOM      6  O   UNL     1       7.035 125.347 109.312  1.00  0.00    -0.550 OA
ATOM      7  O   UNL     1       7.490 126.211 111.384  1.00  0.00    -0.550 OA
ENDBRANCH   4   5
ENDBRANCH   3   4
ENDBRANCH   2   3
ENDBRANCH   1   2
BRANCH   1   8
ATOM      8  C   UNL     1       2.769 124.538 112.044  1.00  0.00     0.000 C 
BRANCH   8   9
ATOM      9  C   UNL     1       3.217 124.771 110.590  1.00  0.00    -0.000 C 
BRANCH   9  10
ATOM     10  C   UNL     1       3.362 126.249 110.178  1.00  0.00    -0.000 C 
BRANCH  10  11
ATOM     11  C   UNL     1       3.352 127.209 111.377  1.00  0.00    -0.000 C 
BRANCH  11  12
ATOM     12  C   UNL     1       2.360 128.356 111.153  1.00  0.00    -0.003 C 
ATOM     13  C   UNL     1       1.251 127.946 110.189  1.00  0.00     0.004 C 
ENDBRANCH  11  12
ENDBRANCH  10  11
ENDBRANCH   9  10
ENDBRANCH   8   9
ENDBRANCH   1   8
TORSDOF 9
ENDMDL
MODEL 8
REMARK VINA RESULT:    -3.657      3.289      5.766
REMARK INTER + INTRA:          -6.156
REMARK INTER:                  -5.170
REMARK INTRA:                  -0.985
REMARK UNBOUND:                -0.574
REMARK SMILES CCCCCCCCCCC(=O)[O-]
REMARK SMILES IDX 7 1 8 2 9 3 10 4 11 5 12 6 13 7 6 8 5 9 4 10 3 11 2 12 1 13
REMARK H PARENT
REMARK Flexibility Score: inf
ROOT
ATOM      1  C   UNL     1       3.227 124.850 110.704  1.00  0.00     0.000 C 
ENDROOT
BRANCH   1   2
ATOM      2  C   UNL     1       4.593 125.479 110.388  1.00  0.00     0.000 C 
BRANCH   2   3
ATOM      3  C   UNL     1       5.533 125.502 111.607  1.00  0.00     0.006 C 
BRANCH   3   4
ATOM      4  C   UNL     1       7.010 125.442 111.199  1.00  0.00     0.053 C 
BRANCH   4   5
ATOM      5  C   UNL     1       7.325 124.190 110.440  1.00  0.00     0.041 C 
ATOM      6  O   UNL     1       7.762 124.256 109.261  1.00  0.00    -0.550 OA
ATOM      7  O   UNL     1       7.104 122.949 111.023  1.00  0.00    -0.550 OA
ENDBRANCH   4   5
ENDBRANCH   3   4
ENDBRANCH   2   3
ENDBRANCH   1   2
BRANCH   1   8
ATOM      8  C   UNL     1       2.766 125.135 112.144  1.00  0.00     0.000 C 
BRANCH   8   9
ATOM      9  C   UNL     1       1.534 126.056 112.208  1.00  0.00    -0.000 C 
BRANCH   9  10
ATOM     10  C   UNL     1       1.738 127.367 112.991  1.00  0.00    -0.000 C 
BRANCH  10  11
ATOM     11  C   UNL     1       3.087 128.039 112.695  1.00  0.00    -0.000 C 
BRANCH  11  12
ATOM     12  C   UNL     1       2.893 129.322 111.878  1.00  0.00    -0.003 C 
ATOM     13  C   UNL     1       2.630 129.006 110.409  1.00  0.00     0.004 C 
ENDBRANCH  11  12
ENDBRANCH  10  11
ENDBRANCH   9  10
ENDBRANCH   8   9
ENDBRANCH   1   8
TORSDOF 9
ENDMDL
MODEL 9
REMARK VINA RESULT:    -3.606      2.848      5.100
REMARK INTER + INTRA:          -6.078
REMARK INTER:                  -5.180
REMARK INTRA:                  -0.898
REMARK UNBOUND:                -0.574
REMARK SMILES CCCCCCCCCCC(=O)[O-]
REMARK SMILES IDX 7 1 8 2 9 3 10 4 11 5 12 6 13 7 6 8 5 9 4 10 3 11 2 12 1 13
REMARK H PARENT
REMARK Flexibility Score: inf
ROOT
ATOM      1  C   UNL     1       6.482 125.624 112.417  1.00  0.00     0.000 C 
ENDROOT
BRANCH   1   2
ATOM      2  C   UNL     1       7.507 124.722 111.711  1.00  0.00     0.000 C 
BRANCH   2   3
ATOM      3  C   UNL     1       7.910 125.255 110.325  1.00  0.00     0.006 C 
BRANCH   3   4
ATOM      4  C   UNL     1       6.768 125.141 109.307  1.00  0.00     0.053 C 
BRANCH   4   5
ATOM      5  C   UNL     1       7.275 125.178 107.898  1.00  0.00     0.041 C 
ATOM      6  O   UNL     1       6.577 125.694 106.986  1.00  0.00    -0.550 OA
ATOM      7  O   UNL     1       8.506 124.614 107.586  1.00  0.00    -0.550 OA
ENDBRANCH   4   5
ENDBRANCH   3   4
ENDBRANCH   2   3
ENDBRANCH   1   2
BRANCH   1   8
ATOM      8  C   UNL     1       6.039 125.060 113.778  1.00  0.00     0.000 C 
BRANCH   8   9
ATOM      9  C   UNL     1       4.510 124.920 113.902  1.00  0.00    -0.000 C 
BRANCH   9  10
ATOM     10  C   UNL     1       3.864 123.917 112.928  1.00  0.00    -0.000 C 
BRANCH  10  11
ATOM     11  C   UNL     1       2.749 124.541 112.076  1.00  0.00    -0.000 C 
BRANCH  11  12
ATOM     12  C   UNL     1       3.251 124.853 110.661  1.00  0.00    -0.003 C 
ATOM     13  C   UNL     1       3.186 126.349 110.370  1.00  0.00     0.004 C 
ENDBRANCH  11  12
ENDBRANCH  10  11
ENDBRANCH   9  10
ENDBRANCH   8   9
ENDBRANCH   1   8
TORSDOF 9
ENDMDL
