MODEL 1
REMARK VINA RESULT:    -2.886      0.000      0.000
REMARK INTER + INTRA:          -4.112
REMARK INTER:                  -3.730
REMARK INTRA:                  -0.382
REMARK UNBOUND:                -0.382
REMARK SMILES CCO[C@H]1O[C@H](CO)[C@@H](O)[C@H](O)[C@H]1O
REMARK SMILES IDX 4 1 13 2 11 3 9 4 6 5 5 6 3 7 2 8 1 9 14 10 12 12 7 14 8 15
REMARK SMILES IDX 10 17
REMARK H PARENT 14 11 12 13 8 16 10 18
REMARK Flexibility Score: inf
ROOT
ATOM      1  C   UNL     1       1.752   6.843   3.703  1.00  0.00     0.281 C 
ATOM      2  C   UNL     1       1.852   8.164   4.494  1.00  0.00     0.202 C 
ATOM      3  C   UNL     1       3.095   8.966   4.061  1.00  0.00     0.179 C 
ATOM      4  C   UNL     1       4.337   8.059   4.123  1.00  0.00     0.177 C 
ATOM      5  C   UNL     1       4.078   6.736   3.353  1.00  0.00     0.178 C 
ATOM      6  O   UNL     1       2.935   6.073   3.873  1.00  0.00    -0.341 OA
ENDROOT
BRANCH   1   7
ATOM      7  O   UNL     1       1.492   7.102   2.332  1.00  0.00    -0.350 OA
BRANCH   7   8
ATOM      8  C   UNL     1       0.427   6.294   1.875  1.00  0.00     0.160 C 
ATOM      9  C   UNL     1      -0.348   5.771   3.074  1.00  0.00     0.035 C 
ENDBRANCH   7   8
ENDBRANCH   1   7
BRANCH   2  10
ATOM     10  O   UNL     1       0.676   8.923   4.360  1.00  0.00    -0.385 OA
ATOM     11  H   UNL     1       0.438   8.952   3.397  1.00  0.00     0.211 HD
ENDBRANCH   2  10
BRANCH   3  12
ATOM     12  O   UNL     1       3.280  10.065   4.914  1.00  0.00    -0.387 OA
ATOM     13  H   UNL     1       3.990   9.811   5.560  1.00  0.00     0.211 HD
ENDBRANCH   3  12
BRANCH   5  14
ATOM     14  C   UNL     1       5.273   5.776   3.474  1.00  0.00     0.191 C 
BRANCH  14  15
ATOM     15  O   UNL     1       6.052   6.068   4.602  1.00  0.00    -0.394 OA
ATOM     16  H   UNL     1       5.961   7.044   4.765  1.00  0.00     0.210 HD
ENDBRANCH  14  15
ENDBRANCH   5  14
BRANCH   4  17
ATOM     17  O   UNL     1       5.460   8.740   3.620  1.00  0.00    -0.387 OA
ATOM     18  H   UNL     1       6.139   8.778   4.344  1.00  0.00     0.211 HD
ENDBRANCH   4  17
TORSDOF 7
ENDMDL
MODEL 2
REMARK VINA RESULT:    -2.877      1.502      3.414
REMARK INTER + INTRA:          -4.101
REMARK INTER:                  -3.925
REMARK INTRA:                  -0.176
REMARK UNBOUND:                -0.382
REMARK SMILES CCO[C@H]1O[C@H](CO)[C@@H](O)[C@H](O)[C@H]1O
REMARK SMILES IDX 4 1 13 2 11 3 9 4 6 5 5 6 3 7 2 8 1 9 14 10 12 12 7 14 8 15
REMARK SMILES IDX 10 17
REMARK H PARENT 14 11 12 13 8 16 10 18
REMARK Flexibility Score: inf
ROOT
ATOM      1  C   UNL     1       2.740   6.472   2.897  1.00  0.00     0.281 C 
ATOM      2  C   UNL     1       4.226   6.248   3.248  1.00  0.00     0.202 C 
ATOM      3  C   UNL     1       4.749   7.380   4.153  1.00  0.00     0.179 C 
ATOM      4  C   UNL     1       4.415   8.741   3.518  1.00  0.00     0.177 C 
ATOM      5  C   UNL     1       2.909   8.808   3.145  1.00  0.00     0.178 C 
ATOM      6  O   UNL     1       2.563   7.739   2.276  1.00  0.00    -0.341 OA
ENDROOT
BRANCH   1   7
ATOM      7  O   UNL     1       1.930   6.343   4.055  1.00  0.00    -0.350 OA
BRANCH   7   8
ATOM      8  C   UNL     1       0.648   5.865   3.703  1.00  0.00     0.160 C 
ATOM      9  C   UNL     1       0.286   4.699   4.610  1.00  0.00     0.035 C 
ENDBRANCH   7   8
ENDBRANCH   1   7
BRANCH   2  10
ATOM     10  O   UNL     1       4.421   4.985   3.835  1.00  0.00    -0.385 OA
ATOM     11  H   UNL     1       5.362   4.715   3.672  1.00  0.00     0.211 HD
ENDBRANCH   2  10
BRANCH   3  12
ATOM     12  O   UNL     1       6.139   7.269   4.309  1.00  0.00    -0.387 OA
ATOM     13  H   UNL     1       6.408   6.410   3.890  1.00  0.00     0.211 HD
ENDBRANCH   3  12
BRANCH   5  14
ATOM     14  C   UNL     1       2.568  10.125   2.428  1.00  0.00     0.191 C 
BRANCH  14  15
ATOM     15  O   UNL     1       1.273  10.094   1.891  1.00  0.00    -0.394 OA
ATOM     16  H   UNL     1       1.349   9.677   0.992  1.00  0.00     0.210 HD
ENDBRANCH  14  15
ENDBRANCH   5  14
BRANCH   4  17
ATOM     17  O   UNL     1       4.781   9.785   4.386  1.00  0.00    -0.387 OA
ATOM     18  H   UNL     1       4.499  10.639   3.967  1.00  0.00     0.211 HD
ENDBRANCH   4  17
TORSDOF 7
ENDMDL
MODEL 3
REMARK VINA RESULT:    -2.769      1.291      4.010
REMARK INTER + INTRA:          -3.961
REMARK INTER:                  -3.518
REMARK INTRA:                  -0.443
REMARK UNBOUND:                -0.382
REMARK SMILES CCO[C@H]1O[C@H](CO)[C@@H](O)[C@H](O)[C@H]1O
REMARK SMILES IDX 4 1 13 2 11 3 9 4 6 5 5 6 3 7 2 8 1 9 14 10 12 12 7 14 8 15
REMARK SMILES IDX 10 17
REMARK H PARENT 14 11 12 13 8 16 10 18
REMARK Flexibility Score: inf
ROOT
ATOM      1  C   UNL     1       4.392   6.606   2.707  1.00  0.00     0.281 C 
ATOM      2  C   UNL     1       4.635   8.053   3.184  1.00  0.00     0.202 C 
ATOM      3  C   UNL     1       3.669   8.419   4.327  1.00  0.00     0.179 C 
ATOM      4  C   UNL     1       2.226   8.093   3.904  1.00  0.00     0.177 C 
ATOM      5  C   UNL     1       2.135   6.635   3.377  1.00  0.00     0.178 C 
ATOM      6  O   UNL     1       3.040   6.438   2.300  1.00  0.00    -0.341 OA
ENDROOT
BRANCH   1   7
ATOM      7  O   UNL     1       4.749   5.681   3.723  1.00  0.00    -0.350 OA
BRANCH   7   8
ATOM      8  C   UNL     1       5.325   4.525   3.150  1.00  0.00     0.160 C 
ATOM      9  C   UNL     1       6.131   4.926   1.925  1.00  0.00     0.035 C 
ENDBRANCH   7   8
ENDBRANCH   1   7
BRANCH   2  10
ATOM     10  O   UNL     1       5.976   8.243   3.560  1.00  0.00    -0.385 OA
ATOM     11  H   UNL     1       6.469   7.404   3.368  1.00  0.00     0.211 HD
ENDBRANCH   2  10
BRANCH   3  12
ATOM     12  O   UNL     1       3.767   9.788   4.621  1.00  0.00    -0.387 OA
ATOM     13  H   UNL     1       4.513   9.890   5.269  1.00  0.00     0.211 HD
ENDBRANCH   3  12
BRANCH   5  14
ATOM     14  C   UNL     1       0.721   6.312   2.865  1.00  0.00     0.191 C 
BRANCH  14  15
ATOM     15  O   UNL     1      -0.136   5.962   3.918  1.00  0.00    -0.394 OA
ATOM     16  H   UNL     1      -0.195   4.971   3.919  1.00  0.00     0.210 HD
ENDBRANCH  14  15
ENDBRANCH   5  14
BRANCH   4  17
ATOM     17  O   UNL     1       1.344   8.311   4.978  1.00  0.00    -0.387 OA
ATOM     18  H   UNL     1       1.693   7.812   5.762  1.00  0.00     0.211 HD
ENDBRANCH   4  17
TORSDOF 7
ENDMDL
MODEL 4
REMARK VINA RESULT:    -2.684      1.799      4.991
REMARK INTER + INTRA:          -3.850
REMARK INTER:                  -3.405
REMARK INTRA:                  -0.445
REMARK UNBOUND:                -0.382
REMARK SMILES CCO[C@H]1O[C@H](CO)[C@@H](O)[C@H](O)[C@H]1O
REMARK SMILES IDX 4 1 13 2 11 3 9 4 6 5 5 6 3 7 2 8 1 9 14 10 12 12 7 14 8 15
REMARK SMILES IDX 10 17
REMARK H PARENT 14 11 12 13 8 16 10 18
REMARK Flexibility Score: inf
ROOT
ATOM      1  C   UNL     1       5.070   8.669   3.738  1.00  0.00     0.281 C 
ATOM      2  C   UNL     1       5.212   7.181   4.119  1.00  0.00     0.202 C 
ATOM      3  C   UNL     1       4.202   6.319   3.338  1.00  0.00     0.179 C 
ATOM      4  C   UNL     1       2.791   6.913   3.496  1.00  0.00     0.177 C 
ATOM      5  C   UNL     1       2.801   8.428   3.154  1.00  0.00     0.178 C 
ATOM      6  O   UNL     1       3.740   9.116   3.969  1.00  0.00    -0.341 OA
ENDROOT
BRANCH   1   7
ATOM      7  O   UNL     1       5.462   8.878   2.389  1.00  0.00    -0.350 OA
BRANCH   7   8
ATOM      8  C   UNL     1       6.337   9.983   2.300  1.00  0.00     0.160 C 
ATOM      9  C   UNL     1       7.738   9.482   1.987  1.00  0.00     0.035 C 
ENDBRANCH   7   8
ENDBRANCH   1   7
BRANCH   2  10
ATOM     10  O   UNL     1       6.531   6.733   3.924  1.00  0.00    -0.385 OA
ATOM     11  H   UNL     1       6.668   5.931   4.492  1.00  0.00     0.211 HD
ENDBRANCH   2  10
BRANCH   3  12
ATOM     12  O   UNL     1       4.209   5.004   3.828  1.00  0.00    -0.387 OA
ATOM     13  H   UNL     1       3.657   5.003   4.654  1.00  0.00     0.211 HD
ENDBRANCH   3  12
BRANCH   5  14
ATOM     14  C   UNL     1       1.421   9.064   3.390  1.00  0.00     0.191 C 
BRANCH  14  15
ATOM     15  O   UNL     1       0.702   8.375   4.376  1.00  0.00    -0.394 OA
ATOM     16  H   UNL     1       1.046   7.444   4.380  1.00  0.00     0.210 HD
ENDBRANCH  14  15
ENDBRANCH   5  14
BRANCH   4  17
ATOM     17  O   UNL     1       1.874   6.208   2.695  1.00  0.00    -0.387 OA
ATOM     18  H   UNL     1       1.493   6.847   2.039  1.00  0.00     0.211 HD
ENDBRANCH   4  17
TORSDOF 7
ENDMDL
MODEL 5
REMARK VINA RESULT:    -2.660      1.889      3.388
REMARK INTER + INTRA:          -3.820
REMARK INTER:                  -3.431
REMARK INTRA:                  -0.389
REMARK UNBOUND:                -0.382
REMARK SMILES CCO[C@H]1O[C@H](CO)[C@@H](O)[C@H](O)[C@H]1O
REMARK SMILES IDX 4 1 13 2 11 3 9 4 6 5 5 6 3 7 2 8 1 9 14 10 12 12 7 14 8 15
REMARK SMILES IDX 10 17
REMARK H PARENT 14 11 12 13 8 16 10 18
REMARK Flexibility Score: inf
ROOT
ATOM      1  C   UNL     1       2.986   8.213   2.769  1.00  0.00     0.281 C 
ATOM      2  C   UNL     1       3.070   6.685   2.968  1.00  0.00     0.202 C 
ATOM      3  C   UNL     1       4.382   6.299   3.678  1.00  0.00     0.179 C 
ATOM      4  C   UNL     1       5.571   6.938   2.940  1.00  0.00     0.177 C 
ATOM      5  C   UNL     1       5.328   8.458   2.740  1.00  0.00     0.178 C 
ATOM      6  O   UNL     1       4.113   8.680   2.038  1.00  0.00    -0.341 OA
ENDROOT
BRANCH   1   7
ATOM      7  O   UNL     1       2.868   8.872   4.020  1.00  0.00    -0.350 OA
BRANCH   7   8
ATOM      8  C   UNL     1       1.752   9.738   4.012  1.00  0.00     0.160 C 
ATOM      9  C   UNL     1       0.873   9.426   5.213  1.00  0.00     0.035 C 
ENDBRANCH   7   8
ENDBRANCH   1   7
BRANCH   2  10
ATOM     10  O   UNL     1       1.946   6.204   3.663  1.00  0.00    -0.385 OA
ATOM     11  H   UNL     1       1.144   6.664   3.303  1.00  0.00     0.211 HD
ENDBRANCH   2  10
BRANCH   3  12
ATOM     12  O   UNL     1       4.535   4.904   3.682  1.00  0.00    -0.387 OA
ATOM     13  H   UNL     1       3.936   4.551   4.391  1.00  0.00     0.211 HD
ENDBRANCH   3  12
BRANCH   5  14
ATOM     14  C   UNL     1       6.463   9.104   1.927  1.00  0.00     0.191 C 
BRANCH  14  15
ATOM     15  O   UNL     1       7.687   9.024   2.605  1.00  0.00    -0.394 OA
ATOM     16  H   UNL     1       7.954   8.068   2.598  1.00  0.00     0.210 HD
ENDBRANCH  14  15
ENDBRANCH   5  14
BRANCH   4  17
ATOM     17  O   UNL     1       6.766   6.693   3.641  1.00  0.00    -0.387 OA
ATOM     18  H   UNL     1       6.974   5.726   3.553  1.00  0.00     0.211 HD
ENDBRANCH   4  17
TORSDOF 7
ENDMDL
MODEL 6
REMARK VINA RESULT:    -2.210      1.652      4.608
REMARK INTER + INTRA:          -3.238
REMARK INTER:                  -2.795
REMARK INTRA:                  -0.444
REMARK UNBOUND:                -0.382
REMARK SMILES CCO[C@H]1O[C@H](CO)[C@@H](O)[C@H](O)[C@H]1O
REMARK SMILES IDX 4 1 13 2 11 3 9 4 6 5 5 6 3 7 2 8 1 9 14 10 12 12 7 14 8 15
REMARK SMILES IDX 10 17
REMARK H PARENT 14 11 12 13 8 16 10 18
REMARK Flexibility Score: inf
ROOT
ATOM      1  C   UNL     1       4.719   7.617   3.660  1.00  0.00     0.281 C 
ATOM      2  C   UNL     1       3.722   6.473   3.379  1.00  0.00     0.202 C 
ATOM      3  C   UNL     1       2.348   7.037   2.970  1.00  0.00     0.179 C 
ATOM      4  C   UNL     1       1.890   8.077   4.008  1.00  0.00     0.177 C 
ATOM      5  C   UNL     1       3.009   9.124   4.252  1.00  0.00     0.178 C 
ATOM      6  O   UNL     1       4.209   8.484   4.664  1.00  0.00    -0.341 OA
ENDROOT
BRANCH   1   7
ATOM      7  O   UNL     1       5.017   8.323   2.465  1.00  0.00    -0.350 OA
BRANCH   7   8
ATOM      8  C   UNL     1       6.376   8.706   2.450  1.00  0.00     0.160 C 
ATOM      9  C   UNL     1       7.239   7.471   2.250  1.00  0.00     0.035 C 
ENDBRANCH   7   8
ENDBRANCH   1   7
BRANCH   2  10
ATOM     10  O   UNL     1       4.227   5.589   2.409  1.00  0.00    -0.385 OA
ATOM     11  H   UNL     1       3.653   4.780   2.405  1.00  0.00     0.211 HD
ENDBRANCH   2  10
BRANCH   3  12
ATOM     12  O   UNL     1       1.402   6.002   2.904  1.00  0.00    -0.387 OA
ATOM     13  H   UNL     1       1.453   5.510   3.765  1.00  0.00     0.211 HD
ENDBRANCH   3  12
BRANCH   5  14
ATOM     14  C   UNL     1       2.611  10.124   5.351  1.00  0.00     0.191 C 
BRANCH  14  15
ATOM     15  O   UNL     1       1.835   9.510   6.344  1.00  0.00    -0.394 OA
ATOM     16  H   UNL     1       1.758   8.552   6.093  1.00  0.00     0.210 HD
ENDBRANCH  14  15
ENDBRANCH   5  14
BRANCH   4  17
ATOM     17  O   UNL     1       0.693   8.686   3.590  1.00  0.00    -0.387 OA
ATOM     18  H   UNL     1       0.008   7.973   3.499  1.00  0.00     0.211 HD
ENDBRANCH   4  17
TORSDOF 7
ENDMDL
MODEL 7
REMARK VINA RESULT:    -2.055      1.803      2.550
REMARK INTER + INTRA:          -3.038
REMARK INTER:                  -2.927
REMARK INTRA:                  -0.111
REMARK UNBOUND:                -0.382
REMARK SMILES CCO[C@H]1O[C@H](CO)[C@@H](O)[C@H](O)[C@H]1O
REMARK SMILES IDX 4 1 13 2 11 3 9 4 6 5 5 6 3 7 2 8 1 9 14 10 12 12 7 14 8 15
REMARK SMILES IDX 10 17
REMARK H PARENT 14 11 12 13 8 16 10 18
REMARK Flexibility Score: inf
ROOT
ATOM      1  C   UNL     1       3.445   6.500   3.376  1.00  0.00     0.281 C 
ATOM      2  C   UNL     1       4.306   7.713   3.785  1.00  0.00     0.202 C 
ATOM      3  C   UNL     1       5.534   7.845   2.865  1.00  0.00     0.179 C 
ATOM      4  C   UNL     1       6.275   6.498   2.801  1.00  0.00     0.177 C 
ATOM      5  C   UNL     1       5.284   5.354   2.454  1.00  0.00     0.178 C 
ATOM      6  O   UNL     1       4.223   5.310   3.397  1.00  0.00    -0.341 OA
ENDROOT
BRANCH   1   7
ATOM      7  O   UNL     1       2.857   6.714   2.102  1.00  0.00    -0.350 OA
BRANCH   7   8
ATOM      8  C   UNL     1       1.450   6.754   2.214  1.00  0.00     0.160 C 
ATOM      9  C   UNL     1       1.041   6.167   3.556  1.00  0.00     0.035 C 
ENDBRANCH   7   8
ENDBRANCH   1   7
BRANCH   2  10
ATOM     10  O   UNL     1       3.541   8.893   3.798  1.00  0.00    -0.385 OA
ATOM     11  H   UNL     1       3.401   9.177   2.857  1.00  0.00     0.211 HD
ENDBRANCH   2  10
BRANCH   3  12
ATOM     12  O   UNL     1       6.404   8.829   3.361  1.00  0.00    -0.387 OA
ATOM     13  H   UNL     1       6.090   9.057   4.275  1.00  0.00     0.211 HD
ENDBRANCH   3  12
BRANCH   5  14
ATOM     14  C   UNL     1       5.983   3.984   2.471  1.00  0.00     0.191 C 
BRANCH  14  15
ATOM     15  O   UNL     1       5.082   2.954   2.773  1.00  0.00    -0.394 OA
ATOM     16  H   UNL     1       5.598   2.106   2.741  1.00  0.00     0.210 HD
ENDBRANCH  14  15
ENDBRANCH   5  14
BRANCH   4  17
ATOM     17  O   UNL     1       7.331   6.568   1.875  1.00  0.00    -0.387 OA
ATOM     18  H   UNL     1       7.874   7.368   2.097  1.00  0.00     0.211 HD
ENDBRANCH   4  17
TORSDOF 7
ENDMDL
MODEL 8
REMARK VINA RESULT:    -1.429      1.828      5.004
REMARK INTER + INTRA:          -2.229
REMARK INTER:                  -1.988
REMARK INTRA:                  -0.241
REMARK UNBOUND:                -0.382
REMARK SMILES CCO[C@H]1O[C@H](CO)[C@@H](O)[C@H](O)[C@H]1O
REMARK SMILES IDX 4 1 13 2 11 3 9 4 6 5 5 6 3 7 2 8 1 9 14 10 12 12 7 14 8 15
REMARK SMILES IDX 10 17
REMARK H PARENT 14 11 12 13 8 16 10 18
REMARK Flexibility Score: inf
ROOT
ATOM      1  C   UNL     1       2.551   7.917   3.887  1.00  0.00     0.281 C 
ATOM      2  C   UNL     1       1.944   6.531   3.583  1.00  0.00     0.202 C 
ATOM      3  C   UNL     1       0.836   6.643   2.519  1.00  0.00     0.179 C 
ATOM      4  C   UNL     1      -0.169   7.731   2.937  1.00  0.00     0.177 C 
ATOM      5  C   UNL     1       0.575   9.048   3.285  1.00  0.00     0.178 C 
ATOM      6  O   UNL     1       1.537   8.822   4.305  1.00  0.00    -0.341 OA
ENDROOT
BRANCH   1   7
ATOM      7  O   UNL     1       3.255   8.411   2.757  1.00  0.00    -0.350 OA
BRANCH   7   8
ATOM      8  C   UNL     1       4.565   8.789   3.125  1.00  0.00     0.160 C 
ATOM      9  C   UNL     1       5.561   7.884   2.418  1.00  0.00     0.035 C 
ENDBRANCH   7   8
ENDBRANCH   1   7
BRANCH   2  10
ATOM     10  O   UNL     1       2.940   5.617   3.197  1.00  0.00    -0.385 OA
ATOM     11  H   UNL     1       3.792   5.895   3.624  1.00  0.00     0.211 HD
ENDBRANCH   2  10
BRANCH   3  12
ATOM     12  O   UNL     1       0.165   5.417   2.391  1.00  0.00    -0.387 OA
ATOM     13  H   UNL     1      -0.433   5.333   3.179  1.00  0.00     0.211 HD
ENDBRANCH   3  12
BRANCH   5  14
ATOM     14  C   UNL     1      -0.399  10.125   3.791  1.00  0.00     0.191 C 
BRANCH  14  15
ATOM     15  O   UNL     1      -0.616  10.011   5.171  1.00  0.00    -0.394 OA
ATOM     16  H   UNL     1      -0.381  10.890   5.569  1.00  0.00     0.210 HD
ENDBRANCH  14  15
ENDBRANCH   5  14
BRANCH   4  17
ATOM     17  O   UNL     1      -1.122   7.927   1.921  1.00  0.00    -0.387 OA
ATOM     18  H   UNL     1      -2.019   7.933   2.346  1.00  0.00     0.211 HD
ENDBRANCH   4  17
TORSDOF 7
ENDMDL
