MODEL 1
REMARK VINA RESULT:    -4.363      0.000      0.000
REMARK INTER + INTRA:          -4.490
REMARK INTER:                  -4.490
REMARK INTRA:                   0.000
REMARK UNBOUND:                 0.000
REMARK SMILES Cc1ccccc1O
REMARK SMILES IDX 1 1 2 2 3 3 4 4 5 5 6 6 7 7 8 8
REMARK H PARENT 8 9
REMARK Flexibility Score: inf
ROOT
ATOM      1  C   UNL     1      24.407  29.628 -17.584  1.00  0.00     0.048 C 
ATOM      2  C   UNL     1      23.474  29.458 -18.749  1.00  0.00    -0.009 A 
ATOM      3  C   UNL     1      22.667  30.536 -19.157  1.00  0.00     0.007 A 
ATOM      4  C   UNL     1      21.794  30.399 -20.238  1.00  0.00     0.001 A 
ATOM      5  C   UNL     1      21.713  29.185 -20.923  1.00  0.00     0.004 A 
ATOM      6  C   UNL     1      22.507  28.106 -20.529  1.00  0.00     0.046 A 
ATOM      7  C   UNL     1      23.388  28.230 -19.447  1.00  0.00     0.118 A 
ENDROOT
BRANCH   7   8
ATOM      8  O   UNL     1      24.161  27.123 -19.092  1.00  0.00    -0.508 OA
ATOM      9  H   UNL     1      23.884  26.464 -18.375  1.00  0.00     0.293 HD
ENDBRANCH   7   8
TORSDOF 1
ENDMDL
MODEL 2
REMARK VINA RESULT:    -4.349      0.988      2.700
REMARK INTER + INTRA:          -4.476
REMARK INTER:                  -4.476
REMARK INTRA:                   0.000
REMARK UNBOUND:                 0.000
REMARK SMILES Cc1ccccc1O
REMARK SMILES IDX 1 1 2 2 3 3 4 4 5 5 6 6 7 7 8 8
REMARK H PARENT 8 9
REMARK Flexibility Score: inf
ROOT
ATOM      1  C   UNL     1      21.727  29.607 -20.938  1.00  0.00     0.048 C 
ATOM      2  C   UNL     1      22.608  29.496 -19.726  1.00  0.00    -0.009 A 
ATOM      3  C   UNL     1      22.590  30.516 -18.757  1.00  0.00     0.007 A 
ATOM      4  C   UNL     1      23.401  30.431 -17.623  1.00  0.00     0.001 A 
ATOM      5  C   UNL     1      24.241  29.330 -17.443  1.00  0.00     0.004 A 
ATOM      6  C   UNL     1      24.270  28.312 -18.398  1.00  0.00     0.046 A 
ATOM      7  C   UNL     1      23.461  28.383 -19.539  1.00  0.00     0.118 A 
ENDROOT
BRANCH   7   8
ATOM      8  O   UNL     1      23.527  27.339 -20.464  1.00  0.00    -0.508 OA
ATOM      9  H   UNL     1      23.234  27.436 -21.427  1.00  0.00     0.293 HD
ENDBRANCH   7   8
TORSDOF 1
ENDMDL
MODEL 3
REMARK VINA RESULT:    -4.337      7.966      8.177
REMARK INTER + INTRA:          -4.464
REMARK INTER:                  -4.464
REMARK INTRA:                   0.000
REMARK UNBOUND:                 0.000
REMARK SMILES Cc1ccccc1O
REMARK SMILES IDX 1 1 2 2 3 3 4 4 5 5 6 6 7 7 8 8
REMARK H PARENT 8 9
REMARK Flexibility Score: inf
ROOT
ATOM      1  C   UNL     1      19.358  27.531 -10.932  1.00  0.00     0.048 C 
ATOM      2  C   UNL     1      18.859  27.712 -12.338  1.00  0.00    -0.009 A 
ATOM      3  C   UNL     1      19.598  28.496 -13.243  1.00  0.00     0.007 A 
ATOM      4  C   UNL     1      19.152  28.675 -14.554  1.00  0.00     0.001 A 
ATOM      5  C   UNL     1      17.963  28.077 -14.977  1.00  0.00     0.004 A 
ATOM      6  C   UNL     1      17.220  27.297 -14.090  1.00  0.00     0.046 A 
ATOM      7  C   UNL     1      17.655  27.108 -12.772  1.00  0.00     0.118 A 
ENDROOT
BRANCH   7   8
ATOM      8  O   UNL     1      16.876  26.319 -11.924  1.00  0.00    -0.508 OA
ATOM      9  H   UNL     1      17.178  25.418 -11.575  1.00  0.00     0.293 HD
ENDBRANCH   7   8
TORSDOF 1
ENDMDL
MODEL 4
REMARK VINA RESULT:    -4.315      7.865      8.619
REMARK INTER + INTRA:          -4.441
REMARK INTER:                  -4.441
REMARK INTRA:                   0.000
REMARK UNBOUND:                 0.000
REMARK SMILES Cc1ccccc1O
REMARK SMILES IDX 1 1 2 2 3 3 4 4 5 5 6 6 7 7 8 8
REMARK H PARENT 8 9
REMARK Flexibility Score: inf
ROOT
ATOM      1  C   UNL     1      17.652  27.610 -14.660  1.00  0.00     0.048 C 
ATOM      2  C   UNL     1      18.512  27.885 -13.458  1.00  0.00    -0.009 A 
ATOM      3  C   UNL     1      19.532  28.851 -13.539  1.00  0.00     0.007 A 
ATOM      4  C   UNL     1      20.341  29.121 -12.433  1.00  0.00     0.001 A 
ATOM      5  C   UNL     1      20.143  28.431 -11.235  1.00  0.00     0.004 A 
ATOM      6  C   UNL     1      19.135  27.469 -11.142  1.00  0.00     0.046 A 
ATOM      7  C   UNL     1      18.316  27.189 -12.242  1.00  0.00     0.118 A 
ENDROOT
BRANCH   7   8
ATOM      8  O   UNL     1      17.322  26.219 -12.097  1.00  0.00    -0.508 OA
ATOM      9  H   UNL     1      16.441  26.253 -12.594  1.00  0.00     0.293 HD
ENDBRANCH   7   8
TORSDOF 1
ENDMDL
MODEL 5
REMARK VINA RESULT:    -4.280     13.091     14.476
REMARK INTER + INTRA:          -4.405
REMARK INTER:                  -4.405
REMARK INTRA:                   0.000
REMARK UNBOUND:                 0.000
REMARK SMILES Cc1ccccc1O
REMARK SMILES IDX 1 1 2 2 3 3 4 4 5 5 6 6 7 7 8 8
REMARK H PARENT 8 9
REMARK Flexibility Score: inf
ROOT
ATOM      1  C   UNL     1      33.263  30.404 -12.226  1.00  0.00     0.048 C 
ATOM      2  C   UNL     1      34.498  31.101 -12.726  1.00  0.00    -0.009 A 
ATOM      3  C   UNL     1      34.932  30.886 -14.046  1.00  0.00     0.007 A 
ATOM      4  C   UNL     1      36.076  31.524 -14.529  1.00  0.00     0.001 A 
ATOM      5  C   UNL     1      36.802  32.383 -13.701  1.00  0.00     0.004 A 
ATOM      6  C   UNL     1      36.383  32.605 -12.388  1.00  0.00     0.046 A 
ATOM      7  C   UNL     1      35.237  31.972 -11.890  1.00  0.00     0.118 A 
ENDROOT
BRANCH   7   8
ATOM      8  O   UNL     1      34.859  32.227 -10.570  1.00  0.00    -0.508 OA
ATOM      9  H   UNL     1      33.918  32.489 -10.306  1.00  0.00     0.293 HD
ENDBRANCH   7   8
TORSDOF 1
ENDMDL
MODEL 6
REMARK VINA RESULT:    -4.259      2.582      3.124
REMARK INTER + INTRA:          -4.383
REMARK INTER:                  -4.383
REMARK INTRA:                   0.000
REMARK UNBOUND:                 0.000
REMARK SMILES Cc1ccccc1O
REMARK SMILES IDX 1 1 2 2 3 3 4 4 5 5 6 6 7 7 8 8
REMARK H PARENT 8 9
REMARK Flexibility Score: inf
ROOT
ATOM      1  C   UNL     1      21.734  28.213 -15.569  1.00  0.00     0.048 C 
ATOM      2  C   UNL     1      22.031  28.967 -16.835  1.00  0.00    -0.009 A 
ATOM      3  C   UNL     1      21.330  28.651 -18.013  1.00  0.00     0.007 A 
ATOM      4  C   UNL     1      21.591  29.340 -19.199  1.00  0.00     0.001 A 
ATOM      5  C   UNL     1      22.555  30.350 -19.225  1.00  0.00     0.004 A 
ATOM      6  C   UNL     1      23.259  30.673 -18.063  1.00  0.00     0.046 A 
ATOM      7  C   UNL     1      23.007  29.991 -16.866  1.00  0.00     0.118 A 
ENDROOT
BRANCH   7   8
ATOM      8  O   UNL     1      23.737  30.352 -15.732  1.00  0.00    -0.508 OA
ATOM      9  H   UNL     1      23.915  29.715 -14.965  1.00  0.00     0.293 HD
ENDBRANCH   7   8
TORSDOF 1
ENDMDL
MODEL 7
REMARK VINA RESULT:    -4.202     13.378     14.449
REMARK INTER + INTRA:          -4.325
REMARK INTER:                  -4.325
REMARK INTRA:                   0.000
REMARK UNBOUND:                 0.000
REMARK SMILES Cc1ccccc1O
REMARK SMILES IDX 1 1 2 2 3 3 4 4 5 5 6 6 7 7 8 8
REMARK H PARENT 8 9
REMARK Flexibility Score: inf
ROOT
ATOM      1  C   UNL     1      36.163  32.196 -14.408  1.00  0.00     0.048 C 
ATOM      2  C   UNL     1      35.371  31.644 -13.255  1.00  0.00    -0.009 A 
ATOM      3  C   UNL     1      34.367  30.689 -13.495  1.00  0.00     0.007 A 
ATOM      4  C   UNL     1      33.621  30.164 -12.437  1.00  0.00     0.001 A 
ATOM      5  C   UNL     1      33.867  30.587 -11.129  1.00  0.00     0.004 A 
ATOM      6  C   UNL     1      34.861  31.535 -10.877  1.00  0.00     0.046 A 
ATOM      7  C   UNL     1      35.617  32.069 -11.928  1.00  0.00     0.118 A 
ENDROOT
BRANCH   7   8
ATOM      8  O   UNL     1      36.599  33.014 -11.624  1.00  0.00    -0.508 OA
ATOM      9  H   UNL     1      36.483  34.005 -11.795  1.00  0.00     0.293 HD
ENDBRANCH   7   8
TORSDOF 1
ENDMDL
MODEL 8
REMARK VINA RESULT:    -4.141      1.849      3.491
REMARK INTER + INTRA:          -4.262
REMARK INTER:                  -4.262
REMARK INTRA:                   0.000
REMARK UNBOUND:                 0.000
REMARK SMILES Cc1ccccc1O
REMARK SMILES IDX 1 1 2 2 3 3 4 4 5 5 6 6 7 7 8 8
REMARK H PARENT 8 9
REMARK Flexibility Score: inf
ROOT
ATOM      1  C   UNL     1      22.220  28.040 -20.978  1.00  0.00     0.048 C 
ATOM      2  C   UNL     1      22.850  28.737 -19.805  1.00  0.00    -0.009 A 
ATOM      3  C   UNL     1      23.936  28.137 -19.141  1.00  0.00     0.007 A 
ATOM      4  C   UNL     1      24.535  28.769 -18.049  1.00  0.00     0.001 A 
ATOM      5  C   UNL     1      24.058  30.004 -17.606  1.00  0.00     0.004 A 
ATOM      6  C   UNL     1      22.980  30.610 -18.255  1.00  0.00     0.046 A 
ATOM      7  C   UNL     1      22.370  29.989 -19.351  1.00  0.00     0.118 A 
ENDROOT
BRANCH   7   8
ATOM      8  O   UNL     1      21.296  30.635 -19.966  1.00  0.00    -0.508 OA
ATOM      9  H   UNL     1      21.405  31.464 -20.537  1.00  0.00     0.293 HD
ENDBRANCH   7   8
TORSDOF 1
ENDMDL
MODEL 9
REMARK VINA RESULT:    -4.117      7.325      8.311
REMARK INTER + INTRA:          -4.237
REMARK INTER:                  -4.237
REMARK INTRA:                   0.000
REMARK UNBOUND:                 0.000
REMARK SMILES Cc1ccccc1O
REMARK SMILES IDX 1 1 2 2 3 3 4 4 5 5 6 6 7 7 8 8
REMARK H PARENT 8 9
REMARK Flexibility Score: inf
ROOT
ATOM      1  C   UNL     1      25.533  23.618 -26.580  1.00  0.00     0.048 C 
ATOM      2  C   UNL     1      24.271  23.480 -25.775  1.00  0.00    -0.009 A 
ATOM      3  C   UNL     1      23.033  23.376 -26.435  1.00  0.00     0.007 A 
ATOM      4  C   UNL     1      21.849  23.246 -25.705  1.00  0.00     0.001 A 
ATOM      5  C   UNL     1      21.887  23.220 -24.309  1.00  0.00     0.004 A 
ATOM      6  C   UNL     1      23.108  23.323 -23.641  1.00  0.00     0.046 A 
ATOM      7  C   UNL     1      24.303  23.452 -24.360  1.00  0.00     0.118 A 
ENDROOT
BRANCH   7   8
ATOM      8  O   UNL     1      25.499  23.552 -23.646  1.00  0.00    -0.508 OA
ATOM      9  H   UNL     1      26.365  23.130 -23.958  1.00  0.00     0.293 HD
ENDBRANCH   7   8
TORSDOF 1
ENDMDL
