MODEL 1
REMARK VINA RESULT:    -7.120      0.000      0.000
REMARK INTER + INTRA:          -9.072
REMARK INTER:                  -8.577
REMARK INTRA:                  -0.494
REMARK UNBOUND:                -0.494
REMARK SMILES Oc1cc(O)c2c(c1)O[C@@H](c1ccc(O)c(O)c1)[C@H](O)C2
REMARK SMILES IDX 21 1 19 2 10 3 9 4 7 5 8 6 2 7 3 8 4 9 6 10 20 11 11 13
REMARK SMILES IDX 18 14 12 15 16 16 13 17 14 18 17 19 15 21 5 23 1 25
REMARK H PARENT 20 12 17 20 15 22 5 24 1 26
REMARK Flexibility Score: inf
ROOT
ATOM      1  C   UNL     1      11.080   9.754  11.484  1.00  0.00     0.079 C 
ATOM      2  C   UNL     1      12.285  10.648  11.145  1.00  0.00     0.164 C 
ATOM      3  C   UNL     1      13.433  10.428  12.153  1.00  0.00     0.232 C 
ATOM      4  O   UNL     1      12.960  10.576  13.495  1.00  0.00    -0.482 OA
ATOM      5  C   UNL     1      11.656  10.250  13.891  1.00  0.00     0.131 A 
ATOM      6  C   UNL     1      11.319  10.343  15.244  1.00  0.00     0.093 A 
ATOM      7  C   UNL     1      10.038   9.996  15.677  1.00  0.00     0.122 A 
ATOM      8  C   UNL     1       9.091   9.542  14.754  1.00  0.00     0.092 A 
ATOM      9  C   UNL     1       9.413   9.436  13.395  1.00  0.00     0.126 A 
ATOM     10  C   UNL     1      10.695   9.833  12.944  1.00  0.00     0.039 A 
ENDROOT
BRANCH   2  11
ATOM     11  O   UNL     1      11.878  11.993  11.178  1.00  0.00    -0.389 OA
ATOM     12  H   UNL     1      12.307  12.442  10.403  1.00  0.00     0.211 HD
ENDBRANCH   2  11
BRANCH   3  13
ATOM     13  C   UNL     1      14.118   9.090  11.941  1.00  0.00    -0.001 A 
ATOM     14  C   UNL     1      14.713   8.444  13.039  1.00  0.00     0.057 A 
ATOM     15  C   UNL     1      14.223   8.498  10.668  1.00  0.00     0.012 A 
ATOM     16  C   UNL     1      15.383   7.223  12.877  1.00  0.00     0.157 A 
ATOM     17  C   UNL     1      14.891   7.282  10.505  1.00  0.00     0.050 A 
ATOM     18  C   UNL     1      15.470   6.640  11.603  1.00  0.00     0.157 A 
BRANCH  16  19
ATOM     19  O   UNL     1      15.964   6.592  13.976  1.00  0.00    -0.504 OA
ATOM     20  H   UNL     1      15.914   5.588  14.100  1.00  0.00     0.293 HD
ENDBRANCH  16  19
BRANCH  18  21
ATOM     21  O   UNL     1      16.130   5.426  11.408  1.00  0.00    -0.504 OA
ATOM     22  H   UNL     1      16.925   5.340  10.787  1.00  0.00     0.293 HD
ENDBRANCH  18  21
ENDBRANCH   3  13
BRANCH   9  23
ATOM     23  O   UNL     1       8.442   8.926  12.530  1.00  0.00    -0.507 OA
ATOM     24  H   UNL     1       8.258   7.938  12.422  1.00  0.00     0.293 HD
ENDBRANCH   9  23
BRANCH   7  25
ATOM     25  O   UNL     1       9.719  10.099  17.030  1.00  0.00    -0.508 OA
ATOM     26  H   UNL     1       9.850   9.321  17.666  1.00  0.00     0.293 HD
ENDBRANCH   7  25
TORSDOF 6
ENDMDL
MODEL 2
REMARK VINA RESULT:    -6.429      1.339      1.570
REMARK INTER + INTRA:          -8.239
REMARK INTER:                  -7.764
REMARK INTRA:                  -0.475
REMARK UNBOUND:                -0.494
REMARK SMILES Oc1cc(O)c2c(c1)O[C@@H](c1ccc(O)c(O)c1)[C@H](O)C2
REMARK SMILES IDX 21 1 19 2 10 3 9 4 7 5 8 6 2 7 3 8 4 9 6 10 20 11 11 13
REMARK SMILES IDX 18 14 12 15 16 16 13 17 14 18 17 19 15 21 5 23 1 25
REMARK H PARENT 20 12 17 20 15 22 5 24 1 26
REMARK Flexibility Score: inf
ROOT
ATOM      1  C   UNL     1      11.278   9.605  11.639  1.00  0.00     0.079 C 
ATOM      2  C   UNL     1      12.214  10.040  10.499  1.00  0.00     0.164 C 
ATOM      3  C   UNL     1      13.680  10.084  10.978  1.00  0.00     0.232 C 
ATOM      4  O   UNL     1      13.800  10.878  12.162  1.00  0.00    -0.482 OA
ATOM      5  C   UNL     1      12.784  10.987  13.121  1.00  0.00     0.131 A 
ATOM      6  C   UNL     1      13.033  11.713  14.288  1.00  0.00     0.093 A 
ATOM      7  C   UNL     1      12.054  11.816  15.278  1.00  0.00     0.122 A 
ATOM      8  C   UNL     1      10.821  11.178  15.105  1.00  0.00     0.092 A 
ATOM      9  C   UNL     1      10.556  10.441  13.945  1.00  0.00     0.126 A 
ATOM     10  C   UNL     1      11.528  10.374  12.918  1.00  0.00     0.039 A 
ENDROOT
BRANCH   2  11
ATOM     11  O   UNL     1      11.825  11.315  10.052  1.00  0.00    -0.389 OA
ATOM     12  H   UNL     1      12.558  11.653   9.475  1.00  0.00     0.211 HD
ENDBRANCH   2  11
BRANCH   3  13
ATOM     13  C   UNL     1      14.249   8.689  11.174  1.00  0.00    -0.001 A 
ATOM     14  C   UNL     1      14.813   8.349  12.416  1.00  0.00     0.057 A 
ATOM     15  C   UNL     1      14.275   7.741  10.134  1.00  0.00     0.012 A 
ATOM     16  C   UNL     1      15.377   7.082  12.625  1.00  0.00     0.157 A 
ATOM     17  C   UNL     1      14.837   6.479  10.342  1.00  0.00     0.050 A 
ATOM     18  C   UNL     1      15.387   6.143  11.582  1.00  0.00     0.157 A 
BRANCH  16  19
ATOM     19  O   UNL     1      15.930   6.758  13.863  1.00  0.00    -0.504 OA
ATOM     20  H   UNL     1      15.930   7.415  14.634  1.00  0.00     0.293 HD
ENDBRANCH  16  19
BRANCH  18  21
ATOM     21  O   UNL     1      15.940   4.874  11.758  1.00  0.00    -0.504 OA
ATOM     22  H   UNL     1      15.431   4.030  11.526  1.00  0.00     0.293 HD
ENDBRANCH  18  21
ENDBRANCH   3  13
BRANCH   9  23
ATOM     23  O   UNL     1       9.328   9.782  13.853  1.00  0.00    -0.507 OA
ATOM     24  H   UNL     1       8.438  10.245  13.981  1.00  0.00     0.293 HD
ENDBRANCH   9  23
BRANCH   7  25
ATOM     25  O   UNL     1      12.319  12.548  16.433  1.00  0.00    -0.508 OA
ATOM     26  H   UNL     1      12.872  13.397  16.407  1.00  0.00     0.293 HD
ENDBRANCH   7  25
TORSDOF 6
ENDMDL
MODEL 3
REMARK VINA RESULT:    -6.368      1.390      6.123
REMARK INTER + INTRA:          -8.165
REMARK INTER:                  -7.931
REMARK INTRA:                  -0.234
REMARK UNBOUND:                -0.494
REMARK SMILES Oc1cc(O)c2c(c1)O[C@@H](c1ccc(O)c(O)c1)[C@H](O)C2
REMARK SMILES IDX 21 1 19 2 10 3 9 4 7 5 8 6 2 7 3 8 4 9 6 10 20 11 11 13
REMARK SMILES IDX 18 14 12 15 16 16 13 17 14 18 17 19 15 21 5 23 1 25
REMARK H PARENT 20 12 17 20 15 22 5 24 1 26
REMARK Flexibility Score: inf
ROOT
ATOM      1  C   UNL     1      14.874   8.950  13.931  1.00  0.00     0.079 C 
ATOM      2  C   UNL     1      14.538  10.324  13.326  1.00  0.00     0.164 C 
ATOM      3  C   UNL     1      13.362  10.214  12.333  1.00  0.00     0.232 C 
ATOM      4  O   UNL     1      13.619   9.198  11.359  1.00  0.00    -0.482 OA
ATOM      5  C   UNL     1      14.370   8.047  11.628  1.00  0.00     0.131 A 
ATOM      6  C   UNL     1      14.486   7.070  10.636  1.00  0.00     0.093 A 
ATOM      7  C   UNL     1      15.203   5.897  10.881  1.00  0.00     0.122 A 
ATOM      8  C   UNL     1      15.798   5.694  12.132  1.00  0.00     0.092 A 
ATOM      9  C   UNL     1      15.687   6.660  13.139  1.00  0.00     0.126 A 
ATOM     10  C   UNL     1      15.003   7.871  12.879  1.00  0.00     0.039 A 
ENDROOT
BRANCH   2  11
ATOM     11  O   UNL     1      15.673  10.819  12.661  1.00  0.00    -0.389 OA
ATOM     12  H   UNL     1      16.461  10.362  13.057  1.00  0.00     0.211 HD
ENDBRANCH   2  11
BRANCH   3  13
ATOM     13  C   UNL     1      12.042   9.989  13.048  1.00  0.00    -0.001 A 
ATOM     14  C   UNL     1      11.983  10.158  14.443  1.00  0.00     0.057 A 
ATOM     15  C   UNL     1      10.885   9.566  12.367  1.00  0.00     0.012 A 
ATOM     16  C   UNL     1      10.790   9.928  15.144  1.00  0.00     0.157 A 
ATOM     17  C   UNL     1       9.696   9.337  13.065  1.00  0.00     0.050 A 
ATOM     18  C   UNL     1       9.642   9.517  14.450  1.00  0.00     0.157 A 
BRANCH  16  19
ATOM     19  O   UNL     1      10.745  10.104  16.526  1.00  0.00    -0.504 OA
ATOM     20  H   UNL     1      11.465  10.619  17.020  1.00  0.00     0.293 HD
ENDBRANCH  16  19
BRANCH  18  21
ATOM     21  O   UNL     1       8.440   9.281  15.117  1.00  0.00    -0.504 OA
ATOM     22  H   UNL     1       8.411   8.872  16.044  1.00  0.00     0.293 HD
ENDBRANCH  18  21
ENDBRANCH   3  13
BRANCH   9  23
ATOM     23  O   UNL     1      16.256   6.377  14.383  1.00  0.00    -0.507 OA
ATOM     24  H   UNL     1      16.861   7.020  14.877  1.00  0.00     0.293 HD
ENDBRANCH   9  23
BRANCH   7  25
ATOM     25  O   UNL     1      15.310   4.936   9.879  1.00  0.00    -0.508 OA
ATOM     26  H   UNL     1      16.208   4.685   9.479  1.00  0.00     0.293 HD
ENDBRANCH   7  25
TORSDOF 6
ENDMDL
MODEL 4
REMARK VINA RESULT:    -6.278      1.844      2.470
REMARK INTER + INTRA:          -8.057
REMARK INTER:                  -7.554
REMARK INTRA:                  -0.503
REMARK UNBOUND:                -0.494
REMARK SMILES Oc1cc(O)c2c(c1)O[C@@H](c1ccc(O)c(O)c1)[C@H](O)C2
REMARK SMILES IDX 21 1 19 2 10 3 9 4 7 5 8 6 2 7 3 8 4 9 6 10 20 11 11 13
REMARK SMILES IDX 18 14 12 15 16 16 13 17 14 18 17 19 15 21 5 23 1 25
REMARK H PARENT 20 12 17 20 15 22 5 24 1 26
REMARK Flexibility Score: inf
ROOT
ATOM      1  C   UNL     1      12.995   9.135  10.973  1.00  0.00     0.079 C 
ATOM      2  C   UNL     1      14.444   9.244  10.470  1.00  0.00     0.164 C 
ATOM      3  C   UNL     1      15.437   8.738  11.538  1.00  0.00     0.232 C 
ATOM      4  O   UNL     1      15.207   9.393  12.788  1.00  0.00    -0.482 OA
ATOM      5  C   UNL     1      13.943   9.827  13.208  1.00  0.00     0.131 A 
ATOM      6  C   UNL     1      13.807  10.373  14.488  1.00  0.00     0.093 A 
ATOM      7  C   UNL     1      12.557  10.788  14.949  1.00  0.00     0.122 A 
ATOM      8  C   UNL     1      11.430  10.644  14.131  1.00  0.00     0.092 A 
ATOM      9  C   UNL     1      11.546  10.093  12.849  1.00  0.00     0.126 A 
ATOM     10  C   UNL     1      12.820   9.717  12.358  1.00  0.00     0.039 A 
ENDROOT
BRANCH   2  11
ATOM     11  O   UNL     1      14.721  10.588  10.165  1.00  0.00    -0.389 OA
ATOM     12  H   UNL     1      15.416  10.584   9.455  1.00  0.00     0.211 HD
ENDBRANCH   2  11
BRANCH   3  13
ATOM     13  C   UNL     1      15.392   7.227  11.676  1.00  0.00    -0.001 A 
ATOM     14  C   UNL     1      15.687   6.645  12.921  1.00  0.00     0.057 A 
ATOM     15  C   UNL     1      15.114   6.385  10.582  1.00  0.00     0.012 A 
ATOM     16  C   UNL     1      15.687   5.251  13.079  1.00  0.00     0.157 A 
ATOM     17  C   UNL     1      15.114   4.997  10.739  1.00  0.00     0.050 A 
ATOM     18  C   UNL     1      15.398   4.425  11.983  1.00  0.00     0.157 A 
BRANCH  16  19
ATOM     19  O   UNL     1      15.978   4.688  14.321  1.00  0.00    -0.504 OA
ATOM     20  H   UNL     1      16.289   5.254  15.102  1.00  0.00     0.293 HD
ENDBRANCH  16  19
BRANCH  18  21
ATOM     21  O   UNL     1      15.390   3.035  12.107  1.00  0.00    -0.504 OA
ATOM     22  H   UNL     1      16.007   2.443  11.565  1.00  0.00     0.293 HD
ENDBRANCH  18  21
ENDBRANCH   3  13
BRANCH   9  23
ATOM     23  O   UNL     1      10.380   9.926  12.100  1.00  0.00    -0.507 OA
ATOM     24  H   UNL     1      10.143   9.067  11.622  1.00  0.00     0.293 HD
ENDBRANCH   9  23
BRANCH   7  25
ATOM     25  O   UNL     1      12.442  11.333  16.226  1.00  0.00    -0.508 OA
ATOM     26  H   UNL     1      11.543  11.606  16.607  1.00  0.00     0.293 HD
ENDBRANCH   7  25
TORSDOF 6
ENDMDL
MODEL 5
REMARK VINA RESULT:    -6.276      1.902      6.082
REMARK INTER + INTRA:          -8.054
REMARK INTER:                  -7.968
REMARK INTRA:                  -0.086
REMARK UNBOUND:                -0.494
REMARK SMILES Oc1cc(O)c2c(c1)O[C@@H](c1ccc(O)c(O)c1)[C@H](O)C2
REMARK SMILES IDX 21 1 19 2 10 3 9 4 7 5 8 6 2 7 3 8 4 9 6 10 20 11 11 13
REMARK SMILES IDX 18 14 12 15 16 16 13 17 14 18 17 19 15 21 5 23 1 25
REMARK H PARENT 20 12 17 20 15 22 5 24 1 26
REMARK Flexibility Score: inf
ROOT
ATOM      1  C   UNL     1      14.368  11.463  11.921  1.00  0.00     0.079 C 
ATOM      2  C   UNL     1      13.023  11.951  11.357  1.00  0.00     0.164 C 
ATOM      3  C   UNL     1      11.946  10.853  11.476  1.00  0.00     0.232 C 
ATOM      4  O   UNL     1      12.408   9.630  10.897  1.00  0.00    -0.482 OA
ATOM      5  C   UNL     1      13.754   9.242  10.891  1.00  0.00     0.131 A 
ATOM      6  C   UNL     1      14.093   7.984  10.383  1.00  0.00     0.093 A 
ATOM      7  C   UNL     1      15.420   7.555  10.390  1.00  0.00     0.122 A 
ATOM      8  C   UNL     1      16.417   8.382  10.920  1.00  0.00     0.092 A 
ATOM      9  C   UNL     1      16.096   9.642  11.439  1.00  0.00     0.126 A 
ATOM     10  C   UNL     1      14.758  10.102  11.390  1.00  0.00     0.039 A 
ENDROOT
BRANCH   2  11
ATOM     11  O   UNL     1      13.195  12.300  10.006  1.00  0.00    -0.389 OA
ATOM     12  H   UNL     1      13.846  11.654   9.623  1.00  0.00     0.211 HD
ENDBRANCH   2  11
BRANCH   3  13
ATOM     13  C   UNL     1      11.495  10.662  12.913  1.00  0.00    -0.001 A 
ATOM     14  C   UNL     1      12.056  11.470  13.919  1.00  0.00     0.057 A 
ATOM     15  C   UNL     1      10.570   9.666  13.280  1.00  0.00     0.012 A 
ATOM     16  C   UNL     1      11.689  11.301  15.262  1.00  0.00     0.157 A 
ATOM     17  C   UNL     1      10.205   9.498  14.618  1.00  0.00     0.050 A 
ATOM     18  C   UNL     1      10.758  10.312  15.611  1.00  0.00     0.157 A 
BRANCH  16  19
ATOM     19  O   UNL     1      12.250  12.112  16.247  1.00  0.00    -0.504 OA
ATOM     20  H   UNL     1      11.806  12.973  16.543  1.00  0.00     0.293 HD
ENDBRANCH  16  19
BRANCH  18  21
ATOM     21  O   UNL     1      10.372  10.119  16.938  1.00  0.00    -0.504 OA
ATOM     22  H   UNL     1      10.044  10.882  17.519  1.00  0.00     0.293 HD
ENDBRANCH  18  21
ENDBRANCH   3  13
BRANCH   9  23
ATOM     23  O   UNL     1      17.125  10.400  12.003  1.00  0.00    -0.507 OA
ATOM     24  H   UNL     1      17.546  11.196  11.543  1.00  0.00     0.293 HD
ENDBRANCH   9  23
BRANCH   7  25
ATOM     25  O   UNL     1      15.739   6.300   9.875  1.00  0.00    -0.508 OA
ATOM     26  H   UNL     1      15.503   6.042   8.923  1.00  0.00     0.293 HD
ENDBRANCH   7  25
TORSDOF 6
ENDMDL
MODEL 6
REMARK VINA RESULT:    -5.431     12.935     15.351
REMARK INTER + INTRA:          -7.037
REMARK INTER:                  -7.020
REMARK INTRA:                  -0.017
REMARK UNBOUND:                -0.494
REMARK SMILES Oc1cc(O)c2c(c1)O[C@@H](c1ccc(O)c(O)c1)[C@H](O)C2
REMARK SMILES IDX 21 1 19 2 10 3 9 4 7 5 8 6 2 7 3 8 4 9 6 10 20 11 11 13
REMARK SMILES IDX 18 14 12 15 16 16 13 17 14 18 17 19 15 21 5 23 1 25
REMARK H PARENT 20 12 17 20 15 22 5 24 1 26
REMARK Flexibility Score: inf
ROOT
ATOM      1  C   UNL     1       5.368   4.376  22.134  1.00  0.00     0.079 C 
ATOM      2  C   UNL     1       4.181   5.302  21.821  1.00  0.00     0.164 C 
ATOM      3  C   UNL     1       3.257   5.447  23.049  1.00  0.00     0.232 C 
ATOM      4  O   UNL     1       2.875   4.161  23.546  1.00  0.00    -0.482 OA
ATOM      5  C   UNL     1       3.695   3.029  23.461  1.00  0.00     0.131 A 
ATOM      6  C   UNL     1       3.268   1.840  24.060  1.00  0.00     0.093 A 
ATOM      7  C   UNL     1       4.075   0.702  24.021  1.00  0.00     0.122 A 
ATOM      8  C   UNL     1       5.323   0.754  23.390  1.00  0.00     0.092 A 
ATOM      9  C   UNL     1       5.770   1.938  22.791  1.00  0.00     0.126 A 
ATOM     10  C   UNL     1       4.935   3.081  22.786  1.00  0.00     0.039 A 
ENDROOT
BRANCH   2  11
ATOM     11  O   UNL     1       3.454   4.763  20.745  1.00  0.00    -0.389 OA
ATOM     12  H   UNL     1       4.096   4.645  19.996  1.00  0.00     0.211 HD
ENDBRANCH   2  11
BRANCH   3  13
ATOM     13  C   UNL     1       3.892   6.304  24.130  1.00  0.00    -0.001 A 
ATOM     14  C   UNL     1       3.486   7.643  24.267  1.00  0.00     0.057 A 
ATOM     15  C   UNL     1       4.913   5.815  24.968  1.00  0.00     0.012 A 
ATOM     16  C   UNL     1       4.072   8.475  25.232  1.00  0.00     0.157 A 
ATOM     17  C   UNL     1       5.496   6.644  25.929  1.00  0.00     0.050 A 
ATOM     18  C   UNL     1       5.080   7.971  26.067  1.00  0.00     0.157 A 
BRANCH  16  19
ATOM     19  O   UNL     1       3.656   9.800  25.359  1.00  0.00    -0.504 OA
ATOM     20  H   UNL     1       2.697  10.036  25.584  1.00  0.00     0.293 HD
ENDBRANCH  16  19
BRANCH  18  21
ATOM     21  O   UNL     1       5.683   8.773  27.037  1.00  0.00    -0.504 OA
ATOM     22  H   UNL     1       5.165   9.147  27.823  1.00  0.00     0.293 HD
ENDBRANCH  18  21
ENDBRANCH   3  13
BRANCH   9  23
ATOM     23  O   UNL     1       7.046   1.944  22.224  1.00  0.00    -0.507 OA
ATOM     24  H   UNL     1       7.829   2.446  22.621  1.00  0.00     0.293 HD
ENDBRANCH   9  23
BRANCH   7  25
ATOM     25  O   UNL     1       3.631  -0.476  24.619  1.00  0.00    -0.508 OA
ATOM     26  H   UNL     1       2.688  -0.563  24.980  1.00  0.00     0.293 HD
ENDBRANCH   7  25
TORSDOF 6
ENDMDL
MODEL 7
REMARK VINA RESULT:    -5.347     14.390     16.355
REMARK INTER + INTRA:          -6.935
REMARK INTER:                  -6.593
REMARK INTRA:                  -0.342
REMARK UNBOUND:                -0.494
REMARK SMILES Oc1cc(O)c2c(c1)O[C@@H](c1ccc(O)c(O)c1)[C@H](O)C2
REMARK SMILES IDX 21 1 19 2 10 3 9 4 7 5 8 6 2 7 3 8 4 9 6 10 20 11 11 13
REMARK SMILES IDX 18 14 12 15 16 16 13 17 14 18 17 19 15 21 5 23 1 25
REMARK H PARENT 20 12 17 20 15 22 5 24 1 26
REMARK Flexibility Score: inf
ROOT
ATOM      1  C   UNL     1      19.649  -4.381  15.110  1.00  0.00     0.079 C 
ATOM      2  C   UNL     1      19.727  -5.908  15.270  1.00  0.00     0.164 C 
ATOM      3  C   UNL     1      19.094  -6.355  16.605  1.00  0.00     0.232 C 
ATOM      4  O   UNL     1      19.661  -5.628  17.698  1.00  0.00    -0.482 OA
ATOM      5  C   UNL     1      20.121  -4.309  17.590  1.00  0.00     0.131 A 
ATOM      6  C   UNL     1      20.572  -3.655  18.739  1.00  0.00     0.093 A 
ATOM      7  C   UNL     1      21.008  -2.331  18.672  1.00  0.00     0.122 A 
ATOM      8  C   UNL     1      20.982  -1.651  17.449  1.00  0.00     0.092 A 
ATOM      9  C   UNL     1      20.527  -2.289  16.288  1.00  0.00     0.126 A 
ATOM     10  C   UNL     1      20.130  -3.646  16.343  1.00  0.00     0.039 A 
ENDROOT
BRANCH   2  11
ATOM     11  O   UNL     1      21.076  -6.303  15.231  1.00  0.00    -0.389 OA
ATOM     12  H   UNL     1      21.086  -7.275  15.031  1.00  0.00     0.211 HD
ENDBRANCH   2  11
BRANCH   3  13
ATOM     13  C   UNL     1      17.580  -6.240  16.574  1.00  0.00    -0.001 A 
ATOM     14  C   UNL     1      16.954  -5.253  17.355  1.00  0.00     0.057 A 
ATOM     15  C   UNL     1      16.779  -7.125  15.828  1.00  0.00     0.012 A 
ATOM     16  C   UNL     1      15.556  -5.137  17.378  1.00  0.00     0.157 A 
ATOM     17  C   UNL     1      15.387  -7.009  15.851  1.00  0.00     0.050 A 
ATOM     18  C   UNL     1      14.771  -6.018  16.621  1.00  0.00     0.157 A 
BRANCH  16  19
ATOM     19  O   UNL     1      14.949  -4.150  18.154  1.00  0.00    -0.504 OA
ATOM     20  H   UNL     1      14.171  -3.604  17.805  1.00  0.00     0.293 HD
ENDBRANCH  16  19
BRANCH  18  21
ATOM     21  O   UNL     1      13.379  -5.929  16.622  1.00  0.00    -0.504 OA
ATOM     22  H   UNL     1      12.855  -5.686  15.790  1.00  0.00     0.293 HD
ENDBRANCH  18  21
ENDBRANCH   3  13
BRANCH   9  23
ATOM     23  O   UNL     1      20.474  -1.543  15.109  1.00  0.00    -0.507 OA
ATOM     24  H   UNL     1      20.394  -1.958  14.191  1.00  0.00     0.293 HD
ENDBRANCH   9  23
BRANCH   7  25
ATOM     25  O   UNL     1      21.459  -1.696  19.827  1.00  0.00    -0.508 OA
ATOM     26  H   UNL     1      22.214  -1.020  19.801  1.00  0.00     0.293 HD
ENDBRANCH   7  25
TORSDOF 6
ENDMDL
MODEL 8
REMARK VINA RESULT:    -5.027      4.453      8.656
REMARK INTER + INTRA:          -6.550
REMARK INTER:                  -6.096
REMARK INTRA:                  -0.454
REMARK UNBOUND:                -0.494
REMARK SMILES Oc1cc(O)c2c(c1)O[C@@H](c1ccc(O)c(O)c1)[C@H](O)C2
REMARK SMILES IDX 21 1 19 2 10 3 9 4 7 5 8 6 2 7 3 8 4 9 6 10 20 11 11 13
REMARK SMILES IDX 18 14 12 15 16 16 13 17 14 18 17 19 15 21 5 23 1 25
REMARK H PARENT 20 12 17 20 15 22 5 24 1 26
REMARK Flexibility Score: inf
ROOT
ATOM      1  C   UNL     1      17.927   3.159  10.746  1.00  0.00     0.079 C 
ATOM      2  C   UNL     1      16.525   2.924  10.159  1.00  0.00     0.164 C 
ATOM      3  C   UNL     1      15.431   3.373  11.151  1.00  0.00     0.232 C 
ATOM      4  O   UNL     1      15.633   2.767  12.431  1.00  0.00    -0.482 OA
ATOM      5  C   UNL     1      16.899   2.445  12.938  1.00  0.00     0.131 A 
ATOM      6  C   UNL     1      16.996   1.941  14.238  1.00  0.00     0.093 A 
ATOM      7  C   UNL     1      18.244   1.639  14.785  1.00  0.00     0.122 A 
ATOM      8  C   UNL     1      19.404   1.853  14.033  1.00  0.00     0.092 A 
ATOM      9  C   UNL     1      19.326   2.362  12.731  1.00  0.00     0.126 A 
ATOM     10  C   UNL     1      18.060   2.625  12.155  1.00  0.00     0.039 A 
ENDROOT
BRANCH   2  11
ATOM     11  O   UNL     1      16.373   1.555   9.876  1.00  0.00    -0.389 OA
ATOM     12  H   UNL     1      17.125   1.300   9.280  1.00  0.00     0.211 HD
ENDBRANCH   2  11
BRANCH   3  13
ATOM     13  C   UNL     1      15.350   4.886  11.249  1.00  0.00    -0.001 A 
ATOM     14  C   UNL     1      15.527   5.501  12.501  1.00  0.00     0.057 A 
ATOM     15  C   UNL     1      15.051   5.692  10.134  1.00  0.00     0.012 A 
ATOM     16  C   UNL     1      15.427   6.893  12.637  1.00  0.00     0.157 A 
ATOM     17  C   UNL     1      14.951   7.079  10.269  1.00  0.00     0.050 A 
ATOM     18  C   UNL     1      15.139   7.685  11.514  1.00  0.00     0.157 A 
BRANCH  16  19
ATOM     19  O   UNL     1      15.609   7.489  13.884  1.00  0.00    -0.504 OA
ATOM     20  H   UNL     1      15.071   7.203  14.693  1.00  0.00     0.293 HD
ENDBRANCH  16  19
BRANCH  18  21
ATOM     21  O   UNL     1      15.033   9.072  11.617  1.00  0.00    -0.504 OA
ATOM     22  H   UNL     1      15.224   9.563  12.481  1.00  0.00     0.293 HD
ENDBRANCH  18  21
ENDBRANCH   3  13
BRANCH   9  23
ATOM     23  O   UNL     1      20.521   2.604  12.050  1.00  0.00    -0.507 OA
ATOM     24  H   UNL     1      20.568   2.783  11.056  1.00  0.00     0.293 HD
ENDBRANCH   9  23
BRANCH   7  25
ATOM     25  O   UNL     1      18.321   1.133  16.082  1.00  0.00    -0.508 OA
ATOM     26  H   UNL     1      19.125   0.602  16.396  1.00  0.00     0.293 HD
ENDBRANCH   7  25
TORSDOF 6
ENDMDL
MODEL 9
REMARK VINA RESULT:    -4.951      6.763      9.448
REMARK INTER + INTRA:          -6.459
REMARK INTER:                  -6.014
REMARK INTRA:                  -0.445
REMARK UNBOUND:                -0.494
REMARK SMILES Oc1cc(O)c2c(c1)O[C@@H](c1ccc(O)c(O)c1)[C@H](O)C2
REMARK SMILES IDX 21 1 19 2 10 3 9 4 7 5 8 6 2 7 3 8 4 9 6 10 20 11 11 13
REMARK SMILES IDX 18 14 12 15 16 16 13 17 14 18 17 19 15 21 5 23 1 25
REMARK H PARENT 20 12 17 20 15 22 5 24 1 26
REMARK Flexibility Score: inf
ROOT
ATOM      1  C   UNL     1      17.865   1.856  14.132  1.00  0.00     0.079 C 
ATOM      2  C   UNL     1      18.989   1.033  13.480  1.00  0.00     0.164 C 
ATOM      3  C   UNL     1      19.706   1.851  12.385  1.00  0.00     0.232 C 
ATOM      4  O   UNL     1      18.760   2.380  11.453  1.00  0.00    -0.482 OA
ATOM      5  C   UNL     1      17.453   2.743  11.804  1.00  0.00     0.131 A 
ATOM      6  C   UNL     1      16.635   3.338  10.840  1.00  0.00     0.093 A 
ATOM      7  C   UNL     1      15.338   3.739  11.165  1.00  0.00     0.122 A 
ATOM      8  C   UNL     1      14.859   3.555  12.467  1.00  0.00     0.092 A 
ATOM      9  C   UNL     1      15.667   2.967  13.448  1.00  0.00     0.126 A 
ATOM     10  C   UNL     1      16.965   2.514  13.110  1.00  0.00     0.039 A 
ENDROOT
BRANCH   2  11
ATOM     11  O   UNL     1      18.435  -0.129  12.916  1.00  0.00    -0.389 OA
ATOM     12  H   UNL     1      18.311   0.052  11.947  1.00  0.00     0.211 HD
ENDBRANCH   2  11
BRANCH   3  13
ATOM     13  C   UNL     1      20.582   2.939  12.980  1.00  0.00    -0.001 A 
ATOM     14  C   UNL     1      20.334   4.280  12.638  1.00  0.00     0.057 A 
ATOM     15  C   UNL     1      21.669   2.644  13.825  1.00  0.00     0.012 A 
ATOM     16  C   UNL     1      21.142   5.310  13.141  1.00  0.00     0.157 A 
ATOM     17  C   UNL     1      22.474   3.670  14.327  1.00  0.00     0.050 A 
ATOM     18  C   UNL     1      22.215   5.002  13.991  1.00  0.00     0.157 A 
BRANCH  16  19
ATOM     19  O   UNL     1      20.882   6.635  12.796  1.00  0.00    -0.504 OA
ATOM     20  H   UNL     1      20.820   7.364  13.497  1.00  0.00     0.293 HD
ENDBRANCH  16  19
BRANCH  18  21
ATOM     21  O   UNL     1      23.037   6.003  14.509  1.00  0.00    -0.504 OA
ATOM     22  H   UNL     1      23.112   6.176  15.504  1.00  0.00     0.293 HD
ENDBRANCH  18  21
ENDBRANCH   3  13
BRANCH   9  23
ATOM     23  O   UNL     1      15.152   2.859  14.742  1.00  0.00    -0.507 OA
ATOM     24  H   UNL     1      14.521   2.124  15.030  1.00  0.00     0.293 HD
ENDBRANCH   9  23
BRANCH   7  25
ATOM     25  O   UNL     1      14.536   4.327  10.189  1.00  0.00    -0.508 OA
ATOM     26  H   UNL     1      14.136   3.783   9.433  1.00  0.00     0.293 HD
ENDBRANCH   7  25
TORSDOF 6
ENDMDL
