MODEL 1
REMARK VINA RESULT:    -5.290      0.000      0.000
REMARK INTER + INTRA:         -12.000
REMARK INTER:                  -9.619
REMARK INTRA:                  -2.381
REMARK UNBOUND:                -2.381
REMARK SMILES CCCCCCCCCCCCCCCC(=O)[O-]
REMARK SMILES IDX 9 1 10 2 11 3 12 4 13 5 14 6 15 7 16 8 17 9 18 10 8 11 7 12
REMARK SMILES IDX 6 13 5 14 4 15 3 16 2 17 1 18
REMARK H PARENT
REMARK Flexibility Score: inf
ROOT
ATOM      1  C   UNL     1      56.108  17.160   0.459  1.00  0.00     0.000 C 
ENDROOT
BRANCH   1   2
ATOM      2  C   UNL     1      55.152  17.849   1.440  1.00  0.00     0.000 C 
BRANCH   2   3
ATOM      3  C   UNL     1      54.660  16.869   2.512  1.00  0.00     0.000 C 
BRANCH   3   4
ATOM      4  C   UNL     1      53.158  16.588   2.356  1.00  0.00     0.000 C 
BRANCH   4   5
ATOM      5  C   UNL     1      52.325  17.885   2.298  1.00  0.00     0.000 C 
BRANCH   5   6
ATOM      6  C   UNL     1      51.056  17.765   1.435  1.00  0.00     0.006 C 
BRANCH   6   7
ATOM      7  C   UNL     1      49.765  17.811   2.261  1.00  0.00     0.053 C 
BRANCH   7   8
ATOM      8  C   UNL     1      48.908  18.957   1.826  1.00  0.00     0.041 C 
ATOM      9  O   UNL     1      47.837  19.213   2.436  1.00  0.00    -0.550 OA
ATOM     10  O   UNL     1      49.266  19.712   0.717  1.00  0.00    -0.550 OA
ENDBRANCH   7   8
ENDBRANCH   6   7
ENDBRANCH   5   6
ENDBRANCH   4   5
ENDBRANCH   3   4
ENDBRANCH   2   3
ENDBRANCH   1   2
BRANCH   1  11
ATOM     11  C   UNL     1      55.563  17.221  -0.975  1.00  0.00     0.000 C 
BRANCH  11  12
ATOM     12  C   UNL     1      54.194  17.918  -1.070  1.00  0.00    -0.000 C 
BRANCH  12  13
ATOM     13  C   UNL     1      53.032  17.019  -1.530  1.00  0.00    -0.000 C 
BRANCH  13  14
ATOM     14  C   UNL     1      53.474  15.577  -1.833  1.00  0.00    -0.000 C 
BRANCH  14  15
ATOM     15  C   UNL     1      53.133  14.604  -0.692  1.00  0.00    -0.000 C 
BRANCH  15  16
ATOM     16  C   UNL     1      54.162  13.472  -0.551  1.00  0.00    -0.000 C 
BRANCH  16  17
ATOM     17  C   UNL     1      55.092  13.724   0.642  1.00  0.00    -0.003 C 
ATOM     18  C   UNL     1      56.540  13.389   0.293  1.00  0.00     0.004 C 
ENDBRANCH  16  17
ENDBRANCH  15  16
ENDBRANCH  14  15
ENDBRANCH  13  14
ENDBRANCH  12  13
ENDBRANCH  11  12
ENDBRANCH   1  11
TORSDOF 14
ENDMDL
MODEL 2
REMARK VINA RESULT:    -5.268      1.823      3.940
REMARK INTER + INTRA:         -11.960
REMARK INTER:                  -9.749
REMARK INTRA:                  -2.211
REMARK UNBOUND:                -2.381
REMARK SMILES CCCCCCCCCCCCCCCC(=O)[O-]
REMARK SMILES IDX 9 1 10 2 11 3 12 4 13 5 14 6 15 7 16 8 17 9 18 10 8 11 7 12
REMARK SMILES IDX 6 13 5 14 4 15 3 16 2 17 1 18
REMARK H PARENT
REMARK Flexibility Score: inf
ROOT
ATOM      1  C   UNL     1      52.834  15.380   1.610  1.00  0.00     0.000 C 
ENDROOT
BRANCH   1   2
ATOM      2  C   UNL     1      54.044  14.457   1.432  1.00  0.00     0.000 C 
BRANCH   2   3
ATOM      3  C   UNL     1      54.120  13.916  -0.000  1.00  0.00     0.000 C 
BRANCH   3   4
ATOM      4  C   UNL     1      53.042  14.552  -0.890  1.00  0.00     0.000 C 
BRANCH   4   5
ATOM      5  C   UNL     1      53.593  15.725  -1.728  1.00  0.00     0.000 C 
BRANCH   5   6
ATOM      6  C   UNL     1      52.519  16.749  -2.136  1.00  0.00     0.006 C 
BRANCH   6   7
ATOM      7  C   UNL     1      52.473  17.968  -1.207  1.00  0.00     0.053 C 
BRANCH   7   8
ATOM      8  C   UNL     1      51.058  18.307  -0.860  1.00  0.00     0.041 C 
ATOM      9  O   UNL     1      50.266  18.707  -1.752  1.00  0.00    -0.550 OA
ATOM     10  O   UNL     1      50.627  18.228   0.458  1.00  0.00    -0.550 OA
ENDBRANCH   7   8
ENDBRANCH   6   7
ENDBRANCH   5   6
ENDBRANCH   4   5
ENDBRANCH   3   4
ENDBRANCH   2   3
ENDBRANCH   1   2
BRANCH   1  11
ATOM     11  C   UNL     1      53.251  16.723   2.227  1.00  0.00     0.000 C 
BRANCH  11  12
ATOM     12  C   UNL     1      54.776  16.934   2.233  1.00  0.00    -0.000 C 
BRANCH  12  13
ATOM     13  C   UNL     1      55.313  17.868   1.133  1.00  0.00    -0.000 C 
BRANCH  13  14
ATOM     14  C   UNL     1      56.222  17.144   0.125  1.00  0.00    -0.000 C 
BRANCH  14  15
ATOM     15  C   UNL     1      57.378  16.392   0.806  1.00  0.00    -0.000 C 
BRANCH  15  16
ATOM     16  C   UNL     1      57.589  14.984   0.231  1.00  0.00    -0.000 C 
BRANCH  16  17
ATOM     17  C   UNL     1      58.857  14.342   0.807  1.00  0.00    -0.003 C 
ATOM     18  C   UNL     1      59.847  15.404   1.280  1.00  0.00     0.004 C 
ENDBRANCH  16  17
ENDBRANCH  15  16
ENDBRANCH  14  15
ENDBRANCH  13  14
ENDBRANCH  12  13
ENDBRANCH  11  12
ENDBRANCH   1  11
TORSDOF 14
ENDMDL
MODEL 3
REMARK VINA RESULT:    -5.213      3.939      6.697
REMARK INTER + INTRA:         -11.860
REMARK INTER:                  -9.768
REMARK INTRA:                  -2.092
REMARK UNBOUND:                -2.381
REMARK SMILES CCCCCCCCCCCCCCCC(=O)[O-]
REMARK SMILES IDX 9 1 10 2 11 3 12 4 13 5 14 6 15 7 16 8 17 9 18 10 8 11 7 12
REMARK SMILES IDX 6 13 5 14 4 15 3 16 2 17 1 18
REMARK H PARENT
REMARK Flexibility Score: inf
ROOT
ATOM      1  C   UNL     1      52.979  16.909  -1.244  1.00  0.00     0.000 C 
ENDROOT
BRANCH   1   2
ATOM      2  C   UNL     1      53.492  15.605  -1.865  1.00  0.00     0.000 C 
BRANCH   2   3
ATOM      3  C   UNL     1      53.164  14.401  -0.974  1.00  0.00     0.000 C 
BRANCH   3   4
ATOM      4  C   UNL     1      54.324  14.090  -0.016  1.00  0.00     0.000 C 
BRANCH   4   5
ATOM      5  C   UNL     1      54.898  12.675  -0.236  1.00  0.00     0.000 C 
BRANCH   5   6
ATOM      6  C   UNL     1      56.431  12.607  -0.117  1.00  0.00     0.006 C 
BRANCH   6   7
ATOM      7  C   UNL     1      57.067  13.968   0.186  1.00  0.00     0.053 C 
BRANCH   7   8
ATOM      8  C   UNL     1      58.486  13.795   0.630  1.00  0.00     0.041 C 
ATOM      9  O   UNL     1      59.078  14.727   1.234  1.00  0.00    -0.550 OA
ATOM     10  O   UNL     1      59.169  12.623   0.334  1.00  0.00    -0.550 OA
ENDBRANCH   7   8
ENDBRANCH   6   7
ENDBRANCH   5   6
ENDBRANCH   4   5
ENDBRANCH   3   4
ENDBRANCH   2   3
ENDBRANCH   1   2
BRANCH   1  11
ATOM     11  C   UNL     1      54.113  17.932  -1.093  1.00  0.00     0.000 C 
BRANCH  11  12
ATOM     12  C   UNL     1      55.498  17.278  -0.942  1.00  0.00    -0.000 C 
BRANCH  12  13
ATOM     13  C   UNL     1      56.084  17.306   0.482  1.00  0.00    -0.000 C 
BRANCH  13  14
ATOM     14  C   UNL     1      55.127  17.933   1.511  1.00  0.00    -0.000 C 
BRANCH  14  15
ATOM     15  C   UNL     1      54.564  16.898   2.499  1.00  0.00    -0.000 C 
BRANCH  15  16
ATOM     16  C   UNL     1      53.077  16.598   2.261  1.00  0.00    -0.000 C 
BRANCH  16  17
ATOM     17  C   UNL     1      52.225  17.857   2.463  1.00  0.00    -0.003 C 
ATOM     18  C   UNL     1      50.904  17.758   1.703  1.00  0.00     0.004 C 
ENDBRANCH  16  17
ENDBRANCH  15  16
ENDBRANCH  14  15
ENDBRANCH  13  14
ENDBRANCH  12  13
ENDBRANCH  11  12
ENDBRANCH   1  11
TORSDOF 14
ENDMDL
MODEL 4
REMARK VINA RESULT:    -5.211      1.800      3.206
REMARK INTER + INTRA:         -11.856
REMARK INTER:                  -9.388
REMARK INTRA:                  -2.468
REMARK UNBOUND:                -2.381
REMARK SMILES CCCCCCCCCCCCCCCC(=O)[O-]
REMARK SMILES IDX 9 1 10 2 11 3 12 4 13 5 14 6 15 7 16 8 17 9 18 10 8 11 7 12
REMARK SMILES IDX 6 13 5 14 4 15 3 16 2 17 1 18
REMARK H PARENT
REMARK Flexibility Score: inf
ROOT
ATOM      1  C   UNL     1      56.184  17.249   0.437  1.00  0.00     0.000 C 
ENDROOT
BRANCH   1   2
ATOM      2  C   UNL     1      55.577  17.115  -0.964  1.00  0.00     0.000 C 
BRANCH   2   3
ATOM      3  C   UNL     1      54.243  17.865  -1.062  1.00  0.00     0.000 C 
BRANCH   3   4
ATOM      4  C   UNL     1      53.255  17.120  -1.971  1.00  0.00     0.000 C 
BRANCH   4   5
ATOM      5  C   UNL     1      51.786  17.455  -1.636  1.00  0.00     0.000 C 
BRANCH   5   6
ATOM      6  C   UNL     1      51.617  18.771  -0.855  1.00  0.00     0.006 C 
BRANCH   6   7
ATOM      7  C   UNL     1      50.150  19.187  -0.698  1.00  0.00     0.053 C 
BRANCH   7   8
ATOM      8  C   UNL     1      49.838  20.346  -1.593  1.00  0.00     0.041 C 
ATOM      9  O   UNL     1      50.769  20.983  -2.152  1.00  0.00    -0.550 OA
ATOM     10  O   UNL     1      48.522  20.753  -1.768  1.00  0.00    -0.550 OA
ENDBRANCH   7   8
ENDBRANCH   6   7
ENDBRANCH   5   6
ENDBRANCH   4   5
ENDBRANCH   3   4
ENDBRANCH   2   3
ENDBRANCH   1   2
BRANCH   1  11
ATOM     11  C   UNL     1      55.242  18.016   1.375  1.00  0.00     0.000 C 
BRANCH  11  12
ATOM     12  C   UNL     1      54.617  17.124   2.463  1.00  0.00    -0.000 C 
BRANCH  12  13
ATOM     13  C   UNL     1      53.078  17.115   2.499  1.00  0.00    -0.000 C 
BRANCH  13  14
ATOM     14  C   UNL     1      52.464  16.019   1.611  1.00  0.00    -0.000 C 
BRANCH  14  15
ATOM     15  C   UNL     1      53.446  14.870   1.329  1.00  0.00    -0.000 C 
BRANCH  15  16
ATOM     16  C   UNL     1      53.326  14.325  -0.102  1.00  0.00    -0.000 C 
BRANCH  16  17
ATOM     17  C   UNL     1      54.425  13.296  -0.390  1.00  0.00    -0.003 C 
ATOM     18  C   UNL     1      55.698  13.614   0.392  1.00  0.00     0.004 C 
ENDBRANCH  16  17
ENDBRANCH  15  16
ENDBRANCH  14  15
ENDBRANCH  13  14
ENDBRANCH  12  13
ENDBRANCH  11  12
ENDBRANCH   1  11
TORSDOF 14
ENDMDL
MODEL 5
REMARK VINA RESULT:    -5.175      1.732      3.166
REMARK INTER + INTRA:         -11.791
REMARK INTER:                  -9.378
REMARK INTRA:                  -2.413
REMARK UNBOUND:                -2.381
REMARK SMILES CCCCCCCCCCCCCCCC(=O)[O-]
REMARK SMILES IDX 9 1 10 2 11 3 12 4 13 5 14 6 15 7 16 8 17 9 18 10 8 11 7 12
REMARK SMILES IDX 6 13 5 14 4 15 3 16 2 17 1 18
REMARK H PARENT
REMARK Flexibility Score: inf
ROOT
ATOM      1  C   UNL     1      55.149  17.944   1.503  1.00  0.00     0.000 C 
ENDROOT
BRANCH   1   2
ATOM      2  C   UNL     1      56.277  17.235   0.745  1.00  0.00     0.000 C 
BRANCH   2   3
ATOM      3  C   UNL     1      55.934  17.084  -0.742  1.00  0.00     0.000 C 
BRANCH   3   4
ATOM      4  C   UNL     1      54.562  17.697  -1.058  1.00  0.00     0.000 C 
BRANCH   4   5
ATOM      5  C   UNL     1      53.668  16.739  -1.872  1.00  0.00     0.000 C 
BRANCH   5   6
ATOM      6  C   UNL     1      52.173  17.105  -1.829  1.00  0.00     0.006 C 
BRANCH   6   7
ATOM      7  C   UNL     1      51.874  18.286  -0.899  1.00  0.00     0.053 C 
BRANCH   7   8
ATOM      8  C   UNL     1      50.645  19.010  -1.352  1.00  0.00     0.041 C 
ATOM      9  O   UNL     1      49.892  19.565  -0.510  1.00  0.00    -0.550 OA
ATOM     10  O   UNL     1      50.306  19.028  -2.698  1.00  0.00    -0.550 OA
ENDBRANCH   7   8
ENDBRANCH   6   7
ENDBRANCH   5   6
ENDBRANCH   4   5
ENDBRANCH   3   4
ENDBRANCH   2   3
ENDBRANCH   1   2
BRANCH   1  11
ATOM     11  C   UNL     1      54.503  17.006   2.532  1.00  0.00     0.000 C 
BRANCH  11  12
ATOM     12  C   UNL     1      53.020  16.718   2.236  1.00  0.00    -0.000 C 
BRANCH  12  13
ATOM     13  C   UNL     1      52.744  15.404   1.483  1.00  0.00    -0.000 C 
BRANCH  13  14
ATOM     14  C   UNL     1      53.956  14.456   1.470  1.00  0.00    -0.000 C 
BRANCH  14  15
ATOM     15  C   UNL     1      54.280  13.931   0.061  1.00  0.00    -0.000 C 
BRANCH  15  16
ATOM     16  C   UNL     1      55.438  12.923   0.056  1.00  0.00    -0.000 C 
BRANCH  16  17
ATOM     17  C   UNL     1      56.786  13.637   0.206  1.00  0.00    -0.003 C 
ATOM     18  C   UNL     1      57.949  12.662   0.037  1.00  0.00     0.004 C 
ENDBRANCH  16  17
ENDBRANCH  15  16
ENDBRANCH  14  15
ENDBRANCH  13  14
ENDBRANCH  12  13
ENDBRANCH  11  12
ENDBRANCH   1  11
TORSDOF 14
ENDMDL
MODEL 6
REMARK VINA RESULT:    -5.165      1.412      3.671
REMARK INTER + INTRA:         -11.773
REMARK INTER:                  -9.629
REMARK INTRA:                  -2.144
REMARK UNBOUND:                -2.381
REMARK SMILES CCCCCCCCCCCCCCCC(=O)[O-]
REMARK SMILES IDX 9 1 10 2 11 3 12 4 13 5 14 6 15 7 16 8 17 9 18 10 8 11 7 12
REMARK SMILES IDX 6 13 5 14 4 15 3 16 2 17 1 18
REMARK H PARENT
REMARK Flexibility Score: inf
ROOT
ATOM      1  C   UNL     1      54.087  13.984   0.070  1.00  0.00     0.000 C 
ENDROOT
BRANCH   1   2
ATOM      2  C   UNL     1      52.992  14.674  -0.751  1.00  0.00     0.000 C 
BRANCH   2   3
ATOM      3  C   UNL     1      53.593  15.463  -1.920  1.00  0.00     0.000 C 
BRANCH   3   4
ATOM      4  C   UNL     1      53.367  16.972  -1.743  1.00  0.00     0.000 C 
BRANCH   4   5
ATOM      5  C   UNL     1      51.882  17.362  -1.900  1.00  0.00     0.000 C 
BRANCH   5   6
ATOM      6  C   UNL     1      51.470  18.577  -1.049  1.00  0.00     0.006 C 
BRANCH   6   7
ATOM      7  C   UNL     1      51.103  18.200   0.391  1.00  0.00     0.053 C 
BRANCH   7   8
ATOM      8  C   UNL     1      50.128  19.184   0.957  1.00  0.00     0.041 C 
ATOM      9  O   UNL     1      49.074  19.463   0.328  1.00  0.00    -0.550 OA
ATOM     10  O   UNL     1      50.408  19.830   2.154  1.00  0.00    -0.550 OA
ENDBRANCH   7   8
ENDBRANCH   6   7
ENDBRANCH   5   6
ENDBRANCH   4   5
ENDBRANCH   3   4
ENDBRANCH   2   3
ENDBRANCH   1   2
BRANCH   1  11
ATOM     11  C   UNL     1      54.002  14.386   1.550  1.00  0.00     0.000 C 
BRANCH  11  12
ATOM     12  C   UNL     1      53.376  15.776   1.761  1.00  0.00    -0.000 C 
BRANCH  12  13
ATOM     13  C   UNL     1      54.286  16.807   2.452  1.00  0.00    -0.000 C 
BRANCH  13  14
ATOM     14  C   UNL     1      55.039  17.705   1.455  1.00  0.00    -0.000 C 
BRANCH  14  15
ATOM     15  C   UNL     1      56.491  17.249   1.230  1.00  0.00    -0.000 C 
BRANCH  15  16
ATOM     16  C   UNL     1      56.656  16.405  -0.042  1.00  0.00    -0.000 C 
BRANCH  16  17
ATOM     17  C   UNL     1      57.829  15.427   0.099  1.00  0.00    -0.003 C 
ATOM     18  C   UNL     1      59.018  16.088   0.792  1.00  0.00     0.004 C 
ENDBRANCH  16  17
ENDBRANCH  15  16
ENDBRANCH  14  15
ENDBRANCH  13  14
ENDBRANCH  12  13
ENDBRANCH  11  12
ENDBRANCH   1  11
TORSDOF 14
ENDMDL
MODEL 7
REMARK VINA RESULT:    -5.060      3.971      6.246
REMARK INTER + INTRA:         -11.581
REMARK INTER:                  -9.358
REMARK INTRA:                  -2.224
REMARK UNBOUND:                -2.381
REMARK SMILES CCCCCCCCCCCCCCCC(=O)[O-]
REMARK SMILES IDX 9 1 10 2 11 3 12 4 13 5 14 6 15 7 16 8 17 9 18 10 8 11 7 12
REMARK SMILES IDX 6 13 5 14 4 15 3 16 2 17 1 18
REMARK H PARENT
REMARK Flexibility Score: inf
ROOT
ATOM      1  C   UNL     1      53.482  14.797   0.752  1.00  0.00     0.000 C 
ENDROOT
BRANCH   1   2
ATOM      2  C   UNL     1      52.525  15.525   1.703  1.00  0.00     0.000 C 
BRANCH   2   3
ATOM      3  C   UNL     1      53.090  16.889   2.116  1.00  0.00     0.000 C 
BRANCH   3   4
ATOM      4  C   UNL     1      54.613  16.823   2.304  1.00  0.00     0.000 C 
BRANCH   4   5
ATOM      5  C   UNL     1      55.356  17.837   1.410  1.00  0.00     0.000 C 
BRANCH   5   6
ATOM      6  C   UNL     1      56.793  17.411   1.058  1.00  0.00     0.006 C 
BRANCH   6   7
ATOM      7  C   UNL     1      56.858  16.046   0.364  1.00  0.00     0.053 C 
BRANCH   7   8
ATOM      8  C   UNL     1      58.259  15.521   0.374  1.00  0.00     0.041 C 
ATOM      9  O   UNL     1      58.486  14.318   0.081  1.00  0.00    -0.550 OA
ATOM     10  O   UNL     1      59.308  16.346   0.755  1.00  0.00    -0.550 OA
ENDBRANCH   7   8
ENDBRANCH   6   7
ENDBRANCH   5   6
ENDBRANCH   4   5
ENDBRANCH   3   4
ENDBRANCH   2   3
ENDBRANCH   1   2
BRANCH   1  11
ATOM     11  C   UNL     1      52.954  14.826  -0.690  1.00  0.00     0.000 C 
BRANCH  11  12
ATOM     12  C   UNL     1      53.762  15.763  -1.607  1.00  0.00    -0.000 C 
BRANCH  12  13
ATOM     13  C   UNL     1      53.334  17.241  -1.574  1.00  0.00    -0.000 C 
BRANCH  13  14
ATOM     14  C   UNL     1      51.806  17.422  -1.555  1.00  0.00    -0.000 C 
BRANCH  14  15
ATOM     15  C   UNL     1      51.359  18.576  -0.642  1.00  0.00    -0.000 C 
BRANCH  15  16
ATOM     16  C   UNL     1      49.854  18.544  -0.340  1.00  0.00    -0.000 C 
BRANCH  16  17
ATOM     17  C   UNL     1      49.601  18.409   1.166  1.00  0.00    -0.003 C 
ATOM     18  C   UNL     1      50.450  19.400   1.960  1.00  0.00     0.004 C 
ENDBRANCH  16  17
ENDBRANCH  15  16
ENDBRANCH  14  15
ENDBRANCH  13  14
ENDBRANCH  12  13
ENDBRANCH  11  12
ENDBRANCH   1  11
TORSDOF 14
ENDMDL
MODEL 8
REMARK VINA RESULT:    -5.026      4.531      7.209
REMARK INTER + INTRA:         -11.521
REMARK INTER:                  -9.242
REMARK INTRA:                  -2.279
REMARK UNBOUND:                -2.381
REMARK SMILES CCCCCCCCCCCCCCCC(=O)[O-]
REMARK SMILES IDX 9 1 10 2 11 3 12 4 13 5 14 6 15 7 16 8 17 9 18 10 8 11 7 12
REMARK SMILES IDX 6 13 5 14 4 15 3 16 2 17 1 18
REMARK H PARENT
REMARK Flexibility Score: inf
ROOT
ATOM      1  C   UNL     1      52.879  14.937  -0.104  1.00  0.00     0.000 C 
ENDROOT
BRANCH   1   2
ATOM      2  C   UNL     1      53.865  14.132   0.750  1.00  0.00     0.000 C 
BRANCH   2   3
ATOM      3  C   UNL     1      55.001  13.562  -0.107  1.00  0.00     0.000 C 
BRANCH   3   4
ATOM      4  C   UNL     1      56.293  13.417   0.712  1.00  0.00     0.000 C 
BRANCH   4   5
ATOM      5  C   UNL     1      57.290  12.435   0.061  1.00  0.00     0.000 C 
BRANCH   5   6
ATOM      6  C   UNL     1      58.742  12.946   0.055  1.00  0.00     0.006 C 
BRANCH   6   7
ATOM      7  C   UNL     1      58.870  14.388   0.558  1.00  0.00     0.053 C 
BRANCH   7   8
ATOM      8  C   UNL     1      60.297  14.706   0.877  1.00  0.00     0.041 C 
ATOM      9  O   UNL     1      61.213  14.366   0.083  1.00  0.00    -0.550 OA
ATOM     10  O   UNL     1      60.619  15.332   2.073  1.00  0.00    -0.550 OA
ENDBRANCH   7   8
ENDBRANCH   6   7
ENDBRANCH   5   6
ENDBRANCH   4   5
ENDBRANCH   3   4
ENDBRANCH   2   3
ENDBRANCH   1   2
BRANCH   1  11
ATOM     11  C   UNL     1      53.578  15.537  -1.332  1.00  0.00     0.000 C 
BRANCH  11  12
ATOM     12  C   UNL     1      53.425  17.066  -1.423  1.00  0.00    -0.000 C 
BRANCH  12  13
ATOM     13  C   UNL     1      54.699  17.872  -1.107  1.00  0.00    -0.000 C 
BRANCH  13  14
ATOM     14  C   UNL     1      55.892  16.979  -0.726  1.00  0.00    -0.000 C 
BRANCH  14  15
ATOM     15  C   UNL     1      56.264  17.094   0.761  1.00  0.00    -0.000 C 
BRANCH  15  16
ATOM     16  C   UNL     1      55.281  17.968   1.553  1.00  0.00    -0.000 C 
BRANCH  16  17
ATOM     17  C   UNL     1      54.509  17.131   2.580  1.00  0.00    -0.003 C 
ATOM     18  C   UNL     1      53.033  17.522   2.613  1.00  0.00     0.004 C 
ENDBRANCH  16  17
ENDBRANCH  15  16
ENDBRANCH  14  15
ENDBRANCH  13  14
ENDBRANCH  12  13
ENDBRANCH  11  12
ENDBRANCH   1  11
TORSDOF 14
ENDMDL
MODEL 9
REMARK VINA RESULT:    -4.977      0.993      2.565
REMARK INTER + INTRA:         -11.431
REMARK INTER:                  -9.293
REMARK INTRA:                  -2.137
REMARK UNBOUND:                -2.381
REMARK SMILES CCCCCCCCCCCCCCCC(=O)[O-]
REMARK SMILES IDX 9 1 10 2 11 3 12 4 13 5 14 6 15 7 16 8 17 9 18 10 8 11 7 12
REMARK SMILES IDX 6 13 5 14 4 15 3 16 2 17 1 18
REMARK H PARENT
REMARK Flexibility Score: inf
ROOT
ATOM      1  C   UNL     1      54.368  14.157   1.098  1.00  0.00     0.000 C 
ENDROOT
BRANCH   1   2
ATOM      2  C   UNL     1      53.222  15.056   1.573  1.00  0.00     0.000 C 
BRANCH   2   3
ATOM      3  C   UNL     1      53.706  16.056   2.630  1.00  0.00     0.000 C 
BRANCH   3   4
ATOM      4  C   UNL     1      53.379  17.499   2.218  1.00  0.00     0.000 C 
BRANCH   4   5
ATOM      5  C   UNL     1      51.996  17.953   2.729  1.00  0.00     0.000 C 
BRANCH   5   6
ATOM      6  C   UNL     1      50.887  17.867   1.666  1.00  0.00     0.006 C 
BRANCH   6   7
ATOM      7  C   UNL     1      49.490  18.132   2.238  1.00  0.00     0.053 C 
BRANCH   7   8
ATOM      8  C   UNL     1      49.080  19.548   1.981  1.00  0.00     0.041 C 
ATOM      9  O   UNL     1      48.681  19.895   0.839  1.00  0.00    -0.550 OA
ATOM     10  O   UNL     1      49.186  20.496   2.991  1.00  0.00    -0.550 OA
ENDBRANCH   7   8
ENDBRANCH   6   7
ENDBRANCH   5   6
ENDBRANCH   4   5
ENDBRANCH   3   4
ENDBRANCH   2   3
ENDBRANCH   1   2
BRANCH   1  11
ATOM     11  C   UNL     1      54.188  13.766  -0.376  1.00  0.00     0.000 C 
BRANCH  11  12
ATOM     12  C   UNL     1      53.049  14.537  -1.068  1.00  0.00    -0.000 C 
BRANCH  12  13
ATOM     13  C   UNL     1      53.499  15.703  -1.967  1.00  0.00    -0.000 C 
BRANCH  13  14
ATOM     14  C   UNL     1      53.125  17.080  -1.393  1.00  0.00    -0.000 C 
BRANCH  14  15
ATOM     15  C   UNL     1      54.359  17.948  -1.092  1.00  0.00    -0.000 C 
BRANCH  15  16
ATOM     16  C   UNL     1      55.665  17.141  -1.084  1.00  0.00    -0.000 C 
BRANCH  16  17
ATOM     17  C   UNL     1      56.282  17.111   0.319  1.00  0.00    -0.003 C 
ATOM     18  C   UNL     1      57.404  16.079   0.407  1.00  0.00     0.004 C 
ENDBRANCH  16  17
ENDBRANCH  15  16
ENDBRANCH  14  15
ENDBRANCH  13  14
ENDBRANCH  12  13
ENDBRANCH  11  12
ENDBRANCH   1  11
TORSDOF 14
ENDMDL
