MODEL 1
REMARK VINA RESULT:    -2.834      0.000      0.000
REMARK INTER + INTRA:          -3.472
REMARK INTER:                  -4.326
REMARK INTRA:                   0.853
REMARK UNBOUND:                 0.853
REMARK SMILES CC1=CCC[C@H](C)C(=O)C[C@H](C(C)C)C(=O)C1
REMARK SMILES IDX 8 1 9 2 6 3 7 4 5 5 4 6 3 7 2 8 1 9 10 11 11 12 15 13 16 14
REMARK SMILES IDX 17 15 12 17 13 18 14 19
REMARK H PARENT
REMARK Flexibility Score: 70.00
ROOT
ATOM      1  C   UNL     1      25.648  38.165  20.801  1.00  0.00     0.136 C 
ATOM      2  O   UNL     1      24.912  37.384  20.212  1.00  0.00    -0.299 OA
ENDROOT
BRANCH   1   3
ATOM      3  C   UNL     1      26.803  37.625  21.635  1.00  0.00     0.053 C 
ATOM      4  C   UNL     1      26.488  36.222  22.177  1.00  0.00     0.016 C 
BRANCH   3   5
ATOM      5  C   UNL     1      28.159  37.637  20.882  1.00  0.00     0.015 C 
BRANCH   5   6
ATOM      6  C   UNL     1      28.153  36.856  19.550  1.00  0.00     0.028 C 
BRANCH   6   7
ATOM      7  C   UNL     1      28.762  37.618  18.405  1.00  0.00    -0.028 C 
ATOM      8  C   UNL     1      28.281  38.761  17.847  1.00  0.00    -0.070 CG0
ATOM      9  C   UNL     1      28.974  39.245  16.594  1.00  0.00     0.039 C 
ATOM     10  G   UNL     1      27.225  39.678  18.464  1.00  0.00     0.000 G0
ENDBRANCH   6   7
ENDBRANCH   5   6
ENDBRANCH   3   5
ENDBRANCH   1   3
BRANCH   1  11
ATOM     11  C   UNL     1      25.367  39.643  20.677  1.00  0.00     0.087 C 
BRANCH  11  12
ATOM     12  C   UNL     1      26.614  40.548  20.862  1.00  0.00     0.066 C 
BRANCH  12  13
ATOM     13  C   UNL     1      27.563  40.521  19.664  1.00  0.00     0.140 C 
ATOM     14  O   UNL     1      28.659  41.058  19.737  1.00  0.00    -0.299 OA
BRANCH  13  15
ATOM     15  C   UNL     1      27.208  39.720  18.430  1.00  0.00     0.106 CG0
ATOM     16  G   UNL     1      28.281  38.784  17.875  1.00  0.00     0.000 G0
ENDBRANCH  13  15
ENDBRANCH  12  13
BRANCH  12  17
ATOM     17  C   UNL     1      26.197  41.999  21.259  1.00  0.00    -0.006 C 
ATOM     18  C   UNL     1      26.307  43.016  20.108  1.00  0.00     0.008 C 
ATOM     19  C   UNL     1      26.988  42.505  22.476  1.00  0.00     0.008 C 
ENDBRANCH  12  17
ENDBRANCH  11  12
ENDBRANCH   1  11
TORSDOF 1
ENDMDL
MODEL 2
REMARK VINA RESULT:    -2.329      2.018      4.861
REMARK INTER + INTRA:          -2.701
REMARK INTER:                  -2.935
REMARK INTRA:                   0.234
REMARK UNBOUND:                 0.853
REMARK SMILES CC1=CCC[C@H](C)C(=O)C[C@H](C(C)C)C(=O)C1
REMARK SMILES IDX 8 1 9 2 6 3 7 4 5 5 4 6 3 7 2 8 1 9 10 11 11 12 15 13 16 14
REMARK SMILES IDX 17 15 12 17 13 18 14 19
REMARK H PARENT
REMARK Flexibility Score: 70.00
ROOT
ATOM      1  C   UNL     1      28.584  40.648  21.311  1.00  0.00     0.136 C 
ATOM      2  O   UNL     1      29.021  40.516  22.447  1.00  0.00    -0.299 OA
ENDROOT
BRANCH   1   3
ATOM      3  C   UNL     1      27.646  41.808  20.998  1.00  0.00     0.053 C 
ATOM      4  C   UNL     1      27.645  42.130  19.495  1.00  0.00     0.016 C 
BRANCH   3   5
ATOM      5  C   UNL     1      26.202  41.582  21.518  1.00  0.00     0.015 C 
BRANCH   5   6
ATOM      6  C   UNL     1      25.315  40.732  20.583  1.00  0.00     0.028 C 
BRANCH   6   7
ATOM      7  C   UNL     1      24.847  39.445  21.206  1.00  0.00    -0.028 C 
ATOM      8  C   UNL     1      24.855  38.216  20.625  1.00  0.00    -0.070 CG0
ATOM      9  C   UNL     1      24.174  37.103  21.388  1.00  0.00     0.039 C 
ATOM     10  G   UNL     1      25.628  37.831  19.364  1.00  0.00     0.000 G0
ENDBRANCH   6   7
ENDBRANCH   5   6
ENDBRANCH   3   5
ENDBRANCH   1   3
BRANCH   1  11
ATOM     11  C   UNL     1      28.993  39.639  20.266  1.00  0.00     0.087 C 
BRANCH  11  12
ATOM     12  C   UNL     1      28.083  38.384  20.199  1.00  0.00     0.066 C 
BRANCH  12  13
ATOM     13  C   UNL     1      26.981  38.491  19.144  1.00  0.00     0.140 C 
ATOM     14  O   UNL     1      27.209  39.032  18.072  1.00  0.00    -0.299 OA
BRANCH  13  15
ATOM     15  C   UNL     1      25.647  37.815  19.368  1.00  0.00     0.106 CG0
ATOM     16  G   UNL     1      24.858  38.225  20.611  1.00  0.00     0.000 G0
ENDBRANCH  13  15
ENDBRANCH  12  13
BRANCH  12  17
ATOM     17  C   UNL     1      28.934  37.084  20.041  1.00  0.00    -0.006 C 
ATOM     18  C   UNL     1      29.109  36.627  18.582  1.00  0.00     0.008 C 
ATOM     19  C   UNL     1      28.369  35.929  20.883  1.00  0.00     0.008 C 
ENDBRANCH  12  17
ENDBRANCH  11  12
ENDBRANCH   1  11
TORSDOF 1
ENDMDL
MODEL 3
REMARK VINA RESULT:    -1.914      1.954      4.093
REMARK INTER + INTRA:          -2.069
REMARK INTER:                  -2.833
REMARK INTRA:                   0.764
REMARK UNBOUND:                 0.853
REMARK SMILES CC1=CCC[C@H](C)C(=O)C[C@H](C(C)C)C(=O)C1
REMARK SMILES IDX 8 1 9 2 6 3 7 4 5 5 4 6 3 7 2 8 1 9 10 11 11 12 15 13 16 14
REMARK SMILES IDX 17 15 12 17 13 18 14 19
REMARK H PARENT
REMARK Flexibility Score: 70.00
ROOT
ATOM      1  C   UNL     1      26.211  40.723  20.900  1.00  0.00     0.136 C 
ATOM      2  O   UNL     1      25.731  41.594  21.614  1.00  0.00    -0.299 OA
ENDROOT
BRANCH   1   3
ATOM      3  C   UNL     1      27.048  41.122  19.690  1.00  0.00     0.053 C 
ATOM      4  C   UNL     1      27.010  42.641  19.465  1.00  0.00     0.016 C 
BRANCH   3   5
ATOM      5  C   UNL     1      28.510  40.608  19.762  1.00  0.00     0.015 C 
BRANCH   5   6
ATOM      6  C   UNL     1      28.776  39.332  18.937  1.00  0.00     0.028 C 
BRANCH   6   7
ATOM      7  C   UNL     1      29.125  38.133  19.777  1.00  0.00    -0.028 C 
ATOM      8  C   UNL     1      28.308  37.087  20.071  1.00  0.00    -0.070 CG0
ATOM      9  C   UNL     1      28.827  36.086  21.077  1.00  0.00     0.039 C 
ATOM     10  G   UNL     1      27.000  36.749  19.356  1.00  0.00     0.000 G0
ENDBRANCH   6   7
ENDBRANCH   5   6
ENDBRANCH   3   5
ENDBRANCH   1   3
BRANCH   1  11
ATOM     11  C   UNL     1      25.940  39.281  21.250  1.00  0.00     0.087 C 
BRANCH  11  12
ATOM     12  C   UNL     1      25.166  38.493  20.161  1.00  0.00     0.066 C 
BRANCH  12  13
ATOM     13  C   UNL     1      26.071  37.921  19.069  1.00  0.00     0.140 C 
ATOM     14  O   UNL     1      26.128  38.463  17.975  1.00  0.00    -0.299 OA
BRANCH  13  15
ATOM     15  C   UNL     1      26.996  36.766  19.377  1.00  0.00     0.106 CG0
ATOM     16  G   UNL     1      28.325  37.099  20.056  1.00  0.00     0.000 G0
ENDBRANCH  13  15
ENDBRANCH  12  13
BRANCH  12  17
ATOM     17  C   UNL     1      24.248  37.405  20.803  1.00  0.00    -0.006 C 
ATOM     18  C   UNL     1      23.449  36.579  19.779  1.00  0.00     0.008 C 
ATOM     19  C   UNL     1      23.290  38.010  21.842  1.00  0.00     0.008 C 
ENDBRANCH  12  17
ENDBRANCH  11  12
ENDBRANCH   1  11
TORSDOF 1
ENDMDL
MODEL 4
REMARK VINA RESULT:    -1.690      2.176      3.936
REMARK INTER + INTRA:          -1.726
REMARK INTER:                  -1.949
REMARK INTRA:                   0.223
REMARK UNBOUND:                 0.853
REMARK SMILES CC1=CCC[C@H](C)C(=O)C[C@H](C(C)C)C(=O)C1
REMARK SMILES IDX 8 1 9 2 6 3 7 4 5 5 4 6 3 7 2 8 1 9 10 11 11 12 15 13 16 14
REMARK SMILES IDX 17 15 12 17 13 18 14 19
REMARK H PARENT
REMARK Flexibility Score: 70.00
ROOT
ATOM      1  C   UNL     1      28.756  38.479  19.189  1.00  0.00     0.136 C 
ATOM      2  O   UNL     1      29.100  37.304  19.171  1.00  0.00    -0.299 OA
ENDROOT
BRANCH   1   3
ATOM      3  C   UNL     1      28.091  39.087  17.960  1.00  0.00     0.053 C 
ATOM      4  C   UNL     1      28.901  38.791  16.688  1.00  0.00     0.016 C 
BRANCH   3   5
ATOM      5  C   UNL     1      26.612  38.652  17.789  1.00  0.00     0.015 C 
BRANCH   5   6
ATOM      6  C   UNL     1      26.179  37.494  18.712  1.00  0.00     0.028 C 
BRANCH   6   7
ATOM      7  C   UNL     1      25.017  37.838  19.604  1.00  0.00    -0.028 C 
ATOM      8  C   UNL     1      25.086  38.336  20.867  1.00  0.00    -0.070 CG0
ATOM      9  C   UNL     1      23.784  38.440  21.625  1.00  0.00     0.039 C 
ATOM     10  G   UNL     1      26.327  38.950  21.516  1.00  0.00     0.000 G0
ENDBRANCH   6   7
ENDBRANCH   5   6
ENDBRANCH   3   5
ENDBRANCH   1   3
BRANCH   1  11
ATOM     11  C   UNL     1      29.021  39.282  20.440  1.00  0.00     0.087 C 
BRANCH  11  12
ATOM     12  C   UNL     1      28.178  40.579  20.556  1.00  0.00     0.066 C 
BRANCH  12  13
ATOM     13  C   UNL     1      26.772  40.340  21.106  1.00  0.00     0.140 C 
ATOM     14  O   UNL     1      25.952  41.247  21.109  1.00  0.00    -0.299 OA
BRANCH  13  15
ATOM     15  C   UNL     1      26.346  38.950  21.526  1.00  0.00     0.106 CG0
ATOM     16  G   UNL     1      25.098  38.373  20.858  1.00  0.00     0.000 G0
ENDBRANCH  13  15
ENDBRANCH  12  13
BRANCH  12  17
ATOM     17  C   UNL     1      28.950  41.677  21.354  1.00  0.00    -0.006 C 
ATOM     18  C   UNL     1      28.697  41.640  22.872  1.00  0.00     0.008 C 
ATOM     19  C   UNL     1      28.654  43.086  20.814  1.00  0.00     0.008 C 
ENDBRANCH  12  17
ENDBRANCH  11  12
ENDBRANCH   1  11
TORSDOF 1
ENDMDL
MODEL 5
REMARK VINA RESULT:    -1.337      1.598      2.196
REMARK INTER + INTRA:          -1.187
REMARK INTER:                  -1.664
REMARK INTRA:                   0.477
REMARK UNBOUND:                 0.853
REMARK SMILES CC1=CCC[C@H](C)C(=O)C[C@H](C(C)C)C(=O)C1
REMARK SMILES IDX 8 1 9 2 6 3 7 4 5 5 4 6 3 7 2 8 1 9 10 11 11 12 15 13 16 14
REMARK SMILES IDX 17 15 12 17 13 18 14 19
REMARK H PARENT
REMARK Flexibility Score: 70.00
ROOT
ATOM      1  C   UNL     1      27.798  38.412  21.215  1.00  0.00     0.136 C 
ATOM      2  O   UNL     1      28.999  38.175  21.207  1.00  0.00    -0.299 OA
ENDROOT
BRANCH   1   3
ATOM      3  C   UNL     1      26.815  37.328  20.788  1.00  0.00     0.053 C 
ATOM      4  C   UNL     1      26.507  36.370  21.949  1.00  0.00     0.016 C 
BRANCH   3   5
ATOM      5  C   UNL     1      25.508  37.896  20.177  1.00  0.00     0.015 C 
BRANCH   5   6
ATOM      6  C   UNL     1      25.601  38.224  18.671  1.00  0.00     0.028 C 
BRANCH   6   7
ATOM      7  C   UNL     1      27.008  38.461  18.193  1.00  0.00    -0.028 C 
ATOM      8  C   UNL     1      27.670  39.648  18.184  1.00  0.00    -0.070 CG0
ATOM      9  C   UNL     1      29.015  39.667  17.496  1.00  0.00     0.039 C 
ATOM     10  G   UNL     1      27.254  40.907  18.946  1.00  0.00     0.000 G0
ENDBRANCH   6   7
ENDBRANCH   5   6
ENDBRANCH   3   5
ENDBRANCH   1   3
BRANCH   1  11
ATOM     11  C   UNL     1      27.344  39.786  21.643  1.00  0.00     0.087 C 
BRANCH  11  12
ATOM     12  C   UNL     1      28.362  40.918  21.345  1.00  0.00     0.066 C 
BRANCH  12  13
ATOM     13  C   UNL     1      28.229  41.496  19.936  1.00  0.00     0.140 C 
ATOM     14  O   UNL     1      28.995  42.370  19.557  1.00  0.00    -0.299 OA
BRANCH  13  15
ATOM     15  C   UNL     1      27.237  40.902  18.961  1.00  0.00     0.106 CG0
ATOM     16  G   UNL     1      27.678  39.657  18.191  1.00  0.00     0.000 G0
ENDBRANCH  13  15
ENDBRANCH  12  13
BRANCH  12  17
ATOM     17  C   UNL     1      28.312  42.021  22.449  1.00  0.00    -0.006 C 
ATOM     18  C   UNL     1      28.960  41.601  23.781  1.00  0.00     0.008 C 
ATOM     19  C   UNL     1      26.876  42.508  22.701  1.00  0.00     0.008 C 
ENDBRANCH  12  17
ENDBRANCH  11  12
ENDBRANCH   1  11
TORSDOF 1
ENDMDL
MODEL 6
REMARK VINA RESULT:    -0.976      2.408      3.909
REMARK INTER + INTRA:          -0.637
REMARK INTER:                  -0.771
REMARK INTRA:                   0.134
REMARK UNBOUND:                 0.853
REMARK SMILES CC1=CCC[C@H](C)C(=O)C[C@H](C(C)C)C(=O)C1
REMARK SMILES IDX 8 1 9 2 6 3 7 4 5 5 4 6 3 7 2 8 1 9 10 11 11 12 15 13 16 14
REMARK SMILES IDX 17 15 12 17 13 18 14 19
REMARK H PARENT
REMARK Flexibility Score: 70.00
ROOT
ATOM      1  C   UNL     1      27.558  39.660  21.385  1.00  0.00     0.136 C 
ATOM      2  O   UNL     1      27.105  38.704  22.001  1.00  0.00    -0.299 OA
ENDROOT
BRANCH   1   3
ATOM      3  C   UNL     1      28.241  39.433  20.042  1.00  0.00     0.053 C 
ATOM      4  C   UNL     1      28.949  38.070  20.003  1.00  0.00     0.016 C 
BRANCH   3   5
ATOM      5  C   UNL     1      27.280  39.593  18.834  1.00  0.00     0.015 C 
BRANCH   5   6
ATOM      6  C   UNL     1      27.629  40.768  17.897  1.00  0.00     0.028 C 
BRANCH   6   7
ATOM      7  C   UNL     1      26.966  42.062  18.282  1.00  0.00    -0.028 C 
ATOM      8  C   UNL     1      27.408  42.952  19.210  1.00  0.00    -0.070 CG0
ATOM      9  C   UNL     1      26.480  44.097  19.545  1.00  0.00     0.039 C 
ATOM     10  G   UNL     1      28.813  42.990  19.811  1.00  0.00     0.000 G0
ENDBRANCH   6   7
ENDBRANCH   5   6
ENDBRANCH   3   5
ENDBRANCH   1   3
BRANCH   1  11
ATOM     11  C   UNL     1      27.427  41.033  21.998  1.00  0.00     0.087 C 
BRANCH  11  12
ATOM     12  C   UNL     1      28.774  41.780  22.187  1.00  0.00     0.066 C 
BRANCH  12  13
ATOM     13  C   UNL     1      28.879  43.057  21.353  1.00  0.00     0.140 C 
ATOM     14  O   UNL     1      29.125  44.125  21.894  1.00  0.00    -0.299 OA
BRANCH  13  15
ATOM     15  C   UNL     1      28.810  42.987  19.843  1.00  0.00     0.106 CG0
ATOM     16  G   UNL     1      27.419  42.967  19.210  1.00  0.00     0.000 G0
ENDBRANCH  13  15
ENDBRANCH  12  13
BRANCH  12  17
ATOM     17  C   UNL     1      29.067  42.031  23.700  1.00  0.00    -0.006 C 
ATOM     18  C   UNL     1      29.124  40.746  24.545  1.00  0.00     0.008 C 
ATOM     19  C   UNL     1      28.062  43.015  24.318  1.00  0.00     0.008 C 
ENDBRANCH  12  17
ENDBRANCH  11  12
ENDBRANCH   1  11
TORSDOF 1
ENDMDL
