MODEL 1
REMARK VINA RESULT:    10.125      0.000      0.000
REMARK INTER + INTRA:          10.717
REMARK INTER:                  10.717
REMARK INTRA:                   0.000
REMARK UNBOUND:                 0.000
REMARK SMILES Cc1cc(O)c(C)c(C)c1O
REMARK SMILES IDX 1 1 2 2 3 3 4 4 6 5 8 6 10 7 9 8 7 9 11 10 5 12
REMARK H PARENT 11 11 5 13
REMARK Flexibility Score: inf
ROOT
ATOM      1  C   UNL     1     -26.749   6.984 -23.056  1.00  0.00     0.048 C 
ATOM      2  C   UNL     1     -25.691   6.431 -22.140  1.00  0.00    -0.005 A 
ATOM      3  C   UNL     1     -24.472   6.010 -22.680  1.00  0.00     0.053 A 
ATOM      4  C   UNL     1     -23.459   5.502 -21.869  1.00  0.00     0.119 A 
ATOM      5  C   UNL     1     -23.643   5.425 -20.468  1.00  0.00    -0.003 A 
ATOM      6  C   UNL     1     -24.901   5.789 -19.913  1.00  0.00    -0.002 A 
ATOM      7  C   UNL     1     -25.911   6.317 -20.750  1.00  0.00     0.121 A 
ATOM      8  C   UNL     1     -25.165   5.645 -18.430  1.00  0.00     0.049 C 
ATOM      9  C   UNL     1     -22.507   4.929 -19.600  1.00  0.00     0.049 C 
ENDROOT
BRANCH   7  10
ATOM     10  O   UNL     1     -27.125   6.721 -20.184  1.00  0.00    -0.507 OA
ATOM     11  H   UNL     1     -27.259   6.864 -19.191  1.00  0.00     0.293 HD
ENDBRANCH   7  10
BRANCH   4  12
ATOM     12  O   UNL     1     -22.283   5.076 -22.492  1.00  0.00    -0.508 OA
ATOM     13  H   UNL     1     -22.221   4.849 -23.476  1.00  0.00     0.293 HD
ENDBRANCH   4  12
TORSDOF 2
ENDMDL
MODEL 2
REMARK VINA RESULT:    11.809      1.348      2.939
REMARK INTER + INTRA:          12.500
REMARK INTER:                  12.500
REMARK INTRA:                   0.000
REMARK UNBOUND:                 0.000
REMARK SMILES Cc1cc(O)c(C)c(C)c1O
REMARK SMILES IDX 1 1 2 2 3 3 4 4 6 5 8 6 10 7 9 8 7 9 11 10 5 12
REMARK H PARENT 11 11 5 13
REMARK Flexibility Score: inf
ROOT
ATOM      1  C   UNL     1     -27.125   6.953 -22.484  1.00  0.00     0.048 C 
ATOM      2  C   UNL     1     -25.953   6.445 -21.687  1.00  0.00    -0.005 A 
ATOM      3  C   UNL     1     -26.064   6.347 -20.297  1.00  0.00     0.053 A 
ATOM      4  C   UNL     1     -25.009   5.872 -19.520  1.00  0.00     0.119 A 
ATOM      5  C   UNL     1     -23.805   5.457 -20.137  1.00  0.00    -0.003 A 
ATOM      6  C   UNL     1     -23.656   5.613 -21.542  1.00  0.00    -0.002 A 
ATOM      7  C   UNL     1     -24.742   6.082 -22.315  1.00  0.00     0.121 A 
ATOM      8  C   UNL     1     -22.355   5.256 -22.228  1.00  0.00     0.049 C 
ATOM      9  C   UNL     1     -22.695   4.887 -19.280  1.00  0.00     0.049 C 
ENDROOT
BRANCH   7  10
ATOM     10  O   UNL     1     -24.600   6.180 -23.704  1.00  0.00    -0.507 OA
ATOM     11  H   UNL     1     -25.300   6.587 -24.310  1.00  0.00     0.293 HD
ENDBRANCH   7  10
BRANCH   4  12
ATOM     12  O   UNL     1     -25.191   5.833 -18.136  1.00  0.00    -0.508 OA
ATOM     13  H   UNL     1     -25.412   4.989 -17.623  1.00  0.00     0.293 HD
ENDBRANCH   4  12
TORSDOF 2
ENDMDL
