MODEL 1
REMARK VINA RESULT:    -4.042      0.000      0.000
REMARK INTER + INTRA:          -4.414
REMARK INTER:                  -4.278
REMARK INTRA:                  -0.135
REMARK UNBOUND:                -0.135
REMARK SMILES CC1=CCC(C(C)C)=CC1
REMARK SMILES IDX 1 1 2 2 3 3 4 4 5 5 9 6 10 7 6 8 7 9 8 10
REMARK H PARENT
REMARK Flexibility Score: inf
ROOT
ATOM      1  C   UNL     1     140.873 137.861 136.387  1.00  0.00     0.039 C 
ATOM      2  C   UNL     1     139.556 138.587 136.398  1.00  0.00    -0.073 C 
ATOM      3  C   UNL     1     138.548 138.136 137.169  1.00  0.00    -0.023 C 
ATOM      4  C   UNL     1     137.235 138.873 137.236  1.00  0.00     0.058 C 
ATOM      5  C   UNL     1     136.921 139.574 135.928  1.00  0.00    -0.068 C 
ATOM      6  C   UNL     1     137.937 140.025 135.159  1.00  0.00    -0.023 C 
ATOM      7  C   UNL     1     139.373 139.850 135.584  1.00  0.00     0.057 C 
ENDROOT
BRANCH   5   8
ATOM      8  C   UNL     1     135.470 139.790 135.528  1.00  0.00     0.009 C 
ATOM      9  C   UNL     1     135.347 140.090 134.029  1.00  0.00     0.012 C 
ATOM     10  C   UNL     1     134.816 140.894 136.368  1.00  0.00     0.012 C 
ENDBRANCH   5   8
TORSDOF 1
ENDMDL
MODEL 2
REMARK VINA RESULT:    -4.041      3.852      5.539
REMARK INTER + INTRA:          -4.413
REMARK INTER:                  -4.278
REMARK INTRA:                  -0.135
REMARK UNBOUND:                -0.135
REMARK SMILES CC1=CCC(C(C)C)=CC1
REMARK SMILES IDX 1 1 2 2 3 3 4 4 5 5 9 6 10 7 6 8 7 9 8 10
REMARK H PARENT
REMARK Flexibility Score: inf
ROOT
ATOM      1  C   UNL     1     137.869 131.809 136.394  1.00  0.00     0.039 C 
ATOM      2  C   UNL     1     138.589 133.129 136.416  1.00  0.00    -0.073 C 
ATOM      3  C   UNL     1     138.095 134.150 137.141  1.00  0.00    -0.023 C 
ATOM      4  C   UNL     1     138.823 135.468 137.219  1.00  0.00     0.058 C 
ATOM      5  C   UNL     1     139.589 135.759 135.943  1.00  0.00    -0.068 C 
ATOM      6  C   UNL     1     140.083 134.730 135.219  1.00  0.00    -0.023 C 
ATOM      7  C   UNL     1     139.891 133.302 135.663  1.00  0.00     0.057 C 
ENDROOT
BRANCH   5   8
ATOM      8  C   UNL     1     139.820 137.202 135.525  1.00  0.00     0.009 C 
ATOM      9  C   UNL     1     140.136 137.302 134.028  1.00  0.00     0.012 C 
ATOM     10  C   UNL     1     140.920 137.860 136.367  1.00  0.00     0.012 C 
ENDBRANCH   5   8
TORSDOF 1
ENDMDL
MODEL 3
REMARK VINA RESULT:    -4.037      3.824      5.856
REMARK INTER + INTRA:          -4.409
REMARK INTER:                  -4.270
REMARK INTRA:                  -0.139
REMARK UNBOUND:                -0.135
REMARK SMILES CC1=CCC(C(C)C)=CC1
REMARK SMILES IDX 1 1 2 2 3 3 4 4 5 5 9 6 10 7 6 8 7 9 8 10
REMARK H PARENT
REMARK Flexibility Score: inf
ROOT
ATOM      1  C   UNL     1     131.539 136.939 131.887  1.00  0.00     0.039 C 
ATOM      2  C   UNL     1     132.311 137.407 133.090  1.00  0.00    -0.073 C 
ATOM      3  C   UNL     1     131.851 137.139 134.327  1.00  0.00    -0.023 C 
ATOM      4  C   UNL     1     132.629 137.554 135.549  1.00  0.00     0.058 C 
ATOM      5  C   UNL     1     133.418 138.827 135.303  1.00  0.00    -0.068 C 
ATOM      6  C   UNL     1     133.877 139.090 134.059  1.00  0.00    -0.023 C 
ATOM      7  C   UNL     1     133.625 138.137 132.918  1.00  0.00     0.057 C 
ENDROOT
BRANCH   5   8
ATOM      8  C   UNL     1     133.709 139.759 136.468  1.00  0.00     0.009 C 
ATOM      9  C   UNL     1     134.849 140.728 136.131  1.00  0.00     0.012 C 
ATOM     10  C   UNL     1     134.011 138.975 137.751  1.00  0.00     0.012 C 
ENDBRANCH   5   8
TORSDOF 1
ENDMDL
MODEL 4
REMARK VINA RESULT:    -4.036      7.023      7.606
REMARK INTER + INTRA:          -4.408
REMARK INTER:                  -4.268
REMARK INTRA:                  -0.139
REMARK UNBOUND:                -0.135
REMARK SMILES CC1=CCC(C(C)C)=CC1
REMARK SMILES IDX 1 1 2 2 3 3 4 4 5 5 9 6 10 7 6 8 7 9 8 10
REMARK H PARENT
REMARK Flexibility Score: inf
ROOT
ATOM      1  C   UNL     1     135.685 131.459 131.887  1.00  0.00     0.039 C 
ATOM      2  C   UNL     1     135.233 132.247 133.085  1.00  0.00    -0.073 C 
ATOM      3  C   UNL     1     135.524 131.809 134.324  1.00  0.00    -0.023 C 
ATOM      4  C   UNL     1     135.126 132.605 135.541  1.00  0.00     0.058 C 
ATOM      5  C   UNL     1     133.845 133.383 135.304  1.00  0.00    -0.068 C 
ATOM      6  C   UNL     1     133.559 133.822 134.058  1.00  0.00    -0.023 C 
ATOM      7  C   UNL     1     134.494 133.556 132.905  1.00  0.00     0.057 C 
ENDROOT
BRANCH   5   8
ATOM      8  C   UNL     1     132.931 133.689 136.479  1.00  0.00     0.009 C 
ATOM      9  C   UNL     1     131.987 134.854 136.159  1.00  0.00     0.012 C 
ATOM     10  C   UNL     1     133.734 133.964 137.757  1.00  0.00     0.012 C 
ENDBRANCH   5   8
TORSDOF 1
ENDMDL
MODEL 5
REMARK VINA RESULT:    -4.032      5.403      6.436
REMARK INTER + INTRA:          -4.403
REMARK INTER:                  -4.264
REMARK INTRA:                  -0.139
REMARK UNBOUND:                -0.135
REMARK SMILES CC1=CCC(C(C)C)=CC1
REMARK SMILES IDX 1 1 2 2 3 3 4 4 5 5 9 6 10 7 6 8 7 9 8 10
REMARK H PARENT
REMARK Flexibility Score: inf
ROOT
ATOM      1  C   UNL     1     141.217 135.722 131.875  1.00  0.00     0.039 C 
ATOM      2  C   UNL     1     140.429 135.268 133.072  1.00  0.00    -0.073 C 
ATOM      3  C   UNL     1     140.875 135.544 134.312  1.00  0.00    -0.023 C 
ATOM      4  C   UNL     1     140.080 135.143 135.529  1.00  0.00     0.058 C 
ATOM      5  C   UNL     1     139.289 133.872 135.284  1.00  0.00    -0.068 C 
ATOM      6  C   UNL     1     138.843 133.600 134.037  1.00  0.00    -0.023 C 
ATOM      7  C   UNL     1     139.113 134.542 132.891  1.00  0.00     0.057 C 
ENDROOT
BRANCH   5   8
ATOM      8  C   UNL     1     138.979 132.950 136.453  1.00  0.00     0.009 C 
ATOM      9  C   UNL     1     137.812 132.011 136.124  1.00  0.00     0.012 C 
ATOM     10  C   UNL     1     138.704 133.746 137.735  1.00  0.00     0.012 C 
ENDBRANCH   5   8
TORSDOF 1
ENDMDL
MODEL 6
REMARK VINA RESULT:    -4.028      2.908      4.223
REMARK INTER + INTRA:          -4.399
REMARK INTER:                  -4.256
REMARK INTRA:                  -0.143
REMARK UNBOUND:                -0.135
REMARK SMILES CC1=CCC(C(C)C)=CC1
REMARK SMILES IDX 1 1 2 2 3 3 4 4 5 5 9 6 10 7 6 8 7 9 8 10
REMARK H PARENT
REMARK Flexibility Score: inf
ROOT
ATOM      1  C   UNL     1     137.133 141.624 131.875  1.00  0.00     0.039 C 
ATOM      2  C   UNL     1     136.397 140.837 132.924  1.00  0.00    -0.073 C 
ATOM      3  C   UNL     1     135.247 140.212 132.609  1.00  0.00    -0.023 C 
ATOM      4  C   UNL     1     134.516 139.376 133.628  1.00  0.00     0.058 C 
ATOM      5  C   UNL     1     134.717 139.908 135.034  1.00  0.00    -0.068 C 
ATOM      6  C   UNL     1     135.874 140.534 135.345  1.00  0.00    -0.023 C 
ATOM      7  C   UNL     1     136.966 140.705 134.320  1.00  0.00     0.057 C 
ENDROOT
BRANCH   5   8
ATOM      8  C   UNL     1     133.631 139.690 136.075  1.00  0.00     0.009 C 
ATOM      9  C   UNL     1     134.234 139.331 137.439  1.00  0.00     0.012 C 
ATOM     10  C   UNL     1     132.623 138.627 135.620  1.00  0.00     0.012 C 
ENDBRANCH   5   8
TORSDOF 1
ENDMDL
MODEL 7
REMARK VINA RESULT:    -4.018      6.204      7.814
REMARK INTER + INTRA:          -4.388
REMARK INTER:                  -4.253
REMARK INTRA:                  -0.135
REMARK UNBOUND:                -0.135
REMARK SMILES CC1=CCC(C(C)C)=CC1
REMARK SMILES IDX 1 1 2 2 3 3 4 4 5 5 9 6 10 7 6 8 7 9 8 10
REMARK H PARENT
REMARK Flexibility Score: inf
ROOT
ATOM      1  C   UNL     1     131.857 134.832 136.386  1.00  0.00     0.039 C 
ATOM      2  C   UNL     1     133.169 134.098 136.410  1.00  0.00    -0.073 C 
ATOM      3  C   UNL     1     134.178 134.554 137.176  1.00  0.00    -0.023 C 
ATOM      4  C   UNL     1     135.487 133.810 137.257  1.00  0.00     0.058 C 
ATOM      5  C   UNL     1     135.799 133.088 135.959  1.00  0.00    -0.068 C 
ATOM      6  C   UNL     1     134.782 132.632 135.195  1.00  0.00    -0.023 C 
ATOM      7  C   UNL     1     133.346 132.822 135.614  1.00  0.00     0.057 C 
ENDROOT
BRANCH   5   8
ATOM      8  C   UNL     1     137.249 132.858 135.566  1.00  0.00     0.009 C 
ATOM      9  C   UNL     1     137.383 132.621 134.056  1.00  0.00     0.012 C 
ATOM     10  C   UNL     1     137.870 131.704 136.363  1.00  0.00     0.012 C 
ENDBRANCH   5   8
TORSDOF 1
ENDMDL
MODEL 8
REMARK VINA RESULT:    -4.014      3.832      5.549
REMARK INTER + INTRA:          -4.384
REMARK INTER:                  -4.248
REMARK INTRA:                  -0.135
REMARK UNBOUND:                -0.135
REMARK SMILES CC1=CCC(C(C)C)=CC1
REMARK SMILES IDX 1 1 2 2 3 3 4 4 5 5 9 6 10 7 6 8 7 9 8 10
REMARK H PARENT
REMARK Flexibility Score: inf
ROOT
ATOM      1  C   UNL     1     134.810 140.881 136.410  1.00  0.00     0.039 C 
ATOM      2  C   UNL     1     134.052 139.583 136.382  1.00  0.00    -0.073 C 
ATOM      3  C   UNL     1     134.416 138.577 137.200  1.00  0.00    -0.023 C 
ATOM      4  C   UNL     1     133.643 137.283 137.227  1.00  0.00     0.058 C 
ATOM      5  C   UNL     1     133.038 136.966 135.872  1.00  0.00    -0.068 C 
ATOM      6  C   UNL     1     132.674 137.980 135.057  1.00  0.00    -0.023 C 
ATOM      7  C   UNL     1     132.852 139.417 135.474  1.00  0.00     0.057 C 
ENDROOT
BRANCH   5   8
ATOM      8  C   UNL     1     132.818 135.514 135.477  1.00  0.00     0.009 C 
ATOM      9  C   UNL     1     132.494 135.390 133.983  1.00  0.00     0.012 C 
ATOM     10  C   UNL     1     131.728 134.860 136.335  1.00  0.00     0.012 C 
ENDBRANCH   5   8
TORSDOF 1
ENDMDL
MODEL 9
REMARK VINA RESULT:    -3.984      2.841      4.324
REMARK INTER + INTRA:          -4.353
REMARK INTER:                  -4.192
REMARK INTRA:                  -0.161
REMARK UNBOUND:                -0.135
REMARK SMILES CC1=CCC(C(C)C)=CC1
REMARK SMILES IDX 1 1 2 2 3 3 4 4 5 5 9 6 10 7 6 8 7 9 8 10
REMARK H PARENT
REMARK Flexibility Score: inf
ROOT
ATOM      1  C   UNL     1     137.453 140.908 134.173  1.00  0.00     0.039 C 
ATOM      2  C   UNL     1     136.035 140.457 134.389  1.00  0.00    -0.073 C 
ATOM      3  C   UNL     1     135.489 140.526 135.618  1.00  0.00    -0.023 C 
ATOM      4  C   UNL     1     134.055 140.127 135.852  1.00  0.00     0.058 C 
ATOM      5  C   UNL     1     133.618 139.030 134.900  1.00  0.00    -0.068 C 
ATOM      6  C   UNL     1     134.168 138.967 133.667  1.00  0.00    -0.023 C 
ATOM      7  C   UNL     1     135.201 139.971 133.223  1.00  0.00     0.057 C 
ENDROOT
BRANCH   5   8
ATOM      8  C   UNL     1     132.542 138.049 135.337  1.00  0.00     0.009 C 
ATOM      9  C   UNL     1     133.121 136.961 136.250  1.00  0.00     0.012 C 
ATOM     10  C   UNL     1     131.822 137.433 134.131  1.00  0.00     0.012 C 
ENDBRANCH   5   8
TORSDOF 1
ENDMDL
