MODEL 1
REMARK VINA RESULT:    -5.524      0.000      0.000
REMARK INTER + INTRA:          -6.154
REMARK INTER:                  -6.008
REMARK INTRA:                  -0.146
REMARK UNBOUND:                -0.146
REMARK SMILES CC(=O)[C@H]1CC[C@H]2[C@@H]3CC=C4C[C@H](O)CC[C@@]4(C)[C@H]3CC[C@]12C
REMARK SMILES IDX 4 1 5 2 6 3 7 4 22 5 21 6 20 7 19 8 8 9 9 10 10 11 11 12
REMARK SMILES IDX 17 13 16 14 15 15 13 16 12 17 18 18 23 19 2 20 1 21 3 22
REMARK SMILES IDX 14 23
REMARK H PARENT 14 24
REMARK Flexibility Score: inf
ROOT
ATOM      1  C   UNL     1      77.329  -7.064  29.123  1.00  0.00     0.062 C 
ATOM      2  C   UNL     1      77.153  -7.113  30.665  1.00  0.00     0.012 C 
ATOM      3  C   UNL     1      78.478  -6.615  31.272  1.00  0.00     0.005 C 
ATOM      4  C   UNL     1      79.286  -6.138  30.072  1.00  0.00    -0.001 C 
ATOM      5  C   UNL     1      78.863  -7.060  28.923  1.00  0.00    -0.020 C 
ATOM      6  C   UNL     1      79.345  -6.409  27.607  1.00  0.00     0.008 C 
ATOM      7  C   UNL     1      80.877  -6.205  27.619  1.00  0.00     0.005 C 
ATOM      8  C   UNL     1      81.394  -5.431  28.878  1.00  0.00     0.003 C 
ATOM      9  C   UNL     1      80.817  -6.001  30.209  1.00  0.00     0.000 C 
ATOM     10  C   UNL     1      81.165  -5.027  31.340  1.00  0.00     0.031 C 
ATOM     11  C   UNL     1      82.642  -4.803  31.420  1.00  0.00    -0.027 C 
ATOM     12  C   UNL     1      83.458  -4.860  30.345  1.00  0.00    -0.065 C 
ATOM     13  C   UNL     1      82.970  -5.260  28.937  1.00  0.00    -0.008 C 
ATOM     14  C   UNL     1      83.706  -6.585  28.557  1.00  0.00     0.014 C 
ATOM     15  C   UNL     1      85.230  -6.549  28.795  1.00  0.00     0.033 C 
ATOM     16  C   UNL     1      85.585  -6.135  30.230  1.00  0.00     0.118 C 
ATOM     17  C   UNL     1      84.953  -4.782  30.574  1.00  0.00     0.063 C 
ATOM     18  C   UNL     1      83.363  -4.139  27.939  1.00  0.00     0.016 C 
ATOM     19  C   UNL     1      79.420  -8.516  29.050  1.00  0.00     0.012 C 
ENDROOT
BRANCH   1  20
ATOM     20  C   UNL     1      76.585  -8.128  28.327  1.00  0.00     0.133 C 
ATOM     21  C   UNL     1      75.945  -9.327  28.965  1.00  0.00     0.088 C 
ATOM     22  O   UNL     1      76.492  -7.993  27.117  1.00  0.00    -0.300 OA
ENDBRANCH   1  20
BRANCH  16  23
ATOM     23  O   UNL     1      86.981  -6.057  30.352  1.00  0.00    -0.393 OA
ATOM     24  H   UNL     1      87.316  -6.989  30.417  1.00  0.00     0.210 HD
ENDBRANCH  16  23
TORSDOF 2
ENDMDL
MODEL 2
REMARK VINA RESULT:    -5.523      1.715      2.421
REMARK INTER + INTRA:          -6.153
REMARK INTER:                  -6.009
REMARK INTRA:                  -0.144
REMARK UNBOUND:                -0.146
REMARK SMILES CC(=O)[C@H]1CC[C@H]2[C@@H]3CC=C4C[C@H](O)CC[C@@]4(C)[C@H]3CC[C@]12C
REMARK SMILES IDX 4 1 5 2 6 3 7 4 22 5 21 6 20 7 19 8 8 9 9 10 10 11 11 12
REMARK SMILES IDX 17 13 16 14 15 15 13 16 12 17 18 18 23 19 2 20 1 21 3 22
REMARK SMILES IDX 14 23
REMARK H PARENT 14 24
REMARK Flexibility Score: inf
ROOT
ATOM      1  C   UNL     1      77.617  -6.315  27.507  1.00  0.00     0.062 C 
ATOM      2  C   UNL     1      77.638  -4.919  28.185  1.00  0.00     0.012 C 
ATOM      3  C   UNL     1      79.115  -4.603  28.488  1.00  0.00     0.005 C 
ATOM      4  C   UNL     1      79.886  -5.735  27.820  1.00  0.00    -0.001 C 
ATOM      5  C   UNL     1      78.962  -6.954  27.923  1.00  0.00    -0.020 C 
ATOM      6  C   UNL     1      79.503  -8.026  26.951  1.00  0.00     0.008 C 
ATOM      7  C   UNL     1      80.960  -8.404  27.298  1.00  0.00     0.005 C 
ATOM      8  C   UNL     1      81.919  -7.170  27.398  1.00  0.00     0.003 C 
ATOM      9  C   UNL     1      81.331  -6.026  28.279  1.00  0.00     0.000 C 
ATOM     10  C   UNL     1      82.207  -4.781  28.099  1.00  0.00     0.031 C 
ATOM     11  C   UNL     1      83.634  -5.076  28.441  1.00  0.00    -0.027 C 
ATOM     12  C   UNL     1      84.198  -6.292  28.275  1.00  0.00    -0.065 C 
ATOM     13  C   UNL     1      83.408  -7.531  27.808  1.00  0.00    -0.008 C 
ATOM     14  C   UNL     1      83.447  -8.565  28.978  1.00  0.00     0.014 C 
ATOM     15  C   UNL     1      84.854  -8.803  29.563  1.00  0.00     0.033 C 
ATOM     16  C   UNL     1      85.535  -7.494  29.987  1.00  0.00     0.118 C 
ATOM     17  C   UNL     1      85.598  -6.511  28.811  1.00  0.00     0.063 C 
ATOM     18  C   UNL     1      84.112  -8.127  26.560  1.00  0.00     0.016 C 
ATOM     19  C   UNL     1      78.851  -7.534  29.371  1.00  0.00     0.012 C 
ENDROOT
BRANCH   1  20
ATOM     20  C   UNL     1      76.391  -7.177  27.779  1.00  0.00     0.133 C 
ATOM     21  C   UNL     1      75.377  -6.843  28.835  1.00  0.00     0.088 C 
ATOM     22  O   UNL     1      76.217  -8.177  27.100  1.00  0.00    -0.300 OA
ENDBRANCH   1  20
BRANCH  16  23
ATOM     23  O   UNL     1      86.832  -7.779  30.442  1.00  0.00    -0.393 OA
ATOM     24  H   UNL     1      87.248  -6.910  30.685  1.00  0.00     0.210 HD
ENDBRANCH  16  23
TORSDOF 2
ENDMDL
MODEL 3
REMARK VINA RESULT:    -5.327      2.074      7.094
REMARK INTER + INTRA:          -5.939
REMARK INTER:                  -5.853
REMARK INTRA:                  -0.086
REMARK UNBOUND:                -0.146
REMARK SMILES CC(=O)[C@H]1CC[C@H]2[C@@H]3CC=C4C[C@H](O)CC[C@@]4(C)[C@H]3CC[C@]12C
REMARK SMILES IDX 4 1 5 2 6 3 7 4 22 5 21 6 20 7 19 8 8 9 9 10 10 11 11 12
REMARK SMILES IDX 17 13 16 14 15 15 13 16 12 17 18 18 23 19 2 20 1 21 3 22
REMARK SMILES IDX 14 23
REMARK H PARENT 14 24
REMARK Flexibility Score: inf
ROOT
ATOM      1  C   UNL     1      86.420  -8.212  30.219  1.00  0.00     0.062 C 
ATOM      2  C   UNL     1      86.016  -9.710  30.154  1.00  0.00     0.012 C 
ATOM      3  C   UNL     1      84.560  -9.747  29.655  1.00  0.00     0.005 C 
ATOM      4  C   UNL     1      84.250  -8.301  29.289  1.00  0.00    -0.001 C 
ATOM      5  C   UNL     1      85.069  -7.462  30.276  1.00  0.00    -0.020 C 
ATOM      6  C   UNL     1      85.104  -6.015  29.734  1.00  0.00     0.008 C 
ATOM      7  C   UNL     1      83.676  -5.448  29.577  1.00  0.00     0.005 C 
ATOM      8  C   UNL     1      82.729  -6.365  28.732  1.00  0.00     0.003 C 
ATOM      9  C   UNL     1      82.776  -7.854  29.189  1.00  0.00     0.000 C 
ATOM     10  C   UNL     1      82.034  -8.701  28.148  1.00  0.00     0.031 C 
ATOM     11  C   UNL     1      80.630  -8.214  27.964  1.00  0.00    -0.027 C 
ATOM     12  C   UNL     1      80.269  -6.922  28.122  1.00  0.00    -0.065 C 
ATOM     13  C   UNL     1      81.242  -5.828  28.605  1.00  0.00    -0.008 C 
ATOM     14  C   UNL     1      80.700  -5.307  29.975  1.00  0.00     0.014 C 
ATOM     15  C   UNL     1      79.196  -4.964  29.969  1.00  0.00     0.033 C 
ATOM     16  C   UNL     1      78.336  -6.132  29.466  1.00  0.00     0.118 C 
ATOM     17  C   UNL     1      78.794  -6.580  28.072  1.00  0.00     0.063 C 
ATOM     18  C   UNL     1      81.242  -4.672  27.570  1.00  0.00     0.016 C 
ATOM     19  C   UNL     1      84.507  -7.487  31.735  1.00  0.00     0.012 C 
ENDROOT
BRANCH   1  20
ATOM     20  C   UNL     1      87.408  -7.829  31.313  1.00  0.00     0.133 C 
ATOM     21  C   UNL     1      87.979  -6.446  31.450  1.00  0.00     0.088 C 
ATOM     22  O   UNL     1      87.740  -8.678  32.125  1.00  0.00    -0.300 OA
ENDBRANCH   1  20
BRANCH  16  23
ATOM     23  O   UNL     1      76.994  -5.727  29.421  1.00  0.00    -0.393 OA
ATOM     24  H   UNL     1      76.503  -6.417  28.904  1.00  0.00     0.210 HD
ENDBRANCH  16  23
TORSDOF 2
ENDMDL
MODEL 4
REMARK VINA RESULT:    -5.250      1.240      6.995
REMARK INTER + INTRA:          -5.856
REMARK INTER:                  -5.801
REMARK INTRA:                  -0.055
REMARK UNBOUND:                -0.146
REMARK SMILES CC(=O)[C@H]1CC[C@H]2[C@@H]3CC=C4C[C@H](O)CC[C@@]4(C)[C@H]3CC[C@]12C
REMARK SMILES IDX 4 1 5 2 6 3 7 4 22 5 21 6 20 7 19 8 8 9 9 10 10 11 11 12
REMARK SMILES IDX 17 13 16 14 15 15 13 16 12 17 18 18 23 19 2 20 1 21 3 22
REMARK SMILES IDX 14 23
REMARK H PARENT 14 24
REMARK Flexibility Score: inf
ROOT
ATOM      1  C   UNL     1      83.532  -5.056  29.290  1.00  0.00     0.062 C 
ATOM      2  C   UNL     1      83.384  -4.421  27.881  1.00  0.00     0.012 C 
ATOM      3  C   UNL     1      81.929  -4.667  27.441  1.00  0.00     0.005 C 
ATOM      4  C   UNL     1      81.260  -5.267  28.672  1.00  0.00    -0.001 C 
ATOM      5  C   UNL     1      82.366  -6.069  29.367  1.00  0.00    -0.020 C 
ATOM      6  C   UNL     1      81.875  -6.389  30.797  1.00  0.00     0.008 C 
ATOM      7  C   UNL     1      80.550  -7.184  30.763  1.00  0.00     0.005 C 
ATOM      8  C   UNL     1      79.435  -6.503  29.901  1.00  0.00     0.003 C 
ATOM      9  C   UNL     1      79.950  -6.063  28.497  1.00  0.00     0.000 C 
ATOM     10  C   UNL     1      78.877  -5.184  27.844  1.00  0.00     0.031 C 
ATOM     11  C   UNL     1      77.569  -5.907  27.761  1.00  0.00    -0.027 C 
ATOM     12  C   UNL     1      77.182  -6.840  28.657  1.00  0.00    -0.065 C 
ATOM     13  C   UNL     1      78.085  -7.331  29.806  1.00  0.00    -0.008 C 
ATOM     14  C   UNL     1      78.358  -8.849  29.556  1.00  0.00     0.014 C 
ATOM     15  C   UNL     1      77.093  -9.675  29.249  1.00  0.00     0.033 C 
ATOM     16  C   UNL     1      76.279  -9.082  28.089  1.00  0.00     0.118 C 
ATOM     17  C   UNL     1      75.914  -7.621  28.376  1.00  0.00     0.063 C 
ATOM     18  C   UNL     1      77.324  -7.152  31.147  1.00  0.00     0.016 C 
ATOM     19  C   UNL     1      82.753  -7.384  28.615  1.00  0.00     0.012 C 
ENDROOT
BRANCH   1  20
ATOM     20  C   UNL     1      84.900  -5.632  29.629  1.00  0.00     0.133 C 
ATOM     21  C   UNL     1      85.424  -5.718  31.034  1.00  0.00     0.088 C 
ATOM     22  O   UNL     1      85.597  -6.056  28.721  1.00  0.00    -0.300 OA
ENDBRANCH   1  20
BRANCH  16  23
ATOM     23  O   UNL     1      75.112  -9.841  27.913  1.00  0.00    -0.393 OA
ATOM     24  H   UNL     1      75.164 -10.599  28.552  1.00  0.00     0.210 HD
ENDBRANCH  16  23
TORSDOF 2
ENDMDL
MODEL 5
REMARK VINA RESULT:    -5.223      1.332      7.016
REMARK INTER + INTRA:          -5.826
REMARK INTER:                  -5.684
REMARK INTRA:                  -0.142
REMARK UNBOUND:                -0.146
REMARK SMILES CC(=O)[C@H]1CC[C@H]2[C@@H]3CC=C4C[C@H](O)CC[C@@]4(C)[C@H]3CC[C@]12C
REMARK SMILES IDX 4 1 5 2 6 3 7 4 22 5 21 6 20 7 19 8 8 9 9 10 10 11 11 12
REMARK SMILES IDX 17 13 16 14 15 15 13 16 12 17 18 18 23 19 2 20 1 21 3 22
REMARK SMILES IDX 14 23
REMARK H PARENT 14 24
REMARK Flexibility Score: inf
ROOT
ATOM      1  C   UNL     1      84.906  -5.939  29.767  1.00  0.00     0.062 C 
ATOM      2  C   UNL     1      85.292  -7.025  28.728  1.00  0.00     0.012 C 
ATOM      3  C   UNL     1      83.985  -7.451  28.034  1.00  0.00     0.005 C 
ATOM      4  C   UNL     1      82.941  -6.478  28.569  1.00  0.00    -0.001 C 
ATOM      5  C   UNL     1      83.394  -6.165  30.000  1.00  0.00    -0.020 C 
ATOM      6  C   UNL     1      82.613  -4.917  30.468  1.00  0.00     0.008 C 
ATOM      7  C   UNL     1      81.088  -5.162  30.410  1.00  0.00     0.005 C 
ATOM      8  C   UNL     1      80.591  -5.674  29.016  1.00  0.00     0.003 C 
ATOM      9  C   UNL     1      81.448  -6.857  28.473  1.00  0.00     0.000 C 
ATOM     10  C   UNL     1      81.056  -7.104  27.011  1.00  0.00     0.031 C 
ATOM     11  C   UNL     1      79.588  -7.371  26.889  1.00  0.00    -0.027 C 
ATOM     12  C   UNL     1      78.668  -6.842  27.723  1.00  0.00    -0.065 C 
ATOM     13  C   UNL     1      79.037  -5.986  28.951  1.00  0.00    -0.008 C 
ATOM     14  C   UNL     1      78.555  -6.767  30.215  1.00  0.00     0.014 C 
ATOM     15  C   UNL     1      77.104  -7.282  30.122  1.00  0.00     0.033 C 
ATOM     16  C   UNL     1      76.864  -8.117  28.856  1.00  0.00     0.118 C 
ATOM     17  C   UNL     1      77.234  -7.316  27.602  1.00  0.00     0.063 C 
ATOM     18  C   UNL     1      78.285  -4.632  28.856  1.00  0.00     0.016 C 
ATOM     19  C   UNL     1      83.180  -7.350  30.997  1.00  0.00     0.012 C 
ENDROOT
BRANCH   1  20
ATOM     20  C   UNL     1      85.746  -5.892  31.037  1.00  0.00     0.133 C 
ATOM     21  C   UNL     1      86.745  -6.955  31.394  1.00  0.00     0.088 C 
ATOM     22  O   UNL     1      85.612  -4.942  31.792  1.00  0.00    -0.300 OA
ENDBRANCH   1  20
BRANCH  16  23
ATOM     23  O   UNL     1      75.512  -8.491  28.803  1.00  0.00    -0.393 OA
ATOM     24  H   UNL     1      75.212  -8.349  27.868  1.00  0.00     0.210 HD
ENDBRANCH  16  23
TORSDOF 2
ENDMDL
MODEL 6
REMARK VINA RESULT:    -5.207      1.515      6.846
REMARK INTER + INTRA:          -5.809
REMARK INTER:                  -5.705
REMARK INTRA:                  -0.105
REMARK UNBOUND:                -0.146
REMARK SMILES CC(=O)[C@H]1CC[C@H]2[C@@H]3CC=C4C[C@H](O)CC[C@@]4(C)[C@H]3CC[C@]12C
REMARK SMILES IDX 4 1 5 2 6 3 7 4 22 5 21 6 20 7 19 8 8 9 9 10 10 11 11 12
REMARK SMILES IDX 17 13 16 14 15 15 13 16 12 17 18 18 23 19 2 20 1 21 3 22
REMARK SMILES IDX 14 23
REMARK H PARENT 14 24
REMARK Flexibility Score: inf
ROOT
ATOM      1  C   UNL     1      83.204  -5.879  30.525  1.00  0.00     0.062 C 
ATOM      2  C   UNL     1      82.470  -4.888  31.468  1.00  0.00     0.012 C 
ATOM      3  C   UNL     1      80.963  -5.083  31.219  1.00  0.00     0.005 C 
ATOM      4  C   UNL     1      80.889  -6.286  30.287  1.00  0.00    -0.001 C 
ATOM      5  C   UNL     1      82.158  -6.199  29.432  1.00  0.00    -0.020 C 
ATOM      6  C   UNL     1      82.341  -7.567  28.737  1.00  0.00     0.008 C 
ATOM      7  C   UNL     1      81.111  -7.916  27.869  1.00  0.00     0.005 C 
ATOM      8  C   UNL     1      79.754  -7.833  28.646  1.00  0.00     0.003 C 
ATOM      9  C   UNL     1      79.609  -6.507  29.453  1.00  0.00     0.000 C 
ATOM     10  C   UNL     1      78.390  -6.637  30.375  1.00  0.00     0.031 C 
ATOM     11  C   UNL     1      77.156  -6.954  29.589  1.00  0.00    -0.027 C 
ATOM     12  C   UNL     1      77.173  -7.661  28.439  1.00  0.00    -0.065 C 
ATOM     13  C   UNL     1      78.474  -8.133  27.759  1.00  0.00    -0.008 C 
ATOM     14  C   UNL     1      78.553  -7.414  26.375  1.00  0.00     0.014 C 
ATOM     15  C   UNL     1      77.253  -7.494  25.548  1.00  0.00     0.033 C 
ATOM     16  C   UNL     1      76.032  -6.999  26.336  1.00  0.00     0.118 C 
ATOM     17  C   UNL     1      75.885  -7.776  27.650  1.00  0.00     0.063 C 
ATOM     18  C   UNL     1      78.394  -9.668  27.546  1.00  0.00     0.016 C 
ATOM     19  C   UNL     1      82.123  -5.048  28.374  1.00  0.00     0.012 C 
ENDROOT
BRANCH   1  20
ATOM     20  C   UNL     1      84.559  -5.427  29.996  1.00  0.00     0.133 C 
ATOM     21  C   UNL     1      85.485  -6.336  29.239  1.00  0.00     0.088 C 
ATOM     22  O   UNL     1      84.904  -4.271  30.184  1.00  0.00    -0.300 OA
ENDBRANCH   1  20
BRANCH  16  23
ATOM     23  O   UNL     1      74.881  -7.166  25.551  1.00  0.00    -0.393 OA
ATOM     24  H   UNL     1      75.019  -7.988  25.011  1.00  0.00     0.210 HD
ENDBRANCH  16  23
TORSDOF 2
ENDMDL
MODEL 7
REMARK VINA RESULT:    -4.851      1.437      2.457
REMARK INTER + INTRA:          -5.422
REMARK INTER:                  -5.278
REMARK INTRA:                  -0.144
REMARK UNBOUND:                -0.146
REMARK SMILES CC(=O)[C@H]1CC[C@H]2[C@@H]3CC=C4C[C@H](O)CC[C@@]4(C)[C@H]3CC[C@]12C
REMARK SMILES IDX 4 1 5 2 6 3 7 4 22 5 21 6 20 7 19 8 8 9 9 10 10 11 11 12
REMARK SMILES IDX 17 13 16 14 15 15 13 16 12 17 18 18 23 19 2 20 1 21 3 22
REMARK SMILES IDX 14 23
REMARK H PARENT 14 24
REMARK Flexibility Score: inf
ROOT
ATOM      1  C   UNL     1      77.934  -6.992  27.777  1.00  0.00     0.062 C 
ATOM      2  C   UNL     1      77.814  -5.456  27.590  1.00  0.00     0.012 C 
ATOM      3  C   UNL     1      79.217  -4.874  27.850  1.00  0.00     0.005 C 
ATOM      4  C   UNL     1      80.111  -6.099  27.997  1.00  0.00    -0.001 C 
ATOM      5  C   UNL     1      79.212  -7.167  28.630  1.00  0.00    -0.020 C 
ATOM      6  C   UNL     1      79.925  -8.528  28.463  1.00  0.00     0.008 C 
ATOM      7  C   UNL     1      81.318  -8.509  29.130  1.00  0.00     0.005 C 
ATOM      8  C   UNL     1      82.219  -7.317  28.663  1.00  0.00     0.003 C 
ATOM      9  C   UNL     1      81.472  -5.950  28.709  1.00  0.00     0.000 C 
ATOM     10  C   UNL     1      82.335  -4.906  27.992  1.00  0.00     0.031 C 
ATOM     11  C   UNL     1      83.697  -4.822  28.608  1.00  0.00    -0.027 C 
ATOM     12  C   UNL     1      84.310  -5.874  29.193  1.00  0.00    -0.065 C 
ATOM     13  C   UNL     1      83.633  -7.247  29.377  1.00  0.00    -0.008 C 
ATOM     14  C   UNL     1      83.512  -7.494  30.915  1.00  0.00     0.014 C 
ATOM     15  C   UNL     1      84.815  -7.236  31.700  1.00  0.00     0.033 C 
ATOM     16  C   UNL     1      85.389  -5.838  31.428  1.00  0.00     0.118 C 
ATOM     17  C   UNL     1      85.612  -5.628  29.926  1.00  0.00     0.063 C 
ATOM     18  C   UNL     1      84.539  -8.336  28.744  1.00  0.00     0.016 C 
ATOM     19  C   UNL     1      78.888  -6.900  30.136  1.00  0.00     0.012 C 
ENDROOT
BRANCH   1  20
ATOM     20  C   UNL     1      76.702  -7.702  28.322  1.00  0.00     0.133 C 
ATOM     21  C   UNL     1      75.514  -6.967  28.875  1.00  0.00     0.088 C 
ATOM     22  O   UNL     1      76.671  -8.922  28.297  1.00  0.00    -0.300 OA
ENDBRANCH   1  20
BRANCH  16  23
ATOM     23  O   UNL     1      86.604  -5.700  32.116  1.00  0.00    -0.393 OA
ATOM     24  H   UNL     1      87.255  -5.314  31.474  1.00  0.00     0.210 HD
ENDBRANCH  16  23
TORSDOF 2
ENDMDL
MODEL 8
REMARK VINA RESULT:    -4.792      1.980      7.012
REMARK INTER + INTRA:          -5.357
REMARK INTER:                  -5.252
REMARK INTRA:                  -0.106
REMARK UNBOUND:                -0.146
REMARK SMILES CC(=O)[C@H]1CC[C@H]2[C@@H]3CC=C4C[C@H](O)CC[C@@]4(C)[C@H]3CC[C@]12C
REMARK SMILES IDX 4 1 5 2 6 3 7 4 22 5 21 6 20 7 19 8 8 9 9 10 10 11 11 12
REMARK SMILES IDX 17 13 16 14 15 15 13 16 12 17 18 18 23 19 2 20 1 21 3 22
REMARK SMILES IDX 14 23
REMARK H PARENT 14 24
REMARK Flexibility Score: inf
ROOT
ATOM      1  C   UNL     1      84.686  -8.299  28.801  1.00  0.00     0.062 C 
ATOM      2  C   UNL     1      84.532  -9.641  28.037  1.00  0.00     0.012 C 
ATOM      3  C   UNL     1      83.094  -9.667  27.486  1.00  0.00     0.005 C 
ATOM      4  C   UNL     1      82.546  -8.281  27.798  1.00  0.00    -0.001 C 
ATOM      5  C   UNL     1      83.231  -7.874  29.108  1.00  0.00    -0.020 C 
ATOM      6  C   UNL     1      83.021  -6.353  29.286  1.00  0.00     0.008 C 
ATOM      7  C   UNL     1      81.516  -6.002  29.315  1.00  0.00     0.005 C 
ATOM      8  C   UNL     1      80.720  -6.562  28.089  1.00  0.00     0.003 C 
ATOM      9  C   UNL     1      81.017  -8.068  27.821  1.00  0.00     0.000 C 
ATOM     10  C   UNL     1      80.408  -8.445  26.465  1.00  0.00     0.031 C 
ATOM     11  C   UNL     1      78.942  -8.149  26.435  1.00  0.00    -0.027 C 
ATOM     12  C   UNL     1      78.376  -7.145  27.140  1.00  0.00    -0.065 C 
ATOM     13  C   UNL     1      79.163  -6.260  28.127  1.00  0.00    -0.008 C 
ATOM     14  C   UNL     1      78.564  -6.514  29.547  1.00  0.00     0.014 C 
ATOM     15  C   UNL     1      77.024  -6.441  29.604  1.00  0.00     0.033 C 
ATOM     16  C   UNL     1      76.360  -7.364  28.573  1.00  0.00     0.118 C 
ATOM     17  C   UNL     1      76.864  -7.047  27.160  1.00  0.00     0.063 C 
ATOM     18  C   UNL     1      78.959  -4.774  27.732  1.00  0.00     0.016 C 
ATOM     19  C   UNL     1      82.702  -8.650  30.358  1.00  0.00     0.012 C 
ENDROOT
BRANCH   1  20
ATOM     20  C   UNL     1      85.614  -8.314  30.008  1.00  0.00     0.133 C 
ATOM     21  C   UNL     1      86.215  -7.067  30.592  1.00  0.00     0.088 C 
ATOM     22  O   UNL     1      85.869  -9.385  30.536  1.00  0.00    -0.300 OA
ENDBRANCH   1  20
BRANCH  16  23
ATOM     23  O   UNL     1      74.969  -7.193  28.634  1.00  0.00    -0.393 OA
ATOM     24  H   UNL     1      74.677  -6.896  27.733  1.00  0.00     0.210 HD
ENDBRANCH  16  23
TORSDOF 2
ENDMDL
MODEL 9
REMARK VINA RESULT:    -4.713      1.872      3.466
REMARK INTER + INTRA:          -5.272
REMARK INTER:                  -5.156
REMARK INTRA:                  -0.117
REMARK UNBOUND:                -0.146
REMARK SMILES CC(=O)[C@H]1CC[C@H]2[C@@H]3CC=C4C[C@H](O)CC[C@@]4(C)[C@H]3CC[C@]12C
REMARK SMILES IDX 4 1 5 2 6 3 7 4 22 5 21 6 20 7 19 8 8 9 9 10 10 11 11 12
REMARK SMILES IDX 17 13 16 14 15 15 13 16 12 17 18 18 23 19 2 20 1 21 3 22
REMARK SMILES IDX 14 23
REMARK H PARENT 14 24
REMARK Flexibility Score: inf
ROOT
ATOM      1  C   UNL     1      78.673  -7.291  27.562  1.00  0.00     0.062 C 
ATOM      2  C   UNL     1      79.249  -7.723  26.186  1.00  0.00     0.012 C 
ATOM      3  C   UNL     1      80.741  -8.027  26.413  1.00  0.00     0.005 C 
ATOM      4  C   UNL     1      80.920  -7.931  27.923  1.00  0.00    -0.001 C 
ATOM      5  C   UNL     1      79.920  -6.859  28.369  1.00  0.00    -0.020 C 
ATOM      6  C   UNL     1      79.773  -6.973  29.903  1.00  0.00     0.008 C 
ATOM      7  C   UNL     1      81.137  -6.786  30.605  1.00  0.00     0.005 C 
ATOM      8  C   UNL     1      82.259  -7.730  30.053  1.00  0.00     0.003 C 
ATOM      9  C   UNL     1      82.336  -7.718  28.496  1.00  0.00     0.000 C 
ATOM     10  C   UNL     1      83.266  -8.853  28.053  1.00  0.00     0.031 C 
ATOM     11  C   UNL     1      84.617  -8.717  28.683  1.00  0.00    -0.027 C 
ATOM     12  C   UNL     1      84.813  -8.160  29.898  1.00  0.00    -0.065 C 
ATOM     13  C   UNL     1      83.681  -7.515  30.722  1.00  0.00    -0.008 C 
ATOM     14  C   UNL     1      84.026  -5.998  30.863  1.00  0.00     0.014 C 
ATOM     15  C   UNL     1      85.475  -5.720  31.313  1.00  0.00     0.033 C 
ATOM     16  C   UNL     1      86.506  -6.419  30.415  1.00  0.00     0.118 C 
ATOM     17  C   UNL     1      86.238  -7.928  30.357  1.00  0.00     0.063 C 
ATOM     18  C   UNL     1      83.650  -8.176  32.125  1.00  0.00     0.016 C 
ATOM     19  C   UNL     1      80.338  -5.407  27.966  1.00  0.00     0.012 C 
ENDROOT
BRANCH   1  20
ATOM     20  C   UNL     1      77.548  -6.266  27.529  1.00  0.00     0.133 C 
ATOM     21  C   UNL     1      76.651  -6.000  28.704  1.00  0.00     0.088 C 
ATOM     22  O   UNL     1      77.376  -5.619  26.508  1.00  0.00    -0.300 OA
ENDBRANCH   1  20
BRANCH  16  23
ATOM     23  O   UNL     1      87.792  -6.181  30.923  1.00  0.00    -0.393 OA
ATOM     24  H   UNL     1      88.154  -5.399  30.430  1.00  0.00     0.210 HD
ENDBRANCH  16  23
TORSDOF 2
ENDMDL
