MODEL 1
REMARK VINA RESULT:    -5.141      0.000      0.000
REMARK INTER + INTRA:         -16.534
REMARK INTER:                 -12.956
REMARK INTRA:                  -3.579
REMARK UNBOUND:                -3.579
REMARK SMILES CCCCCCCCCCCCCCCCCCCCCCCCCCCC(=O)[O-]
REMARK SMILES IDX 15 1 16 2 17 3 18 4 19 5 20 6 21 7 22 8 23 9 24 10 25 11
REMARK SMILES IDX 26 12 27 13 28 14 29 15 30 16 14 17 13 18 12 19 11 20 10 21
REMARK SMILES IDX 9 22 8 23 7 24 6 25 5 26 4 27 3 28 2 29 1 30
REMARK H PARENT
REMARK Flexibility Score: inf
ROOT
ATOM      1  C   UNL     1      -6.929  12.313  -7.338  1.00  0.00     0.000 C 
ENDROOT
BRANCH   1   2
ATOM      2  C   UNL     1      -5.708  13.021  -7.965  1.00  0.00     0.000 C 
BRANCH   2   3
ATOM      3  C   UNL     1      -5.485  12.709  -9.460  1.00  0.00     0.000 C 
BRANCH   3   4
ATOM      4  C   UNL     1      -6.541  11.787 -10.110  1.00  0.00     0.000 C 
BRANCH   4   5
ATOM      5  C   UNL     1      -5.982  10.591 -10.902  1.00  0.00     0.000 C 
BRANCH   5   6
ATOM      6  C   UNL     1      -4.447  10.607 -11.005  1.00  0.00     0.000 C 
BRANCH   6   7
ATOM      7  C   UNL     1      -3.844   9.196 -11.065  1.00  0.00     0.000 C 
BRANCH   7   8
ATOM      8  C   UNL     1      -4.664   8.161 -10.279  1.00  0.00     0.000 C 
BRANCH   8   9
ATOM      9  C   UNL     1      -5.255   7.102 -11.222  1.00  0.00     0.000 C 
BRANCH   9  10
ATOM     10  C   UNL     1      -6.617   6.566 -10.747  1.00  0.00     0.000 C 
BRANCH  10  11
ATOM     11  C   UNL     1      -7.035   5.217 -11.360  1.00  0.00     0.000 C 
BRANCH  11  12
ATOM     12  C   UNL     1      -6.102   4.759 -12.491  1.00  0.00     0.006 C 
BRANCH  12  13
ATOM     13  C   UNL     1      -6.884   4.015 -13.578  1.00  0.00     0.053 C 
BRANCH  13  14
ATOM     14  C   UNL     1      -6.033   3.811 -14.792  1.00  0.00     0.041 C 
ATOM     15  O   UNL     1      -6.225   4.504 -15.826  1.00  0.00    -0.550 OA
ATOM     16  O   UNL     1      -5.039   2.841 -14.789  1.00  0.00    -0.550 OA
ENDBRANCH  13  14
ENDBRANCH  12  13
ENDBRANCH  11  12
ENDBRANCH  10  11
ENDBRANCH   9  10
ENDBRANCH   8   9
ENDBRANCH   7   8
ENDBRANCH   6   7
ENDBRANCH   5   6
ENDBRANCH   4   5
ENDBRANCH   3   4
ENDBRANCH   2   3
ENDBRANCH   1   2
BRANCH   1  17
ATOM     17  C   UNL     1      -6.568  11.159  -6.385  1.00  0.00     0.000 C 
BRANCH  17  18
ATOM     18  C   UNL     1      -6.311   9.815  -7.095  1.00  0.00     0.000 C 
BRANCH  18  19
ATOM     19  C   UNL     1      -4.815   9.561  -7.332  1.00  0.00     0.000 C 
BRANCH  19  20
ATOM     20  C   UNL     1      -4.000   9.807  -6.055  1.00  0.00     0.000 C 
BRANCH  20  21
ATOM     21  C   UNL     1      -2.587  10.347  -6.339  1.00  0.00     0.000 C 
BRANCH  21  22
ATOM     22  C   UNL     1      -2.580  11.763  -6.956  1.00  0.00    -0.000 C 
BRANCH  22  23
ATOM     23  C   UNL     1      -1.981  11.775  -8.374  1.00  0.00    -0.000 C 
BRANCH  23  24
ATOM     24  C   UNL     1      -1.348  10.430  -8.760  1.00  0.00    -0.000 C 
BRANCH  24  25
ATOM     25  C   UNL     1      -0.017  10.173  -8.031  1.00  0.00    -0.000 C 
BRANCH  25  26
ATOM     26  C   UNL     1       0.967  11.346  -8.175  1.00  0.00    -0.000 C 
BRANCH  26  27
ATOM     27  C   UNL     1       2.049  11.351  -7.082  1.00  0.00    -0.000 C 
BRANCH  27  28
ATOM     28  C   UNL     1       1.515  11.818  -5.716  1.00  0.00    -0.000 C 
BRANCH  28  29
ATOM     29  C   UNL     1       1.435  13.346  -5.541  1.00  0.00    -0.003 C 
ATOM     30  C   UNL     1       0.018  13.893  -5.715  1.00  0.00     0.004 C 
ENDBRANCH  28  29
ENDBRANCH  27  28
ENDBRANCH  26  27
ENDBRANCH  25  26
ENDBRANCH  24  25
ENDBRANCH  23  24
ENDBRANCH  22  23
ENDBRANCH  21  22
ENDBRANCH  20  21
ENDBRANCH  19  20
ENDBRANCH  18  19
ENDBRANCH  17  18
ENDBRANCH   1  17
TORSDOF 26
ENDMDL
MODEL 2
REMARK VINA RESULT:    -5.006      0.797      1.514
REMARK INTER + INTRA:         -16.193
REMARK INTER:                 -12.252
REMARK INTRA:                  -3.941
REMARK UNBOUND:                -3.579
REMARK SMILES CCCCCCCCCCCCCCCCCCCCCCCCCCCC(=O)[O-]
REMARK SMILES IDX 15 1 16 2 17 3 18 4 19 5 20 6 21 7 22 8 23 9 24 10 25 11
REMARK SMILES IDX 26 12 27 13 28 14 29 15 30 16 14 17 13 18 12 19 11 20 10 21
REMARK SMILES IDX 9 22 8 23 7 24 6 25 5 26 4 27 3 28 2 29 1 30
REMARK H PARENT
REMARK Flexibility Score: inf
ROOT
ATOM      1  C   UNL     1      -6.790  12.282  -7.374  1.00  0.00     0.000 C 
ENDROOT
BRANCH   1   2
ATOM      2  C   UNL     1      -5.413  12.769  -7.875  1.00  0.00     0.000 C 
BRANCH   2   3
ATOM      3  C   UNL     1      -5.246  12.744  -9.409  1.00  0.00     0.000 C 
BRANCH   3   4
ATOM      4  C   UNL     1      -6.274  11.883 -10.175  1.00  0.00     0.000 C 
BRANCH   4   5
ATOM      5  C   UNL     1      -5.681  10.837 -11.137  1.00  0.00     0.000 C 
BRANCH   5   6
ATOM      6  C   UNL     1      -4.168  10.638 -10.945  1.00  0.00     0.000 C 
BRANCH   6   7
ATOM      7  C   UNL     1      -3.752   9.161 -11.009  1.00  0.00     0.000 C 
BRANCH   7   8
ATOM      8  C   UNL     1      -4.746   8.230 -10.297  1.00  0.00     0.000 C 
BRANCH   8   9
ATOM      9  C   UNL     1      -5.327   7.200 -11.278  1.00  0.00     0.000 C 
BRANCH   9  10
ATOM     10  C   UNL     1      -6.604   6.521 -10.751  1.00  0.00     0.000 C 
BRANCH  10  11
ATOM     11  C   UNL     1      -6.898   5.134 -11.350  1.00  0.00     0.000 C 
BRANCH  11  12
ATOM     12  C   UNL     1      -6.041   4.821 -12.586  1.00  0.00     0.006 C 
BRANCH  12  13
ATOM     13  C   UNL     1      -6.850   4.048 -13.632  1.00  0.00     0.053 C 
BRANCH  13  14
ATOM     14  C   UNL     1      -6.009   3.751 -14.834  1.00  0.00     0.041 C 
ATOM     15  O   UNL     1      -6.130   4.442 -15.880  1.00  0.00    -0.550 OA
ATOM     16  O   UNL     1      -5.104   2.698 -14.806  1.00  0.00    -0.550 OA
ENDBRANCH  13  14
ENDBRANCH  12  13
ENDBRANCH  11  12
ENDBRANCH  10  11
ENDBRANCH   9  10
ENDBRANCH   8   9
ENDBRANCH   7   8
ENDBRANCH   6   7
ENDBRANCH   5   6
ENDBRANCH   4   5
ENDBRANCH   3   4
ENDBRANCH   2   3
ENDBRANCH   1   2
BRANCH   1  17
ATOM     17  C   UNL     1      -6.749  10.940  -6.621  1.00  0.00     0.000 C 
BRANCH  17  18
ATOM     18  C   UNL     1      -6.435   9.726  -7.518  1.00  0.00     0.000 C 
BRANCH  18  19
ATOM     19  C   UNL     1      -5.672   8.628  -6.762  1.00  0.00     0.000 C 
BRANCH  19  20
ATOM     20  C   UNL     1      -5.592   8.939  -5.261  1.00  0.00     0.000 C 
BRANCH  20  21
ATOM     21  C   UNL     1      -4.155   8.887  -4.714  1.00  0.00     0.000 C 
BRANCH  21  22
ATOM     22  C   UNL     1      -3.640  10.248  -4.198  1.00  0.00    -0.000 C 
BRANCH  22  23
ATOM     23  C   UNL     1      -3.130  11.146  -5.340  1.00  0.00    -0.000 C 
BRANCH  23  24
ATOM     24  C   UNL     1      -2.112  10.432  -6.244  1.00  0.00    -0.000 C 
BRANCH  24  25
ATOM     25  C   UNL     1      -2.287  10.794  -7.729  1.00  0.00    -0.000 C 
BRANCH  25  26
ATOM     26  C   UNL     1      -1.215  10.148  -8.622  1.00  0.00    -0.000 C 
BRANCH  26  27
ATOM     27  C   UNL     1       0.211  10.360  -8.086  1.00  0.00    -0.000 C 
BRANCH  27  28
ATOM     28  C   UNL     1       0.561  11.847  -7.896  1.00  0.00    -0.000 C 
BRANCH  28  29
ATOM     29  C   UNL     1       1.091  12.213  -6.497  1.00  0.00    -0.003 C 
ATOM     30  C   UNL     1       0.437  13.471  -5.923  1.00  0.00     0.004 C 
ENDBRANCH  28  29
ENDBRANCH  27  28
ENDBRANCH  26  27
ENDBRANCH  25  26
ENDBRANCH  24  25
ENDBRANCH  23  24
ENDBRANCH  22  23
ENDBRANCH  21  22
ENDBRANCH  20  21
ENDBRANCH  19  20
ENDBRANCH  18  19
ENDBRANCH  17  18
ENDBRANCH   1  17
TORSDOF 26
ENDMDL
MODEL 3
REMARK VINA RESULT:    -4.930      1.803      3.479
REMARK INTER + INTRA:         -16.001
REMARK INTER:                 -11.582
REMARK INTRA:                  -4.419
REMARK UNBOUND:                -3.579
REMARK SMILES CCCCCCCCCCCCCCCCCCCCCCCCCCCC(=O)[O-]
REMARK SMILES IDX 15 1 16 2 17 3 18 4 19 5 20 6 21 7 22 8 23 9 24 10 25 11
REMARK SMILES IDX 26 12 27 13 28 14 29 15 30 16 14 17 13 18 12 19 11 20 10 21
REMARK SMILES IDX 9 22 8 23 7 24 6 25 5 26 4 27 3 28 2 29 1 30
REMARK H PARENT
REMARK Flexibility Score: inf
ROOT
ATOM      1  C   UNL     1      -4.351   9.861  -6.820  1.00  0.00     0.000 C 
ENDROOT
BRANCH   1   2
ATOM      2  C   UNL     1      -5.717  10.534  -7.075  1.00  0.00     0.000 C 
BRANCH   2   3
ATOM      3  C   UNL     1      -5.713  12.069  -6.913  1.00  0.00     0.000 C 
BRANCH   3   4
ATOM      4  C   UNL     1      -4.588  12.813  -7.666  1.00  0.00     0.000 C 
BRANCH   4   5
ATOM      5  C   UNL     1      -4.758  12.904  -9.193  1.00  0.00     0.000 C 
BRANCH   5   6
ATOM      6  C   UNL     1      -3.843  11.930  -9.956  1.00  0.00     0.000 C 
BRANCH   6   7
ATOM      7  C   UNL     1      -4.629  10.842 -10.703  1.00  0.00     0.000 C 
BRANCH   7   8
ATOM      8  C   UNL     1      -6.103  11.215 -10.924  1.00  0.00     0.000 C 
BRANCH   8   9
ATOM      9  C   UNL     1      -7.031  10.216 -10.217  1.00  0.00     0.000 C 
BRANCH   9  10
ATOM     10  C   UNL     1      -6.764   8.755 -10.621  1.00  0.00     0.000 C 
BRANCH  10  11
ATOM     11  C   UNL     1      -6.364   7.823  -9.464  1.00  0.00     0.000 C 
BRANCH  11  12
ATOM     12  C   UNL     1      -5.316   6.777  -9.871  1.00  0.00     0.006 C 
BRANCH  12  13
ATOM     13  C   UNL     1      -5.302   6.577 -11.389  1.00  0.00     0.053 C 
BRANCH  13  14
ATOM     14  C   UNL     1      -6.123   5.385 -11.770  1.00  0.00     0.041 C 
ATOM     15  O   UNL     1      -7.030   4.967 -11.004  1.00  0.00    -0.550 OA
ATOM     16  O   UNL     1      -5.872   4.723 -12.965  1.00  0.00    -0.550 OA
ENDBRANCH  13  14
ENDBRANCH  12  13
ENDBRANCH  11  12
ENDBRANCH  10  11
ENDBRANCH   9  10
ENDBRANCH   8   9
ENDBRANCH   7   8
ENDBRANCH   6   7
ENDBRANCH   5   6
ENDBRANCH   4   5
ENDBRANCH   3   4
ENDBRANCH   2   3
ENDBRANCH   1   2
BRANCH   1  17
ATOM     17  C   UNL     1      -4.115   9.445  -5.356  1.00  0.00     0.000 C 
BRANCH  17  18
ATOM     18  C   UNL     1      -2.788   9.960  -4.763  1.00  0.00     0.000 C 
BRANCH  18  19
ATOM     19  C   UNL     1      -2.991  11.204  -3.885  1.00  0.00     0.000 C 
BRANCH  19  20
ATOM     20  C   UNL     1      -2.669  12.489  -4.659  1.00  0.00     0.000 C 
BRANCH  20  21
ATOM     21  C   UNL     1      -1.633  13.376  -3.946  1.00  0.00     0.000 C 
BRANCH  21  22
ATOM     22  C   UNL     1      -0.196  12.813  -4.000  1.00  0.00    -0.000 C 
BRANCH  22  23
ATOM     23  C   UNL     1       0.112  12.136  -5.348  1.00  0.00    -0.000 C 
BRANCH  23  24
ATOM     24  C   UNL     1       0.233  13.144  -6.501  1.00  0.00    -0.000 C 
BRANCH  24  25
ATOM     25  C   UNL     1      -0.586  12.727  -7.736  1.00  0.00    -0.000 C 
BRANCH  25  26
ATOM     26  C   UNL     1      -1.037  11.258  -7.674  1.00  0.00    -0.000 C 
BRANCH  26  27
ATOM     27  C   UNL     1      -0.216  10.345  -8.599  1.00  0.00    -0.000 C 
BRANCH  27  28
ATOM     28  C   UNL     1       0.998   9.716  -7.893  1.00  0.00    -0.000 C 
BRANCH  28  29
ATOM     29  C   UNL     1       2.320  10.485  -8.074  1.00  0.00    -0.003 C 
ATOM     30  C   UNL     1       3.163   9.956  -9.235  1.00  0.00     0.004 C 
ENDBRANCH  28  29
ENDBRANCH  27  28
ENDBRANCH  26  27
ENDBRANCH  25  26
ENDBRANCH  24  25
ENDBRANCH  23  24
ENDBRANCH  22  23
ENDBRANCH  21  22
ENDBRANCH  20  21
ENDBRANCH  19  20
ENDBRANCH  18  19
ENDBRANCH  17  18
ENDBRANCH   1  17
TORSDOF 26
ENDMDL
MODEL 4
REMARK VINA RESULT:    -4.902      1.830      4.021
REMARK INTER + INTRA:         -15.931
REMARK INTER:                 -11.656
REMARK INTRA:                  -4.275
REMARK UNBOUND:                -3.579
REMARK SMILES CCCCCCCCCCCCCCCCCCCCCCCCCCCC(=O)[O-]
REMARK SMILES IDX 15 1 16 2 17 3 18 4 19 5 20 6 21 7 22 8 23 9 24 10 25 11
REMARK SMILES IDX 26 12 27 13 28 14 29 15 30 16 14 17 13 18 12 19 11 20 10 21
REMARK SMILES IDX 9 22 8 23 7 24 6 25 5 26 4 27 3 28 2 29 1 30
REMARK H PARENT
REMARK Flexibility Score: inf
ROOT
ATOM      1  C   UNL     1      -3.211   9.332  -5.173  1.00  0.00     0.000 C 
ENDROOT
BRANCH   1   2
ATOM      2  C   UNL     1      -4.000   9.746  -6.434  1.00  0.00     0.000 C 
BRANCH   2   3
ATOM      3  C   UNL     1      -5.423   9.157  -6.519  1.00  0.00     0.000 C 
BRANCH   3   4
ATOM      4  C   UNL     1      -6.527  10.148  -6.951  1.00  0.00     0.000 C 
BRANCH   4   5
ATOM      5  C   UNL     1      -6.640  11.428  -6.103  1.00  0.00     0.000 C 
BRANCH   5   6
ATOM      6  C   UNL     1      -6.058  12.665  -6.806  1.00  0.00     0.000 C 
BRANCH   6   7
ATOM      7  C   UNL     1      -6.598  12.844  -8.233  1.00  0.00     0.000 C 
BRANCH   7   8
ATOM      8  C   UNL     1      -5.507  12.707  -9.306  1.00  0.00     0.000 C 
BRANCH   8   9
ATOM      9  C   UNL     1      -5.936  11.715 -10.398  1.00  0.00     0.000 C 
BRANCH   9  10
ATOM     10  C   UNL     1      -4.801  10.773 -10.836  1.00  0.00     0.000 C 
BRANCH  10  11
ATOM     11  C   UNL     1      -4.883   9.346 -10.265  1.00  0.00     0.000 C 
BRANCH  11  12
ATOM     12  C   UNL     1      -6.151   8.597 -10.702  1.00  0.00     0.006 C 
BRANCH  12  13
ATOM     13  C   UNL     1      -6.222   7.213 -10.049  1.00  0.00     0.053 C 
BRANCH  13  14
ATOM     14  C   UNL     1      -5.965   6.141 -11.061  1.00  0.00     0.041 C 
ATOM     15  O   UNL     1      -5.190   6.355 -12.030  1.00  0.00    -0.550 OA
ATOM     16  O   UNL     1      -6.597   4.910 -10.944  1.00  0.00    -0.550 OA
ENDBRANCH  13  14
ENDBRANCH  12  13
ENDBRANCH  11  12
ENDBRANCH  10  11
ENDBRANCH   9  10
ENDBRANCH   8   9
ENDBRANCH   7   8
ENDBRANCH   6   7
ENDBRANCH   5   6
ENDBRANCH   4   5
ENDBRANCH   3   4
ENDBRANCH   2   3
ENDBRANCH   1   2
BRANCH   1  17
ATOM     17  C   UNL     1      -2.361  10.461  -4.561  1.00  0.00     0.000 C 
BRANCH  17  18
ATOM     18  C   UNL     1      -2.663  11.858  -5.140  1.00  0.00     0.000 C 
BRANCH  18  19
ATOM     19  C   UNL     1      -1.651  12.913  -4.667  1.00  0.00     0.000 C 
BRANCH  19  20
ATOM     20  C   UNL     1      -1.084  13.710  -5.849  1.00  0.00     0.000 C 
BRANCH  20  21
ATOM     21  C   UNL     1      -1.897  13.522  -7.143  1.00  0.00     0.000 C 
BRANCH  21  22
ATOM     22  C   UNL     1      -1.130  12.765  -8.249  1.00  0.00    -0.000 C 
BRANCH  22  23
ATOM     23  C   UNL     1      -1.988  11.668  -8.904  1.00  0.00    -0.000 C 
BRANCH  23  24
ATOM     24  C   UNL     1      -1.412  10.260  -8.690  1.00  0.00    -0.000 C 
BRANCH  24  25
ATOM     25  C   UNL     1      -0.113  10.273  -7.866  1.00  0.00    -0.000 C 
BRANCH  25  26
ATOM     26  C   UNL     1       1.138  10.450  -8.743  1.00  0.00    -0.000 C 
BRANCH  26  27
ATOM     27  C   UNL     1       2.376   9.749  -8.160  1.00  0.00    -0.000 C 
BRANCH  27  28
ATOM     28  C   UNL     1       3.436  10.740  -7.647  1.00  0.00    -0.000 C 
BRANCH  28  29
ATOM     29  C   UNL     1       3.257  11.178  -6.181  1.00  0.00    -0.003 C 
ATOM     30  C   UNL     1       2.229  12.298  -6.015  1.00  0.00     0.004 C 
ENDBRANCH  28  29
ENDBRANCH  27  28
ENDBRANCH  26  27
ENDBRANCH  25  26
ENDBRANCH  24  25
ENDBRANCH  23  24
ENDBRANCH  22  23
ENDBRANCH  21  22
ENDBRANCH  20  21
ENDBRANCH  19  20
ENDBRANCH  18  19
ENDBRANCH  17  18
ENDBRANCH   1  17
TORSDOF 26
ENDMDL
MODEL 5
REMARK VINA RESULT:    -4.882      1.572      3.725
REMARK INTER + INTRA:         -15.881
REMARK INTER:                 -11.446
REMARK INTRA:                  -4.436
REMARK UNBOUND:                -3.579
REMARK SMILES CCCCCCCCCCCCCCCCCCCCCCCCCCCC(=O)[O-]
REMARK SMILES IDX 15 1 16 2 17 3 18 4 19 5 20 6 21 7 22 8 23 9 24 10 25 11
REMARK SMILES IDX 26 12 27 13 28 14 29 15 30 16 14 17 13 18 12 19 11 20 10 21
REMARK SMILES IDX 9 22 8 23 7 24 6 25 5 26 4 27 3 28 2 29 1 30
REMARK H PARENT
REMARK Flexibility Score: inf
ROOT
ATOM      1  C   UNL     1      -6.498  10.906 -10.406  1.00  0.00     0.000 C 
ENDROOT
BRANCH   1   2
ATOM      2  C   UNL     1      -6.960  11.850  -9.275  1.00  0.00     0.000 C 
BRANCH   2   3
ATOM      3  C   UNL     1      -5.849  12.757  -8.704  1.00  0.00     0.000 C 
BRANCH   3   4
ATOM      4  C   UNL     1      -6.081  13.267  -7.265  1.00  0.00     0.000 C 
BRANCH   4   5
ATOM      5  C   UNL     1      -6.504  12.197  -6.242  1.00  0.00     0.000 C 
BRANCH   5   6
ATOM      6  C   UNL     1      -5.316  11.621  -5.452  1.00  0.00     0.000 C 
BRANCH   6   7
ATOM      7  C   UNL     1      -4.171  11.155  -6.363  1.00  0.00     0.000 C 
BRANCH   7   8
ATOM      8  C   UNL     1      -4.114   9.628  -6.518  1.00  0.00     0.000 C 
BRANCH   8   9
ATOM      9  C   UNL     1      -5.479   8.996  -6.203  1.00  0.00     0.000 C 
BRANCH   9  10
ATOM     10  C   UNL     1      -6.325   8.732  -7.461  1.00  0.00     0.000 C 
BRANCH  10  11
ATOM     11  C   UNL     1      -5.638   7.874  -8.539  1.00  0.00     0.000 C 
BRANCH  11  12
ATOM     12  C   UNL     1      -6.616   7.346  -9.599  1.00  0.00     0.006 C 
BRANCH  12  13
ATOM     13  C   UNL     1      -5.922   7.186 -10.955  1.00  0.00     0.053 C 
BRANCH  13  14
ATOM     14  C   UNL     1      -6.103   5.796 -11.478  1.00  0.00     0.041 C 
ATOM     15  O   UNL     1      -6.901   5.003 -10.913  1.00  0.00    -0.550 OA
ATOM     16  O   UNL     1      -5.375   5.369 -12.580  1.00  0.00    -0.550 OA
ENDBRANCH  13  14
ENDBRANCH  12  13
ENDBRANCH  11  12
ENDBRANCH  10  11
ENDBRANCH   9  10
ENDBRANCH   8   9
ENDBRANCH   7   8
ENDBRANCH   6   7
ENDBRANCH   5   6
ENDBRANCH   4   5
ENDBRANCH   3   4
ENDBRANCH   2   3
ENDBRANCH   1   2
BRANCH   1  17
ATOM     17  C   UNL     1      -5.147  11.292 -11.037  1.00  0.00     0.000 C 
BRANCH  17  18
ATOM     18  C   UNL     1      -4.165  10.112 -11.187  1.00  0.00     0.000 C 
BRANCH  18  19
ATOM     19  C   UNL     1      -3.170  10.035 -10.019  1.00  0.00     0.000 C 
BRANCH  19  20
ATOM     20  C   UNL     1      -2.690  11.432  -9.604  1.00  0.00     0.000 C 
BRANCH  20  21
ATOM     21  C   UNL     1      -1.311  11.413  -8.920  1.00  0.00     0.000 C 
BRANCH  21  22
ATOM     22  C   UNL     1      -0.878  10.011  -8.440  1.00  0.00    -0.000 C 
BRANCH  22  23
ATOM     23  C   UNL     1       0.615   9.960  -8.068  1.00  0.00    -0.000 C 
BRANCH  23  24
ATOM     24  C   UNL     1       1.244  11.357  -7.955  1.00  0.00    -0.000 C 
BRANCH  24  25
ATOM     25  C   UNL     1       2.385  11.408  -6.924  1.00  0.00    -0.000 C 
BRANCH  25  26
ATOM     26  C   UNL     1       2.113  12.414  -5.794  1.00  0.00    -0.000 C 
BRANCH  26  27
ATOM     27  C   UNL     1       1.025  11.933  -4.819  1.00  0.00    -0.000 C 
BRANCH  27  28
ATOM     28  C   UNL     1      -0.291  12.718  -4.959  1.00  0.00    -0.000 C 
BRANCH  28  29
ATOM     29  C   UNL     1      -0.294  13.783  -6.072  1.00  0.00    -0.003 C 
ATOM     30  C   UNL     1      -1.694  14.082  -6.607  1.00  0.00     0.004 C 
ENDBRANCH  28  29
ENDBRANCH  27  28
ENDBRANCH  26  27
ENDBRANCH  25  26
ENDBRANCH  24  25
ENDBRANCH  23  24
ENDBRANCH  22  23
ENDBRANCH  21  22
ENDBRANCH  20  21
ENDBRANCH  19  20
ENDBRANCH  18  19
ENDBRANCH  17  18
ENDBRANCH   1  17
TORSDOF 26
ENDMDL
MODEL 6
REMARK VINA RESULT:    -4.873      2.443      4.700
REMARK INTER + INTRA:         -15.858
REMARK INTER:                 -11.191
REMARK INTRA:                  -4.667
REMARK UNBOUND:                -3.579
REMARK SMILES CCCCCCCCCCCCCCCCCCCCCCCCCCCC(=O)[O-]
REMARK SMILES IDX 15 1 16 2 17 3 18 4 19 5 20 6 21 7 22 8 23 9 24 10 25 11
REMARK SMILES IDX 26 12 27 13 28 14 29 15 30 16 14 17 13 18 12 19 11 20 10 21
REMARK SMILES IDX 9 22 8 23 7 24 6 25 5 26 4 27 3 28 2 29 1 30
REMARK H PARENT
REMARK Flexibility Score: inf
ROOT
ATOM      1  C   UNL     1      -3.081  10.512  -6.587  1.00  0.00     0.000 C 
ENDROOT
BRANCH   1   2
ATOM      2  C   UNL     1      -1.957  10.001  -7.513  1.00  0.00     0.000 C 
BRANCH   2   3
ATOM      3  C   UNL     1      -2.268  10.118  -9.020  1.00  0.00     0.000 C 
BRANCH   3   4
ATOM      4  C   UNL     1      -2.793  11.494  -9.486  1.00  0.00     0.000 C 
BRANCH   4   5
ATOM      5  C   UNL     1      -3.948  11.455 -10.503  1.00  0.00     0.000 C 
BRANCH   5   6
ATOM      6  C   UNL     1      -5.286  11.925  -9.907  1.00  0.00     0.000 C 
BRANCH   6   7
ATOM      7  C   UNL     1      -5.106  12.993  -8.818  1.00  0.00     0.000 C 
BRANCH   7   8
ATOM      8  C   UNL     1      -6.221  12.962  -7.762  1.00  0.00     0.000 C 
BRANCH   8   9
ATOM      9  C   UNL     1      -7.043  11.669  -7.873  1.00  0.00     0.000 C 
BRANCH   9  10
ATOM     10  C   UNL     1      -6.819  10.709  -6.690  1.00  0.00     0.000 C 
BRANCH  10  11
ATOM     11  C   UNL     1      -6.498   9.256  -7.084  1.00  0.00     0.000 C 
BRANCH  11  12
ATOM     12  C   UNL     1      -6.525   9.026  -8.602  1.00  0.00     0.006 C 
BRANCH  12  13
ATOM     13  C   UNL     1      -5.399   8.081  -9.034  1.00  0.00     0.053 C 
BRANCH  13  14
ATOM     14  C   UNL     1      -5.670   7.529 -10.398  1.00  0.00     0.041 C 
ATOM     15  O   UNL     1      -4.972   7.894 -11.381  1.00  0.00    -0.550 OA
ATOM     16  O   UNL     1      -6.707   6.626 -10.589  1.00  0.00    -0.550 OA
ENDBRANCH  13  14
ENDBRANCH  12  13
ENDBRANCH  11  12
ENDBRANCH  10  11
ENDBRANCH   9  10
ENDBRANCH   8   9
ENDBRANCH   7   8
ENDBRANCH   6   7
ENDBRANCH   5   6
ENDBRANCH   4   5
ENDBRANCH   3   4
ENDBRANCH   2   3
ENDBRANCH   1   2
BRANCH   1  17
ATOM     17  C   UNL     1      -3.320   9.637  -5.343  1.00  0.00     0.000 C 
BRANCH  17  18
ATOM     18  C   UNL     1      -2.968  10.329  -4.011  1.00  0.00     0.000 C 
BRANCH  18  19
ATOM     19  C   UNL     1      -1.819  11.337  -4.167  1.00  0.00     0.000 C 
BRANCH  19  20
ATOM     20  C   UNL     1      -2.315  12.778  -3.995  1.00  0.00     0.000 C 
BRANCH  20  21
ATOM     21  C   UNL     1      -1.457  13.803  -4.757  1.00  0.00     0.000 C 
BRANCH  21  22
ATOM     22  C   UNL     1      -1.729  13.828  -6.277  1.00  0.00    -0.000 C 
BRANCH  22  23
ATOM     23  C   UNL     1      -0.516  13.342  -7.092  1.00  0.00    -0.000 C 
BRANCH  23  24
ATOM     24  C   UNL     1       0.679  12.964  -6.203  1.00  0.00    -0.000 C 
BRANCH  24  25
ATOM     25  C   UNL     1       1.409  11.704  -6.703  1.00  0.00    -0.000 C 
BRANCH  25  26
ATOM     26  C   UNL     1       1.202  11.463  -8.207  1.00  0.00    -0.000 C 
BRANCH  26  27
ATOM     27  C   UNL     1       1.461  10.003  -8.615  1.00  0.00    -0.000 C 
BRANCH  27  28
ATOM     28  C   UNL     1       2.952   9.705  -8.851  1.00  0.00    -0.000 C 
BRANCH  28  29
ATOM     29  C   UNL     1       3.291   9.173 -10.256  1.00  0.00    -0.003 C 
ATOM     30  C   UNL     1       4.433   9.940 -10.924  1.00  0.00     0.004 C 
ENDBRANCH  28  29
ENDBRANCH  27  28
ENDBRANCH  26  27
ENDBRANCH  25  26
ENDBRANCH  24  25
ENDBRANCH  23  24
ENDBRANCH  22  23
ENDBRANCH  21  22
ENDBRANCH  20  21
ENDBRANCH  19  20
ENDBRANCH  18  19
ENDBRANCH  17  18
ENDBRANCH   1  17
TORSDOF 26
ENDMDL
MODEL 7
REMARK VINA RESULT:    -4.868      3.366      5.390
REMARK INTER + INTRA:         -15.846
REMARK INTER:                 -11.577
REMARK INTRA:                  -4.269
REMARK UNBOUND:                -3.579
REMARK SMILES CCCCCCCCCCCCCCCCCCCCCCCCCCCC(=O)[O-]
REMARK SMILES IDX 15 1 16 2 17 3 18 4 19 5 20 6 21 7 22 8 23 9 24 10 25 11
REMARK SMILES IDX 26 12 27 13 28 14 29 15 30 16 14 17 13 18 12 19 11 20 10 21
REMARK SMILES IDX 9 22 8 23 7 24 6 25 5 26 4 27 3 28 2 29 1 30
REMARK H PARENT
REMARK Flexibility Score: inf
ROOT
ATOM      1  C   UNL     1      -3.360   9.561  -5.732  1.00  0.00     0.000 C 
ENDROOT
BRANCH   1   2
ATOM      2  C   UNL     1      -4.450  10.340  -6.499  1.00  0.00     0.000 C 
BRANCH   2   3
ATOM      3  C   UNL     1      -5.832   9.654  -6.520  1.00  0.00     0.000 C 
BRANCH   3   4
ATOM      4  C   UNL     1      -5.989   8.507  -7.542  1.00  0.00     0.000 C 
BRANCH   4   5
ATOM      5  C   UNL     1      -6.985   8.769  -8.687  1.00  0.00     0.000 C 
BRANCH   5   6
ATOM      6  C   UNL     1      -6.877   7.737  -9.822  1.00  0.00     0.000 C 
BRANCH   6   7
ATOM      7  C   UNL     1      -5.511   7.035  -9.857  1.00  0.00     0.000 C 
BRANCH   7   8
ATOM      8  C   UNL     1      -4.883   7.020 -11.259  1.00  0.00     0.000 C 
BRANCH   8   9
ATOM      9  C   UNL     1      -4.162   8.345 -11.549  1.00  0.00     0.000 C 
BRANCH   9  10
ATOM     10  C   UNL     1      -3.601   9.015 -10.282  1.00  0.00     0.000 C 
BRANCH  10  11
ATOM     11  C   UNL     1      -4.034  10.477 -10.073  1.00  0.00     0.000 C 
BRANCH  11  12
ATOM     12  C   UNL     1      -4.941  11.000 -11.196  1.00  0.00     0.006 C 
BRANCH  12  13
ATOM     13  C   UNL     1      -6.296  11.451 -10.642  1.00  0.00     0.053 C 
BRANCH  13  14
ATOM     14  C   UNL     1      -6.108  12.375  -9.480  1.00  0.00     0.041 C 
ATOM     15  O   UNL     1      -6.875  12.308  -8.484  1.00  0.00    -0.550 OA
ATOM     16  O   UNL     1      -5.096  13.326  -9.506  1.00  0.00    -0.550 OA
ENDBRANCH  13  14
ENDBRANCH  12  13
ENDBRANCH  11  12
ENDBRANCH  10  11
ENDBRANCH   9  10
ENDBRANCH   8   9
ENDBRANCH   7   8
ENDBRANCH   6   7
ENDBRANCH   5   6
ENDBRANCH   4   5
ENDBRANCH   3   4
ENDBRANCH   2   3
ENDBRANCH   1   2
BRANCH   1  17
ATOM     17  C   UNL     1      -2.233  10.444  -5.166  1.00  0.00     0.000 C 
BRANCH  17  18
ATOM     18  C   UNL     1      -2.697  11.430  -4.075  1.00  0.00     0.000 C 
BRANCH  18  19
ATOM     19  C   UNL     1      -1.889  12.737  -4.095  1.00  0.00     0.000 C 
BRANCH  19  20
ATOM     20  C   UNL     1      -1.858  13.350  -5.501  1.00  0.00     0.000 C 
BRANCH  20  21
ATOM     21  C   UNL     1      -0.544  14.093  -5.802  1.00  0.00     0.000 C 
BRANCH  21  22
ATOM     22  C   UNL     1       0.449  14.097  -4.619  1.00  0.00    -0.000 C 
BRANCH  22  23
ATOM     23  C   UNL     1       1.807  13.479  -4.998  1.00  0.00    -0.000 C 
BRANCH  23  24
ATOM     24  C   UNL     1       1.675  12.355  -6.039  1.00  0.00    -0.000 C 
BRANCH  24  25
ATOM     25  C   UNL     1       2.965  11.528  -6.180  1.00  0.00    -0.000 C 
BRANCH  25  26
ATOM     26  C   UNL     1       3.026  10.756  -7.508  1.00  0.00    -0.000 C 
BRANCH  26  27
ATOM     27  C   UNL     1       1.802  11.015  -8.402  1.00  0.00    -0.000 C 
BRANCH  27  28
ATOM     28  C   UNL     1       0.814   9.836  -8.417  1.00  0.00    -0.000 C 
BRANCH  28  29
ATOM     29  C   UNL     1      -0.672  10.236  -8.355  1.00  0.00    -0.003 C 
ATOM     30  C   UNL     1      -0.902  11.720  -8.645  1.00  0.00     0.004 C 
ENDBRANCH  28  29
ENDBRANCH  27  28
ENDBRANCH  26  27
ENDBRANCH  25  26
ENDBRANCH  24  25
ENDBRANCH  23  24
ENDBRANCH  22  23
ENDBRANCH  21  22
ENDBRANCH  20  21
ENDBRANCH  19  20
ENDBRANCH  18  19
ENDBRANCH  17  18
ENDBRANCH   1  17
TORSDOF 26
ENDMDL
MODEL 8
REMARK VINA RESULT:    -4.800      3.621      5.725
REMARK INTER + INTRA:         -15.676
REMARK INTER:                 -11.612
REMARK INTRA:                  -4.063
REMARK UNBOUND:                -3.579
REMARK SMILES CCCCCCCCCCCCCCCCCCCCCCCCCCCC(=O)[O-]
REMARK SMILES IDX 15 1 16 2 17 3 18 4 19 5 20 6 21 7 22 8 23 9 24 10 25 11
REMARK SMILES IDX 26 12 27 13 28 14 29 15 30 16 14 17 13 18 12 19 11 20 10 21
REMARK SMILES IDX 9 22 8 23 7 24 6 25 5 26 4 27 3 28 2 29 1 30
REMARK H PARENT
REMARK Flexibility Score: inf
ROOT
ATOM      1  C   UNL     1      -2.876  10.467  -8.320  1.00  0.00     0.000 C 
ENDROOT
BRANCH   1   2
ATOM      2  C   UNL     1      -3.535  11.290  -9.448  1.00  0.00     0.000 C 
BRANCH   2   3
ATOM      3  C   UNL     1      -3.568  10.583 -10.820  1.00  0.00     0.000 C 
BRANCH   3   4
ATOM      4  C   UNL     1      -4.683   9.529 -10.997  1.00  0.00     0.000 C 
BRANCH   4   5
ATOM      5  C   UNL     1      -4.455   8.191 -10.270  1.00  0.00     0.000 C 
BRANCH   5   6
ATOM      6  C   UNL     1      -5.693   7.714  -9.492  1.00  0.00     0.000 C 
BRANCH   6   7
ATOM      7  C   UNL     1      -6.682   8.853  -9.197  1.00  0.00     0.000 C 
BRANCH   7   8
ATOM      8  C   UNL     1      -6.505   9.448  -7.792  1.00  0.00     0.000 C 
BRANCH   8   9
ATOM      9  C   UNL     1      -5.848   8.430  -6.847  1.00  0.00     0.000 C 
BRANCH   9  10
ATOM     10  C   UNL     1      -6.364   8.532  -5.400  1.00  0.00     0.000 C 
BRANCH  10  11
ATOM     11  C   UNL     1      -5.459   7.879  -4.340  1.00  0.00     0.000 C 
BRANCH  11  12
ATOM     12  C   UNL     1      -4.534   6.800  -4.924  1.00  0.00     0.006 C 
BRANCH  12  13
ATOM     13  C   UNL     1      -3.263   6.654  -4.082  1.00  0.00     0.053 C 
BRANCH  13  14
ATOM     14  C   UNL     1      -2.395   5.562  -4.624  1.00  0.00     0.041 C 
ATOM     15  O   UNL     1      -2.907   4.592  -5.242  1.00  0.00    -0.550 OA
ATOM     16  O   UNL     1      -1.021   5.606  -4.429  1.00  0.00    -0.550 OA
ENDBRANCH  13  14
ENDBRANCH  12  13
ENDBRANCH  11  12
ENDBRANCH  10  11
ENDBRANCH   9  10
ENDBRANCH   8   9
ENDBRANCH   7   8
ENDBRANCH   6   7
ENDBRANCH   5   6
ENDBRANCH   4   5
ENDBRANCH   3   4
ENDBRANCH   2   3
ENDBRANCH   1   2
BRANCH   1  17
ATOM     17  C   UNL     1      -3.215  10.958  -6.900  1.00  0.00     0.000 C 
BRANCH  17  18
ATOM     18  C   UNL     1      -2.696  10.038  -5.777  1.00  0.00     0.000 C 
BRANCH  18  19
ATOM     19  C   UNL     1      -2.336  10.821  -4.506  1.00  0.00     0.000 C 
BRANCH  19  20
ATOM     20  C   UNL     1      -2.737  12.297  -4.630  1.00  0.00     0.000 C 
BRANCH  20  21
ATOM     21  C   UNL     1      -1.677  13.257  -4.060  1.00  0.00     0.000 C 
BRANCH  21  22
ATOM     22  C   UNL     1      -1.082  14.217  -5.113  1.00  0.00    -0.000 C 
BRANCH  22  23
ATOM     23  C   UNL     1       0.451  14.313  -5.011  1.00  0.00    -0.000 C 
BRANCH  23  24
ATOM     24  C   UNL     1       1.156  13.034  -5.491  1.00  0.00    -0.000 C 
BRANCH  24  25
ATOM     25  C   UNL     1       0.696  12.599  -6.894  1.00  0.00    -0.000 C 
BRANCH  25  26
ATOM     26  C   UNL     1       0.466  11.082  -6.992  1.00  0.00    -0.000 C 
BRANCH  26  27
ATOM     27  C   UNL     1       0.835  10.513  -8.372  1.00  0.00    -0.000 C 
BRANCH  27  28
ATOM     28  C   UNL     1       2.077   9.604  -8.330  1.00  0.00    -0.000 C 
BRANCH  28  29
ATOM     29  C   UNL     1       3.354  10.227  -8.925  1.00  0.00    -0.003 C 
ATOM     30  C   UNL     1       3.776   9.577 -10.243  1.00  0.00     0.004 C 
ENDBRANCH  28  29
ENDBRANCH  27  28
ENDBRANCH  26  27
ENDBRANCH  25  26
ENDBRANCH  24  25
ENDBRANCH  23  24
ENDBRANCH  22  23
ENDBRANCH  21  22
ENDBRANCH  20  21
ENDBRANCH  19  20
ENDBRANCH  18  19
ENDBRANCH  17  18
ENDBRANCH   1  17
TORSDOF 26
ENDMDL
MODEL 9
REMARK VINA RESULT:    -4.765      1.812      4.226
REMARK INTER + INTRA:         -15.587
REMARK INTER:                 -10.785
REMARK INTRA:                  -4.801
REMARK UNBOUND:                -3.579
REMARK SMILES CCCCCCCCCCCCCCCCCCCCCCCCCCCC(=O)[O-]
REMARK SMILES IDX 15 1 16 2 17 3 18 4 19 5 20 6 21 7 22 8 23 9 24 10 25 11
REMARK SMILES IDX 26 12 27 13 28 14 29 15 30 16 14 17 13 18 12 19 11 20 10 21
REMARK SMILES IDX 9 22 8 23 7 24 6 25 5 26 4 27 3 28 2 29 1 30
REMARK H PARENT
REMARK Flexibility Score: inf
ROOT
ATOM      1  C   UNL     1      -5.650  11.819  -7.132  1.00  0.00     0.000 C 
ENDROOT
BRANCH   1   2
ATOM      2  C   UNL     1      -4.996  11.673  -5.741  1.00  0.00     0.000 C 
BRANCH   2   3
ATOM      3  C   UNL     1      -3.454  11.733  -5.749  1.00  0.00     0.000 C 
BRANCH   3   4
ATOM      4  C   UNL     1      -2.745  10.709  -4.836  1.00  0.00     0.000 C 
BRANCH   4   5
ATOM      5  C   UNL     1      -3.674   9.810  -4.000  1.00  0.00     0.000 C 
BRANCH   5   6
ATOM      6  C   UNL     1      -3.281   8.324  -4.060  1.00  0.00     0.000 C 
BRANCH   6   7
ATOM      7  C   UNL     1      -4.319   7.467  -4.801  1.00  0.00     0.000 C 
BRANCH   7   8
ATOM      8  C   UNL     1      -5.764   7.914  -4.532  1.00  0.00     0.000 C 
BRANCH   8   9
ATOM      9  C   UNL     1      -6.400   8.498  -5.802  1.00  0.00     0.000 C 
BRANCH   9  10
ATOM     10  C   UNL     1      -5.570   8.229  -7.070  1.00  0.00     0.000 C 
BRANCH  10  11
ATOM     11  C   UNL     1      -6.339   8.375  -8.395  1.00  0.00     0.000 C 
BRANCH  11  12
ATOM     12  C   UNL     1      -5.769   7.498  -9.520  1.00  0.00     0.006 C 
BRANCH  12  13
ATOM     13  C   UNL     1      -6.859   6.613 -10.131  1.00  0.00     0.053 C 
BRANCH  13  14
ATOM     14  C   UNL     1      -6.342   5.901 -11.341  1.00  0.00     0.041 C 
ATOM     15  O   UNL     1      -7.003   4.961 -11.857  1.00  0.00    -0.550 OA
ATOM     16  O   UNL     1      -5.118   6.263 -11.889  1.00  0.00    -0.550 OA
ENDBRANCH  13  14
ENDBRANCH  12  13
ENDBRANCH  11  12
ENDBRANCH  10  11
ENDBRANCH   9  10
ENDBRANCH   8   9
ENDBRANCH   7   8
ENDBRANCH   6   7
ENDBRANCH   5   6
ENDBRANCH   4   5
ENDBRANCH   3   4
ENDBRANCH   2   3
ENDBRANCH   1   2
BRANCH   1  17
ATOM     17  C   UNL     1      -5.202  13.069  -7.911  1.00  0.00     0.000 C 
BRANCH  17  18
ATOM     18  C   UNL     1      -5.243  12.902  -9.444  1.00  0.00     0.000 C 
BRANCH  18  19
ATOM     19  C   UNL     1      -6.249  11.827  -9.883  1.00  0.00     0.000 C 
BRANCH  19  20
ATOM     20  C   UNL     1      -5.633  10.879 -10.920  1.00  0.00     0.000 C 
BRANCH  20  21
ATOM     21  C   UNL     1      -4.098  10.975 -10.982  1.00  0.00     0.000 C 
BRANCH  21  22
ATOM     22  C   UNL     1      -3.377   9.790 -10.302  1.00  0.00    -0.000 C 
BRANCH  22  23
ATOM     23  C   UNL     1      -2.934  10.127  -8.867  1.00  0.00    -0.000 C 
BRANCH  23  24
ATOM     24  C   UNL     1      -1.686  11.023  -8.829  1.00  0.00    -0.000 C 
BRANCH  24  25
ATOM     25  C   UNL     1      -0.403  10.233  -8.517  1.00  0.00    -0.000 C 
BRANCH  25  26
ATOM     26  C   UNL     1       0.400  10.849  -7.359  1.00  0.00    -0.000 C 
BRANCH  26  27
ATOM     27  C   UNL     1       0.098  12.343  -7.156  1.00  0.00    -0.000 C 
BRANCH  27  28
ATOM     28  C   UNL     1       0.901  12.962  -5.998  1.00  0.00    -0.000 C 
BRANCH  28  29
ATOM     29  C   UNL     1       0.104  13.931  -5.104  1.00  0.00    -0.003 C 
ATOM     30  C   UNL     1      -1.092  14.558  -5.823  1.00  0.00     0.004 C 
ENDBRANCH  28  29
ENDBRANCH  27  28
ENDBRANCH  26  27
ENDBRANCH  25  26
ENDBRANCH  24  25
ENDBRANCH  23  24
ENDBRANCH  22  23
ENDBRANCH  21  22
ENDBRANCH  20  21
ENDBRANCH  19  20
ENDBRANCH  18  19
ENDBRANCH  17  18
ENDBRANCH   1  17
TORSDOF 26
ENDMDL
