MODEL 1
REMARK VINA RESULT:    -4.669      0.000      0.000
REMARK INTER + INTRA:         -16.550
REMARK INTER:                 -12.311
REMARK INTRA:                  -4.240
REMARK UNBOUND:                -4.240
REMARK SMILES CCCCCCCCCCCCCCCCCCCCCCCCCCCCCC(=O)[O-]
REMARK SMILES IDX 16 1 17 2 18 3 19 4 20 5 21 6 22 7 23 8 24 9 25 10 26 11
REMARK SMILES IDX 27 12 28 13 29 14 30 15 31 16 32 17 15 18 14 19 13 20 12 21
REMARK SMILES IDX 11 22 10 23 9 24 8 25 7 26 6 27 5 28 4 29 3 30 2 31 1 32
REMARK H PARENT
REMARK Flexibility Score: inf
ROOT
ATOM      1  C   UNL     1     169.668 175.751 181.343  1.00  0.00     0.000 C 
ENDROOT
BRANCH   1   2
ATOM      2  C   UNL     1     170.677 176.650 182.080  1.00  0.00     0.000 C 
BRANCH   2   3
ATOM      3  C   UNL     1     169.997 177.862 182.740  1.00  0.00     0.000 C 
BRANCH   3   4
ATOM      4  C   UNL     1     170.567 179.202 182.239  1.00  0.00     0.000 C 
BRANCH   4   5
ATOM      5  C   UNL     1     171.470 179.044 181.002  1.00  0.00     0.000 C 
BRANCH   5   6
ATOM      6  C   UNL     1     172.908 179.577 181.176  1.00  0.00     0.000 C 
BRANCH   6   7
ATOM      7  C   UNL     1     174.028 178.522 181.046  1.00  0.00     0.000 C 
BRANCH   7   8
ATOM      8  C   UNL     1     175.431 179.012 181.446  1.00  0.00     0.000 C 
BRANCH   8   9
ATOM      9  C   UNL     1     176.339 177.871 181.934  1.00  0.00     0.000 C 
BRANCH   9  10
ATOM     10  C   UNL     1     177.374 177.442 180.882  1.00  0.00     0.000 C 
BRANCH  10  11
ATOM     11  C   UNL     1     177.444 178.404 179.682  1.00  0.00     0.000 C 
BRANCH  11  12
ATOM     12  C   UNL     1     177.062 177.717 178.353  1.00  0.00     0.000 C 
BRANCH  12  13
ATOM     13  C   UNL     1     176.501 178.683 177.290  1.00  0.00     0.006 C 
BRANCH  13  14
ATOM     14  C   UNL     1     175.428 179.650 177.814  1.00  0.00     0.053 C 
BRANCH  14  15
ATOM     15  C   UNL     1     174.121 179.470 177.105  1.00  0.00     0.041 C 
ATOM     16  O   UNL     1     173.042 179.804 177.662  1.00  0.00    -0.550 OA
ATOM     17  O   UNL     1     174.095 178.957 175.813  1.00  0.00    -0.550 OA
ENDBRANCH  14  15
ENDBRANCH  13  14
ENDBRANCH  12  13
ENDBRANCH  11  12
ENDBRANCH  10  11
ENDBRANCH   9  10
ENDBRANCH   8   9
ENDBRANCH   7   8
ENDBRANCH   6   7
ENDBRANCH   5   6
ENDBRANCH   4   5
ENDBRANCH   3   4
ENDBRANCH   2   3
ENDBRANCH   1   2
BRANCH   1  18
ATOM     18  C   UNL     1     168.390 176.508 180.932  1.00  0.00     0.000 C 
BRANCH  18  19
ATOM     19  C   UNL     1     168.417 177.020 179.483  1.00  0.00     0.000 C 
BRANCH  19  20
ATOM     20  C   UNL     1     167.459 178.201 179.245  1.00  0.00     0.000 C 
BRANCH  20  21
ATOM     21  C   UNL     1     167.240 179.042 180.520  1.00  0.00     0.000 C 
BRANCH  21  22
ATOM     22  C   UNL     1     165.995 179.950 180.458  1.00  0.00     0.000 C 
BRANCH  22  23
ATOM     23  C   UNL     1     164.682 179.158 180.364  1.00  0.00     0.000 C 
BRANCH  23  24
ATOM     24  C   UNL     1     163.843 179.245 181.647  1.00  0.00    -0.000 C 
BRANCH  24  25
ATOM     25  C   UNL     1     162.361 178.904 181.410  1.00  0.00    -0.000 C 
BRANCH  25  26
ATOM     26  C   UNL     1     162.043 178.672 179.924  1.00  0.00    -0.000 C 
BRANCH  26  27
ATOM     27  C   UNL     1     161.638 177.218 179.624  1.00  0.00    -0.000 C 
BRANCH  27  28
ATOM     28  C   UNL     1     161.543 176.367 180.902  1.00  0.00    -0.000 C 
BRANCH  28  29
ATOM     29  C   UNL     1     162.201 174.985 180.725  1.00  0.00    -0.000 C 
BRANCH  29  30
ATOM     30  C   UNL     1     163.454 174.810 181.608  1.00  0.00    -0.000 C 
BRANCH  30  31
ATOM     31  C   UNL     1     164.653 175.652 181.136  1.00  0.00    -0.003 C 
ATOM     32  C   UNL     1     164.945 175.494 179.644  1.00  0.00     0.004 C 
ENDBRANCH  30  31
ENDBRANCH  29  30
ENDBRANCH  28  29
ENDBRANCH  27  28
ENDBRANCH  26  27
ENDBRANCH  25  26
ENDBRANCH  24  25
ENDBRANCH  23  24
ENDBRANCH  22  23
ENDBRANCH  21  22
ENDBRANCH  20  21
ENDBRANCH  19  20
ENDBRANCH  18  19
ENDBRANCH   1  18
TORSDOF 28
ENDMDL
MODEL 2
REMARK VINA RESULT:    -4.575      1.896      4.198
REMARK INTER + INTRA:         -16.303
REMARK INTER:                 -12.342
REMARK INTRA:                  -3.961
REMARK UNBOUND:                -4.240
REMARK SMILES CCCCCCCCCCCCCCCCCCCCCCCCCCCCCC(=O)[O-]
REMARK SMILES IDX 16 1 17 2 18 3 19 4 20 5 21 6 22 7 23 8 24 9 25 10 26 11
REMARK SMILES IDX 27 12 28 13 29 14 30 15 31 16 32 17 15 18 14 19 13 20 12 21
REMARK SMILES IDX 11 22 10 23 9 24 8 25 7 26 6 27 5 28 4 29 3 30 2 31 1 32
REMARK H PARENT
REMARK Flexibility Score: inf
ROOT
ATOM      1  C   UNL     1     164.820 176.091 177.994  1.00  0.00     0.000 C 
ENDROOT
BRANCH   1   2
ATOM      2  C   UNL     1     165.661 177.376 178.106  1.00  0.00     0.000 C 
BRANCH   2   3
ATOM      3  C   UNL     1     166.716 177.281 179.220  1.00  0.00     0.000 C 
BRANCH   3   4
ATOM      4  C   UNL     1     166.738 178.531 180.119  1.00  0.00     0.000 C 
BRANCH   4   5
ATOM      5  C   UNL     1     168.134 178.828 180.698  1.00  0.00     0.000 C 
BRANCH   5   6
ATOM      6  C   UNL     1     168.954 177.579 181.086  1.00  0.00     0.000 C 
BRANCH   6   7
ATOM      7  C   UNL     1     170.437 177.839 181.431  1.00  0.00     0.000 C 
BRANCH   7   8
ATOM      8  C   UNL     1     171.144 178.862 180.525  1.00  0.00     0.000 C 
BRANCH   8   9
ATOM      9  C   UNL     1     172.455 179.387 181.137  1.00  0.00     0.000 C 
BRANCH   9  10
ATOM     10  C   UNL     1     173.675 179.131 180.238  1.00  0.00     0.000 C 
BRANCH  10  11
ATOM     11  C   UNL     1     175.012 179.366 180.963  1.00  0.00     0.000 C 
BRANCH  11  12
ATOM     12  C   UNL     1     175.636 178.055 181.489  1.00  0.00     0.000 C 
BRANCH  12  13
ATOM     13  C   UNL     1     177.172 178.000 181.361  1.00  0.00     0.006 C 
BRANCH  13  14
ATOM     14  C   UNL     1     177.688 176.966 180.348  1.00  0.00     0.053 C 
BRANCH  14  15
ATOM     15  C   UNL     1     177.164 177.227 178.968  1.00  0.00     0.041 C 
ATOM     16  O   UNL     1     177.552 178.233 178.318  1.00  0.00    -0.550 OA
ATOM     17  O   UNL     1     176.264 176.341 178.387  1.00  0.00    -0.550 OA
ENDBRANCH  14  15
ENDBRANCH  13  14
ENDBRANCH  12  13
ENDBRANCH  11  12
ENDBRANCH  10  11
ENDBRANCH   9  10
ENDBRANCH   8   9
ENDBRANCH   7   8
ENDBRANCH   6   7
ENDBRANCH   5   6
ENDBRANCH   4   5
ENDBRANCH   3   4
ENDBRANCH   2   3
ENDBRANCH   1   2
BRANCH   1  18
ATOM     18  C   UNL     1     163.382 176.366 177.509  1.00  0.00     0.000 C 
BRANCH  18  19
ATOM     19  C   UNL     1     163.043 177.862 177.405  1.00  0.00     0.000 C 
BRANCH  19  20
ATOM     20  C   UNL     1     161.670 178.210 178.007  1.00  0.00     0.000 C 
BRANCH  20  21
ATOM     21  C   UNL     1     161.746 179.402 178.984  1.00  0.00     0.000 C 
BRANCH  21  22
ATOM     22  C   UNL     1     163.183 179.771 179.403  1.00  0.00     0.000 C 
BRANCH  22  23
ATOM     23  C   UNL     1     163.379 179.777 180.927  1.00  0.00     0.000 C 
BRANCH  23  24
ATOM     24  C   UNL     1     162.781 178.539 181.608  1.00  0.00    -0.000 C 
BRANCH  24  25
ATOM     25  C   UNL     1     163.614 177.267 181.362  1.00  0.00    -0.000 C 
BRANCH  25  26
ATOM     26  C   UNL     1     162.736 176.031 181.112  1.00  0.00    -0.000 C 
BRANCH  26  27
ATOM     27  C   UNL     1     161.233 176.360 181.109  1.00  0.00    -0.000 C 
BRANCH  27  28
ATOM     28  C   UNL     1     160.363 175.094 181.033  1.00  0.00    -0.000 C 
BRANCH  28  29
ATOM     29  C   UNL     1     161.054 173.966 180.244  1.00  0.00    -0.000 C 
BRANCH  29  30
ATOM     30  C   UNL     1     161.050 172.624 181.007  1.00  0.00    -0.000 C 
BRANCH  30  31
ATOM     31  C   UNL     1     161.295 172.782 182.518  1.00  0.00    -0.003 C 
ATOM     32  C   UNL     1     162.748 172.526 182.918  1.00  0.00     0.004 C 
ENDBRANCH  30  31
ENDBRANCH  29  30
ENDBRANCH  28  29
ENDBRANCH  27  28
ENDBRANCH  26  27
ENDBRANCH  25  26
ENDBRANCH  24  25
ENDBRANCH  23  24
ENDBRANCH  22  23
ENDBRANCH  21  22
ENDBRANCH  20  21
ENDBRANCH  19  20
ENDBRANCH  18  19
ENDBRANCH   1  18
TORSDOF 28
ENDMDL
MODEL 3
REMARK VINA RESULT:    -4.573      1.565      2.587
REMARK INTER + INTRA:         -16.299
REMARK INTER:                 -12.275
REMARK INTRA:                  -4.023
REMARK UNBOUND:                -4.240
REMARK SMILES CCCCCCCCCCCCCCCCCCCCCCCCCCCCCC(=O)[O-]
REMARK SMILES IDX 16 1 17 2 18 3 19 4 20 5 21 6 22 7 23 8 24 9 25 10 26 11
REMARK SMILES IDX 27 12 28 13 29 14 30 15 31 16 32 17 15 18 14 19 13 20 12 21
REMARK SMILES IDX 11 22 10 23 9 24 8 25 7 26 6 27 5 28 4 29 3 30 2 31 1 32
REMARK H PARENT
REMARK Flexibility Score: inf
ROOT
ATOM      1  C   UNL     1     170.526 176.917 182.440  1.00  0.00     0.000 C 
ENDROOT
BRANCH   1   2
ATOM      2  C   UNL     1     170.574 178.441 182.232  1.00  0.00     0.000 C 
BRANCH   2   3
ATOM      3  C   UNL     1     171.281 178.825 180.922  1.00  0.00     0.000 C 
BRANCH   3   4
ATOM      4  C   UNL     1     172.353 179.912 181.127  1.00  0.00     0.000 C 
BRANCH   4   5
ATOM      5  C   UNL     1     173.787 179.350 181.108  1.00  0.00     0.000 C 
BRANCH   5   6
ATOM      6  C   UNL     1     173.881 177.819 180.932  1.00  0.00     0.000 C 
BRANCH   6   7
ATOM      7  C   UNL     1     175.217 177.181 181.371  1.00  0.00     0.000 C 
BRANCH   7   8
ATOM      8  C   UNL     1     176.304 178.182 181.803  1.00  0.00     0.000 C 
BRANCH   8   9
ATOM      9  C   UNL     1     177.366 178.408 180.713  1.00  0.00     0.000 C 
BRANCH   9  10
ATOM     10  C   UNL     1     177.410 179.863 180.218  1.00  0.00     0.000 C 
BRANCH  10  11
ATOM     11  C   UNL     1     176.822 180.034 178.807  1.00  0.00     0.000 C 
BRANCH  11  12
ATOM     12  C   UNL     1     176.545 178.681 178.115  1.00  0.00     0.000 C 
BRANCH  12  13
ATOM     13  C   UNL     1     175.367 178.719 177.121  1.00  0.00     0.006 C 
BRANCH  13  14
ATOM     14  C   UNL     1     174.278 179.748 177.465  1.00  0.00     0.053 C 
BRANCH  14  15
ATOM     15  C   UNL     1     172.909 179.139 177.445  1.00  0.00     0.041 C 
ATOM     16  O   UNL     1     172.756 177.907 177.653  1.00  0.00    -0.550 OA
ATOM     17  O   UNL     1     171.795 179.941 177.223  1.00  0.00    -0.550 OA
ENDBRANCH  14  15
ENDBRANCH  13  14
ENDBRANCH  12  13
ENDBRANCH  11  12
ENDBRANCH  10  11
ENDBRANCH   9  10
ENDBRANCH   8   9
ENDBRANCH   7   8
ENDBRANCH   6   7
ENDBRANCH   5   6
ENDBRANCH   4   5
ENDBRANCH   3   4
ENDBRANCH   2   3
ENDBRANCH   1   2
BRANCH   1  18
ATOM     18  C   UNL     1     169.949 176.171 181.220  1.00  0.00     0.000 C 
BRANCH  18  19
ATOM     19  C   UNL     1     168.418 176.261 181.113  1.00  0.00     0.000 C 
BRANCH  19  20
ATOM     20  C   UNL     1     167.947 177.062 179.886  1.00  0.00     0.000 C 
BRANCH  20  21
ATOM     21  C   UNL     1     167.431 178.466 180.268  1.00  0.00     0.000 C 
BRANCH  21  22
ATOM     22  C   UNL     1     166.030 178.785 179.710  1.00  0.00     0.000 C 
BRANCH  22  23
ATOM     23  C   UNL     1     165.188 179.645 180.665  1.00  0.00     0.000 C 
BRANCH  23  24
ATOM     24  C   UNL     1     164.262 178.808 181.558  1.00  0.00    -0.000 C 
BRANCH  24  25
ATOM     25  C   UNL     1     162.776 179.164 181.369  1.00  0.00    -0.000 C 
BRANCH  25  26
ATOM     26  C   UNL     1     161.940 177.962 180.902  1.00  0.00    -0.000 C 
BRANCH  26  27
ATOM     27  C   UNL     1     161.911 177.818 179.370  1.00  0.00    -0.000 C 
BRANCH  27  28
ATOM     28  C   UNL     1     161.436 179.106 178.677  1.00  0.00    -0.000 C 
BRANCH  28  29
ATOM     29  C   UNL     1     162.429 179.579 177.598  1.00  0.00    -0.000 C 
BRANCH  29  30
ATOM     30  C   UNL     1     163.420 178.471 177.183  1.00  0.00    -0.000 C 
BRANCH  30  31
ATOM     31  C   UNL     1     163.183 177.946 175.756  1.00  0.00    -0.003 C 
ATOM     32  C   UNL     1     162.092 176.877 175.686  1.00  0.00     0.004 C 
ENDBRANCH  30  31
ENDBRANCH  29  30
ENDBRANCH  28  29
ENDBRANCH  27  28
ENDBRANCH  26  27
ENDBRANCH  25  26
ENDBRANCH  24  25
ENDBRANCH  23  24
ENDBRANCH  22  23
ENDBRANCH  21  22
ENDBRANCH  20  21
ENDBRANCH  19  20
ENDBRANCH  18  19
ENDBRANCH   1  18
TORSDOF 28
ENDMDL
MODEL 4
REMARK VINA RESULT:    -4.477      5.220      8.722
REMARK INTER + INTRA:         -16.046
REMARK INTER:                  -9.369
REMARK INTRA:                  -6.677
REMARK UNBOUND:                -4.240
REMARK SMILES CCCCCCCCCCCCCCCCCCCCCCCCCCCCCC(=O)[O-]
REMARK SMILES IDX 16 1 17 2 18 3 19 4 20 5 21 6 22 7 23 8 24 9 25 10 26 11
REMARK SMILES IDX 27 12 28 13 29 14 30 15 31 16 32 17 15 18 14 19 13 20 12 21
REMARK SMILES IDX 11 22 10 23 9 24 8 25 7 26 6 27 5 28 4 29 3 30 2 31 1 32
REMARK H PARENT
REMARK Flexibility Score: inf
ROOT
ATOM      1  C   UNL     1     163.737 175.922 181.613  1.00  0.00     0.000 C 
ENDROOT
BRANCH   1   2
ATOM      2  C   UNL     1     164.688 177.066 181.215  1.00  0.00     0.000 C 
BRANCH   2   3
ATOM      3  C   UNL     1     164.136 178.443 181.619  1.00  0.00     0.000 C 
BRANCH   3   4
ATOM      4  C   UNL     1     164.663 179.576 180.717  1.00  0.00     0.000 C 
BRANCH   4   5
ATOM      5  C   UNL     1     163.847 179.738 179.421  1.00  0.00     0.000 C 
BRANCH   5   6
ATOM      6  C   UNL     1     162.317 179.644 179.601  1.00  0.00     0.000 C 
BRANCH   6   7
ATOM      7  C   UNL     1     161.531 179.153 178.366  1.00  0.00     0.000 C 
BRANCH   7   8
ATOM      8  C   UNL     1     161.974 177.786 177.817  1.00  0.00     0.000 C 
BRANCH   8   9
ATOM      9  C   UNL     1     162.587 177.884 176.409  1.00  0.00     0.000 C 
BRANCH   9  10
ATOM     10  C   UNL     1     164.070 177.482 176.376  1.00  0.00     0.000 C 
BRANCH  10  11
ATOM     11  C   UNL     1     164.487 176.629 177.587  1.00  0.00     0.000 C 
BRANCH  11  12
ATOM     12  C   UNL     1     165.761 175.800 177.313  1.00  0.00     0.000 C 
BRANCH  12  13
ATOM     13  C   UNL     1     166.587 175.490 178.579  1.00  0.00     0.006 C 
BRANCH  13  14
ATOM     14  C   UNL     1     167.538 176.618 179.007  1.00  0.00     0.053 C 
BRANCH  14  15
ATOM     15  C   UNL     1     168.066 176.406 180.394  1.00  0.00     0.041 C 
ATOM     16  O   UNL     1     168.796 177.276 180.938  1.00  0.00    -0.550 OA
ATOM     17  O   UNL     1     167.729 175.256 181.099  1.00  0.00    -0.550 OA
ENDBRANCH  14  15
ENDBRANCH  13  14
ENDBRANCH  12  13
ENDBRANCH  11  12
ENDBRANCH  10  11
ENDBRANCH   9  10
ENDBRANCH   8   9
ENDBRANCH   7   8
ENDBRANCH   6   7
ENDBRANCH   5   6
ENDBRANCH   4   5
ENDBRANCH   3   4
ENDBRANCH   2   3
ENDBRANCH   1   2
BRANCH   1  18
ATOM     18  C   UNL     1     162.583 175.735 180.607  1.00  0.00     0.000 C 
BRANCH  18  19
ATOM     19  C   UNL     1     161.241 176.301 181.100  1.00  0.00     0.000 C 
BRANCH  19  20
ATOM     20  C   UNL     1     160.236 175.205 181.497  1.00  0.00     0.000 C 
BRANCH  20  21
ATOM     21  C   UNL     1     160.729 173.793 181.114  1.00  0.00     0.000 C 
BRANCH  21  22
ATOM     22  C   UNL     1     160.860 172.835 182.314  1.00  0.00     0.000 C 
BRANCH  22  23
ATOM     23  C   UNL     1     162.316 172.636 182.763  1.00  0.00     0.000 C 
BRANCH  23  24
ATOM     24  C   UNL     1     163.115 171.740 181.806  1.00  0.00    -0.000 C 
BRANCH  24  25
ATOM     25  C   UNL     1     164.510 172.311 181.486  1.00  0.00    -0.000 C 
BRANCH  25  26
ATOM     26  C   UNL     1     164.677 172.648 179.996  1.00  0.00    -0.000 C 
BRANCH  26  27
ATOM     27  C   UNL     1     163.469 172.211 179.149  1.00  0.00    -0.000 C 
BRANCH  27  28
ATOM     28  C   UNL     1     163.112 173.248 178.071  1.00  0.00    -0.000 C 
BRANCH  28  29
ATOM     29  C   UNL     1     161.665 173.084 177.569  1.00  0.00    -0.000 C 
BRANCH  29  30
ATOM     30  C   UNL     1     160.886 174.416 177.568  1.00  0.00    -0.000 C 
BRANCH  30  31
ATOM     31  C   UNL     1     160.367 174.816 176.176  1.00  0.00    -0.003 C 
ATOM     32  C   UNL     1     161.393 174.587 175.067  1.00  0.00     0.004 C 
ENDBRANCH  30  31
ENDBRANCH  29  30
ENDBRANCH  28  29
ENDBRANCH  27  28
ENDBRANCH  26  27
ENDBRANCH  25  26
ENDBRANCH  24  25
ENDBRANCH  23  24
ENDBRANCH  22  23
ENDBRANCH  21  22
ENDBRANCH  20  21
ENDBRANCH  19  20
ENDBRANCH  18  19
ENDBRANCH   1  18
TORSDOF 28
ENDMDL
MODEL 5
REMARK VINA RESULT:    -4.448      3.859     11.456
REMARK INTER + INTRA:         -15.968
REMARK INTER:                 -12.272
REMARK INTRA:                  -3.695
REMARK UNBOUND:                -4.240
REMARK SMILES CCCCCCCCCCCCCCCCCCCCCCCCCCCCCC(=O)[O-]
REMARK SMILES IDX 16 1 17 2 18 3 19 4 20 5 21 6 22 7 23 8 24 9 25 10 26 11
REMARK SMILES IDX 27 12 28 13 29 14 30 15 31 16 32 17 15 18 14 19 13 20 12 21
REMARK SMILES IDX 11 22 10 23 9 24 8 25 7 26 6 27 5 28 4 29 3 30 2 31 1 32
REMARK H PARENT
REMARK Flexibility Score: inf
ROOT
ATOM      1  C   UNL     1     169.677 177.493 180.941  1.00  0.00     0.000 C 
ENDROOT
BRANCH   1   2
ATOM      2  C   UNL     1     168.643 178.614 181.148  1.00  0.00     0.000 C 
BRANCH   2   3
ATOM      3  C   UNL     1     167.604 178.659 180.015  1.00  0.00     0.000 C 
BRANCH   3   4
ATOM      4  C   UNL     1     166.334 179.436 180.412  1.00  0.00     0.000 C 
BRANCH   4   5
ATOM      5  C   UNL     1     165.154 178.512 180.765  1.00  0.00     0.000 C 
BRANCH   5   6
ATOM      6  C   UNL     1     164.008 179.191 181.544  1.00  0.00     0.000 C 
BRANCH   6   7
ATOM      7  C   UNL     1     162.926 179.871 180.677  1.00  0.00     0.000 C 
BRANCH   7   8
ATOM      8  C   UNL     1     163.050 179.613 179.165  1.00  0.00     0.000 C 
BRANCH   8   9
ATOM      9  C   UNL     1     161.698 179.287 178.508  1.00  0.00     0.000 C 
BRANCH   9  10
ATOM     10  C   UNL     1     161.424 177.777 178.426  1.00  0.00     0.000 C 
BRANCH  10  11
ATOM     11  C   UNL     1     162.703 176.929 178.543  1.00  0.00     0.000 C 
BRANCH  11  12
ATOM     12  C   UNL     1     162.630 175.912 179.703  1.00  0.00     0.000 C 
BRANCH  12  13
ATOM     13  C   UNL     1     161.733 176.363 180.873  1.00  0.00     0.006 C 
BRANCH  13  14
ATOM     14  C   UNL     1     160.593 175.390 181.211  1.00  0.00     0.053 C 
BRANCH  14  15
ATOM     15  C   UNL     1     160.527 174.250 180.241  1.00  0.00     0.041 C 
ATOM     16  O   UNL     1     161.038 173.136 180.532  1.00  0.00    -0.550 OA
ATOM     17  O   UNL     1     159.877 174.408 179.023  1.00  0.00    -0.550 OA
ENDBRANCH  14  15
ENDBRANCH  13  14
ENDBRANCH  12  13
ENDBRANCH  11  12
ENDBRANCH  10  11
ENDBRANCH   9  10
ENDBRANCH   8   9
ENDBRANCH   7   8
ENDBRANCH   6   7
ENDBRANCH   5   6
ENDBRANCH   4   5
ENDBRANCH   3   4
ENDBRANCH   2   3
ENDBRANCH   1   2
BRANCH   1  18
ATOM     18  C   UNL     1     171.051 177.835 181.551  1.00  0.00     0.000 C 
BRANCH  18  19
ATOM     19  C   UNL     1     171.349 179.342 181.589  1.00  0.00     0.000 C 
BRANCH  19  20
ATOM     20  C   UNL     1     172.674 179.711 180.897  1.00  0.00     0.000 C 
BRANCH  20  21
ATOM     21  C   UNL     1     173.701 178.561 180.950  1.00  0.00     0.000 C 
BRANCH  21  22
ATOM     22  C   UNL     1     175.093 178.995 181.449  1.00  0.00     0.000 C 
BRANCH  22  23
ATOM     23  C   UNL     1     176.217 178.058 180.978  1.00  0.00     0.000 C 
BRANCH  23  24
ATOM     24  C   UNL     1     177.433 178.817 180.432  1.00  0.00    -0.000 C 
BRANCH  24  25
ATOM     25  C   UNL     1     177.037 179.975 179.497  1.00  0.00    -0.000 C 
BRANCH  25  26
ATOM     26  C   UNL     1     176.679 179.490 178.083  1.00  0.00    -0.000 C 
BRANCH  26  27
ATOM     27  C   UNL     1     175.210 179.766 177.714  1.00  0.00    -0.000 C 
BRANCH  27  28
ATOM     28  C   UNL     1     174.415 178.468 177.493  1.00  0.00    -0.000 C 
BRANCH  28  29
ATOM     29  C   UNL     1     173.173 178.697 176.611  1.00  0.00    -0.000 C 
BRANCH  29  30
ATOM     30  C   UNL     1     172.007 179.341 177.391  1.00  0.00    -0.000 C 
BRANCH  30  31
ATOM     31  C   UNL     1     170.800 178.402 177.565  1.00  0.00    -0.003 C 
ATOM     32  C   UNL     1     171.191 176.925 177.602  1.00  0.00     0.004 C 
ENDBRANCH  30  31
ENDBRANCH  29  30
ENDBRANCH  28  29
ENDBRANCH  27  28
ENDBRANCH  26  27
ENDBRANCH  25  26
ENDBRANCH  24  25
ENDBRANCH  23  24
ENDBRANCH  22  23
ENDBRANCH  21  22
ENDBRANCH  20  21
ENDBRANCH  19  20
ENDBRANCH  18  19
ENDBRANCH   1  18
TORSDOF 28
ENDMDL
MODEL 6
REMARK VINA RESULT:    -4.416      3.712     10.903
REMARK INTER + INTRA:         -15.884
REMARK INTER:                 -11.848
REMARK INTRA:                  -4.037
REMARK UNBOUND:                -4.240
REMARK SMILES CCCCCCCCCCCCCCCCCCCCCCCCCCCCCC(=O)[O-]
REMARK SMILES IDX 16 1 17 2 18 3 19 4 20 5 21 6 22 7 23 8 24 9 25 10 26 11
REMARK SMILES IDX 27 12 28 13 29 14 30 15 31 16 32 17 15 18 14 19 13 20 12 21
REMARK SMILES IDX 11 22 10 23 9 24 8 25 7 26 6 27 5 28 4 29 3 30 2 31 1 32
REMARK H PARENT
REMARK Flexibility Score: inf
ROOT
ATOM      1  C   UNL     1     172.043 179.615 181.051  1.00  0.00     0.000 C 
ENDROOT
BRANCH   1   2
ATOM      2  C   UNL     1     171.240 178.386 181.515  1.00  0.00     0.000 C 
BRANCH   2   3
ATOM      3  C   UNL     1     169.723 178.618 181.423  1.00  0.00     0.000 C 
BRANCH   3   4
ATOM      4  C   UNL     1     168.946 177.320 181.131  1.00  0.00     0.000 C 
BRANCH   4   5
ATOM      5  C   UNL     1     167.599 177.575 180.429  1.00  0.00     0.000 C 
BRANCH   5   6
ATOM      6  C   UNL     1     167.352 179.039 180.010  1.00  0.00     0.000 C 
BRANCH   6   7
ATOM      7  C   UNL     1     165.965 179.611 180.376  1.00  0.00     0.000 C 
BRANCH   7   8
ATOM      8  C   UNL     1     164.872 178.554 180.623  1.00  0.00     0.000 C 
BRANCH   8   9
ATOM      9  C   UNL     1     163.932 178.936 181.778  1.00  0.00     0.000 C 
BRANCH   9  10
ATOM     10  C   UNL     1     162.450 178.920 181.370  1.00  0.00     0.000 C 
BRANCH  10  11
ATOM     11  C   UNL     1     162.232 178.445 179.923  1.00  0.00     0.000 C 
BRANCH  11  12
ATOM     12  C   UNL     1     161.706 176.995 179.851  1.00  0.00     0.000 C 
BRANCH  12  13
ATOM     13  C   UNL     1     161.189 176.452 181.199  1.00  0.00     0.006 C 
BRANCH  13  14
ATOM     14  C   UNL     1     160.524 175.069 181.113  1.00  0.00     0.053 C 
BRANCH  14  15
ATOM     15  C   UNL     1     160.766 174.415 179.786  1.00  0.00     0.041 C 
ATOM     16  O   UNL     1     160.000 174.646 178.813  1.00  0.00    -0.550 OA
ATOM     17  O   UNL     1     161.855 173.569 179.616  1.00  0.00    -0.550 OA
ENDBRANCH  14  15
ENDBRANCH  13  14
ENDBRANCH  12  13
ENDBRANCH  11  12
ENDBRANCH  10  11
ENDBRANCH   9  10
ENDBRANCH   8   9
ENDBRANCH   7   8
ENDBRANCH   6   7
ENDBRANCH   5   6
ENDBRANCH   4   5
ENDBRANCH   3   4
ENDBRANCH   2   3
ENDBRANCH   1   2
BRANCH   1  18
ATOM     18  C   UNL     1     173.565 179.368 181.067  1.00  0.00     0.000 C 
BRANCH  18  19
ATOM     19  C   UNL     1     173.946 177.880 181.148  1.00  0.00     0.000 C 
BRANCH  19  20
ATOM     20  C   UNL     1     175.448 177.657 181.398  1.00  0.00     0.000 C 
BRANCH  20  21
ATOM     21  C   UNL     1     176.219 178.985 181.554  1.00  0.00     0.000 C 
BRANCH  21  22
ATOM     22  C   UNL     1     177.338 179.178 180.513  1.00  0.00     0.000 C 
BRANCH  22  23
ATOM     23  C   UNL     1     176.829 179.771 179.190  1.00  0.00     0.000 C 
BRANCH  23  24
ATOM     24  C   UNL     1     176.778 178.737 178.057  1.00  0.00    -0.000 C 
BRANCH  24  25
ATOM     25  C   UNL     1     175.339 178.334 177.687  1.00  0.00    -0.000 C 
BRANCH  25  26
ATOM     26  C   UNL     1     174.430 179.553 177.457  1.00  0.00    -0.000 C 
BRANCH  26  27
ATOM     27  C   UNL     1     172.941 179.174 177.368  1.00  0.00    -0.000 C 
BRANCH  27  28
ATOM     28  C   UNL     1     172.707 177.677 177.632  1.00  0.00    -0.000 C 
BRANCH  28  29
ATOM     29  C   UNL     1     171.243 177.379 178.006  1.00  0.00    -0.000 C 
BRANCH  29  30
ATOM     30  C   UNL     1     171.022 175.902 178.395  1.00  0.00    -0.000 C 
BRANCH  30  31
ATOM     31  C   UNL     1     171.951 175.425 179.525  1.00  0.00    -0.003 C 
ATOM     32  C   UNL     1     172.887 174.296 179.094  1.00  0.00     0.004 C 
ENDBRANCH  30  31
ENDBRANCH  29  30
ENDBRANCH  28  29
ENDBRANCH  27  28
ENDBRANCH  26  27
ENDBRANCH  25  26
ENDBRANCH  24  25
ENDBRANCH  23  24
ENDBRANCH  22  23
ENDBRANCH  21  22
ENDBRANCH  20  21
ENDBRANCH  19  20
ENDBRANCH  18  19
ENDBRANCH   1  18
TORSDOF 28
ENDMDL
MODEL 7
REMARK VINA RESULT:    -4.406      2.120      3.873
REMARK INTER + INTRA:         -15.858
REMARK INTER:                 -11.982
REMARK INTRA:                  -3.876
REMARK UNBOUND:                -4.240
REMARK SMILES CCCCCCCCCCCCCCCCCCCCCCCCCCCCCC(=O)[O-]
REMARK SMILES IDX 16 1 17 2 18 3 19 4 20 5 21 6 22 7 23 8 24 9 25 10 26 11
REMARK SMILES IDX 27 12 28 13 29 14 30 15 31 16 32 17 15 18 14 19 13 20 12 21
REMARK SMILES IDX 11 22 10 23 9 24 8 25 7 26 6 27 5 28 4 29 3 30 2 31 1 32
REMARK H PARENT
REMARK Flexibility Score: inf
ROOT
ATOM      1  C   UNL     1     170.429 177.903 181.390  1.00  0.00     0.000 C 
ENDROOT
BRANCH   1   2
ATOM      2  C   UNL     1     171.537 178.968 181.472  1.00  0.00     0.000 C 
BRANCH   2   3
ATOM      3  C   UNL     1     172.828 178.516 180.769  1.00  0.00     0.000 C 
BRANCH   3   4
ATOM      4  C   UNL     1     172.560 177.910 179.378  1.00  0.00     0.000 C 
BRANCH   4   5
ATOM      5  C   UNL     1     172.308 178.979 178.298  1.00  0.00     0.000 C 
BRANCH   5   6
ATOM      6  C   UNL     1     172.878 178.640 176.905  1.00  0.00     0.000 C 
BRANCH   6   7
ATOM      7  C   UNL     1     174.253 179.263 176.579  1.00  0.00     0.000 C 
BRANCH   7   8
ATOM      8  C   UNL     1     175.466 178.422 177.013  1.00  0.00     0.000 C 
BRANCH   8   9
ATOM      9  C   UNL     1     176.500 179.240 177.805  1.00  0.00     0.000 C 
BRANCH   9  10
ATOM     10  C   UNL     1     175.950 179.760 179.143  1.00  0.00     0.000 C 
BRANCH  10  11
ATOM     11  C   UNL     1     177.042 179.935 180.213  1.00  0.00     0.000 C 
BRANCH  11  12
ATOM     12  C   UNL     1     176.692 179.216 181.535  1.00  0.00     0.000 C 
BRANCH  12  13
ATOM     13  C   UNL     1     176.649 177.679 181.416  1.00  0.00     0.006 C 
BRANCH  13  14
ATOM     14  C   UNL     1     177.887 177.059 180.750  1.00  0.00     0.053 C 
BRANCH  14  15
ATOM     15  C   UNL     1     177.540 175.839 179.953  1.00  0.00     0.041 C 
ATOM     16  O   UNL     1     176.607 175.874 179.108  1.00  0.00    -0.550 OA
ATOM     17  O   UNL     1     178.267 174.666 180.124  1.00  0.00    -0.550 OA
ENDBRANCH  14  15
ENDBRANCH  13  14
ENDBRANCH  12  13
ENDBRANCH  11  12
ENDBRANCH  10  11
ENDBRANCH   9  10
ENDBRANCH   8   9
ENDBRANCH   7   8
ENDBRANCH   6   7
ENDBRANCH   5   6
ENDBRANCH   4   5
ENDBRANCH   3   4
ENDBRANCH   2   3
ENDBRANCH   1   2
BRANCH   1  18
ATOM     18  C   UNL     1     169.019 178.501 181.565  1.00  0.00     0.000 C 
BRANCH  18  19
ATOM     19  C   UNL     1     168.199 178.533 180.265  1.00  0.00     0.000 C 
BRANCH  19  20
ATOM     20  C   UNL     1     166.927 179.392 180.378  1.00  0.00     0.000 C 
BRANCH  20  21
ATOM     21  C   UNL     1     165.706 178.719 179.716  1.00  0.00     0.000 C 
BRANCH  21  22
ATOM     22  C   UNL     1     165.955 177.256 179.299  1.00  0.00     0.000 C 
BRANCH  22  23
ATOM     23  C   UNL     1     165.199 176.247 180.177  1.00  0.00     0.000 C 
BRANCH  23  24
ATOM     24  C   UNL     1     164.303 176.925 181.223  1.00  0.00    -0.000 C 
BRANCH  24  25
ATOM     25  C   UNL     1     162.847 176.425 181.170  1.00  0.00    -0.000 C 
BRANCH  25  26
ATOM     26  C   UNL     1     161.831 177.577 181.189  1.00  0.00    -0.000 C 
BRANCH  26  27
ATOM     27  C   UNL     1     162.472 178.929 181.550  1.00  0.00    -0.000 C 
BRANCH  27  28
ATOM     28  C   UNL     1     161.852 180.094 180.760  1.00  0.00    -0.000 C 
BRANCH  28  29
ATOM     29  C   UNL     1     161.471 179.679 179.326  1.00  0.00    -0.000 C 
BRANCH  29  30
ATOM     30  C   UNL     1     162.663 179.770 178.349  1.00  0.00    -0.000 C 
BRANCH  30  31
ATOM     31  C   UNL     1     162.736 178.588 177.367  1.00  0.00    -0.003 C 
ATOM     32  C   UNL     1     161.717 177.491 177.674  1.00  0.00     0.004 C 
ENDBRANCH  30  31
ENDBRANCH  29  30
ENDBRANCH  28  29
ENDBRANCH  27  28
ENDBRANCH  26  27
ENDBRANCH  25  26
ENDBRANCH  24  25
ENDBRANCH  23  24
ENDBRANCH  22  23
ENDBRANCH  21  22
ENDBRANCH  20  21
ENDBRANCH  19  20
ENDBRANCH  18  19
ENDBRANCH   1  18
TORSDOF 28
ENDMDL
MODEL 8
REMARK VINA RESULT:    -4.392      1.688      2.818
REMARK INTER + INTRA:         -15.821
REMARK INTER:                 -11.346
REMARK INTRA:                  -4.475
REMARK UNBOUND:                -4.240
REMARK SMILES CCCCCCCCCCCCCCCCCCCCCCCCCCCCCC(=O)[O-]
REMARK SMILES IDX 16 1 17 2 18 3 19 4 20 5 21 6 22 7 23 8 24 9 25 10 26 11
REMARK SMILES IDX 27 12 28 13 29 14 30 15 31 16 32 17 15 18 14 19 13 20 12 21
REMARK SMILES IDX 11 22 10 23 9 24 8 25 7 26 6 27 5 28 4 29 3 30 2 31 1 32
REMARK H PARENT
REMARK Flexibility Score: inf
ROOT
ATOM      1  C   UNL     1     169.206 177.643 179.182  1.00  0.00     0.000 C 
ENDROOT
BRANCH   1   2
ATOM      2  C   UNL     1     169.382 176.483 180.179  1.00  0.00     0.000 C 
BRANCH   2   3
ATOM      3  C   UNL     1     169.688 176.984 181.601  1.00  0.00     0.000 C 
BRANCH   3   4
ATOM      4  C   UNL     1     169.457 178.499 181.754  1.00  0.00     0.000 C 
BRANCH   4   5
ATOM      5  C   UNL     1     170.726 179.256 182.190  1.00  0.00     0.000 C 
BRANCH   5   6
ATOM      6  C   UNL     1     171.504 179.935 181.043  1.00  0.00     0.000 C 
BRANCH   6   7
ATOM      7  C   UNL     1     173.034 179.727 181.063  1.00  0.00     0.000 C 
BRANCH   7   8
ATOM      8  C   UNL     1     173.612 179.041 179.812  1.00  0.00     0.000 C 
BRANCH   8   9
ATOM      9  C   UNL     1     173.377 177.520 179.811  1.00  0.00     0.000 C 
BRANCH   9  10
ATOM     10  C   UNL     1     173.527 176.893 181.206  1.00  0.00     0.000 C 
BRANCH  10  11
ATOM     11  C   UNL     1     174.933 176.319 181.457  1.00  0.00     0.000 C 
BRANCH  11  12
ATOM     12  C   UNL     1     175.958 177.414 181.829  1.00  0.00     0.000 C 
BRANCH  12  13
ATOM     13  C   UNL     1     177.205 177.433 180.921  1.00  0.00     0.006 C 
BRANCH  13  14
ATOM     14  C   UNL     1     177.481 178.788 180.252  1.00  0.00     0.053 C 
BRANCH  14  15
ATOM     15  C   UNL     1     177.148 178.767 178.791  1.00  0.00     0.041 C 
ATOM     16  O   UNL     1     176.618 177.749 178.273  1.00  0.00    -0.550 OA
ATOM     17  O   UNL     1     177.400 179.885 178.003  1.00  0.00    -0.550 OA
ENDBRANCH  14  15
ENDBRANCH  13  14
ENDBRANCH  12  13
ENDBRANCH  11  12
ENDBRANCH  10  11
ENDBRANCH   9  10
ENDBRANCH   8   9
ENDBRANCH   7   8
ENDBRANCH   6   7
ENDBRANCH   5   6
ENDBRANCH   4   5
ENDBRANCH   3   4
ENDBRANCH   2   3
ENDBRANCH   1   2
BRANCH   1  18
ATOM     18  C   UNL     1     167.764 177.747 178.645  1.00  0.00     0.000 C 
BRANCH  18  19
ATOM     19  C   UNL     1     166.768 176.830 179.374  1.00  0.00     0.000 C 
BRANCH  19  20
ATOM     20  C   UNL     1     165.886 177.584 180.385  1.00  0.00     0.000 C 
BRANCH  20  21
ATOM     21  C   UNL     1     166.108 179.110 180.330  1.00  0.00     0.000 C 
BRANCH  21  22
ATOM     22  C   UNL     1     164.895 179.931 180.812  1.00  0.00     0.000 C 
BRANCH  22  23
ATOM     23  C   UNL     1     163.823 179.068 181.495  1.00  0.00     0.000 C 
BRANCH  23  24
ATOM     24  C   UNL     1     162.442 179.739 181.512  1.00  0.00    -0.000 C 
BRANCH  24  25
ATOM     25  C   UNL     1     161.947 180.109 180.101  1.00  0.00    -0.000 C 
BRANCH  25  26
ATOM     26  C   UNL     1     161.622 178.871 179.251  1.00  0.00    -0.000 C 
BRANCH  26  27
ATOM     27  C   UNL     1     162.620 178.665 178.097  1.00  0.00    -0.000 C 
BRANCH  27  28
ATOM     28  C   UNL     1     163.058 177.197 177.965  1.00  0.00    -0.000 C 
BRANCH  28  29
ATOM     29  C   UNL     1     162.590 176.347 179.162  1.00  0.00    -0.000 C 
BRANCH  29  30
ATOM     30  C   UNL     1     161.658 175.192 178.737  1.00  0.00    -0.000 C 
BRANCH  30  31
ATOM     31  C   UNL     1     160.760 174.683 179.878  1.00  0.00    -0.003 C 
ATOM     32  C   UNL     1     160.789 175.586 181.111  1.00  0.00     0.004 C 
ENDBRANCH  30  31
ENDBRANCH  29  30
ENDBRANCH  28  29
ENDBRANCH  27  28
ENDBRANCH  26  27
ENDBRANCH  25  26
ENDBRANCH  24  25
ENDBRANCH  23  24
ENDBRANCH  22  23
ENDBRANCH  21  22
ENDBRANCH  20  21
ENDBRANCH  19  20
ENDBRANCH  18  19
ENDBRANCH   1  18
TORSDOF 28
ENDMDL
MODEL 9
REMARK VINA RESULT:    -4.374      2.316      2.907
REMARK INTER + INTRA:         -15.774
REMARK INTER:                 -12.115
REMARK INTRA:                  -3.659
REMARK UNBOUND:                -4.240
REMARK SMILES CCCCCCCCCCCCCCCCCCCCCCCCCCCCCC(=O)[O-]
REMARK SMILES IDX 16 1 17 2 18 3 19 4 20 5 21 6 22 7 23 8 24 9 25 10 26 11
REMARK SMILES IDX 27 12 28 13 29 14 30 15 31 16 32 17 15 18 14 19 13 20 12 21
REMARK SMILES IDX 11 22 10 23 9 24 8 25 7 26 6 27 5 28 4 29 3 30 2 31 1 32
REMARK H PARENT
REMARK Flexibility Score: inf
ROOT
ATOM      1  C   UNL     1     169.022 175.643 181.194  1.00  0.00     0.000 C 
ENDROOT
BRANCH   1   2
ATOM      2  C   UNL     1     170.216 176.591 181.405  1.00  0.00     0.000 C 
BRANCH   2   3
ATOM      3  C   UNL     1     170.077 177.419 182.693  1.00  0.00     0.000 C 
BRANCH   3   4
ATOM      4  C   UNL     1     170.218 178.932 182.439  1.00  0.00     0.000 C 
BRANCH   4   5
ATOM      5  C   UNL     1     170.910 179.251 181.101  1.00  0.00     0.000 C 
BRANCH   5   6
ATOM      6  C   UNL     1     172.313 179.881 181.229  1.00  0.00     0.000 C 
BRANCH   6   7
ATOM      7  C   UNL     1     173.416 179.226 180.370  1.00  0.00     0.000 C 
BRANCH   7   8
ATOM      8  C   UNL     1     174.387 178.316 181.143  1.00  0.00     0.000 C 
BRANCH   8   9
ATOM      9  C   UNL     1     175.693 179.034 181.524  1.00  0.00     0.000 C 
BRANCH   9  10
ATOM     10  C   UNL     1     176.927 178.124 181.416  1.00  0.00     0.000 C 
BRANCH  10  11
ATOM     11  C   UNL     1     177.543 178.115 180.006  1.00  0.00     0.000 C 
BRANCH  11  12
ATOM     12  C   UNL     1     177.083 176.901 179.170  1.00  0.00     0.000 C 
BRANCH  12  13
ATOM     13  C   UNL     1     176.723 175.662 180.015  1.00  0.00     0.006 C 
BRANCH  13  14
ATOM     14  C   UNL     1     177.910 174.737 180.323  1.00  0.00     0.053 C 
BRANCH  14  15
ATOM     15  C   UNL     1     177.870 173.485 179.501  1.00  0.00     0.041 C 
ATOM     16  O   UNL     1     177.149 173.421 178.470  1.00  0.00    -0.550 OA
ATOM     17  O   UNL     1     178.652 172.392 179.859  1.00  0.00    -0.550 OA
ENDBRANCH  14  15
ENDBRANCH  13  14
ENDBRANCH  12  13
ENDBRANCH  11  12
ENDBRANCH  10  11
ENDBRANCH   9  10
ENDBRANCH   8   9
ENDBRANCH   7   8
ENDBRANCH   6   7
ENDBRANCH   5   6
ENDBRANCH   4   5
ENDBRANCH   3   4
ENDBRANCH   2   3
ENDBRANCH   1   2
BRANCH   1  18
ATOM     18  C   UNL     1     167.883 176.297 180.387  1.00  0.00     0.000 C 
BRANCH  18  19
ATOM     19  C   UNL     1     168.378 177.236 179.274  1.00  0.00     0.000 C 
BRANCH  19  20
ATOM     20  C   UNL     1     167.769 178.646 179.362  1.00  0.00     0.000 C 
BRANCH  20  21
ATOM     21  C   UNL     1     166.883 178.824 180.613  1.00  0.00     0.000 C 
BRANCH  21  22
ATOM     22  C   UNL     1     165.677 179.758 180.392  1.00  0.00     0.000 C 
BRANCH  22  23
ATOM     23  C   UNL     1     164.803 179.336 179.201  1.00  0.00     0.000 C 
BRANCH  23  24
ATOM     24  C   UNL     1     163.307 179.572 179.450  1.00  0.00    -0.000 C 
BRANCH  24  25
ATOM     25  C   UNL     1     162.979 179.771 180.941  1.00  0.00    -0.000 C 
BRANCH  25  26
ATOM     26  C   UNL     1     162.098 178.642 181.503  1.00  0.00    -0.000 C 
BRANCH  26  27
ATOM     27  C   UNL     1     161.713 177.603 180.435  1.00  0.00    -0.000 C 
BRANCH  27  28
ATOM     28  C   UNL     1     161.158 176.311 181.059  1.00  0.00    -0.000 C 
BRANCH  28  29
ATOM     29  C   UNL     1     161.936 175.066 180.594  1.00  0.00    -0.000 C 
BRANCH  29  30
ATOM     30  C   UNL     1     163.241 174.853 181.390  1.00  0.00    -0.000 C 
BRANCH  30  31
ATOM     31  C   UNL     1     164.410 175.717 180.885  1.00  0.00    -0.003 C 
ATOM     32  C   UNL     1     164.612 175.624 179.372  1.00  0.00     0.004 C 
ENDBRANCH  30  31
ENDBRANCH  29  30
ENDBRANCH  28  29
ENDBRANCH  27  28
ENDBRANCH  26  27
ENDBRANCH  25  26
ENDBRANCH  24  25
ENDBRANCH  23  24
ENDBRANCH  22  23
ENDBRANCH  21  22
ENDBRANCH  20  21
ENDBRANCH  19  20
ENDBRANCH  18  19
ENDBRANCH   1  18
TORSDOF 28
ENDMDL
