MODEL 1
REMARK VINA RESULT:    -3.552      0.000      0.000
REMARK INTER + INTRA:          -4.878
REMARK INTER:                  -4.591
REMARK INTRA:                  -0.287
REMARK UNBOUND:                -0.287
REMARK SMILES CCCCCCC(=O)[O-]
REMARK SMILES IDX 5 1 6 2 7 3 8 4 9 5 4 6 3 7 2 8 1 9
REMARK H PARENT
REMARK Flexibility Score: inf
ROOT
ATOM      1  C   UNL     1      59.149  34.240  80.508  1.00  0.00     0.006 C 
ENDROOT
BRANCH   1   2
ATOM      2  C   UNL     1      58.904  35.502  81.341  1.00  0.00     0.053 C 
BRANCH   2   3
ATOM      3  C   UNL     1      58.477  36.635  80.462  1.00  0.00     0.041 C 
ATOM      4  O   UNL     1      57.453  37.309  80.751  1.00  0.00    -0.550 OA
ATOM      5  O   UNL     1      59.236  36.979  79.351  1.00  0.00    -0.550 OA
ENDBRANCH   2   3
ENDBRANCH   1   2
BRANCH   1   6
ATOM      6  C   UNL     1      57.826  33.653  79.998  1.00  0.00     0.000 C 
BRANCH   6   7
ATOM      7  C   UNL     1      57.958  33.182  78.543  1.00  0.00    -0.000 C 
BRANCH   7   8
ATOM      8  C   UNL     1      57.662  34.299  77.531  1.00  0.00    -0.003 C 
ATOM      9  C   UNL     1      57.625  33.795  76.089  1.00  0.00     0.004 C 
ENDBRANCH   7   8
ENDBRANCH   6   7
ENDBRANCH   1   6
TORSDOF 5
ENDMDL
MODEL 2
REMARK VINA RESULT:    -3.507      1.085      1.387
REMARK INTER + INTRA:          -4.819
REMARK INTER:                  -4.588
REMARK INTRA:                  -0.231
REMARK UNBOUND:                -0.287
REMARK SMILES CCCCCCC(=O)[O-]
REMARK SMILES IDX 5 1 6 2 7 3 8 4 9 5 4 6 3 7 2 8 1 9
REMARK H PARENT
REMARK Flexibility Score: inf
ROOT
ATOM      1  C   UNL     1      59.115  33.880  79.643  1.00  0.00     0.006 C 
ENDROOT
BRANCH   1   2
ATOM      2  C   UNL     1      58.604  34.754  80.791  1.00  0.00     0.053 C 
BRANCH   2   3
ATOM      3  C   UNL     1      58.663  36.201  80.414  1.00  0.00     0.041 C 
ATOM      4  O   UNL     1      58.149  37.072  81.164  1.00  0.00    -0.550 OA
ATOM      5  O   UNL     1      59.329  36.593  79.260  1.00  0.00    -0.550 OA
ENDBRANCH   2   3
ENDBRANCH   1   2
BRANCH   1   6
ATOM      6  C   UNL     1      57.951  33.211  78.900  1.00  0.00     0.000 C 
BRANCH   6   7
ATOM      7  C   UNL     1      57.820  33.763  77.473  1.00  0.00    -0.000 C 
BRANCH   7   8
ATOM      8  C   UNL     1      57.912  32.663  76.404  1.00  0.00    -0.003 C 
ATOM      9  C   UNL     1      58.322  31.310  76.982  1.00  0.00     0.004 C 
ENDBRANCH   7   8
ENDBRANCH   6   7
ENDBRANCH   1   6
TORSDOF 5
ENDMDL
MODEL 3
REMARK VINA RESULT:    -3.477      1.761      2.504
REMARK INTER + INTRA:          -4.781
REMARK INTER:                  -4.439
REMARK INTRA:                  -0.342
REMARK UNBOUND:                -0.287
REMARK SMILES CCCCCCC(=O)[O-]
REMARK SMILES IDX 5 1 6 2 7 3 8 4 9 5 4 6 3 7 2 8 1 9
REMARK H PARENT
REMARK Flexibility Score: inf
ROOT
ATOM      1  C   UNL     1      58.803  36.467  80.158  1.00  0.00     0.006 C 
ENDROOT
BRANCH   1   2
ATOM      2  C   UNL     1      57.360  36.975  80.097  1.00  0.00     0.053 C 
BRANCH   2   3
ATOM      3  C   UNL     1      56.967  37.269  78.683  1.00  0.00     0.041 C 
ATOM      4  O   UNL     1      57.044  38.443  78.236  1.00  0.00    -0.550 OA
ATOM      5  O   UNL     1      56.564  36.238  77.844  1.00  0.00    -0.550 OA
ENDBRANCH   2   3
ENDBRANCH   1   2
BRANCH   1   6
ATOM      6  C   UNL     1      58.941  35.325  81.173  1.00  0.00     0.000 C 
BRANCH   6   7
ATOM      7  C   UNL     1      58.354  34.020  80.617  1.00  0.00    -0.000 C 
BRANCH   7   8
ATOM      8  C   UNL     1      58.972  33.622  79.268  1.00  0.00    -0.003 C 
ATOM      9  C   UNL     1      57.961  32.974  78.323  1.00  0.00     0.004 C 
ENDBRANCH   7   8
ENDBRANCH   6   7
ENDBRANCH   1   6
TORSDOF 5
ENDMDL
MODEL 4
REMARK VINA RESULT:    -3.444      2.451      3.834
REMARK INTER + INTRA:          -4.738
REMARK INTER:                  -4.334
REMARK INTRA:                  -0.404
REMARK UNBOUND:                -0.287
REMARK SMILES CCCCCCC(=O)[O-]
REMARK SMILES IDX 5 1 6 2 7 3 8 4 9 5 4 6 3 7 2 8 1 9
REMARK H PARENT
REMARK Flexibility Score: inf
ROOT
ATOM      1  C   UNL     1      59.082  34.200  80.143  1.00  0.00     0.006 C 
ENDROOT
BRANCH   1   2
ATOM      2  C   UNL     1      57.815  33.473  79.684  1.00  0.00     0.053 C 
BRANCH   2   3
ATOM      3  C   UNL     1      57.877  33.189  78.216  1.00  0.00     0.041 C 
ATOM      4  O   UNL     1      58.249  32.059  77.805  1.00  0.00    -0.550 OA
ATOM      5  O   UNL     1      57.475  34.155  77.303  1.00  0.00    -0.550 OA
ENDBRANCH   2   3
ENDBRANCH   1   2
BRANCH   1   6
ATOM      6  C   UNL     1      58.793  35.678  80.434  1.00  0.00     0.000 C 
BRANCH   6   7
ATOM      7  C   UNL     1      59.202  36.563  79.248  1.00  0.00    -0.000 C 
BRANCH   7   8
ATOM      8  C   UNL     1      58.047  37.436  78.735  1.00  0.00    -0.003 C 
ATOM      9  C   UNL     1      56.762  37.248  79.540  1.00  0.00     0.004 C 
ENDBRANCH   7   8
ENDBRANCH   6   7
ENDBRANCH   1   6
TORSDOF 5
ENDMDL
MODEL 5
REMARK VINA RESULT:    -3.443      2.465      3.536
REMARK INTER + INTRA:          -4.737
REMARK INTER:                  -4.394
REMARK INTRA:                  -0.343
REMARK UNBOUND:                -0.287
REMARK SMILES CCCCCCC(=O)[O-]
REMARK SMILES IDX 5 1 6 2 7 3 8 4 9 5 4 6 3 7 2 8 1 9
REMARK H PARENT
REMARK Flexibility Score: inf
ROOT
ATOM      1  C   UNL     1      58.720  35.531  80.901  1.00  0.00     0.006 C 
ENDROOT
BRANCH   1   2
ATOM      2  C   UNL     1      59.007  34.605  79.715  1.00  0.00     0.053 C 
BRANCH   2   3
ATOM      3  C   UNL     1      57.946  33.556  79.602  1.00  0.00     0.041 C 
ATOM      4  O   UNL     1      57.680  33.043  78.483  1.00  0.00    -0.550 OA
ATOM      5  O   UNL     1      57.286  33.108  80.739  1.00  0.00    -0.550 OA
ENDBRANCH   2   3
ENDBRANCH   1   2
BRANCH   1   6
ATOM      6  C   UNL     1      58.403  36.954  80.423  1.00  0.00     0.000 C 
BRANCH   6   7
ATOM      7  C   UNL     1      56.950  37.060  79.938  1.00  0.00    -0.000 C 
BRANCH   7   8
ATOM      8  C   UNL     1      56.845  37.559  78.489  1.00  0.00    -0.003 C 
ATOM      9  C   UNL     1      56.363  36.477  77.525  1.00  0.00     0.004 C 
ENDBRANCH   7   8
ENDBRANCH   6   7
ENDBRANCH   1   6
TORSDOF 5
ENDMDL
MODEL 6
REMARK VINA RESULT:    -3.442      1.069      1.698
REMARK INTER + INTRA:          -4.736
REMARK INTER:                  -4.413
REMARK INTRA:                  -0.323
REMARK UNBOUND:                -0.287
REMARK SMILES CCCCCCC(=O)[O-]
REMARK SMILES IDX 5 1 6 2 7 3 8 4 9 5 4 6 3 7 2 8 1 9
REMARK H PARENT
REMARK Flexibility Score: inf
ROOT
ATOM      1  C   UNL     1      58.786  35.828  80.986  1.00  0.00     0.006 C 
ENDROOT
BRANCH   1   2
ATOM      2  C   UNL     1      57.824  36.491  79.995  1.00  0.00     0.053 C 
BRANCH   2   3
ATOM      3  C   UNL     1      58.581  37.311  78.999  1.00  0.00     0.041 C 
ATOM      4  O   UNL     1      58.088  38.380  78.553  1.00  0.00    -0.550 OA
ATOM      5  O   UNL     1      59.854  36.921  78.599  1.00  0.00    -0.550 OA
ENDBRANCH   2   3
ENDBRANCH   1   2
BRANCH   1   6
ATOM      6  C   UNL     1      58.973  34.341  80.660  1.00  0.00     0.000 C 
BRANCH   6   7
ATOM      7  C   UNL     1      57.741  33.777  79.938  1.00  0.00    -0.000 C 
BRANCH   7   8
ATOM      8  C   UNL     1      58.099  33.070  78.622  1.00  0.00    -0.003 C 
ATOM      9  C   UNL     1      57.745  33.900  77.389  1.00  0.00     0.004 C 
ENDBRANCH   7   8
ENDBRANCH   6   7
ENDBRANCH   1   6
TORSDOF 5
ENDMDL
MODEL 7
REMARK VINA RESULT:    -3.367      1.401      2.957
REMARK INTER + INTRA:          -4.639
REMARK INTER:                  -4.288
REMARK INTRA:                  -0.351
REMARK UNBOUND:                -0.287
REMARK SMILES CCCCCCC(=O)[O-]
REMARK SMILES IDX 5 1 6 2 7 3 8 4 9 5 4 6 3 7 2 8 1 9
REMARK H PARENT
REMARK Flexibility Score: inf
ROOT
ATOM      1  C   UNL     1      57.964  35.589  77.584  1.00  0.00     0.006 C 
ENDROOT
BRANCH   1   2
ATOM      2  C   UNL     1      56.707  36.407  77.893  1.00  0.00     0.053 C 
BRANCH   2   3
ATOM      3  C   UNL     1      56.933  37.288  79.081  1.00  0.00     0.041 C 
ATOM      4  O   UNL     1      55.956  37.697  79.761  1.00  0.00    -0.550 OA
ATOM      5  O   UNL     1      58.227  37.616  79.467  1.00  0.00    -0.550 OA
ENDBRANCH   2   3
ENDBRANCH   1   2
BRANCH   1   6
ATOM      6  C   UNL     1      57.675  34.084  77.660  1.00  0.00     0.000 C 
BRANCH   6   7
ATOM      7  C   UNL     1      58.514  33.417  78.759  1.00  0.00    -0.000 C 
BRANCH   7   8
ATOM      8  C   UNL     1      58.008  33.747  80.171  1.00  0.00    -0.003 C 
ATOM      9  C   UNL     1      59.003  34.583  80.975  1.00  0.00     0.004 C 
ENDBRANCH   7   8
ENDBRANCH   6   7
ENDBRANCH   1   6
TORSDOF 5
ENDMDL
MODEL 8
REMARK VINA RESULT:    -3.230      2.218      3.204
REMARK INTER + INTRA:          -4.462
REMARK INTER:                  -4.166
REMARK INTRA:                  -0.295
REMARK UNBOUND:                -0.287
REMARK SMILES CCCCCCC(=O)[O-]
REMARK SMILES IDX 5 1 6 2 7 3 8 4 9 5 4 6 3 7 2 8 1 9
REMARK H PARENT
REMARK Flexibility Score: inf
ROOT
ATOM      1  C   UNL     1      56.897  37.282  79.478  1.00  0.00     0.006 C 
ENDROOT
BRANCH   1   2
ATOM      2  C   UNL     1      57.992  37.246  80.547  1.00  0.00     0.053 C 
BRANCH   2   3
ATOM      3  C   UNL     1      58.720  35.940  80.508  1.00  0.00     0.041 C 
ATOM      4  O   UNL     1      58.997  35.402  79.404  1.00  0.00    -0.550 OA
ATOM      5  O   UNL     1      59.137  35.339  81.689  1.00  0.00    -0.550 OA
ENDBRANCH   2   3
ENDBRANCH   1   2
BRANCH   1   6
ATOM      6  C   UNL     1      57.259  38.258  78.351  1.00  0.00     0.000 C 
BRANCH   6   7
ATOM      7  C   UNL     1      57.085  37.599  76.975  1.00  0.00    -0.000 C 
BRANCH   7   8
ATOM      8  C   UNL     1      56.334  36.262  77.051  1.00  0.00    -0.003 C 
ATOM      9  C   UNL     1      56.710  35.308  75.919  1.00  0.00     0.004 C 
ENDBRANCH   7   8
ENDBRANCH   6   7
ENDBRANCH   1   6
TORSDOF 5
ENDMDL
MODEL 9
REMARK VINA RESULT:    -3.162      2.604      3.141
REMARK INTER + INTRA:          -4.374
REMARK INTER:                  -4.151
REMARK INTRA:                  -0.223
REMARK UNBOUND:                -0.287
REMARK SMILES CCCCCCC(=O)[O-]
REMARK SMILES IDX 5 1 6 2 7 3 8 4 9 5 4 6 3 7 2 8 1 9
REMARK H PARENT
REMARK Flexibility Score: inf
ROOT
ATOM      1  C   UNL     1      57.584  35.553  78.611  1.00  0.00     0.006 C 
ENDROOT
BRANCH   1   2
ATOM      2  C   UNL     1      58.846  36.135  79.255  1.00  0.00     0.053 C 
BRANCH   2   3
ATOM      3  C   UNL     1      58.664  36.270  80.735  1.00  0.00     0.041 C 
ATOM      4  O   UNL     1      58.060  37.268  81.210  1.00  0.00    -0.550 OA
ATOM      5  O   UNL     1      59.117  35.270  81.586  1.00  0.00    -0.550 OA
ENDBRANCH   2   3
ENDBRANCH   1   2
BRANCH   1   6
ATOM      6  C   UNL     1      56.678  36.667  78.072  1.00  0.00     0.000 C 
BRANCH   6   7
ATOM      7  C   UNL     1      56.158  36.322  76.669  1.00  0.00    -0.000 C 
BRANCH   7   8
ATOM      8  C   UNL     1      56.489  37.406  75.633  1.00  0.00    -0.003 C 
ATOM      9  C   UNL     1      57.399  38.498  76.191  1.00  0.00     0.004 C 
ENDBRANCH   7   8
ENDBRANCH   6   7
ENDBRANCH   1   6
TORSDOF 5
ENDMDL
