MODEL 1
REMARK VINA RESULT:    -5.651      0.000      0.000
REMARK INTER + INTRA:         -10.709
REMARK INTER:                  -8.789
REMARK INTRA:                  -1.920
REMARK UNBOUND:                -1.920
REMARK SMILES COc1cc(CNC(=O)CCCCC=CC(C)C)ccc1O
REMARK SMILES IDX 11 1 12 2 13 3 14 4 15 5 16 6 17 7 18 8 10 9 8 10 9 11 7 12
REMARK SMILES IDX 6 14 5 15 4 16 19 17 3 18 20 19 21 20 2 21 1 22 22 23
REMARK H PARENT 7 13 22 24
REMARK Flexibility Score: inf
ROOT
ATOM      1  C   UNL     1     136.752  98.010  93.435  1.00  0.00     0.010 C 
ENDROOT
BRANCH   1   2
ATOM      2  C   UNL     1     137.775  98.276  94.553  1.00  0.00     0.005 C 
BRANCH   2   3
ATOM      3  C   UNL     1     137.363  99.450  95.450  1.00  0.00     0.027 C 
BRANCH   3   4
ATOM      4  C   UNL     1     138.566 100.232  95.925  1.00  0.00    -0.031 C 
ATOM      5  C   UNL     1     139.156 101.239  95.252  1.00  0.00    -0.028 C 
BRANCH   5   6
ATOM      6  C   UNL     1     138.746 101.715  93.874  1.00  0.00     0.005 C 
ATOM      7  C   UNL     1     138.699 103.247  93.837  1.00  0.00     0.012 C 
ATOM      8  C   UNL     1     139.727 101.191  92.818  1.00  0.00     0.012 C 
ENDBRANCH   5   6
ENDBRANCH   3   4
ENDBRANCH   2   3
ENDBRANCH   1   2
BRANCH   1   9
ATOM      9  C   UNL     1     137.134  98.702  92.121  1.00  0.00     0.100 C 
BRANCH   9  10
ATOM     10  C   UNL     1     136.177  99.802  91.768  1.00  0.00     0.220 C 
ATOM     11  O   UNL     1     136.369 100.478  90.722  1.00  0.00    -0.275 OA
ATOM     12  N   UNL     1     135.032 100.055  92.595  1.00  0.00    -0.352 N 
ATOM     13  H   UNL     1     134.859  99.446  93.426  1.00  0.00     0.163 HD
BRANCH  12  14
ATOM     14  C   UNL     1     134.081 101.127  92.310  1.00  0.00     0.151 C 
BRANCH  14  15
ATOM     15  C   UNL     1     133.987 102.064  93.484  1.00  0.00    -0.025 A 
ATOM     16  C   UNL     1     132.735 102.549  93.895  1.00  0.00     0.056 A 
ATOM     17  C   UNL     1     135.137 102.437  94.192  1.00  0.00     0.009 A 
ATOM     18  C   UNL     1     132.629 103.408  95.009  1.00  0.00     0.160 A 
ATOM     19  C   UNL     1     135.040 103.288  95.295  1.00  0.00     0.050 A 
ATOM     20  C   UNL     1     133.795 103.775  95.706  1.00  0.00     0.157 A 
BRANCH  18  21
ATOM     21  O   UNL     1     131.392 103.909  95.445  1.00  0.00    -0.493 OA
ATOM     22  C   UNL     1     130.711 105.009  94.850  1.00  0.00     0.278 C 
ENDBRANCH  18  21
BRANCH  20  23
ATOM     23  O   UNL     1     133.736 104.622  96.812  1.00  0.00    -0.504 OA
ATOM     24  H   UNL     1     134.027 105.592  96.766  1.00  0.00     0.293 HD
ENDBRANCH  20  23
ENDBRANCH  14  15
ENDBRANCH  12  14
ENDBRANCH   9  10
ENDBRANCH   1   9
TORSDOF 10
ENDMDL
MODEL 2
REMARK VINA RESULT:    -5.455      1.805      3.426
REMARK INTER + INTRA:         -10.405
REMARK INTER:                  -8.881
REMARK INTRA:                  -1.524
REMARK UNBOUND:                -1.920
REMARK SMILES COc1cc(CNC(=O)CCCCC=CC(C)C)ccc1O
REMARK SMILES IDX 11 1 12 2 13 3 14 4 15 5 16 6 17 7 18 8 10 9 8 10 9 11 7 12
REMARK SMILES IDX 6 14 5 15 4 16 19 17 3 18 20 19 21 20 2 21 1 22 22 23
REMARK H PARENT 7 13 22 24
REMARK Flexibility Score: inf
ROOT
ATOM      1  C   UNL     1     138.480  99.498  95.228  1.00  0.00     0.010 C 
ENDROOT
BRANCH   1   2
ATOM      2  C   UNL     1     137.050  98.940  95.331  1.00  0.00     0.005 C 
BRANCH   2   3
ATOM      3  C   UNL     1     136.749  97.910  94.235  1.00  0.00     0.027 C 
BRANCH   3   4
ATOM      4  C   UNL     1     137.292  98.351  92.896  1.00  0.00    -0.031 C 
ATOM      5  C   UNL     1     136.601  99.027  91.958  1.00  0.00    -0.028 C 
BRANCH   5   6
ATOM      6  C   UNL     1     135.139  99.405  92.067  1.00  0.00     0.005 C 
ATOM      7  C   UNL     1     134.948 100.882  91.707  1.00  0.00     0.012 C 
ATOM      8  C   UNL     1     134.292  98.521  91.143  1.00  0.00     0.012 C 
ENDBRANCH   5   6
ENDBRANCH   3   4
ENDBRANCH   2   3
ENDBRANCH   1   2
BRANCH   1   9
ATOM      9  C   UNL     1     138.551 100.988  95.585  1.00  0.00     0.100 C 
BRANCH   9  10
ATOM     10  C   UNL     1     137.805 101.836  94.597  1.00  0.00     0.220 C 
ATOM     11  O   UNL     1     138.126 101.793  93.379  1.00  0.00    -0.275 OA
ATOM     12  N   UNL     1     136.712 102.657  95.030  1.00  0.00    -0.352 N 
ATOM     13  H   UNL     1     136.424 102.634  96.034  1.00  0.00     0.163 HD
BRANCH  12  14
ATOM     14  C   UNL     1     135.967 103.518  94.114  1.00  0.00     0.151 C 
BRANCH  14  15
ATOM     15  C   UNL     1     134.518 103.574  94.516  1.00  0.00    -0.025 A 
ATOM     16  C   UNL     1     133.777 104.748  94.306  1.00  0.00     0.056 A 
ATOM     17  C   UNL     1     133.888 102.452  95.073  1.00  0.00     0.009 A 
ATOM     18  C   UNL     1     132.412 104.807  94.655  1.00  0.00     0.160 A 
ATOM     19  C   UNL     1     132.538 102.504  95.423  1.00  0.00     0.050 A 
ATOM     20  C   UNL     1     131.797 103.673  95.217  1.00  0.00     0.157 A 
BRANCH  18  21
ATOM     21  O   UNL     1     131.644 105.966  94.457  1.00  0.00    -0.493 OA
ATOM     22  C   UNL     1     130.994 106.306  93.237  1.00  0.00     0.278 C 
ENDBRANCH  18  21
BRANCH  20  23
ATOM     23  O   UNL     1     130.450 103.688  95.577  1.00  0.00    -0.504 OA
ATOM     24  H   UNL     1     129.975 102.864  95.927  1.00  0.00     0.293 HD
ENDBRANCH  20  23
ENDBRANCH  14  15
ENDBRANCH  12  14
ENDBRANCH   9  10
ENDBRANCH   1   9
TORSDOF 10
ENDMDL
MODEL 3
REMARK VINA RESULT:    -5.265      1.833      3.577
REMARK INTER + INTRA:         -10.109
REMARK INTER:                  -8.534
REMARK INTRA:                  -1.575
REMARK UNBOUND:                -1.920
REMARK SMILES COc1cc(CNC(=O)CCCCC=CC(C)C)ccc1O
REMARK SMILES IDX 11 1 12 2 13 3 14 4 15 5 16 6 17 7 18 8 10 9 8 10 9 11 7 12
REMARK SMILES IDX 6 14 5 15 4 16 19 17 3 18 20 19 21 20 2 21 1 22 22 23
REMARK H PARENT 7 13 22 24
REMARK Flexibility Score: inf
ROOT
ATOM      1  C   UNL     1     138.618 100.847  95.652  1.00  0.00     0.010 C 
ENDROOT
BRANCH   1   2
ATOM      2  C   UNL     1     137.637  99.662  95.667  1.00  0.00     0.005 C 
BRANCH   2   3
ATOM      3  C   UNL     1     138.155  98.468  94.856  1.00  0.00     0.027 C 
BRANCH   3   4
ATOM      4  C   UNL     1     137.021  97.689  94.232  1.00  0.00    -0.031 C 
ATOM      5  C   UNL     1     136.461  97.950  93.035  1.00  0.00    -0.028 C 
BRANCH   5   6
ATOM      6  C   UNL     1     136.837  99.113  92.141  1.00  0.00     0.005 C 
ATOM      7  C   UNL     1     137.109  98.616  90.717  1.00  0.00     0.012 C 
ATOM      8  C   UNL     1     135.716 100.159  92.131  1.00  0.00     0.012 C 
ENDBRANCH   5   6
ENDBRANCH   3   4
ENDBRANCH   2   3
ENDBRANCH   1   2
BRANCH   1   9
ATOM      9  C   UNL     1     138.876 101.370  94.234  1.00  0.00     0.100 C 
BRANCH   9  10
ATOM     10  C   UNL     1     137.954 102.499  93.878  1.00  0.00     0.220 C 
ATOM     11  O   UNL     1     137.943 102.940  92.697  1.00  0.00    -0.275 OA
ATOM     12  N   UNL     1     137.066 103.045  94.863  1.00  0.00    -0.352 N 
ATOM     13  H   UNL     1     137.049 102.626  95.821  1.00  0.00     0.163 HD
BRANCH  12  14
ATOM     14  C   UNL     1     136.164 104.158  94.576  1.00  0.00     0.151 C 
BRANCH  14  15
ATOM     15  C   UNL     1     134.733 103.699  94.646  1.00  0.00    -0.025 A 
ATOM     16  C   UNL     1     134.063 103.307  93.477  1.00  0.00     0.056 A 
ATOM     17  C   UNL     1     134.066 103.630  95.878  1.00  0.00     0.009 A 
ATOM     18  C   UNL     1     132.730 102.851  93.531  1.00  0.00     0.160 A 
ATOM     19  C   UNL     1     132.746 103.182  95.939  1.00  0.00     0.050 A 
ATOM     20  C   UNL     1     132.075 102.793  94.775  1.00  0.00     0.157 A 
BRANCH  18  21
ATOM     21  O   UNL     1     132.034 102.452  92.379  1.00  0.00    -0.493 OA
ATOM     22  C   UNL     1     132.190 101.191  91.737  1.00  0.00     0.278 C 
ENDBRANCH  18  21
BRANCH  20  23
ATOM     23  O   UNL     1     130.757 102.349  94.875  1.00  0.00    -0.504 OA
ATOM     24  H   UNL     1     130.334 102.107  95.763  1.00  0.00     0.293 HD
ENDBRANCH  20  23
ENDBRANCH  14  15
ENDBRANCH  12  14
ENDBRANCH   9  10
ENDBRANCH   1   9
TORSDOF 10
ENDMDL
MODEL 4
REMARK VINA RESULT:    -5.259      1.563      2.647
REMARK INTER + INTRA:         -10.100
REMARK INTER:                  -8.659
REMARK INTRA:                  -1.441
REMARK UNBOUND:                -1.920
REMARK SMILES COc1cc(CNC(=O)CCCCC=CC(C)C)ccc1O
REMARK SMILES IDX 11 1 12 2 13 3 14 4 15 5 16 6 17 7 18 8 10 9 8 10 9 11 7 12
REMARK SMILES IDX 6 14 5 15 4 16 19 17 3 18 20 19 21 20 2 21 1 22 22 23
REMARK H PARENT 7 13 22 24
REMARK Flexibility Score: inf
ROOT
ATOM      1  C   UNL     1     136.377  99.038  91.747  1.00  0.00     0.010 C 
ENDROOT
BRANCH   1   2
ATOM      2  C   UNL     1     137.140  98.128  92.725  1.00  0.00     0.005 C 
BRANCH   2   3
ATOM      3  C   UNL     1     136.734  98.373  94.183  1.00  0.00     0.027 C 
BRANCH   3   4
ATOM      4  C   UNL     1     136.474  99.838  94.446  1.00  0.00    -0.031 C 
ATOM      5  C   UNL     1     137.392 100.731  94.864  1.00  0.00    -0.028 C 
BRANCH   5   6
ATOM      6  C   UNL     1     138.831 100.397  95.199  1.00  0.00     0.005 C 
ATOM      7  C   UNL     1     139.768 101.460  94.616  1.00  0.00     0.012 C 
ATOM      8  C   UNL     1     139.014 100.307  96.719  1.00  0.00     0.012 C 
ENDBRANCH   5   6
ENDBRANCH   3   4
ENDBRANCH   2   3
ENDBRANCH   1   2
BRANCH   1   9
ATOM      9  C   UNL     1     135.052  98.416  91.288  1.00  0.00     0.100 C 
BRANCH   9  10
ATOM     10  C   UNL     1     133.897  99.353  91.487  1.00  0.00     0.220 C 
ATOM     11  O   UNL     1     132.728  98.957  91.228  1.00  0.00    -0.275 OA
ATOM     12  N   UNL     1     134.117 100.672  92.006  1.00  0.00    -0.352 N 
ATOM     13  H   UNL     1     135.086 100.960  92.269  1.00  0.00     0.163 HD
BRANCH  12  14
ATOM     14  C   UNL     1     133.031 101.630  92.198  1.00  0.00     0.151 C 
BRANCH  14  15
ATOM     15  C   UNL     1     133.163 102.304  93.537  1.00  0.00    -0.025 A 
ATOM     16  C   UNL     1     134.376 102.910  93.901  1.00  0.00     0.056 A 
ATOM     17  C   UNL     1     132.074 102.360  94.418  1.00  0.00     0.009 A 
ATOM     18  C   UNL     1     134.507 103.567  95.142  1.00  0.00     0.160 A 
ATOM     19  C   UNL     1     132.197 103.007  95.649  1.00  0.00     0.050 A 
ATOM     20  C   UNL     1     133.405 103.609  96.015  1.00  0.00     0.157 A 
BRANCH  18  21
ATOM     21  O   UNL     1     135.707 104.182  95.533  1.00  0.00    -0.493 OA
ATOM     22  C   UNL     1     136.569 104.901  94.658  1.00  0.00     0.278 C 
ENDBRANCH  18  21
BRANCH  20  23
ATOM     23  O   UNL     1     133.490 104.248  97.252  1.00  0.00    -0.504 OA
ATOM     24  H   UNL     1     134.365 104.608  97.615  1.00  0.00     0.293 HD
ENDBRANCH  20  23
ENDBRANCH  14  15
ENDBRANCH  12  14
ENDBRANCH   9  10
ENDBRANCH   1   9
TORSDOF 10
ENDMDL
MODEL 5
REMARK VINA RESULT:    -5.247      1.262      2.234
REMARK INTER + INTRA:         -10.082
REMARK INTER:                  -8.794
REMARK INTRA:                  -1.288
REMARK UNBOUND:                -1.920
REMARK SMILES COc1cc(CNC(=O)CCCCC=CC(C)C)ccc1O
REMARK SMILES IDX 11 1 12 2 13 3 14 4 15 5 16 6 17 7 18 8 10 9 8 10 9 11 7 12
REMARK SMILES IDX 6 14 5 15 4 16 19 17 3 18 20 19 21 20 2 21 1 22 22 23
REMARK H PARENT 7 13 22 24
REMARK Flexibility Score: inf
ROOT
ATOM      1  C   UNL     1     136.704  98.058  94.275  1.00  0.00     0.010 C 
ENDROOT
BRANCH   1   2
ATOM      2  C   UNL     1     137.109  99.152  95.278  1.00  0.00     0.005 C 
BRANCH   2   3
ATOM      3  C   UNL     1     138.630  99.321  95.370  1.00  0.00     0.027 C 
BRANCH   3   4
ATOM      4  C   UNL     1     139.007 100.723  95.788  1.00  0.00    -0.031 C 
ATOM      5  C   UNL     1     139.751 101.579  95.061  1.00  0.00    -0.028 C 
BRANCH   5   6
ATOM      6  C   UNL     1     140.388 101.253  93.726  1.00  0.00     0.005 C 
ATOM      7  C   UNL     1     140.075 102.357  92.710  1.00  0.00     0.012 C 
ATOM      8  C   UNL     1     141.904 101.095  93.886  1.00  0.00     0.012 C 
ENDBRANCH   5   6
ENDBRANCH   3   4
ENDBRANCH   2   3
ENDBRANCH   1   2
BRANCH   1   9
ATOM      9  C   UNL     1     137.078  98.423  92.833  1.00  0.00     0.100 C 
BRANCH   9  10
ATOM     10  C   UNL     1     136.521  99.758  92.432  1.00  0.00     0.220 C 
ATOM     11  O   UNL     1     137.293 100.632  91.954  1.00  0.00    -0.275 OA
ATOM     12  N   UNL     1     135.116 100.021  92.556  1.00  0.00    -0.352 N 
ATOM     13  H   UNL     1     134.485  99.263  92.899  1.00  0.00     0.163 HD
BRANCH  12  14
ATOM     14  C   UNL     1     134.526 101.309  92.201  1.00  0.00     0.151 C 
BRANCH  14  15
ATOM     15  C   UNL     1     134.358 102.161  93.430  1.00  0.00    -0.025 A 
ATOM     16  C   UNL     1     135.377 103.045  93.816  1.00  0.00     0.056 A 
ATOM     17  C   UNL     1     133.176 102.102  94.181  1.00  0.00     0.009 A 
ATOM     18  C   UNL     1     135.223 103.867  94.952  1.00  0.00     0.160 A 
ATOM     19  C   UNL     1     133.017 102.911  95.308  1.00  0.00     0.050 A 
ATOM     20  C   UNL     1     134.032 103.791  95.697  1.00  0.00     0.157 A 
BRANCH  18  21
ATOM     21  O   UNL     1     136.224 104.761  95.363  1.00  0.00    -0.493 OA
ATOM     22  C   UNL     1     137.133 105.416  94.484  1.00  0.00     0.278 C 
ENDBRANCH  18  21
BRANCH  20  23
ATOM     23  O   UNL     1     133.837 104.585  96.826  1.00  0.00    -0.504 OA
ATOM     24  H   UNL     1     133.294 104.271  97.621  1.00  0.00     0.293 HD
ENDBRANCH  20  23
ENDBRANCH  14  15
ENDBRANCH  12  14
ENDBRANCH   9  10
ENDBRANCH   1   9
TORSDOF 10
ENDMDL
MODEL 6
REMARK VINA RESULT:    -5.178      2.078      3.551
REMARK INTER + INTRA:          -9.974
REMARK INTER:                  -8.656
REMARK INTRA:                  -1.318
REMARK UNBOUND:                -1.920
REMARK SMILES COc1cc(CNC(=O)CCCCC=CC(C)C)ccc1O
REMARK SMILES IDX 11 1 12 2 13 3 14 4 15 5 16 6 17 7 18 8 10 9 8 10 9 11 7 12
REMARK SMILES IDX 6 14 5 15 4 16 19 17 3 18 20 19 21 20 2 21 1 22 22 23
REMARK H PARENT 7 13 22 24
REMARK Flexibility Score: inf
ROOT
ATOM      1  C   UNL     1     134.423  99.092  90.503  1.00  0.00     0.010 C 
ENDROOT
BRANCH   1   2
ATOM      2  C   UNL     1     135.477  98.581  91.500  1.00  0.00     0.005 C 
BRANCH   2   3
ATOM      3  C   UNL     1     136.316  99.719  92.093  1.00  0.00     0.027 C 
BRANCH   3   4
ATOM      4  C   UNL     1     135.987  99.947  93.550  1.00  0.00    -0.031 C 
ATOM      5  C   UNL     1     136.786  99.632  94.588  1.00  0.00    -0.028 C 
BRANCH   5   6
ATOM      6  C   UNL     1     138.126  98.936  94.467  1.00  0.00     0.005 C 
ATOM      7  C   UNL     1     139.036  99.337  95.633  1.00  0.00     0.012 C 
ATOM      8  C   UNL     1     137.935  97.415  94.444  1.00  0.00     0.012 C 
ENDBRANCH   5   6
ENDBRANCH   3   4
ENDBRANCH   2   3
ENDBRANCH   1   2
BRANCH   1   9
ATOM      9  C   UNL     1     133.034  98.501  90.770  1.00  0.00     0.100 C 
BRANCH   9  10
ATOM     10  C   UNL     1     132.069  99.539  91.264  1.00  0.00     0.220 C 
ATOM     11  O   UNL     1     130.834  99.288  91.257  1.00  0.00    -0.275 OA
ATOM     12  N   UNL     1     132.552 100.789  91.775  1.00  0.00    -0.352 N 
ATOM     13  H   UNL     1     133.583 100.954  91.825  1.00  0.00     0.163 HD
BRANCH  12  14
ATOM     14  C   UNL     1     131.657 101.842  92.247  1.00  0.00     0.151 C 
BRANCH  14  15
ATOM     15  C   UNL     1     132.152 102.399  93.554  1.00  0.00    -0.025 A 
ATOM     16  C   UNL     1     133.531 102.463  93.812  1.00  0.00     0.056 A 
ATOM     17  C   UNL     1     131.250 102.884  94.510  1.00  0.00     0.009 A 
ATOM     18  C   UNL     1     134.011 103.005  95.022  1.00  0.00     0.160 A 
ATOM     19  C   UNL     1     131.717 103.421  95.712  1.00  0.00     0.050 A 
ATOM     20  C   UNL     1     133.090 103.483  95.972  1.00  0.00     0.157 A 
BRANCH  18  21
ATOM     21  O   UNL     1     135.383 103.083  95.308  1.00  0.00    -0.493 OA
ATOM     22  C   UNL     1     136.369 103.576  94.408  1.00  0.00     0.278 C 
ENDBRANCH  18  21
BRANCH  20  23
ATOM     23  O   UNL     1     133.521 104.027  97.182  1.00  0.00    -0.504 OA
ATOM     24  H   UNL     1     133.366 104.999  97.423  1.00  0.00     0.293 HD
ENDBRANCH  20  23
ENDBRANCH  14  15
ENDBRANCH  12  14
ENDBRANCH   9  10
ENDBRANCH   1   9
TORSDOF 10
ENDMDL
MODEL 7
REMARK VINA RESULT:    -5.060      2.265      5.713
REMARK INTER + INTRA:          -9.791
REMARK INTER:                  -8.079
REMARK INTRA:                  -1.712
REMARK UNBOUND:                -1.920
REMARK SMILES COc1cc(CNC(=O)CCCCC=CC(C)C)ccc1O
REMARK SMILES IDX 11 1 12 2 13 3 14 4 15 5 16 6 17 7 18 8 10 9 8 10 9 11 7 12
REMARK SMILES IDX 6 14 5 15 4 16 19 17 3 18 20 19 21 20 2 21 1 22 22 23
REMARK H PARENT 7 13 22 24
REMARK Flexibility Score: inf
ROOT
ATOM      1  C   UNL     1     132.344 101.630  91.671  1.00  0.00     0.010 C 
ENDROOT
BRANCH   1   2
ATOM      2  C   UNL     1     131.092 101.730  92.559  1.00  0.00     0.005 C 
BRANCH   2   3
ATOM      3  C   UNL     1     131.140 102.943  93.496  1.00  0.00     0.027 C 
BRANCH   3   4
ATOM      4  C   UNL     1     131.462 102.535  94.915  1.00  0.00    -0.031 C 
ATOM      5  C   UNL     1     132.676 102.615  95.493  1.00  0.00    -0.028 C 
BRANCH   5   6
ATOM      6  C   UNL     1     133.938 103.072  94.792  1.00  0.00     0.005 C 
ATOM      7  C   UNL     1     134.661 104.125  95.640  1.00  0.00     0.012 C 
ATOM      8  C   UNL     1     134.863 101.878  94.530  1.00  0.00     0.012 C 
ENDBRANCH   5   6
ENDBRANCH   3   4
ENDBRANCH   2   3
ENDBRANCH   1   2
BRANCH   1   9
ATOM      9  C   UNL     1     132.811 100.182  91.485  1.00  0.00     0.100 C 
BRANCH   9  10
ATOM     10  C   UNL     1     134.305 100.083  91.393  1.00  0.00     0.220 C 
ATOM     11  O   UNL     1     134.966 101.073  90.975  1.00  0.00    -0.275 OA
ATOM     12  N   UNL     1     134.978  98.888  91.813  1.00  0.00    -0.352 N 
ATOM     13  H   UNL     1     134.417  98.101  92.210  1.00  0.00     0.163 HD
BRANCH  12  14
ATOM     14  C   UNL     1     136.428  98.733  91.724  1.00  0.00     0.151 C 
BRANCH  14  15
ATOM     15  C   UNL     1     137.085  99.251  92.975  1.00  0.00    -0.025 A 
ATOM     16  C   UNL     1     137.963 100.344  92.906  1.00  0.00     0.056 A 
ATOM     17  C   UNL     1     136.804  98.671  94.220  1.00  0.00     0.009 A 
ATOM     18  C   UNL     1     138.566 100.856  94.073  1.00  0.00     0.160 A 
ATOM     19  C   UNL     1     137.399  99.172  95.380  1.00  0.00     0.050 A 
ATOM     20  C   UNL     1     138.276 100.259  95.313  1.00  0.00     0.157 A 
BRANCH  18  21
ATOM     21  O   UNL     1     139.448 101.948  94.035  1.00  0.00    -0.493 OA
ATOM     22  C   UNL     1     139.076 103.275  93.677  1.00  0.00     0.278 C 
ENDBRANCH  18  21
BRANCH  20  23
ATOM     23  O   UNL     1     138.850 100.733  96.492  1.00  0.00    -0.504 OA
ATOM     24  H   UNL     1     138.292 101.042  97.279  1.00  0.00     0.293 HD
ENDBRANCH  20  23
ENDBRANCH  14  15
ENDBRANCH  12  14
ENDBRANCH   9  10
ENDBRANCH   1   9
TORSDOF 10
ENDMDL
MODEL 8
REMARK VINA RESULT:    -5.057      3.578      6.475
REMARK INTER + INTRA:          -9.786
REMARK INTER:                  -8.511
REMARK INTRA:                  -1.275
REMARK UNBOUND:                -1.920
REMARK SMILES COc1cc(CNC(=O)CCCCC=CC(C)C)ccc1O
REMARK SMILES IDX 11 1 12 2 13 3 14 4 15 5 16 6 17 7 18 8 10 9 8 10 9 11 7 12
REMARK SMILES IDX 6 14 5 15 4 16 19 17 3 18 20 19 21 20 2 21 1 22 22 23
REMARK H PARENT 7 13 22 24
REMARK Flexibility Score: inf
ROOT
ATOM      1  C   UNL     1     131.944 102.314  95.030  1.00  0.00     0.010 C 
ENDROOT
BRANCH   1   2
ATOM      2  C   UNL     1     132.957 103.332  95.581  1.00  0.00     0.005 C 
BRANCH   2   3
ATOM      3  C   UNL     1     134.405 102.945  95.257  1.00  0.00     0.027 C 
BRANCH   3   4
ATOM      4  C   UNL     1     134.503 102.234  93.928  1.00  0.00    -0.031 C 
ATOM      5  C   UNL     1     135.343 101.218  93.647  1.00  0.00    -0.028 C 
BRANCH   5   6
ATOM      6  C   UNL     1     136.375 100.660  94.605  1.00  0.00     0.005 C 
ATOM      7  C   UNL     1     136.556  99.157  94.368  1.00  0.00     0.012 C 
ATOM      8  C   UNL     1     137.712 101.389  94.427  1.00  0.00     0.012 C 
ENDBRANCH   5   6
ENDBRANCH   3   4
ENDBRANCH   2   3
ENDBRANCH   1   2
BRANCH   1   9
ATOM      9  C   UNL     1     130.794 102.988  94.272  1.00  0.00     0.100 C 
BRANCH   9  10
ATOM     10  C   UNL     1     130.368 102.189  93.076  1.00  0.00     0.220 C 
ATOM     11  O   UNL     1     129.146 102.138  92.769  1.00  0.00    -0.275 OA
ATOM     12  N   UNL     1     131.347 101.522  92.266  1.00  0.00    -0.352 N 
ATOM     13  H   UNL     1     132.359 101.625  92.504  1.00  0.00     0.163 HD
BRANCH  12  14
ATOM     14  C   UNL     1     130.985 100.714  91.105  1.00  0.00     0.151 C 
BRANCH  14  15
ATOM     15  C   UNL     1     131.729  99.406  91.129  1.00  0.00    -0.025 A 
ATOM     16  C   UNL     1     131.019  98.195  91.120  1.00  0.00     0.056 A 
ATOM     17  C   UNL     1     133.130  99.384  91.129  1.00  0.00     0.009 A 
ATOM     18  C   UNL     1     131.704  96.962  91.118  1.00  0.00     0.160 A 
ATOM     19  C   UNL     1     133.815  98.166  91.128  1.00  0.00     0.050 A 
ATOM     20  C   UNL     1     133.110  96.958  91.123  1.00  0.00     0.157 A 
BRANCH  18  21
ATOM     21  O   UNL     1     131.022  95.734  91.109  1.00  0.00    -0.493 OA
ATOM     22  C   UNL     1     129.624  95.585  91.331  1.00  0.00     0.278 C 
ENDBRANCH  18  21
BRANCH  20  23
ATOM     23  O   UNL     1     133.827  95.762  91.120  1.00  0.00    -0.504 OA
ATOM     24  H   UNL     1     133.555  94.967  91.687  1.00  0.00     0.293 HD
ENDBRANCH  20  23
ENDBRANCH  14  15
ENDBRANCH  12  14
ENDBRANCH   9  10
ENDBRANCH   1   9
TORSDOF 10
ENDMDL
MODEL 9
REMARK VINA RESULT:    -5.038      4.040      6.873
REMARK INTER + INTRA:          -9.756
REMARK INTER:                  -8.861
REMARK INTRA:                  -0.895
REMARK UNBOUND:                -1.920
REMARK SMILES COc1cc(CNC(=O)CCCCC=CC(C)C)ccc1O
REMARK SMILES IDX 11 1 12 2 13 3 14 4 15 5 16 6 17 7 18 8 10 9 8 10 9 11 7 12
REMARK SMILES IDX 6 14 5 15 4 16 19 17 3 18 20 19 21 20 2 21 1 22 22 23
REMARK H PARENT 7 13 22 24
REMARK Flexibility Score: inf
ROOT
ATOM      1  C   UNL     1     132.056 102.845  94.243  1.00  0.00     0.010 C 
ENDROOT
BRANCH   1   2
ATOM      2  C   UNL     1     133.309 102.392  95.013  1.00  0.00     0.005 C 
BRANCH   2   3
ATOM      3  C   UNL     1     134.331 101.700  94.103  1.00  0.00     0.027 C 
BRANCH   3   4
ATOM      4  C   UNL     1     135.747 102.068  94.479  1.00  0.00    -0.031 C 
ATOM      5  C   UNL     1     136.752 101.195  94.683  1.00  0.00    -0.028 C 
BRANCH   5   6
ATOM      6  C   UNL     1     136.612  99.688  94.628  1.00  0.00     0.005 C 
ATOM      7  C   UNL     1     137.054  99.167  93.256  1.00  0.00     0.012 C 
ATOM      8  C   UNL     1     137.447  99.036  95.736  1.00  0.00     0.012 C 
ENDBRANCH   5   6
ENDBRANCH   3   4
ENDBRANCH   2   3
ENDBRANCH   1   2
BRANCH   1   9
ATOM      9  C   UNL     1     132.105 102.442  92.764  1.00  0.00     0.100 C 
BRANCH   9  10
ATOM     10  C   UNL     1     130.932 101.590  92.377  1.00  0.00     0.220 C 
ATOM     11  O   UNL     1     129.782 101.893  92.795  1.00  0.00    -0.275 OA
ATOM     12  N   UNL     1     131.114 100.462  91.509  1.00  0.00    -0.352 N 
ATOM     13  H   UNL     1     132.066 100.262  91.127  1.00  0.00     0.163 HD
BRANCH  12  14
ATOM     14  C   UNL     1     130.011  99.587  91.120  1.00  0.00     0.151 C 
BRANCH  14  15
ATOM     15  C   UNL     1     130.471  98.154  91.086  1.00  0.00    -0.025 A 
ATOM     16  C   UNL     1     131.843  97.858  91.065  1.00  0.00     0.056 A 
ATOM     17  C   UNL     1     129.540  97.106  91.106  1.00  0.00     0.009 A 
ATOM     18  C   UNL     1     132.288  96.520  91.058  1.00  0.00     0.160 A 
ATOM     19  C   UNL     1     129.974  95.779  91.098  1.00  0.00     0.050 A 
ATOM     20  C   UNL     1     131.340  95.481  91.074  1.00  0.00     0.157 A 
BRANCH  18  21
ATOM     21  O   UNL     1     133.653  96.192  91.037  1.00  0.00    -0.493 OA
ATOM     22  C   UNL     1     134.713  97.143  91.062  1.00  0.00     0.278 C 
ENDBRANCH  18  21
BRANCH  20  23
ATOM     23  O   UNL     1     131.736  94.144  91.068  1.00  0.00    -0.504 OA
ATOM     24  H   UNL     1     132.109  93.687  91.892  1.00  0.00     0.293 HD
ENDBRANCH  20  23
ENDBRANCH  14  15
ENDBRANCH  12  14
ENDBRANCH   9  10
ENDBRANCH   1   9
TORSDOF 10
ENDMDL
