MODEL 1
REMARK VINA RESULT:    -4.766      0.000      0.000
REMARK INTER + INTRA:          -5.725
REMARK INTER:                  -5.462
REMARK INTRA:                  -0.263
REMARK UNBOUND:                -0.263
REMARK SMILES COc1ccc(C=O)c(O)c1
REMARK SMILES IDX 3 1 11 2 9 3 6 4 5 5 4 6 2 7 1 8 10 9 7 11 8 12
REMARK H PARENT 10 10
REMARK Flexibility Score: inf
ROOT
ATOM      1  C   UNL     1     -24.135  61.535  28.884  1.00  0.00     0.122 A 
ATOM      2  C   UNL     1     -24.826  60.354  29.210  1.00  0.00     0.093 A 
ATOM      3  C   UNL     1     -25.656  60.294  30.337  1.00  0.00     0.129 A 
ATOM      4  C   UNL     1     -25.839  61.453  31.135  1.00  0.00     0.056 A 
ATOM      5  C   UNL     1     -25.125  62.619  30.815  1.00  0.00     0.019 A 
ATOM      6  C   UNL     1     -24.284  62.658  29.700  1.00  0.00     0.047 A 
ENDROOT
BRANCH   1   7
ATOM      7  O   UNL     1     -23.289  61.630  27.768  1.00  0.00    -0.497 OA
ATOM      8  C   UNL     1     -21.868  61.592  27.831  1.00  0.00     0.278 C 
ENDBRANCH   1   7
BRANCH   3   9
ATOM      9  O   UNL     1     -26.244  59.065  30.641  1.00  0.00    -0.507 OA
ATOM     10  H   UNL     1     -26.188  58.626  31.549  1.00  0.00     0.293 HD
ENDBRANCH   3   9
BRANCH   4  11
ATOM     11  C   UNL     1     -26.771  61.515  32.282  1.00  0.00     0.263 C 
ATOM     12  O   UNL     1     -27.805  60.800  32.335  1.00  0.00    -0.298 OA
ENDBRANCH   4  11
TORSDOF 3
ENDMDL
MODEL 2
REMARK VINA RESULT:    -4.623      1.953      2.721
REMARK INTER + INTRA:          -5.561
REMARK INTER:                  -5.299
REMARK INTRA:                  -0.261
REMARK UNBOUND:                -0.263
REMARK SMILES COc1ccc(C=O)c(O)c1
REMARK SMILES IDX 3 1 11 2 9 3 6 4 5 5 4 6 2 7 1 8 10 9 7 11 8 12
REMARK H PARENT 10 10
REMARK Flexibility Score: inf
ROOT
ATOM      1  C   UNL     1     -24.468  61.968  31.140  1.00  0.00     0.122 A 
ATOM      2  C   UNL     1     -25.804  62.402  31.227  1.00  0.00     0.093 A 
ATOM      3  C   UNL     1     -26.630  61.977  32.275  1.00  0.00     0.129 A 
ATOM      4  C   UNL     1     -26.103  61.137  33.289  1.00  0.00     0.056 A 
ATOM      5  C   UNL     1     -24.775  60.690  33.178  1.00  0.00     0.019 A 
ATOM      6  C   UNL     1     -23.969  61.104  32.116  1.00  0.00     0.047 A 
ENDROOT
BRANCH   1   7
ATOM      7  O   UNL     1     -23.614  62.365  30.100  1.00  0.00    -0.497 OA
ATOM      8  C   UNL     1     -23.604  61.786  28.801  1.00  0.00     0.278 C 
ENDBRANCH   1   7
BRANCH   3   9
ATOM      9  O   UNL     1     -27.966  62.384  32.250  1.00  0.00    -0.507 OA
ATOM     10  H   UNL     1     -28.640  62.141  32.961  1.00  0.00     0.293 HD
ENDBRANCH   3   9
BRANCH   4  11
ATOM     11  C   UNL     1     -26.866  60.720  34.484  1.00  0.00     0.263 C 
ATOM     12  O   UNL     1     -28.103  60.495  34.436  1.00  0.00    -0.298 OA
ENDBRANCH   4  11
TORSDOF 3
ENDMDL
MODEL 3
REMARK VINA RESULT:    -4.598     19.663     21.395
REMARK INTER + INTRA:          -5.533
REMARK INTER:                  -5.270
REMARK INTRA:                  -0.263
REMARK UNBOUND:                -0.263
REMARK SMILES COc1ccc(C=O)c(O)c1
REMARK SMILES IDX 3 1 11 2 9 3 6 4 5 5 4 6 2 7 1 8 10 9 7 11 8 12
REMARK H PARENT 10 10
REMARK Flexibility Score: inf
ROOT
ATOM      1  C   UNL     1     -12.771  44.197  21.925  1.00  0.00     0.122 A 
ATOM      2  C   UNL     1     -12.386  45.354  22.627  1.00  0.00     0.093 A 
ATOM      3  C   UNL     1     -13.173  45.856  23.672  1.00  0.00     0.129 A 
ATOM      4  C   UNL     1     -14.349  45.164  24.060  1.00  0.00     0.056 A 
ATOM      5  C   UNL     1     -14.736  44.025  23.336  1.00  0.00     0.019 A 
ATOM      6  C   UNL     1     -13.954  43.548  22.282  1.00  0.00     0.047 A 
ENDROOT
BRANCH   1   7
ATOM      7  O   UNL     1     -12.014  43.670  20.868  1.00  0.00    -0.497 OA
ATOM      8  C   UNL     1     -10.759  43.018  21.025  1.00  0.00     0.278 C 
ENDBRANCH   1   7
BRANCH   3   9
ATOM      9  O   UNL     1     -12.768  47.053  24.267  1.00  0.00    -0.507 OA
ATOM     10  H   UNL     1     -11.804  47.343  24.345  1.00  0.00     0.293 HD
ENDBRANCH   3   9
BRANCH   4  11
ATOM     11  C   UNL     1     -15.186  45.559  25.213  1.00  0.00     0.263 C 
ATOM     12  O   UNL     1     -14.698  46.136  26.219  1.00  0.00    -0.298 OA
ENDBRANCH   4  11
TORSDOF 3
ENDMDL
MODEL 4
REMARK VINA RESULT:    -4.570     19.434     21.522
REMARK INTER + INTRA:          -5.500
REMARK INTER:                  -5.233
REMARK INTRA:                  -0.267
REMARK UNBOUND:                -0.263
REMARK SMILES COc1ccc(C=O)c(O)c1
REMARK SMILES IDX 3 1 11 2 9 3 6 4 5 5 4 6 2 7 1 8 10 9 7 11 8 12
REMARK H PARENT 10 10
REMARK Flexibility Score: inf
ROOT
ATOM      1  C   UNL     1     -14.864  44.677  24.370  1.00  0.00     0.122 A 
ATOM      2  C   UNL     1     -13.724  45.495  24.485  1.00  0.00     0.093 A 
ATOM      3  C   UNL     1     -12.762  45.534  23.467  1.00  0.00     0.129 A 
ATOM      4  C   UNL     1     -12.961  44.777  22.284  1.00  0.00     0.056 A 
ATOM      5  C   UNL     1     -14.089  43.947  22.190  1.00  0.00     0.019 A 
ATOM      6  C   UNL     1     -15.030  43.900  23.222  1.00  0.00     0.047 A 
ENDROOT
BRANCH   1   7
ATOM      7  O   UNL     1     -15.843  44.605  25.371  1.00  0.00    -0.497 OA
ATOM      8  C   UNL     1     -15.815  45.356  26.580  1.00  0.00     0.278 C 
ENDBRANCH   1   7
BRANCH   3   9
ATOM      9  O   UNL     1     -11.619  46.306  23.689  1.00  0.00    -0.507 OA
ATOM     10  H   UNL     1     -10.898  46.450  22.997  1.00  0.00     0.293 HD
ENDBRANCH   3   9
BRANCH   4  11
ATOM     11  C   UNL     1     -12.055  44.833  21.117  1.00  0.00     0.263 C 
ATOM     12  O   UNL     1     -10.808  44.941  21.250  1.00  0.00    -0.298 OA
ENDBRANCH   4  11
TORSDOF 3
ENDMDL
MODEL 5
REMARK VINA RESULT:    -4.477      1.181      2.018
REMARK INTER + INTRA:          -5.394
REMARK INTER:                  -5.131
REMARK INTRA:                  -0.263
REMARK UNBOUND:                -0.263
REMARK SMILES COc1ccc(C=O)c(O)c1
REMARK SMILES IDX 3 1 11 2 9 3 6 4 5 5 4 6 2 7 1 8 10 9 7 11 8 12
REMARK H PARENT 10 10
REMARK Flexibility Score: inf
ROOT
ATOM      1  C   UNL     1     -24.035  61.002  28.702  1.00  0.00     0.122 A 
ATOM      2  C   UNL     1     -24.496  62.113  29.432  1.00  0.00     0.093 A 
ATOM      3  C   UNL     1     -25.430  61.958  30.464  1.00  0.00     0.129 A 
ATOM      4  C   UNL     1     -25.883  60.659  30.811  1.00  0.00     0.056 A 
ATOM      5  C   UNL     1     -25.435  59.560  30.060  1.00  0.00     0.019 A 
ATOM      6  C   UNL     1     -24.520  59.732  29.018  1.00  0.00     0.047 A 
ENDROOT
BRANCH   1   7
ATOM      7  O   UNL     1     -23.107  61.120  27.656  1.00  0.00    -0.497 OA
ATOM      8  C   UNL     1     -21.771  61.582  27.815  1.00  0.00     0.278 C 
ENDBRANCH   1   7
BRANCH   3   9
ATOM      9  O   UNL     1     -25.901  63.115  31.088  1.00  0.00    -0.507 OA
ATOM     10  H   UNL     1     -25.409  63.591  31.830  1.00  0.00     0.293 HD
ENDBRANCH   3   9
BRANCH   4  11
ATOM     11  C   UNL     1     -26.787  60.386  31.949  1.00  0.00     0.263 C 
ATOM     12  O   UNL     1     -27.757  61.140  32.220  1.00  0.00    -0.298 OA
ENDBRANCH   4  11
TORSDOF 3
ENDMDL
MODEL 6
REMARK VINA RESULT:    -4.374      1.123      4.365
REMARK INTER + INTRA:          -5.276
REMARK INTER:                  -5.007
REMARK INTRA:                  -0.269
REMARK UNBOUND:                -0.263
REMARK SMILES COc1ccc(C=O)c(O)c1
REMARK SMILES IDX 3 1 11 2 9 3 6 4 5 5 4 6 2 7 1 8 10 9 7 11 8 12
REMARK H PARENT 10 10
REMARK Flexibility Score: inf
ROOT
ATOM      1  C   UNL     1     -25.838  60.984  30.866  1.00  0.00     0.122 A 
ATOM      2  C   UNL     1     -25.476  59.933  30.004  1.00  0.00     0.093 A 
ATOM      3  C   UNL     1     -24.524  60.127  28.994  1.00  0.00     0.129 A 
ATOM      4  C   UNL     1     -23.881  61.385  28.868  1.00  0.00     0.056 A 
ATOM      5  C   UNL     1     -24.268  62.434  29.718  1.00  0.00     0.019 A 
ATOM      6  C   UNL     1     -25.234  62.233  30.707  1.00  0.00     0.047 A 
ENDROOT
BRANCH   1   7
ATOM      7  O   UNL     1     -26.792  60.830  31.883  1.00  0.00    -0.497 OA
ATOM      8  C   UNL     1     -27.371  61.906  32.613  1.00  0.00     0.278 C 
ENDBRANCH   1   7
BRANCH   3   9
ATOM      9  O   UNL     1     -24.278  59.061  28.126  1.00  0.00    -0.507 OA
ATOM     10  H   UNL     1     -24.527  59.065  27.148  1.00  0.00     0.293 HD
ENDBRANCH   3   9
BRANCH   4  11
ATOM     11  C   UNL     1     -22.795  61.654  27.902  1.00  0.00     0.263 C 
ATOM     12  O   UNL     1     -22.079  60.730  27.435  1.00  0.00    -0.298 OA
ENDBRANCH   4  11
TORSDOF 3
ENDMDL
MODEL 7
REMARK VINA RESULT:    -4.364      1.952      4.964
REMARK INTER + INTRA:          -5.264
REMARK INTER:                  -5.002
REMARK INTRA:                  -0.262
REMARK UNBOUND:                -0.263
REMARK SMILES COc1ccc(C=O)c(O)c1
REMARK SMILES IDX 3 1 11 2 9 3 6 4 5 5 4 6 2 7 1 8 10 9 7 11 8 12
REMARK H PARENT 10 10
REMARK Flexibility Score: inf
ROOT
ATOM      1  C   UNL     1     -26.220  60.303  32.810  1.00  0.00     0.122 A 
ATOM      2  C   UNL     1     -26.065  61.526  32.130  1.00  0.00     0.093 A 
ATOM      3  C   UNL     1     -25.637  61.558  30.797  1.00  0.00     0.129 A 
ATOM      4  C   UNL     1     -25.402  60.341  30.106  1.00  0.00     0.056 A 
ATOM      5  C   UNL     1     -25.537  59.128  30.801  1.00  0.00     0.019 A 
ATOM      6  C   UNL     1     -25.943  59.112  32.137  1.00  0.00     0.047 A 
ENDROOT
BRANCH   1   7
ATOM      7  O   UNL     1     -26.638  60.232  34.147  1.00  0.00    -0.497 OA
ATOM      8  C   UNL     1     -27.940  60.583  34.603  1.00  0.00     0.278 C 
ENDBRANCH   1   7
BRANCH   3   9
ATOM      9  O   UNL     1     -25.428  62.810  30.216  1.00  0.00    -0.507 OA
ATOM     10  H   UNL     1     -24.516  63.225  30.090  1.00  0.00     0.293 HD
ENDBRANCH   3   9
BRANCH   4  11
ATOM     11  C   UNL     1     -25.048  60.272  28.672  1.00  0.00     0.263 C 
ATOM     12  O   UNL     1     -24.226  61.071  28.153  1.00  0.00    -0.298 OA
ENDBRANCH   4  11
TORSDOF 3
ENDMDL
MODEL 8
REMARK VINA RESULT:    -4.343     19.232     20.789
REMARK INTER + INTRA:          -5.240
REMARK INTER:                  -4.967
REMARK INTRA:                  -0.273
REMARK UNBOUND:                -0.263
REMARK SMILES COc1ccc(C=O)c(O)c1
REMARK SMILES IDX 3 1 11 2 9 3 6 4 5 5 4 6 2 7 1 8 10 9 7 11 8 12
REMARK H PARENT 10 10
REMARK Flexibility Score: inf
ROOT
ATOM      1  C   UNL     1     -13.231  44.731  22.472  1.00  0.00     0.122 A 
ATOM      2  C   UNL     1     -14.387  43.989  22.777  1.00  0.00     0.093 A 
ATOM      3  C   UNL     1     -15.058  44.170  23.993  1.00  0.00     0.129 A 
ATOM      4  C   UNL     1     -14.595  45.147  24.911  1.00  0.00     0.056 A 
ATOM      5  C   UNL     1     -13.426  45.865  24.608  1.00  0.00     0.019 A 
ATOM      6  C   UNL     1     -12.754  45.659  23.400  1.00  0.00     0.047 A 
ENDROOT
BRANCH   1   7
ATOM      7  O   UNL     1     -12.528  44.572  21.269  1.00  0.00    -0.497 OA
ATOM      8  C   UNL     1     -11.247  45.131  21.005  1.00  0.00     0.278 C 
ENDBRANCH   1   7
BRANCH   3   9
ATOM      9  O   UNL     1     -16.149  43.340  24.258  1.00  0.00    -0.507 OA
ATOM     10  H   UNL     1     -17.026  43.669  24.634  1.00  0.00     0.293 HD
ENDBRANCH   3   9
BRANCH   4  11
ATOM     11  C   UNL     1     -15.293  45.480  26.171  1.00  0.00     0.263 C 
ATOM     12  O   UNL     1     -15.786  44.590  26.911  1.00  0.00    -0.298 OA
ENDBRANCH   4  11
TORSDOF 3
ENDMDL
MODEL 9
REMARK VINA RESULT:    -4.242      2.786      5.276
REMARK INTER + INTRA:          -5.125
REMARK INTER:                  -4.869
REMARK INTRA:                  -0.256
REMARK UNBOUND:                -0.263
REMARK SMILES COc1ccc(C=O)c(O)c1
REMARK SMILES IDX 3 1 11 2 9 3 6 4 5 5 4 6 2 7 1 8 10 9 7 11 8 12
REMARK H PARENT 10 10
REMARK Flexibility Score: inf
ROOT
ATOM      1  C   UNL     1     -27.096  61.641  33.737  1.00  0.00     0.122 A 
ATOM      2  C   UNL     1     -26.919  61.978  32.383  1.00  0.00     0.093 A 
ATOM      3  C   UNL     1     -26.215  61.131  31.517  1.00  0.00     0.129 A 
ATOM      4  C   UNL     1     -25.713  59.895  32.000  1.00  0.00     0.056 A 
ATOM      5  C   UNL     1     -25.875  59.580  33.359  1.00  0.00     0.019 A 
ATOM      6  C   UNL     1     -26.560  60.444  34.216  1.00  0.00     0.047 A 
ENDROOT
BRANCH   1   7
ATOM      7  O   UNL     1     -27.788  62.468  34.635  1.00  0.00    -0.497 OA
ATOM      8  C   UNL     1     -27.677  62.388  36.051  1.00  0.00     0.278 C 
ENDBRANCH   1   7
BRANCH   3   9
ATOM      9  O   UNL     1     -26.010  61.571  30.208  1.00  0.00    -0.507 OA
ATOM     10  H   UNL     1     -25.570  62.449  29.974  1.00  0.00     0.293 HD
ENDBRANCH   3   9
BRANCH   4  11
ATOM     11  C   UNL     1     -25.048  58.892  31.141  1.00  0.00     0.263 C 
ATOM     12  O   UNL     1     -25.086  58.965  29.885  1.00  0.00    -0.298 OA
ENDBRANCH   4  11
TORSDOF 3
ENDMDL
