MODEL 1
REMARK VINA RESULT:    -5.619      0.000      0.000
REMARK INTER + INTRA:          -5.619
REMARK INTER:                  -5.619
REMARK INTRA:                   0.000
REMARK UNBOUND:                 0.000
REMARK SMILES C[NH+]1CCN(C2=[NH+]c3ccccc3Oc3ccc(Cl)cc32)CC1
REMARK SMILES IDX 7 1 6 2 21 3 5 4 8 5 9 6 13 7 10 8 12 9 14 10 11 11 15 12
REMARK SMILES IDX 16 13 17 14 18 15 20 16 19 17 4 18 22 19 3 20 23 21 2 22
REMARK SMILES IDX 1 23
REMARK H PARENT 7 24 2 25
REMARK Flexibility Score: inf
ROOT
ATOM      1  N   UNL     1     111.842 109.012 104.962  1.00  0.00    -0.237 N 
ATOM      2  C   UNL     1     110.663 108.476 104.784  1.00  0.00     0.286 C 
ATOM      3  C   UNL     1     110.450 107.026 104.532  1.00  0.00     0.108 A 
ATOM      4  N   UNL     1     109.506 109.330 104.867  1.00  0.00    -0.250 N 
ATOM      5  C   UNL     1     113.118 108.352 104.937  1.00  0.00     0.168 A 
ATOM      6  C   UNL     1     114.143 108.855 105.758  1.00  0.00     0.056 A 
ATOM      7  C   UNL     1     113.434 107.357 103.988  1.00  0.00     0.173 A 
ATOM      8  C   UNL     1     115.449 108.376 105.648  1.00  0.00     0.005 A 
ATOM      9  C   UNL     1     114.754 106.907 103.861  1.00  0.00     0.052 A 
ATOM     10  O   UNL     1     112.469 106.789 103.162  1.00  0.00    -0.452 OA
ATOM     11  C   UNL     1     115.756 107.406 104.694  1.00  0.00     0.004 A 
ATOM     12  C   UNL     1     111.273 106.284 103.660  1.00  0.00     0.143 A 
ATOM     13  C   UNL     1     110.903 104.986 103.283  1.00  0.00     0.049 A 
ATOM     14  C   UNL     1     109.755 104.395 103.811  1.00  0.00     0.024 A 
ATOM     15  C   UNL     1     108.962 105.100 104.715  1.00  0.00     0.042 A 
ATOM     16  C   UNL     1     109.302 106.409 105.068  1.00  0.00     0.041 A 
ATOM     17  Cl  UNL     1     107.522 104.356 105.386  1.00  0.00    -0.084 Cl
ATOM     18  C   UNL     1     108.497 109.315 103.806  1.00  0.00     0.298 C 
ATOM     19  C   UNL     1     109.182 110.016 106.120  1.00  0.00     0.298 C 
ATOM     20  C   UNL     1     107.971 110.736 103.573  1.00  0.00     0.308 C 
ATOM     21  C   UNL     1     108.637 111.415 105.816  1.00  0.00     0.308 C 
ATOM     22  N   UNL     1     107.525 111.349 104.844  1.00  0.00    -0.331 N 
ATOM     23  C   UNL     1     106.994 112.700 104.592  1.00  0.00     0.332 C 
ATOM     24  H   UNL     1     111.872 110.036 105.177  1.00  0.00     0.312 HD
ATOM     25  H   UNL     1     106.748 110.773 105.249  1.00  0.00     0.348 HD
ENDROOT
TORSDOF 0
ENDMDL
MODEL 2
REMARK VINA RESULT:    -5.433     16.706     18.196
REMARK INTER + INTRA:          -5.433
REMARK INTER:                  -5.433
REMARK INTRA:                   0.000
REMARK UNBOUND:                 0.000
REMARK SMILES C[NH+]1CCN(C2=[NH+]c3ccccc3Oc3ccc(Cl)cc32)CC1
REMARK SMILES IDX 7 1 6 2 21 3 5 4 8 5 9 6 13 7 10 8 12 9 14 10 11 11 15 12
REMARK SMILES IDX 16 13 17 14 18 15 20 16 19 17 4 18 22 19 3 20 23 21 2 22
REMARK SMILES IDX 1 23
REMARK H PARENT 7 24 2 25
REMARK Flexibility Score: inf
ROOT
ATOM      1  N   UNL     1     117.942 120.696  94.001  1.00  0.00    -0.237 N 
ATOM      2  C   UNL     1     117.031 120.652  94.937  1.00  0.00     0.286 C 
ATOM      3  C   UNL     1     116.094 121.770  95.225  1.00  0.00     0.108 A 
ATOM      4  N   UNL     1     116.909 119.444  95.713  1.00  0.00    -0.250 N 
ATOM      5  C   UNL     1     118.228 121.783  93.106  1.00  0.00     0.168 A 
ATOM      6  C   UNL     1     118.699 121.477  91.817  1.00  0.00     0.056 A 
ATOM      7  C   UNL     1     118.240 123.127  93.533  1.00  0.00     0.173 A 
ATOM      8  C   UNL     1     119.164 122.482  90.966  1.00  0.00     0.005 A 
ATOM      9  C   UNL     1     118.740 124.125  92.686  1.00  0.00     0.052 A 
ATOM     10  O   UNL     1     117.761 123.512  94.782  1.00  0.00    -0.452 OA
ATOM     11  C   UNL     1     119.191 123.806  91.404  1.00  0.00     0.004 A 
ATOM     12  C   UNL     1     116.513 123.116  95.249  1.00  0.00     0.143 A 
ATOM     13  C   UNL     1     115.653 124.108  95.740  1.00  0.00     0.049 A 
ATOM     14  C   UNL     1     114.359 123.785  96.150  1.00  0.00     0.024 A 
ATOM     15  C   UNL     1     113.917 122.465  96.081  1.00  0.00     0.042 A 
ATOM     16  C   UNL     1     114.780 121.463  95.628  1.00  0.00     0.041 A 
ATOM     17  Cl  UNL     1     112.288 122.057  96.589  1.00  0.00    -0.084 Cl
ATOM     18  C   UNL     1     116.889 119.502  97.176  1.00  0.00     0.298 C 
ATOM     19  C   UNL     1     116.532 118.185  95.066  1.00  0.00     0.298 C 
ATOM     20  C   UNL     1     117.649 118.302  97.751  1.00  0.00     0.308 C 
ATOM     21  C   UNL     1     117.304 117.026  95.704  1.00  0.00     0.308 C 
ATOM     22  N   UNL     1     117.148 117.034  97.175  1.00  0.00    -0.331 N 
ATOM     23  C   UNL     1     117.870 115.893  97.765  1.00  0.00     0.332 C 
ATOM     24  H   UNL     1     118.517 119.834  93.855  1.00  0.00     0.312 HD
ATOM     25  H   UNL     1     116.133 116.926  97.414  1.00  0.00     0.348 HD
ENDROOT
TORSDOF 0
ENDMDL
MODEL 3
REMARK VINA RESULT:    -5.365      9.315     11.403
REMARK INTER + INTRA:          -5.365
REMARK INTER:                  -5.365
REMARK INTRA:                   0.000
REMARK UNBOUND:                 0.000
REMARK SMILES C[NH+]1CCN(C2=[NH+]c3ccccc3Oc3ccc(Cl)cc32)CC1
REMARK SMILES IDX 7 1 6 2 21 3 5 4 8 5 9 6 13 7 10 8 12 9 14 10 11 11 15 12
REMARK SMILES IDX 16 13 17 14 18 15 20 16 19 17 4 18 22 19 3 20 23 21 2 22
REMARK SMILES IDX 1 23
REMARK H PARENT 7 24 2 25
REMARK Flexibility Score: inf
ROOT
ATOM      1  N   UNL     1     112.309 107.322  93.604  1.00  0.00    -0.237 N 
ATOM      2  C   UNL     1     112.497 106.971  94.848  1.00  0.00     0.286 C 
ATOM      3  C   UNL     1     111.406 106.906  95.858  1.00  0.00     0.108 A 
ATOM      4  N   UNL     1     113.827 106.597  95.257  1.00  0.00    -0.250 N 
ATOM      5  C   UNL     1     111.075 107.716  92.980  1.00  0.00     0.168 A 
ATOM      6  C   UNL     1     110.893 107.415  91.619  1.00  0.00     0.056 A 
ATOM      7  C   UNL     1     110.140 108.554  93.623  1.00  0.00     0.173 A 
ATOM      8  C   UNL     1     109.802 107.925  90.913  1.00  0.00     0.005 A 
ATOM      9  C   UNL     1     109.067 109.088  92.898  1.00  0.00     0.052 A 
ATOM     10  O   UNL     1     110.236 108.872  94.975  1.00  0.00    -0.452 OA
ATOM     11  C   UNL     1     108.893 108.768  91.551  1.00  0.00     0.004 A 
ATOM     12  C   UNL     1     110.409 107.898  95.953  1.00  0.00     0.143 A 
ATOM     13  C   UNL     1     109.539 107.913  97.051  1.00  0.00     0.049 A 
ATOM     14  C   UNL     1     109.611 106.918  98.026  1.00  0.00     0.024 A 
ATOM     15  C   UNL     1     110.560 105.902  97.914  1.00  0.00     0.042 A 
ATOM     16  C   UNL     1     111.456 105.899  96.842  1.00  0.00     0.041 A 
ATOM     17  Cl  UNL     1     110.647 104.644  99.135  1.00  0.00    -0.084 Cl
ATOM     18  C   UNL     1     114.431 107.197  96.449  1.00  0.00     0.298 C 
ATOM     19  C   UNL     1     114.482 105.430  94.663  1.00  0.00     0.298 C 
ATOM     20  C   UNL     1     115.926 107.429  96.208  1.00  0.00     0.308 C 
ATOM     21  C   UNL     1     115.976 105.718  94.475  1.00  0.00     0.308 C 
ATOM     22  N   UNL     1     116.585 106.191  95.737  1.00  0.00    -0.331 N 
ATOM     23  C   UNL     1     118.026 106.429  95.542  1.00  0.00     0.332 C 
ATOM     24  H   UNL     1     113.140 107.289  92.969  1.00  0.00     0.312 HD
ATOM     25  H   UNL     1     116.481 105.447  96.468  1.00  0.00     0.348 HD
ENDROOT
TORSDOF 0
ENDMDL
MODEL 4
REMARK VINA RESULT:    -5.214      9.564     11.438
REMARK INTER + INTRA:          -5.214
REMARK INTER:                  -5.214
REMARK INTRA:                   0.000
REMARK UNBOUND:                 0.000
REMARK SMILES C[NH+]1CCN(C2=[NH+]c3ccccc3Oc3ccc(Cl)cc32)CC1
REMARK SMILES IDX 7 1 6 2 21 3 5 4 8 5 9 6 13 7 10 8 12 9 14 10 11 11 15 12
REMARK SMILES IDX 16 13 17 14 18 15 20 16 19 17 4 18 22 19 3 20 23 21 2 22
REMARK SMILES IDX 1 23
REMARK H PARENT 7 24 2 25
REMARK Flexibility Score: inf
ROOT
ATOM      1  N   UNL     1     112.595 107.387  95.874  1.00  0.00    -0.237 N 
ATOM      2  C   UNL     1     112.773 106.731  94.757  1.00  0.00     0.286 C 
ATOM      3  C   UNL     1     111.754 105.822  94.167  1.00  0.00     0.108 A 
ATOM      4  N   UNL     1     114.010 106.923  94.044  1.00  0.00    -0.250 N 
ATOM      5  C   UNL     1     111.444 107.359  96.733  1.00  0.00     0.168 A 
ATOM      6  C   UNL     1     111.122 108.524  97.452  1.00  0.00     0.056 A 
ATOM      7  C   UNL     1     110.753 106.165  97.028  1.00  0.00     0.173 A 
ATOM      8  C   UNL     1     110.130 108.509  98.434  1.00  0.00     0.005 A 
ATOM      9  C   UNL     1     109.783 106.151  98.040  1.00  0.00     0.052 A 
ATOM     10  O   UNL     1     110.993 104.980  96.340  1.00  0.00    -0.452 OA
ATOM     11  C   UNL     1     109.465 107.319  98.733  1.00  0.00     0.004 A 
ATOM     12  C   UNL     1     111.005 104.921  94.950  1.00  0.00     0.143 A 
ATOM     13  C   UNL     1     110.224 103.936  94.331  1.00  0.00     0.049 A 
ATOM     14  C   UNL     1     110.132 103.876  92.940  1.00  0.00     0.024 A 
ATOM     15  C   UNL     1     110.828 104.795  92.156  1.00  0.00     0.042 A 
ATOM     16  C   UNL     1     111.639 105.758  92.764  1.00  0.00     0.041 A 
ATOM     17  Cl  UNL     1     110.709 104.726  90.407  1.00  0.00    -0.084 Cl
ATOM     18  C   UNL     1     114.798 105.768  93.606  1.00  0.00     0.298 C 
ATOM     19  C   UNL     1     114.360 108.241  93.512  1.00  0.00     0.298 C 
ATOM     20  C   UNL     1     116.292 106.078  93.752  1.00  0.00     0.308 C 
ATOM     21  C   UNL     1     115.867 108.475  93.663  1.00  0.00     0.308 C 
ATOM     22  N   UNL     1     116.636 107.352  93.084  1.00  0.00    -0.331 N 
ATOM     23  C   UNL     1     118.080 107.614  93.210  1.00  0.00     0.332 C 
ATOM     24  H   UNL     1     113.361 108.034  96.173  1.00  0.00     0.312 HD
ATOM     25  H   UNL     1     116.414 107.275  92.062  1.00  0.00     0.348 HD
ENDROOT
TORSDOF 0
ENDMDL
MODEL 5
REMARK VINA RESULT:    -5.129      9.921     10.863
REMARK INTER + INTRA:          -5.129
REMARK INTER:                  -5.129
REMARK INTRA:                   0.000
REMARK UNBOUND:                 0.000
REMARK SMILES C[NH+]1CCN(C2=[NH+]c3ccccc3Oc3ccc(Cl)cc32)CC1
REMARK SMILES IDX 7 1 6 2 21 3 5 4 8 5 9 6 13 7 10 8 12 9 14 10 11 11 15 12
REMARK SMILES IDX 16 13 17 14 18 15 20 16 19 17 4 18 22 19 3 20 23 21 2 22
REMARK SMILES IDX 1 23
REMARK H PARENT 7 24 2 25
REMARK Flexibility Score: inf
ROOT
ATOM      1  N   UNL     1     110.836 109.285  96.122  1.00  0.00    -0.237 N 
ATOM      2  C   UNL     1     110.806 109.581  94.849  1.00  0.00     0.286 C 
ATOM      3  C   UNL     1     110.260 108.671  93.807  1.00  0.00     0.108 A 
ATOM      4  N   UNL     1     111.301 110.870  94.437  1.00  0.00    -0.250 N 
ATOM      5  C   UNL     1     110.386 108.074  96.752  1.00  0.00     0.168 A 
ATOM      6  C   UNL     1     109.872 108.156  98.058  1.00  0.00     0.056 A 
ATOM      7  C   UNL     1     110.620 106.801  96.190  1.00  0.00     0.173 A 
ATOM      8  C   UNL     1     109.587 107.001  98.789  1.00  0.00     0.005 A 
ATOM      9  C   UNL     1     110.363 105.648  96.944  1.00  0.00     0.052 A 
ATOM     10  O   UNL     1     111.097 106.639  94.894  1.00  0.00    -0.452 OA
ATOM     11  C   UNL     1     109.840 105.746  98.234  1.00  0.00     0.004 A 
ATOM     12  C   UNL     1     110.518 107.285  93.806  1.00  0.00     0.143 A 
ATOM     13  C   UNL     1     110.173 106.509  92.693  1.00  0.00     0.049 A 
ATOM     14  C   UNL     1     109.518 107.084  91.603  1.00  0.00     0.024 A 
ATOM     15  C   UNL     1     109.211 108.444  91.615  1.00  0.00     0.042 A 
ATOM     16  C   UNL     1     109.585 109.234  92.706  1.00  0.00     0.041 A 
ATOM     17  Cl  UNL     1     108.381 109.169  90.250  1.00  0.00    -0.084 Cl
ATOM     18  C   UNL     1     112.276 110.975  93.350  1.00  0.00     0.298 C 
ATOM     19  C   UNL     1     110.646 112.095  94.901  1.00  0.00     0.298 C 
ATOM     20  C   UNL     1     113.281 112.089  93.664  1.00  0.00     0.308 C 
ATOM     21  C   UNL     1     111.702 113.173  95.169  1.00  0.00     0.308 C 
ATOM     22  N   UNL     1     112.585 113.351  93.996  1.00  0.00    -0.331 N 
ATOM     23  C   UNL     1     113.569 114.415  94.263  1.00  0.00     0.332 C 
ATOM     24  H   UNL     1     111.201 110.019  96.773  1.00  0.00     0.312 HD
ATOM     25  H   UNL     1     112.007 113.651  93.174  1.00  0.00     0.348 HD
ENDROOT
TORSDOF 0
ENDMDL
MODEL 6
REMARK VINA RESULT:    -5.071     10.763     12.030
REMARK INTER + INTRA:          -5.071
REMARK INTER:                  -5.071
REMARK INTRA:                   0.000
REMARK UNBOUND:                 0.000
REMARK SMILES C[NH+]1CCN(C2=[NH+]c3ccccc3Oc3ccc(Cl)cc32)CC1
REMARK SMILES IDX 7 1 6 2 21 3 5 4 8 5 9 6 13 7 10 8 12 9 14 10 11 11 15 12
REMARK SMILES IDX 16 13 17 14 18 15 20 16 19 17 4 18 22 19 3 20 23 21 2 22
REMARK SMILES IDX 1 23
REMARK H PARENT 7 24 2 25
REMARK Flexibility Score: inf
ROOT
ATOM      1  N   UNL     1     110.959 106.646  93.572  1.00  0.00    -0.237 N 
ATOM      2  C   UNL     1     110.998 107.935  93.358  1.00  0.00     0.286 C 
ATOM      3  C   UNL     1     111.336 108.932  94.407  1.00  0.00     0.108 A 
ATOM      4  N   UNL     1     110.728 108.412  92.026  1.00  0.00    -0.250 N 
ATOM      5  C   UNL     1     111.207 105.954  94.807  1.00  0.00     0.168 A 
ATOM      6  C   UNL     1     111.772 104.668  94.747  1.00  0.00     0.056 A 
ATOM      7  C   UNL     1     110.730 106.431  96.046  1.00  0.00     0.173 A 
ATOM      8  C   UNL     1     111.870 103.875  95.892  1.00  0.00     0.005 A 
ATOM      9  C   UNL     1     110.802 105.615  97.183  1.00  0.00     0.052 A 
ATOM     10  O   UNL     1     110.187 107.704  96.191  1.00  0.00    -0.452 OA
ATOM     11  C   UNL     1     111.378 104.346  97.109  1.00  0.00     0.004 A 
ATOM     12  C   UNL     1     110.834 108.842  95.722  1.00  0.00     0.143 A 
ATOM     13  C   UNL     1     110.997 109.914  96.608  1.00  0.00     0.049 A 
ATOM     14  C   UNL     1     111.706 111.052  96.222  1.00  0.00     0.024 A 
ATOM     15  C   UNL     1     112.252 111.130  94.942  1.00  0.00     0.042 A 
ATOM     16  C   UNL     1     112.063 110.081  94.038  1.00  0.00     0.041 A 
ATOM     17  Cl  UNL     1     113.151 112.557  94.456  1.00  0.00    -0.084 Cl
ATOM     18  C   UNL     1     109.751 109.481  91.806  1.00  0.00     0.298 C 
ATOM     19  C   UNL     1     111.607 108.040  90.915  1.00  0.00     0.298 C 
ATOM     20  C   UNL     1     108.973 109.211  90.514  1.00  0.00     0.308 C 
ATOM     21  C   UNL     1     110.771 107.813  89.650  1.00  0.00     0.308 C 
ATOM     22  N   UNL     1     109.894 108.973  89.381  1.00  0.00    -0.331 N 
ATOM     23  C   UNL     1     109.126 108.749  88.145  1.00  0.00     0.332 C 
ATOM     24  H   UNL     1     110.754 106.032  92.749  1.00  0.00     0.312 HD
ATOM     25  H   UNL     1     110.488 109.826  89.237  1.00  0.00     0.348 HD
ENDROOT
TORSDOF 0
ENDMDL
MODEL 7
REMARK VINA RESULT:    -4.997      9.496     10.686
REMARK INTER + INTRA:          -4.997
REMARK INTER:                  -4.997
REMARK INTRA:                   0.000
REMARK UNBOUND:                 0.000
REMARK SMILES C[NH+]1CCN(C2=[NH+]c3ccccc3Oc3ccc(Cl)cc32)CC1
REMARK SMILES IDX 7 1 6 2 21 3 5 4 8 5 9 6 13 7 10 8 12 9 14 10 11 11 15 12
REMARK SMILES IDX 16 13 17 14 18 15 20 16 19 17 4 18 22 19 3 20 23 21 2 22
REMARK SMILES IDX 1 23
REMARK H PARENT 7 24 2 25
REMARK Flexibility Score: inf
ROOT
ATOM      1  N   UNL     1     110.366 109.322  94.541  1.00  0.00    -0.237 N 
ATOM      2  C   UNL     1     110.846 108.347  95.267  1.00  0.00     0.286 C 
ATOM      3  C   UNL     1     111.246 107.027  94.710  1.00  0.00     0.108 A 
ATOM      4  N   UNL     1     111.025 108.573  96.679  1.00  0.00    -0.250 N 
ATOM      5  C   UNL     1     110.121 109.322  93.125  1.00  0.00     0.168 A 
ATOM      6  C   UNL     1     110.259 110.535  92.427  1.00  0.00     0.056 A 
ATOM      7  C   UNL     1     109.564 108.212  92.457  1.00  0.00     0.173 A 
ATOM      8  C   UNL     1     109.863 110.642  91.092  1.00  0.00     0.005 A 
ATOM      9  C   UNL     1     109.138 108.338  91.128  1.00  0.00     0.052 A 
ATOM     10  O   UNL     1     109.424 106.971  93.071  1.00  0.00    -0.452 OA
ATOM     11  C   UNL     1     109.296 109.545  90.445  1.00  0.00     0.004 A 
ATOM     12  C   UNL     1     110.475 106.354  93.741  1.00  0.00     0.143 A 
ATOM     13  C   UNL     1     110.771 105.025  93.411  1.00  0.00     0.049 A 
ATOM     14  C   UNL     1     111.862 104.376  93.990  1.00  0.00     0.024 A 
ATOM     15  C   UNL     1     112.662 105.050  94.911  1.00  0.00     0.042 A 
ATOM     16  C   UNL     1     112.354 106.364  95.274  1.00  0.00     0.041 A 
ATOM     17  Cl  UNL     1     114.040 104.240  95.636  1.00  0.00    -0.084 Cl
ATOM     18  C   UNL     1     110.495 107.617  97.654  1.00  0.00     0.298 C 
ATOM     19  C   UNL     1     111.959 109.597  97.151  1.00  0.00     0.298 C 
ATOM     20  C   UNL     1     109.963 108.370  98.878  1.00  0.00     0.308 C 
ATOM     21  C   UNL     1     111.381 110.290  98.389  1.00  0.00     0.308 C 
ATOM     22  N   UNL     1     110.983 109.299  99.413  1.00  0.00    -0.331 N 
ATOM     23  C   UNL     1     110.463 109.988 100.606  1.00  0.00     0.332 C 
ATOM     24  H   UNL     1     110.159 110.224  95.031  1.00  0.00     0.312 HD
ATOM     25  H   UNL     1     111.828 108.750  99.705  1.00  0.00     0.348 HD
ENDROOT
TORSDOF 0
ENDMDL
MODEL 8
REMARK VINA RESULT:    -4.995     11.199     12.223
REMARK INTER + INTRA:          -4.995
REMARK INTER:                  -4.995
REMARK INTRA:                   0.000
REMARK UNBOUND:                 0.000
REMARK SMILES C[NH+]1CCN(C2=[NH+]c3ccccc3Oc3ccc(Cl)cc32)CC1
REMARK SMILES IDX 7 1 6 2 21 3 5 4 8 5 9 6 13 7 10 8 12 9 14 10 11 11 15 12
REMARK SMILES IDX 16 13 17 14 18 15 20 16 19 17 4 18 22 19 3 20 23 21 2 22
REMARK SMILES IDX 1 23
REMARK H PARENT 7 24 2 25
REMARK Flexibility Score: inf
ROOT
ATOM      1  N   UNL     1     111.402 107.983  91.634  1.00  0.00    -0.237 N 
ATOM      2  C   UNL     1     110.989 107.829  92.864  1.00  0.00     0.286 C 
ATOM      3  C   UNL     1     110.791 106.501  93.504  1.00  0.00     0.108 A 
ATOM      4  N   UNL     1     110.740 109.009  93.653  1.00  0.00    -0.250 N 
ATOM      5  C   UNL     1     111.723 106.956  90.681  1.00  0.00     0.168 A 
ATOM      6  C   UNL     1     112.727 107.220  89.733  1.00  0.00     0.056 A 
ATOM      7  C   UNL     1     110.944 105.789  90.541  1.00  0.00     0.173 A 
ATOM      8  C   UNL     1     112.960 106.340  88.674  1.00  0.00     0.005 A 
ATOM      9  C   UNL     1     111.162 104.930  89.456  1.00  0.00     0.052 A 
ATOM     10  O   UNL     1     109.953 105.445  91.456  1.00  0.00    -0.452 OA
ATOM     11  C   UNL     1     112.172 105.199  88.531  1.00  0.00     0.004 A 
ATOM     12  C   UNL     1     110.189 105.421  92.827  1.00  0.00     0.143 A 
ATOM     13  C   UNL     1     109.824 104.268  93.533  1.00  0.00     0.049 A 
ATOM     14  C   UNL     1     110.105 104.151  94.895  1.00  0.00     0.024 A 
ATOM     15  C   UNL     1     110.747 105.193  95.564  1.00  0.00     0.042 A 
ATOM     16  C   UNL     1     111.082 106.362  94.876  1.00  0.00     0.041 A 
ATOM     17  Cl  UNL     1     111.108 105.047  97.275  1.00  0.00    -0.084 Cl
ATOM     18  C   UNL     1     109.474 109.164  94.373  1.00  0.00     0.298 C 
ATOM     19  C   UNL     1     111.832 109.932  93.967  1.00  0.00     0.298 C 
ATOM     20  C   UNL     1     109.030 110.630  94.326  1.00  0.00     0.308 C 
ATOM     21  C   UNL     1     111.315 111.374  93.931  1.00  0.00     0.308 C 
ATOM     22  N   UNL     1     110.115 111.527  94.781  1.00  0.00    -0.331 N 
ATOM     23  C   UNL     1     109.656 112.926  94.758  1.00  0.00     0.332 C 
ATOM     24  H   UNL     1     111.550 108.964  91.301  1.00  0.00     0.312 HD
ATOM     25  H   UNL     1     110.363 111.290  95.772  1.00  0.00     0.348 HD
ENDROOT
TORSDOF 0
ENDMDL
