MODEL 1
REMARK VINA RESULT:    -8.449      0.000      0.000
REMARK INTER + INTRA:         -12.765
REMARK INTER:                 -11.659
REMARK INTRA:                  -1.105
REMARK UNBOUND:                -1.105
REMARK SMILES O=C([O-])[C@H]1O[C@@H](Oc2cc3oc(-c4ccccc4)cc(=O)c3c(O)c2O)[C@@H](O)[C@@H](O)[C@@H]1O
REMARK SMILES IDX 7 1 6 2 4 3 31 4 5 5 29 6 27 7 2 8 1 9 3 10 32 11 30 13
REMARK SMILES IDX 28 15 8 17 25 18 9 19 23 20 10 21 22 22 11 23 20 24 12 25
REMARK SMILES IDX 19 26 21 27 26 28 24 30 13 32 14 33 18 34 15 35 17 36 16 37
REMARK H PARENT 32 12 30 14 28 16 26 29 24 31
REMARK Flexibility Score: inf
ROOT
ATOM      1  O   UNL     1     180.622 185.565 172.232  1.00  0.00    -0.458 OA
ENDROOT
BRANCH   1   2
ATOM      2  C   UNL     1     181.672 185.514 171.269  1.00  0.00     0.339 C 
ATOM      3  C   UNL     1     183.979 185.804 171.017  1.00  0.00     0.199 C 
ATOM      4  C   UNL     1     183.943 187.004 170.035  1.00  0.00     0.180 C 
ATOM      5  O   UNL     1     182.888 185.879 171.927  1.00  0.00    -0.328 OA
ATOM      6  C   UNL     1     182.491 187.513 169.814  1.00  0.00     0.181 C 
ATOM      7  C   UNL     1     181.367 186.457 170.057  1.00  0.00     0.214 C 
BRANCH   3   8
ATOM      8  C   UNL     1     185.286 185.752 171.765  1.00  0.00     0.073 C 
ATOM      9  O   UNL     1     185.356 185.170 172.881  1.00  0.00    -0.547 OA
ATOM     10  O   UNL     1     186.449 186.283 171.204  1.00  0.00    -0.547 OA
ENDBRANCH   3   8
BRANCH   4  11
ATOM     11  O   UNL     1     184.476 186.617 168.796  1.00  0.00    -0.387 OA
ATOM     12  H   UNL     1     185.338 186.141 168.996  1.00  0.00     0.211 HD
ENDBRANCH   4  11
BRANCH   6  13
ATOM     13  O   UNL     1     182.257 188.647 170.622  1.00  0.00    -0.387 OA
ATOM     14  H   UNL     1     183.167 189.069 170.733  1.00  0.00     0.211 HD
ENDBRANCH   6  13
BRANCH   7  15
ATOM     15  O   UNL     1     180.128 187.096 170.250  1.00  0.00    -0.384 OA
ATOM     16  H   UNL     1     179.838 186.921 171.193  1.00  0.00     0.211 HD
ENDBRANCH   7  15
ENDBRANCH   1   2
BRANCH   1  17
ATOM     17  C   UNL     1     179.969 184.416 172.700  1.00  0.00     0.172 A 
ATOM     18  C   UNL     1     178.893 183.829 172.011  1.00  0.00     0.201 A 
ATOM     19  C   UNL     1     180.385 183.874 173.916  1.00  0.00     0.098 A 
ATOM     20  C   UNL     1     178.049 182.908 172.694  1.00  0.00     0.176 A 
ATOM     21  C   UNL     1     179.678 182.824 174.505  1.00  0.00     0.146 A 
ATOM     22  C   UNL     1     178.438 182.421 173.958  1.00  0.00     0.111 A 
ATOM     23  O   UNL     1     180.152 182.238 175.599  1.00  0.00    -0.456 OA
ATOM     24  C   UNL     1     177.601 181.635 174.792  1.00  0.00     0.197 A 
ATOM     25  C   UNL     1     179.436 181.414 176.338  1.00  0.00     0.138 A 
ATOM     26  C   UNL     1     178.114 181.113 175.981  1.00  0.00     0.100 A 
ATOM     27  O   UNL     1     176.367 181.543 174.571  1.00  0.00    -0.289 OA
BRANCH  18  28
ATOM     28  O   UNL     1     178.699 184.144 170.660  1.00  0.00    -0.502 OA
ATOM     29  H   UNL     1     178.576 183.447 169.934  1.00  0.00     0.293 HD
ENDBRANCH  18  28
BRANCH  20  30
ATOM     30  O   UNL     1     176.833 182.490 172.139  1.00  0.00    -0.504 OA
ATOM     31  H   UNL     1     176.630 182.496 171.152  1.00  0.00     0.293 HD
ENDBRANCH  20  30
BRANCH  25  32
ATOM     32  C   UNL     1     180.028 180.819 177.550  1.00  0.00     0.017 A 
ATOM     33  C   UNL     1     180.955 179.763 177.451  1.00  0.00     0.012 A 
ATOM     34  C   UNL     1     179.645 181.304 178.813  1.00  0.00     0.012 A 
ATOM     35  C   UNL     1     181.449 179.163 178.612  1.00  0.00     0.001 A 
ATOM     36  C   UNL     1     180.138 180.690 179.969  1.00  0.00     0.001 A 
ATOM     37  C   UNL     1     181.064 179.641 179.872  1.00  0.00     0.000 A 
ENDBRANCH  25  32
ENDBRANCH   1  17
TORSDOF 9
ENDMDL
MODEL 2
REMARK VINA RESULT:    -8.403      6.263      9.833
REMARK INTER + INTRA:         -12.701
REMARK INTER:                 -11.572
REMARK INTRA:                  -1.129
REMARK UNBOUND:                -1.105
REMARK SMILES O=C([O-])[C@H]1O[C@@H](Oc2cc3oc(-c4ccccc4)cc(=O)c3c(O)c2O)[C@@H](O)[C@@H](O)[C@@H]1O
REMARK SMILES IDX 7 1 6 2 4 3 31 4 5 5 29 6 27 7 2 8 1 9 3 10 32 11 30 13
REMARK SMILES IDX 28 15 8 17 25 18 9 19 23 20 10 21 22 22 11 23 20 24 12 25
REMARK SMILES IDX 19 26 21 27 26 28 24 30 13 32 14 33 18 34 15 35 17 36 16 37
REMARK H PARENT 32 12 30 14 28 16 26 29 24 31
REMARK Flexibility Score: inf
ROOT
ATOM      1  O   UNL     1     180.133 175.216 172.174  1.00  0.00    -0.458 OA
ENDROOT
BRANCH   1   2
ATOM      2  C   UNL     1     179.065 175.282 171.231  1.00  0.00     0.339 C 
ATOM      3  C   UNL     1     176.758 174.974 171.012  1.00  0.00     0.199 C 
ATOM      4  C   UNL     1     176.788 173.802 169.997  1.00  0.00     0.180 C 
ATOM      5  O   UNL     1     177.865 174.886 171.900  1.00  0.00    -0.328 OA
ATOM      6  C   UNL     1     178.242 173.314 169.737  1.00  0.00     0.181 C 
ATOM      7  C   UNL     1     179.358 174.375 169.989  1.00  0.00     0.214 C 
BRANCH   3   8
ATOM      8  C   UNL     1     175.463 174.992 171.784  1.00  0.00     0.073 C 
ATOM      9  O   UNL     1     175.405 175.555 172.910  1.00  0.00    -0.547 OA
ATOM     10  O   UNL     1     174.300 174.452 171.235  1.00  0.00    -0.547 OA
ENDBRANCH   3   8
BRANCH   4  11
ATOM     11  O   UNL     1     176.229 174.217 168.778  1.00  0.00    -0.387 OA
ATOM     12  H   UNL     1     175.891 173.386 168.327  1.00  0.00     0.211 HD
ENDBRANCH   4  11
BRANCH   6  13
ATOM     13  O   UNL     1     178.501 172.161 170.510  1.00  0.00    -0.387 OA
ATOM     14  H   UNL     1     177.587 171.794 170.729  1.00  0.00     0.211 HD
ENDBRANCH   6  13
BRANCH   7  15
ATOM     15  O   UNL     1     180.607 173.744 170.143  1.00  0.00    -0.384 OA
ATOM     16  H   UNL     1     180.695 173.472 171.103  1.00  0.00     0.211 HD
ENDBRANCH   7  15
ENDBRANCH   1   2
BRANCH   1  17
ATOM     17  C   UNL     1     180.785 176.359 172.659  1.00  0.00     0.172 A 
ATOM     18  C   UNL     1     181.869 176.949 171.985  1.00  0.00     0.201 A 
ATOM     19  C   UNL     1     180.361 176.890 173.876  1.00  0.00     0.098 A 
ATOM     20  C   UNL     1     182.709 177.861 172.684  1.00  0.00     0.176 A 
ATOM     21  C   UNL     1     181.065 177.932 174.481  1.00  0.00     0.146 A 
ATOM     22  C   UNL     1     182.311 178.337 173.949  1.00  0.00     0.111 A 
ATOM     23  O   UNL     1     180.583 178.509 175.577  1.00  0.00    -0.456 OA
ATOM     24  C   UNL     1     183.142 179.112 174.798  1.00  0.00     0.197 A 
ATOM     25  C   UNL     1     181.295 179.324 176.330  1.00  0.00     0.138 A 
ATOM     26  C   UNL     1     182.620 179.625 175.987  1.00  0.00     0.100 A 
ATOM     27  O   UNL     1     184.379 179.203 174.588  1.00  0.00    -0.289 OA
BRANCH  18  28
ATOM     28  O   UNL     1     182.074 176.647 170.632  1.00  0.00    -0.502 OA
ATOM     29  H   UNL     1     182.938 176.841 170.140  1.00  0.00     0.293 HD
ENDBRANCH  18  28
BRANCH  20  30
ATOM     30  O   UNL     1     183.932 178.281 172.144  1.00  0.00    -0.504 OA
ATOM     31  H   UNL     1     184.559 178.924 172.600  1.00  0.00     0.293 HD
ENDBRANCH  20  30
BRANCH  25  32
ATOM     32  C   UNL     1     180.694 179.909 177.543  1.00  0.00     0.017 A 
ATOM     33  C   UNL     1     179.745 180.945 177.444  1.00  0.00     0.012 A 
ATOM     34  C   UNL     1     181.091 179.434 178.806  1.00  0.00     0.012 A 
ATOM     35  C   UNL     1     179.242 181.537 178.606  1.00  0.00     0.001 A 
ATOM     36  C   UNL     1     180.588 180.041 179.962  1.00  0.00     0.001 A 
ATOM     37  C   UNL     1     179.640 181.069 179.865  1.00  0.00     0.000 A 
ENDBRANCH  25  32
ENDBRANCH   1  17
TORSDOF 9
ENDMDL
MODEL 3
REMARK VINA RESULT:    -8.273      5.723      8.187
REMARK INTER + INTRA:         -12.521
REMARK INTER:                 -11.386
REMARK INTRA:                  -1.136
REMARK UNBOUND:                -1.105
REMARK SMILES O=C([O-])[C@H]1O[C@@H](Oc2cc3oc(-c4ccccc4)cc(=O)c3c(O)c2O)[C@@H](O)[C@@H](O)[C@@H]1O
REMARK SMILES IDX 7 1 6 2 4 3 31 4 5 5 29 6 27 7 2 8 1 9 3 10 32 11 30 13
REMARK SMILES IDX 28 15 8 17 25 18 9 19 23 20 10 21 22 22 11 23 20 24 12 25
REMARK SMILES IDX 19 26 21 27 26 28 24 30 13 32 14 33 18 34 15 35 17 36 16 37
REMARK H PARENT 32 12 30 14 28 16 26 29 24 31
REMARK Flexibility Score: inf
ROOT
ATOM      1  O   UNL     1     178.864 177.127 171.078  1.00  0.00    -0.458 OA
ENDROOT
BRANCH   1   2
ATOM      2  C   UNL     1     179.337 175.837 171.461  1.00  0.00     0.339 C 
ATOM      3  C   UNL     1     181.279 174.547 171.639  1.00  0.00     0.199 C 
ATOM      4  C   UNL     1     180.906 173.447 170.611  1.00  0.00     0.180 C 
ATOM      5  O   UNL     1     180.748 175.802 171.232  1.00  0.00    -0.328 OA
ATOM      6  C   UNL     1     179.573 173.779 169.882  1.00  0.00     0.181 C 
ATOM      7  C   UNL     1     178.596 174.710 170.667  1.00  0.00     0.214 C 
BRANCH   3   8
ATOM      8  C   UNL     1     182.773 174.639 171.818  1.00  0.00     0.073 C 
ATOM      9  O   UNL     1     183.522 173.729 171.372  1.00  0.00    -0.547 OA
ATOM     10  O   UNL     1     183.350 175.762 172.413  1.00  0.00    -0.547 OA
ENDBRANCH   3   8
BRANCH   4  11
ATOM     11  O   UNL     1     180.763 172.215 171.267  1.00  0.00    -0.387 OA
ATOM     12  H   UNL     1     180.467 172.427 172.204  1.00  0.00     0.211 HD
ENDBRANCH   4  11
BRANCH   6  13
ATOM     13  O   UNL     1     179.851 174.344 168.619  1.00  0.00    -0.387 OA
ATOM     14  H   UNL     1     179.017 174.171 168.076  1.00  0.00     0.211 HD
ENDBRANCH   6  13
BRANCH   7  15
ATOM     15  O   UNL     1     177.655 175.283 169.791  1.00  0.00    -0.384 OA
ATOM     16  H   UNL     1     177.770 176.278 169.829  1.00  0.00     0.211 HD
ENDBRANCH   7  15
ENDBRANCH   1   2
BRANCH   1  17
ATOM     17  C   UNL     1     178.315 178.034 171.995  1.00  0.00     0.172 A 
ATOM     18  C   UNL     1     177.182 178.812 171.696  1.00  0.00     0.201 A 
ATOM     19  C   UNL     1     178.953 178.192 173.224  1.00  0.00     0.098 A 
ATOM     20  C   UNL     1     176.891 179.952 172.496  1.00  0.00     0.176 A 
ATOM     21  C   UNL     1     178.543 179.185 174.115  1.00  0.00     0.146 A 
ATOM     22  C   UNL     1     177.593 180.148 173.703  1.00  0.00     0.111 A 
ATOM     23  O   UNL     1     179.078 179.247 175.330  1.00  0.00    -0.456 OA
ATOM     24  C   UNL     1     177.501 181.326 174.488  1.00  0.00     0.197 A 
ATOM     25  C   UNL     1     178.920 180.283 176.131  1.00  0.00     0.138 A 
ATOM     26  C   UNL     1     178.154 181.382 175.720  1.00  0.00     0.100 A 
ATOM     27  O   UNL     1     176.989 182.377 174.023  1.00  0.00    -0.289 OA
BRANCH  18  28
ATOM     28  O   UNL     1     176.352 178.424 170.637  1.00  0.00    -0.502 OA
ATOM     29  H   UNL     1     176.457 177.551 170.133  1.00  0.00     0.293 HD
ENDBRANCH  18  28
BRANCH  20  30
ATOM     30  O   UNL     1     175.931 180.892 172.099  1.00  0.00    -0.504 OA
ATOM     31  H   UNL     1     175.920 181.852 172.405  1.00  0.00     0.293 HD
ENDBRANCH  20  30
BRANCH  25  32
ATOM     32  C   UNL     1     179.563 180.283 177.458  1.00  0.00     0.017 A 
ATOM     33  C   UNL     1     179.436 181.394 178.315  1.00  0.00     0.012 A 
ATOM     34  C   UNL     1     180.323 179.169 177.856  1.00  0.00     0.012 A 
ATOM     35  C   UNL     1     180.113 181.406 179.537  1.00  0.00     0.001 A 
ATOM     36  C   UNL     1     181.004 179.196 179.078  1.00  0.00     0.001 A 
ATOM     37  C   UNL     1     180.875 180.299 179.934  1.00  0.00     0.000 A 
ENDBRANCH  25  32
ENDBRANCH   1  17
TORSDOF 9
ENDMDL
MODEL 4
REMARK VINA RESULT:    -8.235      2.714      4.659
REMARK INTER + INTRA:         -12.469
REMARK INTER:                 -11.346
REMARK INTRA:                  -1.123
REMARK UNBOUND:                -1.105
REMARK SMILES O=C([O-])[C@H]1O[C@@H](Oc2cc3oc(-c4ccccc4)cc(=O)c3c(O)c2O)[C@@H](O)[C@@H](O)[C@@H]1O
REMARK SMILES IDX 7 1 6 2 4 3 31 4 5 5 29 6 27 7 2 8 1 9 3 10 32 11 30 13
REMARK SMILES IDX 28 15 8 17 25 18 9 19 23 20 10 21 22 22 11 23 20 24 12 25
REMARK SMILES IDX 19 26 21 27 26 28 24 30 13 32 14 33 18 34 15 35 17 36 16 37
REMARK H PARENT 32 12 30 14 28 16 26 29 24 31
REMARK Flexibility Score: inf
ROOT
ATOM      1  O   UNL     1     181.853 183.608 171.034  1.00  0.00    -0.458 OA
ENDROOT
BRANCH   1   2
ATOM      2  C   UNL     1     181.378 184.890 171.440  1.00  0.00     0.339 C 
ATOM      3  C   UNL     1     179.430 186.163 171.667  1.00  0.00     0.199 C 
ATOM      4  C   UNL     1     179.774 187.275 170.643  1.00  0.00     0.180 C 
ATOM      5  O   UNL     1     179.963 184.915 171.238  1.00  0.00    -0.328 OA
ATOM      6  C   UNL     1     181.096 186.961 169.886  1.00  0.00     0.181 C 
ATOM      7  C   UNL     1     182.095 186.031 170.643  1.00  0.00     0.214 C 
BRANCH   3   8
ATOM      8  C   UNL     1     177.941 186.056 171.875  1.00  0.00     0.073 C 
ATOM      9  O   UNL     1     177.456 185.070 172.492  1.00  0.00    -0.547 OA
ATOM     10  O   UNL     1     177.088 187.077 171.451  1.00  0.00    -0.547 OA
ENDBRANCH   3   8
BRANCH   4  11
ATOM     11  O   UNL     1     179.920 188.502 171.309  1.00  0.00    -0.387 OA
ATOM     12  H   UNL     1     179.670 188.334 172.267  1.00  0.00     0.211 HD
ENDBRANCH   4  11
BRANCH   6  13
ATOM     13  O   UNL     1     180.798 186.406 168.622  1.00  0.00    -0.387 OA
ATOM     14  H   UNL     1     180.380 185.511 168.832  1.00  0.00     0.211 HD
ENDBRANCH   6  13
BRANCH   7  15
ATOM     15  O   UNL     1     183.022 185.473 169.743  1.00  0.00    -0.384 OA
ATOM     16  H   UNL     1     182.738 184.531 169.556  1.00  0.00     0.211 HD
ENDBRANCH   7  15
ENDBRANCH   1   2
BRANCH   1  17
ATOM     17  C   UNL     1     182.409 182.688 171.935  1.00  0.00     0.172 A 
ATOM     18  C   UNL     1     183.530 181.903 171.612  1.00  0.00     0.201 A 
ATOM     19  C   UNL     1     181.789 182.526 173.174  1.00  0.00     0.098 A 
ATOM     20  C   UNL     1     183.823 180.753 172.399  1.00  0.00     0.176 A 
ATOM     21  C   UNL     1     182.204 181.522 174.050  1.00  0.00     0.146 A 
ATOM     22  C   UNL     1     183.139 180.554 173.615  1.00  0.00     0.111 A 
ATOM     23  O   UNL     1     181.688 181.455 175.273  1.00  0.00    -0.456 OA
ATOM     24  C   UNL     1     183.233 179.369 174.389  1.00  0.00     0.197 A 
ATOM     25  C   UNL     1     181.850 180.412 176.063  1.00  0.00     0.138 A 
ATOM     26  C   UNL     1     182.598 179.309 175.631  1.00  0.00     0.100 A 
ATOM     27  O   UNL     1     183.727 178.318 173.908  1.00  0.00    -0.289 OA
BRANCH  18  28
ATOM     28  O   UNL     1     184.347 182.292 170.543  1.00  0.00    -0.502 OA
ATOM     29  H   UNL     1     183.990 182.550 169.631  1.00  0.00     0.293 HD
ENDBRANCH  18  28
BRANCH  20  30
ATOM     30  O   UNL     1     184.768 179.808 171.979  1.00  0.00    -0.504 OA
ATOM     31  H   UNL     1     185.383 179.310 172.602  1.00  0.00     0.293 HD
ENDBRANCH  20  30
BRANCH  25  32
ATOM     32  C   UNL     1     181.228 180.407 177.400  1.00  0.00     0.017 A 
ATOM     33  C   UNL     1     180.489 181.517 177.852  1.00  0.00     0.012 A 
ATOM     34  C   UNL     1     181.395 179.285 178.232  1.00  0.00     0.012 A 
ATOM     35  C   UNL     1     179.971 181.523 179.149  1.00  0.00     0.001 A 
ATOM     36  C   UNL     1     180.880 179.306 179.533  1.00  0.00     0.001 A 
ATOM     37  C   UNL     1     180.140 180.410 179.983  1.00  0.00     0.000 A 
ENDBRANCH  25  32
ENDBRANCH   1  17
TORSDOF 9
ENDMDL
MODEL 5
REMARK VINA RESULT:    -7.971      3.298      4.834
REMARK INTER + INTRA:         -12.105
REMARK INTER:                 -11.077
REMARK INTRA:                  -1.027
REMARK UNBOUND:                -1.105
REMARK SMILES O=C([O-])[C@H]1O[C@@H](Oc2cc3oc(-c4ccccc4)cc(=O)c3c(O)c2O)[C@@H](O)[C@@H](O)[C@@H]1O
REMARK SMILES IDX 7 1 6 2 4 3 31 4 5 5 29 6 27 7 2 8 1 9 3 10 32 11 30 13
REMARK SMILES IDX 28 15 8 17 25 18 9 19 23 20 10 21 22 22 11 23 20 24 12 25
REMARK SMILES IDX 19 26 21 27 26 28 24 30 13 32 14 33 18 34 15 35 17 36 16 37
REMARK H PARENT 32 12 30 14 28 16 26 29 24 31
REMARK Flexibility Score: inf
ROOT
ATOM      1  O   UNL     1     184.179 182.478 170.846  1.00  0.00    -0.458 OA
ENDROOT
BRANCH   1   2
ATOM      2  C   UNL     1     183.876 183.833 171.175  1.00  0.00     0.339 C 
ATOM      3  C   UNL     1     182.140 185.400 171.183  1.00  0.00     0.199 C 
ATOM      4  C   UNL     1     182.749 186.407 170.173  1.00  0.00     0.180 C 
ATOM      5  O   UNL     1     182.507 184.070 170.835  1.00  0.00    -0.328 OA
ATOM      6  C   UNL     1     184.069 185.864 169.555  1.00  0.00     0.181 C 
ATOM      7  C   UNL     1     184.834 184.819 170.426  1.00  0.00     0.214 C 
BRANCH   3   8
ATOM      8  C   UNL     1     180.640 185.532 171.246  1.00  0.00     0.073 C 
ATOM      9  O   UNL     1     179.905 184.539 171.000  1.00  0.00    -0.547 OA
ATOM     10  O   UNL     1     180.048 186.731 171.646  1.00  0.00    -0.547 OA
ENDBRANCH   3   8
BRANCH   4  11
ATOM     11  O   UNL     1     183.024 187.620 170.823  1.00  0.00    -0.387 OA
ATOM     12  H   UNL     1     184.025 187.698 170.862  1.00  0.00     0.211 HD
ENDBRANCH   4  11
BRANCH   6  13
ATOM     13  O   UNL     1     183.806 185.315 168.281  1.00  0.00    -0.387 OA
ATOM     14  H   UNL     1     184.485 184.576 168.180  1.00  0.00     0.211 HD
ENDBRANCH   6  13
BRANCH   7  15
ATOM     15  O   UNL     1     185.742 184.091 169.634  1.00  0.00    -0.384 OA
ATOM     16  H   UNL     1     185.551 184.308 168.675  1.00  0.00     0.211 HD
ENDBRANCH   7  15
ENDBRANCH   1   2
BRANCH   1  17
ATOM     17  C   UNL     1     184.116 181.440 171.786  1.00  0.00     0.172 A 
ATOM     18  C   UNL     1     184.760 180.206 171.588  1.00  0.00     0.201 A 
ATOM     19  C   UNL     1     183.345 181.638 172.932  1.00  0.00     0.098 A 
ATOM     20  C   UNL     1     184.373 179.085 172.376  1.00  0.00     0.176 A 
ATOM     21  C   UNL     1     183.123 180.591 173.828  1.00  0.00     0.146 A 
ATOM     22  C   UNL     1     183.532 179.281 173.490  1.00  0.00     0.111 A 
ATOM     23  O   UNL     1     182.490 180.823 174.973  1.00  0.00    -0.456 OA
ATOM     24  C   UNL     1     182.956 178.222 174.239  1.00  0.00     0.197 A 
ATOM     25  C   UNL     1     182.039 179.859 175.751  1.00  0.00     0.138 A 
ATOM     26  C   UNL     1     182.221 178.517 175.389  1.00  0.00     0.100 A 
ATOM     27  O   UNL     1     182.948 177.045 173.798  1.00  0.00    -0.289 OA
BRANCH  18  28
ATOM     28  O   UNL     1     185.788 180.121 170.641  1.00  0.00    -0.502 OA
ATOM     29  H   UNL     1     185.629 179.948 169.655  1.00  0.00     0.293 HD
ENDBRANCH  18  28
BRANCH  20  30
ATOM     30  O   UNL     1     184.800 177.790 172.055  1.00  0.00    -0.504 OA
ATOM     31  H   UNL     1     184.242 176.962 172.190  1.00  0.00     0.293 HD
ENDBRANCH  20  30
BRANCH  25  32
ATOM     32  C   UNL     1     181.329 180.199 176.998  1.00  0.00     0.017 A 
ATOM     33  C   UNL     1     180.563 181.377 177.088  1.00  0.00     0.012 A 
ATOM     34  C   UNL     1     181.439 179.342 178.108  1.00  0.00     0.012 A 
ATOM     35  C   UNL     1     179.959 181.719 178.301  1.00  0.00     0.001 A 
ATOM     36  C   UNL     1     180.837 179.699 179.320  1.00  0.00     0.001 A 
ATOM     37  C   UNL     1     180.071 180.870 179.410  1.00  0.00     0.000 A 
ENDBRANCH  25  32
ENDBRANCH   1  17
TORSDOF 9
ENDMDL
MODEL 6
REMARK VINA RESULT:    -7.959      5.032      8.159
REMARK INTER + INTRA:         -12.088
REMARK INTER:                 -11.048
REMARK INTRA:                  -1.040
REMARK UNBOUND:                -1.105
REMARK SMILES O=C([O-])[C@H]1O[C@@H](Oc2cc3oc(-c4ccccc4)cc(=O)c3c(O)c2O)[C@@H](O)[C@@H](O)[C@@H]1O
REMARK SMILES IDX 7 1 6 2 4 3 31 4 5 5 29 6 27 7 2 8 1 9 3 10 32 11 30 13
REMARK SMILES IDX 28 15 8 17 25 18 9 19 23 20 10 21 22 22 11 23 20 24 12 25
REMARK SMILES IDX 19 26 21 27 26 28 24 30 13 32 14 33 18 34 15 35 17 36 16 37
REMARK H PARENT 32 12 30 14 28 16 26 29 24 31
REMARK Flexibility Score: inf
ROOT
ATOM      1  O   UNL     1     176.528 178.301 170.865  1.00  0.00    -0.458 OA
ENDROOT
BRANCH   1   2
ATOM      2  C   UNL     1     176.801 176.940 171.192  1.00  0.00     0.339 C 
ATOM      3  C   UNL     1     178.515 175.350 171.252  1.00  0.00     0.199 C 
ATOM      4  C   UNL     1     177.934 174.362 170.208  1.00  0.00     0.180 C 
ATOM      5  O   UNL     1     178.179 176.688 170.904  1.00  0.00    -0.328 OA
ATOM      6  C   UNL     1     176.647 174.928 169.545  1.00  0.00     0.181 C 
ATOM      7  C   UNL     1     175.860 175.974 170.396  1.00  0.00     0.214 C 
BRANCH   3   8
ATOM      8  C   UNL     1     180.010 175.198 171.373  1.00  0.00     0.073 C 
ATOM      9  O   UNL     1     180.753 176.216 171.371  1.00  0.00    -0.547 OA
ATOM     10  O   UNL     1     180.583 173.939 171.561  1.00  0.00    -0.547 OA
ENDBRANCH   3   8
BRANCH   4  11
ATOM     11  O   UNL     1     177.618 173.145 170.834  1.00  0.00    -0.387 OA
ATOM     12  H   UNL     1     177.364 173.372 171.778  1.00  0.00     0.211 HD
ENDBRANCH   4  11
BRANCH   6  13
ATOM     13  O   UNL     1     176.967 175.485 168.288  1.00  0.00    -0.387 OA
ATOM     14  H   UNL     1     177.838 175.970 168.441  1.00  0.00     0.211 HD
ENDBRANCH   6  13
BRANCH   7  15
ATOM     15  O   UNL     1     174.994 176.720 169.576  1.00  0.00    -0.384 OA
ATOM     16  H   UNL     1     174.956 176.269 168.682  1.00  0.00     0.211 HD
ENDBRANCH   7  15
ENDBRANCH   1   2
BRANCH   1  17
ATOM     17  C   UNL     1     176.608 179.335 171.809  1.00  0.00     0.172 A 
ATOM     18  C   UNL     1     175.984 180.580 171.615  1.00  0.00     0.201 A 
ATOM     19  C   UNL     1     177.375 179.121 172.954  1.00  0.00     0.098 A 
ATOM     20  C   UNL     1     176.390 181.692 172.406  1.00  0.00     0.176 A 
ATOM     21  C   UNL     1     177.615 180.161 173.853  1.00  0.00     0.146 A 
ATOM     22  C   UNL     1     177.228 181.479 173.519  1.00  0.00     0.111 A 
ATOM     23  O   UNL     1     178.243 179.915 174.998  1.00  0.00    -0.456 OA
ATOM     24  C   UNL     1     177.821 182.525 174.272  1.00  0.00     0.197 A 
ATOM     25  C   UNL     1     178.711 180.869 175.778  1.00  0.00     0.138 A 
ATOM     26  C   UNL     1     178.551 182.215 175.421  1.00  0.00     0.100 A 
ATOM     27  O   UNL     1     177.849 183.704 173.834  1.00  0.00    -0.289 OA
BRANCH  18  28
ATOM     28  O   UNL     1     174.957 180.685 170.668  1.00  0.00    -0.502 OA
ATOM     29  H   UNL     1     174.749 179.965 169.986  1.00  0.00     0.293 HD
ENDBRANCH  18  28
BRANCH  20  30
ATOM     30  O   UNL     1     175.984 182.995 172.089  1.00  0.00    -0.504 OA
ATOM     31  H   UNL     1     176.026 183.770 172.730  1.00  0.00     0.293 HD
ENDBRANCH  20  30
BRANCH  25  32
ATOM     32  C   UNL     1     179.415 180.513 177.024  1.00  0.00     0.017 A 
ATOM     33  C   UNL     1     179.344 181.354 178.152  1.00  0.00     0.012 A 
ATOM     34  C   UNL     1     180.176 179.332 177.071  1.00  0.00     0.012 A 
ATOM     35  C   UNL     1     180.078 181.037 179.299  1.00  0.00     0.001 A 
ATOM     36  C   UNL     1     180.914 179.030 178.222  1.00  0.00     0.001 A 
ATOM     37  C   UNL     1     180.841 179.864 179.347  1.00  0.00     0.000 A 
ENDBRANCH  25  32
ENDBRANCH   1  17
TORSDOF 9
ENDMDL
MODEL 7
REMARK VINA RESULT:    -7.937      2.481      4.535
REMARK INTER + INTRA:         -12.059
REMARK INTER:                 -10.925
REMARK INTRA:                  -1.134
REMARK UNBOUND:                -1.105
REMARK SMILES O=C([O-])[C@H]1O[C@@H](Oc2cc3oc(-c4ccccc4)cc(=O)c3c(O)c2O)[C@@H](O)[C@@H](O)[C@@H]1O
REMARK SMILES IDX 7 1 6 2 4 3 31 4 5 5 29 6 27 7 2 8 1 9 3 10 32 11 30 13
REMARK SMILES IDX 28 15 8 17 25 18 9 19 23 20 10 21 22 22 11 23 20 24 12 25
REMARK SMILES IDX 19 26 21 27 26 28 24 30 13 32 14 33 18 34 15 35 17 36 16 37
REMARK H PARENT 32 12 30 14 28 16 26 29 24 31
REMARK Flexibility Score: inf
ROOT
ATOM      1  O   UNL     1     180.488 186.031 172.277  1.00  0.00    -0.458 OA
ENDROOT
BRANCH   1   2
ATOM      2  C   UNL     1     179.244 185.909 171.589  1.00  0.00     0.339 C 
ATOM      3  C   UNL     1     178.204 184.799 169.814  1.00  0.00     0.199 C 
ATOM      4  C   UNL     1     177.885 186.038 168.937  1.00  0.00     0.180 C 
ATOM      5  O   UNL     1     179.429 184.989 170.510  1.00  0.00    -0.328 OA
ATOM      6  C   UNL     1     178.501 187.333 169.539  1.00  0.00     0.181 C 
ATOM      7  C   UNL     1     178.747 187.303 171.080  1.00  0.00     0.214 C 
BRANCH   3   8
ATOM      8  C   UNL     1     178.260 183.544 168.981  1.00  0.00     0.073 C 
ATOM      9  O   UNL     1     179.154 182.681 169.195  1.00  0.00    -0.547 OA
ATOM     10  O   UNL     1     177.286 183.286 168.015  1.00  0.00    -0.547 OA
ENDBRANCH   3   8
BRANCH   4  11
ATOM     11  O   UNL     1     176.495 186.206 168.843  1.00  0.00    -0.387 OA
ATOM     12  H   UNL     1     176.261 186.077 167.874  1.00  0.00     0.211 HD
ENDBRANCH   4  11
BRANCH   6  13
ATOM     13  O   UNL     1     179.709 187.637 168.874  1.00  0.00    -0.387 OA
ATOM     14  H   UNL     1     179.732 188.645 168.840  1.00  0.00     0.211 HD
ENDBRANCH   6  13
BRANCH   7  15
ATOM     15  O   UNL     1     179.667 188.302 171.449  1.00  0.00    -0.384 OA
ATOM     16  H   UNL     1     180.005 188.081 172.366  1.00  0.00     0.211 HD
ENDBRANCH   7  15
ENDBRANCH   1   2
BRANCH   1  17
ATOM     17  C   UNL     1     181.190 184.923 172.771  1.00  0.00     0.172 A 
ATOM     18  C   UNL     1     182.297 184.374 172.099  1.00  0.00     0.201 A 
ATOM     19  C   UNL     1     180.735 184.328 173.947  1.00  0.00     0.098 A 
ATOM     20  C   UNL     1     182.736 183.062 172.438  1.00  0.00     0.176 A 
ATOM     21  C   UNL     1     181.299 183.136 174.405  1.00  0.00     0.146 A 
ATOM     22  C   UNL     1     182.215 182.435 173.587  1.00  0.00     0.111 A 
ATOM     23  O   UNL     1     180.940 182.644 175.586  1.00  0.00    -0.456 OA
ATOM     24  C   UNL     1     182.456 181.077 173.923  1.00  0.00     0.197 A 
ATOM     25  C   UNL     1     181.244 181.422 175.976  1.00  0.00     0.138 A 
ATOM     26  C   UNL     1     181.982 180.576 175.137  1.00  0.00     0.100 A 
ATOM     27  O   UNL     1     182.934 180.276 173.080  1.00  0.00    -0.289 OA
BRANCH  18  28
ATOM     28  O   UNL     1     182.959 185.146 171.136  1.00  0.00    -0.502 OA
ATOM     29  H   UNL     1     183.293 186.087 171.306  1.00  0.00     0.293 HD
ENDBRANCH  18  28
BRANCH  20  30
ATOM     30  O   UNL     1     183.663 182.379 171.641  1.00  0.00    -0.504 OA
ATOM     31  H   UNL     1     183.425 181.881 170.798  1.00  0.00     0.293 HD
ENDBRANCH  20  30
BRANCH  25  32
ATOM     32  C   UNL     1     180.791 180.943 177.296  1.00  0.00     0.017 A 
ATOM     33  C   UNL     1     180.014 181.770 178.130  1.00  0.00     0.012 A 
ATOM     34  C   UNL     1     181.160 179.656 177.724  1.00  0.00     0.012 A 
ATOM     35  C   UNL     1     179.658 181.327 179.406  1.00  0.00     0.001 A 
ATOM     36  C   UNL     1     180.806 179.226 179.008  1.00  0.00     0.001 A 
ATOM     37  C   UNL     1     180.028 180.047 179.838  1.00  0.00     0.000 A 
ENDBRANCH  25  32
ENDBRANCH   1  17
TORSDOF 9
ENDMDL
MODEL 8
REMARK VINA RESULT:    -7.891      2.983      5.864
REMARK INTER + INTRA:         -11.994
REMARK INTER:                 -10.429
REMARK INTRA:                  -1.565
REMARK UNBOUND:                -1.105
REMARK SMILES O=C([O-])[C@H]1O[C@@H](Oc2cc3oc(-c4ccccc4)cc(=O)c3c(O)c2O)[C@@H](O)[C@@H](O)[C@@H]1O
REMARK SMILES IDX 7 1 6 2 4 3 31 4 5 5 29 6 27 7 2 8 1 9 3 10 32 11 30 13
REMARK SMILES IDX 28 15 8 17 25 18 9 19 23 20 10 21 22 22 11 23 20 24 12 25
REMARK SMILES IDX 19 26 21 27 26 28 24 30 13 32 14 33 18 34 15 35 17 36 16 37
REMARK H PARENT 32 12 30 14 28 16 26 29 24 31
REMARK Flexibility Score: inf
ROOT
ATOM      1  O   UNL     1     176.508 183.578 172.367  1.00  0.00    -0.458 OA
ENDROOT
BRANCH   1   2
ATOM      2  C   UNL     1     175.951 182.636 171.453  1.00  0.00     0.339 C 
ATOM      3  C   UNL     1     176.259 180.490 170.578  1.00  0.00     0.199 C 
ATOM      4  C   UNL     1     176.494 180.888 169.097  1.00  0.00     0.180 C 
ATOM      5  O   UNL     1     176.794 181.481 171.446  1.00  0.00    -0.328 OA
ATOM      6  C   UNL     1     176.561 182.433 168.929  1.00  0.00     0.181 C 
ATOM      7  C   UNL     1     175.813 183.258 170.022  1.00  0.00     0.214 C 
BRANCH   3   8
ATOM      8  C   UNL     1     176.863 179.142 170.881  1.00  0.00     0.073 C 
ATOM      9  O   UNL     1     177.188 178.368 169.941  1.00  0.00    -0.547 OA
ATOM     10  O   UNL     1     177.136 178.765 172.196  1.00  0.00    -0.547 OA
ENDBRANCH   3   8
BRANCH   4  11
ATOM     11  O   UNL     1     175.446 180.396 168.303  1.00  0.00    -0.387 OA
ATOM     12  H   UNL     1     175.606 179.409 168.206  1.00  0.00     0.211 HD
ENDBRANCH   4  11
BRANCH   6  13
ATOM     13  O   UNL     1     177.910 182.845 168.865  1.00  0.00    -0.387 OA
ATOM     14  H   UNL     1     177.888 183.699 168.329  1.00  0.00     0.211 HD
ENDBRANCH   6  13
BRANCH   7  15
ATOM     15  O   UNL     1     176.275 184.587 170.034  1.00  0.00    -0.384 OA
ATOM     16  H   UNL     1     177.036 184.652 169.385  1.00  0.00     0.211 HD
ENDBRANCH   7  15
ENDBRANCH   1   2
BRANCH   1  17
ATOM     17  C   UNL     1     177.811 183.462 172.871  1.00  0.00     0.172 A 
ATOM     18  C   UNL     1     178.931 183.960 172.182  1.00  0.00     0.201 A 
ATOM     19  C   UNL     1     177.990 182.786 174.078  1.00  0.00     0.098 A 
ATOM     20  C   UNL     1     180.230 183.505 172.546  1.00  0.00     0.176 A 
ATOM     21  C   UNL     1     179.273 182.508 174.553  1.00  0.00     0.146 A 
ATOM     22  C   UNL     1     180.395 182.756 173.729  1.00  0.00     0.111 A 
ATOM     23  O   UNL     1     179.431 181.972 175.759  1.00  0.00    -0.456 OA
ATOM     24  C   UNL     1     181.607 182.117 174.097  1.00  0.00     0.197 A 
ATOM     25  C   UNL     1     180.576 181.468 176.175  1.00  0.00     0.138 A 
ATOM     26  C   UNL     1     181.701 181.487 175.339  1.00  0.00     0.100 A 
ATOM     27  O   UNL     1     182.536 181.959 173.263  1.00  0.00    -0.289 OA
BRANCH  18  28
ATOM     28  O   UNL     1     178.741 184.916 171.177  1.00  0.00    -0.502 OA
ATOM     29  H   UNL     1     178.730 184.695 170.188  1.00  0.00     0.293 HD
ENDBRANCH  18  28
BRANCH  20  30
ATOM     30  O   UNL     1     181.345 183.774 171.741  1.00  0.00    -0.504 OA
ATOM     31  H   UNL     1     182.193 183.231 171.753  1.00  0.00     0.293 HD
ENDBRANCH  20  30
BRANCH  25  32
ATOM     32  C   UNL     1     180.665 180.873 177.521  1.00  0.00     0.017 A 
ATOM     33  C   UNL     1     181.395 179.688 177.734  1.00  0.00     0.012 A 
ATOM     34  C   UNL     1     179.997 181.492 178.593  1.00  0.00     0.012 A 
ATOM     35  C   UNL     1     181.407 179.100 179.001  1.00  0.00     0.001 A 
ATOM     36  C   UNL     1     180.008 180.889 179.855  1.00  0.00     0.001 A 
ATOM     37  C   UNL     1     180.738 179.711 180.070  1.00  0.00     0.000 A 
ENDBRANCH  25  32
ENDBRANCH   1  17
TORSDOF 9
ENDMDL
MODEL 9
REMARK VINA RESULT:    -7.799      6.241      7.883
REMARK INTER + INTRA:         -11.867
REMARK INTER:                 -10.232
REMARK INTRA:                  -1.635
REMARK UNBOUND:                -1.105
REMARK SMILES O=C([O-])[C@H]1O[C@@H](Oc2cc3oc(-c4ccccc4)cc(=O)c3c(O)c2O)[C@@H](O)[C@@H](O)[C@@H]1O
REMARK SMILES IDX 7 1 6 2 4 3 31 4 5 5 29 6 27 7 2 8 1 9 3 10 32 11 30 13
REMARK SMILES IDX 28 15 8 17 25 18 9 19 23 20 10 21 22 22 11 23 20 24 12 25
REMARK SMILES IDX 19 26 21 27 26 28 24 30 13 32 14 33 18 34 15 35 17 36 16 37
REMARK H PARENT 32 12 30 14 28 16 26 29 24 31
REMARK Flexibility Score: inf
ROOT
ATOM      1  O   UNL     1     180.390 174.712 172.387  1.00  0.00    -0.458 OA
ENDROOT
BRANCH   1   2
ATOM      2  C   UNL     1     181.595 174.568 171.638  1.00  0.00     0.339 C 
ATOM      3  C   UNL     1     183.382 175.781 170.741  1.00  0.00     0.199 C 
ATOM      4  C   UNL     1     183.118 175.484 169.242  1.00  0.00     0.180 C 
ATOM      5  O   UNL     1     182.152 175.871 171.450  1.00  0.00    -0.328 OA
ATOM      6  C   UNL     1     181.790 174.698 169.044  1.00  0.00     0.181 C 
ATOM      7  C   UNL     1     181.323 173.854 170.271  1.00  0.00     0.214 C 
BRANCH   3   8
ATOM      8  C   UNL     1     184.183 177.046 170.912  1.00  0.00     0.073 C 
ATOM      9  O   UNL     1     184.455 177.472 172.067  1.00  0.00    -0.547 OA
ATOM     10  O   UNL     1     184.692 177.721 169.802  1.00  0.00    -0.547 OA
ENDBRANCH   3   8
BRANCH   4  11
ATOM     11  O   UNL     1     184.173 174.720 168.719  1.00  0.00    -0.387 OA
ATOM     12  H   UNL     1     184.603 175.284 168.008  1.00  0.00     0.211 HD
ENDBRANCH   4  11
BRANCH   6  13
ATOM     13  O   UNL     1     180.764 175.590 168.665  1.00  0.00    -0.387 OA
ATOM     14  H   UNL     1     181.219 176.256 168.060  1.00  0.00     0.211 HD
ENDBRANCH   6  13
BRANCH   7  15
ATOM     15  O   UNL     1     179.955 173.543 170.160  1.00  0.00    -0.384 OA
ATOM     16  H   UNL     1     179.637 173.239 171.060  1.00  0.00     0.211 HD
ENDBRANCH   7  15
ENDBRANCH   1   2
BRANCH   1  17
ATOM     17  C   UNL     1     179.852 175.962 172.721  1.00  0.00     0.172 A 
ATOM     18  C   UNL     1     179.091 176.720 171.813  1.00  0.00     0.201 A 
ATOM     19  C   UNL     1     180.129 176.480 173.986  1.00  0.00     0.098 A 
ATOM     20  C   UNL     1     178.885 178.106 172.065  1.00  0.00     0.176 A 
ATOM     21  C   UNL     1     179.749 177.781 174.320  1.00  0.00     0.146 A 
ATOM     22  C   UNL     1     179.237 178.640 173.321  1.00  0.00     0.111 A 
ATOM     23  O   UNL     1     179.910 178.219 175.564  1.00  0.00    -0.456 OA
ATOM     24  C   UNL     1     179.229 180.027 173.619  1.00  0.00     0.197 A 
ATOM     25  C   UNL     1     179.800 179.490 175.897  1.00  0.00     0.138 A 
ATOM     26  C   UNL     1     179.493 180.450 174.923  1.00  0.00     0.100 A 
ATOM     27  O   UNL     1     179.159 180.887 172.704  1.00  0.00    -0.289 OA
BRANCH  18  28
ATOM     28  O   UNL     1     178.529 176.082 170.700  1.00  0.00    -0.502 OA
ATOM     29  H   UNL     1     177.978 175.234 170.759  1.00  0.00     0.293 HD
ENDBRANCH  18  28
BRANCH  20  30
ATOM     30  O   UNL     1     178.354 178.951 171.082  1.00  0.00    -0.504 OA
ATOM     31  H   UNL     1     178.293 178.713 170.105  1.00  0.00     0.293 HD
ENDBRANCH  20  30
BRANCH  25  32
ATOM     32  C   UNL     1     180.013 179.899 177.298  1.00  0.00     0.017 A 
ATOM     33  C   UNL     1     180.834 179.135 178.150  1.00  0.00     0.012 A 
ATOM     34  C   UNL     1     179.372 181.052 177.783  1.00  0.00     0.012 A 
ATOM     35  C   UNL     1     180.964 179.498 179.493  1.00  0.00     0.001 A 
ATOM     36  C   UNL     1     179.502 181.400 179.132  1.00  0.00     0.001 A 
ATOM     37  C   UNL     1     180.323 180.644 179.981  1.00  0.00     0.000 A 
ENDBRANCH  25  32
ENDBRANCH   1  17
TORSDOF 9
ENDMDL
