MODEL 1
REMARK VINA RESULT:    -1.098      0.000      0.000
REMARK INTER + INTRA:          -0.953
REMARK INTER:                  -1.226
REMARK INTRA:                   0.273
REMARK UNBOUND:                 0.273
REMARK SMILES CCc1ccc(O)cc1O
REMARK SMILES IDX 3 1 9 2 8 3 6 4 5 5 4 6 2 7 1 8 10 9 7 11
REMARK H PARENT 10 10 7 12
REMARK Flexibility Score: inf
ROOT
ATOM      1  C   UNL     1      -0.018   6.109  -8.802  1.00  0.00    -0.006 A 
ATOM      2  C   UNL     1      -1.323   6.205  -9.327  1.00  0.00     0.122 A 
ATOM      3  C   UNL     1      -1.555   5.905 -10.677  1.00  0.00     0.092 A 
ATOM      4  C   UNL     1      -0.500   5.523 -11.510  1.00  0.00     0.119 A 
ATOM      5  C   UNL     1       0.798   5.441 -10.993  1.00  0.00     0.047 A 
ATOM      6  C   UNL     1       1.039   5.736  -9.650  1.00  0.00     0.011 A 
ENDROOT
BRANCH   1   7
ATOM      7  C   UNL     1       0.265   6.454  -7.362  1.00  0.00     0.036 C 
ATOM      8  C   UNL     1      -0.161   7.886  -7.055  1.00  0.00     0.009 C 
ENDBRANCH   1   7
BRANCH   2   9
ATOM      9  O   UNL     1      -2.382   6.599  -8.509  1.00  0.00    -0.508 OA
ATOM     10  H   UNL     1      -3.107   7.223  -8.842  1.00  0.00     0.293 HD
ENDBRANCH   2   9
BRANCH   4  11
ATOM     11  O   UNL     1      -0.751   5.229 -12.848  1.00  0.00    -0.508 OA
ATOM     12  H   UNL     1      -0.004   4.974 -13.484  1.00  0.00     0.293 HD
ENDBRANCH   4  11
TORSDOF 3
ENDMDL
MODEL 2
REMARK VINA RESULT:    -0.836      1.870      4.264
REMARK INTER + INTRA:          -0.661
REMARK INTER:                  -0.576
REMARK INTRA:                  -0.085
REMARK UNBOUND:                 0.273
REMARK SMILES CCc1ccc(O)cc1O
REMARK SMILES IDX 3 1 9 2 8 3 6 4 5 5 4 6 2 7 1 8 10 9 7 11
REMARK H PARENT 10 10 7 12
REMARK Flexibility Score: inf
ROOT
ATOM      1  C   UNL     1      -0.253   5.647 -10.356  1.00  0.00    -0.006 A 
ATOM      2  C   UNL     1       0.873   5.137  -9.679  1.00  0.00     0.122 A 
ATOM      3  C   UNL     1       1.133   5.534  -8.359  1.00  0.00     0.092 A 
ATOM      4  C   UNL     1       0.289   6.442  -7.713  1.00  0.00     0.119 A 
ATOM      5  C   UNL     1      -0.822   6.960  -8.389  1.00  0.00     0.047 A 
ATOM      6  C   UNL     1      -1.088   6.570  -9.704  1.00  0.00     0.011 A 
ENDROOT
BRANCH   1   7
ATOM      7  C   UNL     1      -0.539   5.261 -11.785  1.00  0.00     0.036 C 
ATOM      8  C   UNL     1      -1.932   5.723 -12.201  1.00  0.00     0.009 C 
ENDBRANCH   1   7
BRANCH   2   9
ATOM      9  O   UNL     1       1.730   4.241 -10.318  1.00  0.00    -0.508 OA
ATOM     10  H   UNL     1       2.593   4.548 -10.752  1.00  0.00     0.293 HD
ENDBRANCH   2   9
BRANCH   4  11
ATOM     11  O   UNL     1       0.563   6.824  -6.402  1.00  0.00    -0.508 OA
ATOM     12  H   UNL     1      -0.090   6.642  -5.650  1.00  0.00     0.293 HD
ENDBRANCH   4  11
TORSDOF 3
ENDMDL
MODEL 3
REMARK VINA RESULT:    -0.296      1.555      2.181
REMARK INTER + INTRA:          -0.057
REMARK INTER:                   0.030
REMARK INTRA:                  -0.087
REMARK UNBOUND:                 0.273
REMARK SMILES CCc1ccc(O)cc1O
REMARK SMILES IDX 3 1 9 2 8 3 6 4 5 5 4 6 2 7 1 8 10 9 7 11
REMARK H PARENT 10 10 7 12
REMARK Flexibility Score: inf
ROOT
ATOM      1  C   UNL     1      -0.115   6.117  -9.027  1.00  0.00    -0.006 A 
ATOM      2  C   UNL     1       0.848   5.667  -9.953  1.00  0.00     0.122 A 
ATOM      3  C   UNL     1       0.463   5.358 -11.266  1.00  0.00     0.092 A 
ATOM      4  C   UNL     1      -0.873   5.482 -11.660  1.00  0.00     0.119 A 
ATOM      5  C   UNL     1      -1.832   5.915 -10.737  1.00  0.00     0.047 A 
ATOM      6  C   UNL     1      -1.457   6.225  -9.428  1.00  0.00     0.011 A 
ENDROOT
BRANCH   1   7
ATOM      7  C   UNL     1       0.266   6.427  -7.602  1.00  0.00     0.036 C 
ATOM      8  C   UNL     1      -0.429   7.696  -7.120  1.00  0.00     0.009 C 
ENDBRANCH   1   7
BRANCH   2   9
ATOM      9  O   UNL     1       2.181   5.527  -9.568  1.00  0.00    -0.508 OA
ATOM     10  H   UNL     1       2.877   6.227  -9.796  1.00  0.00     0.293 HD
ENDBRANCH   2   9
BRANCH   4  11
ATOM     11  O   UNL     1      -1.236   5.171 -12.968  1.00  0.00    -0.508 OA
ATOM     12  H   UNL     1      -0.904   5.717 -13.754  1.00  0.00     0.293 HD
ENDBRANCH   4  11
TORSDOF 3
ENDMDL
MODEL 4
REMARK VINA RESULT:    -0.110      1.528      3.778
REMARK INTER + INTRA:           0.150
REMARK INTER:                   0.243
REMARK INTRA:                  -0.093
REMARK UNBOUND:                 0.273
REMARK SMILES CCc1ccc(O)cc1O
REMARK SMILES IDX 3 1 9 2 8 3 6 4 5 5 4 6 2 7 1 8 10 9 7 11
REMARK H PARENT 10 10 7 12
REMARK Flexibility Score: inf
ROOT
ATOM      1  C   UNL     1       0.465   5.671  -9.350  1.00  0.00    -0.006 A 
ATOM      2  C   UNL     1      -0.792   6.245  -9.631  1.00  0.00     0.122 A 
ATOM      3  C   UNL     1      -1.405   7.078  -8.684  1.00  0.00     0.092 A 
ATOM      4  C   UNL     1      -0.785   7.334  -7.458  1.00  0.00     0.119 A 
ATOM      5  C   UNL     1       0.456   6.753  -7.173  1.00  0.00     0.047 A 
ATOM      6  C   UNL     1       1.075   5.923  -8.110  1.00  0.00     0.011 A 
ENDROOT
BRANCH   1   7
ATOM      7  C   UNL     1       1.134   4.748 -10.337  1.00  0.00     0.036 C 
ATOM      8  C   UNL     1       1.570   3.454  -9.657  1.00  0.00     0.009 C 
ENDBRANCH   1   7
BRANCH   2   9
ATOM      9  O   UNL     1      -1.426   5.985 -10.846  1.00  0.00    -0.508 OA
ATOM     10  H   UNL     1      -1.356   5.082 -11.299  1.00  0.00     0.293 HD
ENDBRANCH   2   9
BRANCH   4  11
ATOM     11  O   UNL     1      -1.410   8.164  -6.531  1.00  0.00    -0.508 OA
ATOM     12  H   UNL     1      -1.378   9.173  -6.617  1.00  0.00     0.293 HD
ENDBRANCH   4  11
TORSDOF 3
ENDMDL
MODEL 5
REMARK VINA RESULT:    -0.074      0.231      0.231
REMARK INTER + INTRA:           0.190
REMARK INTER:                  -0.454
REMARK INTRA:                   0.644
REMARK UNBOUND:                 0.273
REMARK SMILES CCc1ccc(O)cc1O
REMARK SMILES IDX 3 1 9 2 8 3 6 4 5 5 4 6 2 7 1 8 10 9 7 11
REMARK H PARENT 10 10 7 12
REMARK Flexibility Score: inf
ROOT
ATOM      1  C   UNL     1       0.025   6.024  -8.871  1.00  0.00    -0.006 A 
ATOM      2  C   UNL     1      -1.237   6.279  -9.446  1.00  0.00     0.122 A 
ATOM      3  C   UNL     1      -1.479   5.926 -10.781  1.00  0.00     0.092 A 
ATOM      4  C   UNL     1      -0.474   5.334 -11.552  1.00  0.00     0.119 A 
ATOM      5  C   UNL     1       0.783   5.094 -10.986  1.00  0.00     0.047 A 
ATOM      6  C   UNL     1       1.034   5.441  -9.657  1.00  0.00     0.011 A 
ENDROOT
BRANCH   1   7
ATOM      7  C   UNL     1       0.323   6.420  -7.447  1.00  0.00     0.036 C 
ATOM      8  C   UNL     1      -0.270   7.790  -7.132  1.00  0.00     0.009 C 
ENDBRANCH   1   7
BRANCH   2   9
ATOM      9  O   UNL     1      -2.243   6.881  -8.691  1.00  0.00    -0.508 OA
ATOM     10  H   UNL     1      -3.162   7.061  -9.078  1.00  0.00     0.293 HD
ENDBRANCH   2   9
BRANCH   4  11
ATOM     11  O   UNL     1      -0.734   4.991 -12.876  1.00  0.00    -0.508 OA
ATOM     12  H   UNL     1      -1.359   5.540 -13.453  1.00  0.00     0.293 HD
ENDBRANCH   4  11
TORSDOF 3
ENDMDL
MODEL 6
REMARK VINA RESULT:     1.120      1.721      3.682
REMARK INTER + INTRA:           1.524
REMARK INTER:                   1.609
REMARK INTRA:                  -0.086
REMARK UNBOUND:                 0.273
REMARK SMILES CCc1ccc(O)cc1O
REMARK SMILES IDX 3 1 9 2 8 3 6 4 5 5 4 6 2 7 1 8 10 9 7 11
REMARK H PARENT 10 10 7 12
REMARK Flexibility Score: inf
ROOT
ATOM      1  C   UNL     1      -0.788   5.971 -10.155  1.00  0.00    -0.006 A 
ATOM      2  C   UNL     1      -1.433   6.360  -8.963  1.00  0.00     0.122 A 
ATOM      3  C   UNL     1      -0.694   6.482  -7.778  1.00  0.00     0.092 A 
ATOM      4  C   UNL     1       0.677   6.210  -7.766  1.00  0.00     0.119 A 
ATOM      5  C   UNL     1       1.316   5.810  -8.945  1.00  0.00     0.047 A 
ATOM      6  C   UNL     1       0.588   5.686 -10.131  1.00  0.00     0.011 A 
ENDROOT
BRANCH   1   7
ATOM      7  C   UNL     1      -1.563   5.802 -11.437  1.00  0.00     0.036 C 
ATOM      8  C   UNL     1      -0.624   5.495 -12.600  1.00  0.00     0.009 C 
ENDBRANCH   1   7
BRANCH   2   9
ATOM      9  O   UNL     1      -2.803   6.621  -8.960  1.00  0.00    -0.508 OA
ATOM     10  H   UNL     1      -3.392   6.361  -8.178  1.00  0.00     0.293 HD
ENDBRANCH   2   9
BRANCH   4  11
ATOM     11  O   UNL     1       1.393   6.336  -6.578  1.00  0.00    -0.508 OA
ATOM     12  H   UNL     1       2.258   5.831  -6.425  1.00  0.00     0.293 HD
ENDBRANCH   4  11
TORSDOF 3
ENDMDL
MODEL 7
REMARK VINA RESULT:     1.853     10.765     11.855
REMARK INTER + INTRA:           2.342
REMARK INTER:                   2.428
REMARK INTRA:                  -0.086
REMARK UNBOUND:                 0.273
REMARK SMILES CCc1ccc(O)cc1O
REMARK SMILES IDX 3 1 9 2 8 3 6 4 5 5 4 6 2 7 1 8 10 9 7 11
REMARK H PARENT 10 10 7 12
REMARK Flexibility Score: inf
ROOT
ATOM      1  C   UNL     1      11.242   7.802  -7.717  1.00  0.00    -0.006 A 
ATOM      2  C   UNL     1      11.003   7.149  -6.491  1.00  0.00     0.122 A 
ATOM      3  C   UNL     1       9.740   7.237  -5.888  1.00  0.00     0.092 A 
ATOM      4  C   UNL     1       8.718   7.978  -6.489  1.00  0.00     0.119 A 
ATOM      5  C   UNL     1       8.959   8.638  -7.700  1.00  0.00     0.047 A 
ATOM      6  C   UNL     1      10.214   8.556  -8.307  1.00  0.00     0.011 A 
ENDROOT
BRANCH   1   7
ATOM      7  C   UNL     1      12.599   7.750  -8.372  1.00  0.00     0.036 C 
ATOM      8  C   UNL     1      12.608   8.562  -9.663  1.00  0.00     0.009 C 
ENDBRANCH   1   7
BRANCH   2   9
ATOM      9  O   UNL     1      12.019   6.418  -5.875  1.00  0.00    -0.508 OA
ATOM     10  H   UNL     1      12.163   5.436  -6.076  1.00  0.00     0.293 HD
ENDBRANCH   2   9
BRANCH   4  11
ATOM     11  O   UNL     1       7.470   8.053  -5.875  1.00  0.00    -0.508 OA
ATOM     12  H   UNL     1       7.282   7.584  -4.997  1.00  0.00     0.293 HD
ENDBRANCH   4  11
TORSDOF 3
ENDMDL
