MODEL 1
REMARK VINA RESULT:    -5.422      0.000      0.000
REMARK INTER + INTRA:          -8.714
REMARK INTER:                  -8.275
REMARK INTRA:                  -0.438
REMARK UNBOUND:                -0.438
REMARK SMILES O=C([O-])CCCCCCCCC(=O)[O-]
REMARK SMILES IDX 7 1 6 2 5 3 4 4 2 5 1 6 3 7 8 8 9 9 10 10 11 11 12 12 13 13
REMARK SMILES IDX 14 14
REMARK H PARENT
REMARK Flexibility Score: inf
ROOT
ATOM      1  C   UNL     1     -16.220  27.237  -0.161  1.00  0.00     0.000 C 
ENDROOT
BRANCH   1   2
ATOM      2  C   UNL     1     -16.379  26.416   1.128  1.00  0.00     0.000 C 
BRANCH   2   3
ATOM      3  C   UNL     1     -17.766  25.766   1.249  1.00  0.00     0.006 C 
BRANCH   3   4
ATOM      4  C   UNL     1     -18.165  24.986  -0.010  1.00  0.00     0.053 C 
BRANCH   4   5
ATOM      5  C   UNL     1     -19.284  24.041   0.294  1.00  0.00     0.041 C 
ATOM      6  O   UNL     1     -20.415  24.484   0.625  1.00  0.00    -0.550 OA
ATOM      7  O   UNL     1     -19.094  22.672   0.164  1.00  0.00    -0.550 OA
ENDBRANCH   4   5
ENDBRANCH   3   4
ENDBRANCH   2   3
ENDBRANCH   1   2
BRANCH   1   8
ATOM      8  C   UNL     1     -16.491  28.723   0.097  1.00  0.00     0.000 C 
BRANCH   8   9
ATOM      9  C   UNL     1     -16.105  29.112   1.533  1.00  0.00     0.000 C 
BRANCH   9  10
ATOM     10  C   UNL     1     -15.427  30.489   1.612  1.00  0.00     0.006 C 
BRANCH  10  11
ATOM     11  C   UNL     1     -16.384  31.594   2.080  1.00  0.00     0.053 C 
BRANCH  11  12
ATOM     12  C   UNL     1     -16.634  32.572   0.977  1.00  0.00     0.041 C 
ATOM     13  O   UNL     1     -15.974  33.642   0.918  1.00  0.00    -0.550 OA
ATOM     14  O   UNL     1     -17.629  32.325   0.039  1.00  0.00    -0.550 OA
ENDBRANCH  11  12
ENDBRANCH  10  11
ENDBRANCH   9  10
ENDBRANCH   8   9
ENDBRANCH   1   8
TORSDOF 9
ENDMDL
MODEL 2
REMARK VINA RESULT:    -5.395      0.214      7.201
REMARK INTER + INTRA:          -8.671
REMARK INTER:                  -8.244
REMARK INTRA:                  -0.427
REMARK UNBOUND:                -0.438
REMARK SMILES O=C([O-])CCCCCCCCC(=O)[O-]
REMARK SMILES IDX 7 1 6 2 5 3 4 4 2 5 1 6 3 7 8 8 9 9 10 10 11 11 12 12 13 13
REMARK SMILES IDX 14 14
REMARK H PARENT
REMARK Flexibility Score: inf
ROOT
ATOM      1  C   UNL     1     -16.594  28.780   0.163  1.00  0.00     0.000 C 
ENDROOT
BRANCH   1   2
ATOM      2  C   UNL     1     -16.047  29.116   1.558  1.00  0.00     0.000 C 
BRANCH   2   3
ATOM      3  C   UNL     1     -15.456  30.533   1.637  1.00  0.00     0.006 C 
BRANCH   3   4
ATOM      4  C   UNL     1     -16.501  31.588   2.022  1.00  0.00     0.053 C 
BRANCH   4   5
ATOM      5  C   UNL     1     -16.740  32.526   0.881  1.00  0.00     0.041 C 
ATOM      6  O   UNL     1     -17.709  32.340   0.100  1.00  0.00    -0.550 OA
ATOM      7  O   UNL     1     -15.921  33.635   0.709  1.00  0.00    -0.550 OA
ENDBRANCH   4   5
ENDBRANCH   3   4
ENDBRANCH   2   3
ENDBRANCH   1   2
BRANCH   1   8
ATOM      8  C   UNL     1     -16.203  27.357  -0.252  1.00  0.00     0.000 C 
BRANCH   8   9
ATOM      9  C   UNL     1     -16.218  26.407   0.956  1.00  0.00     0.000 C 
BRANCH   9  10
ATOM     10  C   UNL     1     -17.606  25.799   1.213  1.00  0.00     0.006 C 
BRANCH  10  11
ATOM     11  C   UNL     1     -18.097  24.931   0.047  1.00  0.00     0.053 C 
BRANCH  11  12
ATOM     12  C   UNL     1     -19.321  24.169   0.443  1.00  0.00     0.041 C 
ATOM     13  O   UNL     1     -20.410  24.773   0.633  1.00  0.00    -0.550 OA
ATOM     14  O   UNL     1     -19.251  22.797   0.650  1.00  0.00    -0.550 OA
ENDBRANCH  11  12
ENDBRANCH  10  11
ENDBRANCH   9  10
ENDBRANCH   8   9
ENDBRANCH   1   8
TORSDOF 9
ENDMDL
MODEL 3
REMARK VINA RESULT:    -5.358      2.679      6.080
REMARK INTER + INTRA:          -8.616
REMARK INTER:                  -8.099
REMARK INTRA:                  -0.516
REMARK UNBOUND:                -0.438
REMARK SMILES O=C([O-])CCCCCCCCC(=O)[O-]
REMARK SMILES IDX 7 1 6 2 5 3 4 4 2 5 1 6 3 7 8 8 9 9 10 10 11 11 12 12 13 13
REMARK SMILES IDX 14 14
REMARK H PARENT
REMARK Flexibility Score: inf
ROOT
ATOM      1  C   UNL     1     -16.728  32.071   1.340  1.00  0.00     0.000 C 
ENDROOT
BRANCH   1   2
ATOM      2  C   UNL     1     -16.359  33.207   0.374  1.00  0.00     0.000 C 
BRANCH   2   3
ATOM      3  C   UNL     1     -17.108  33.113  -0.965  1.00  0.00     0.006 C 
BRANCH   3   4
ATOM      4  C   UNL     1     -18.392  32.279  -0.867  1.00  0.00     0.053 C 
BRANCH   4   5
ATOM      5  C   UNL     1     -18.348  31.138  -1.833  1.00  0.00     0.041 C 
ATOM      6  O   UNL     1     -18.160  31.353  -3.060  1.00  0.00    -0.550 OA
ATOM      7  O   UNL     1     -18.465  29.832  -1.375  1.00  0.00    -0.550 OA
ENDBRANCH   4   5
ENDBRANCH   3   4
ENDBRANCH   2   3
ENDBRANCH   1   2
BRANCH   1   8
ATOM      8  C   UNL     1     -15.699  30.937   1.273  1.00  0.00     0.000 C 
BRANCH   8   9
ATOM      9  C   UNL     1     -15.842  29.993   2.478  1.00  0.00     0.000 C 
BRANCH   9  10
ATOM     10  C   UNL     1     -16.213  28.560   2.066  1.00  0.00     0.006 C 
BRANCH  10  11
ATOM     11  C   UNL     1     -16.257  28.375   0.543  1.00  0.00     0.053 C 
BRANCH  11  12
ATOM     12  C   UNL     1     -16.548  26.949   0.199  1.00  0.00     0.041 C 
ATOM     13  O   UNL     1     -17.403  26.672  -0.682  1.00  0.00    -0.550 OA
ATOM     14  O   UNL     1     -15.911  25.923   0.886  1.00  0.00    -0.550 OA
ENDBRANCH  11  12
ENDBRANCH  10  11
ENDBRANCH   9  10
ENDBRANCH   8   9
ENDBRANCH   1   8
TORSDOF 9
ENDMDL
MODEL 4
REMARK VINA RESULT:    -5.117      2.327      7.582
REMARK INTER + INTRA:          -8.248
REMARK INTER:                  -7.848
REMARK INTRA:                  -0.400
REMARK UNBOUND:                -0.438
REMARK SMILES O=C([O-])CCCCCCCCC(=O)[O-]
REMARK SMILES IDX 7 1 6 2 5 3 4 4 2 5 1 6 3 7 8 8 9 9 10 10 11 11 12 12 13 13
REMARK SMILES IDX 14 14
REMARK H PARENT
REMARK Flexibility Score: inf
ROOT
ATOM      1  C   UNL     1     -17.016  26.633   0.870  1.00  0.00     0.000 C 
ENDROOT
BRANCH   1   2
ATOM      2  C   UNL     1     -16.277  27.528  -0.136  1.00  0.00     0.000 C 
BRANCH   2   3
ATOM      3  C   UNL     1     -16.827  28.963  -0.168  1.00  0.00     0.006 C 
BRANCH   3   4
ATOM      4  C   UNL     1     -18.126  29.080  -0.977  1.00  0.00     0.053 C 
BRANCH   4   5
ATOM      5  C   UNL     1     -18.270  30.460  -1.536  1.00  0.00     0.041 C 
ATOM      6  O   UNL     1     -18.192  31.462  -0.778  1.00  0.00    -0.550 OA
ATOM      7  O   UNL     1     -18.442  30.642  -2.902  1.00  0.00    -0.550 OA
ENDBRANCH   4   5
ENDBRANCH   3   4
ENDBRANCH   2   3
ENDBRANCH   1   2
BRANCH   1   8
ATOM      8  C   UNL     1     -17.578  25.383   0.184  1.00  0.00     0.000 C 
BRANCH   8   9
ATOM      9  C   UNL     1     -18.936  24.989   0.785  1.00  0.00     0.000 C 
BRANCH   9  10
ATOM     10  C   UNL     1     -19.640  23.883  -0.017  1.00  0.00     0.006 C 
BRANCH  10  11
ATOM     11  C   UNL     1     -18.865  23.484  -1.280  1.00  0.00     0.053 C 
BRANCH  11  12
ATOM     12  C   UNL     1     -18.761  21.996  -1.380  1.00  0.00     0.041 C 
ATOM     13  O   UNL     1     -17.690  21.412  -1.068  1.00  0.00    -0.550 OA
ATOM     14  O   UNL     1     -19.831  21.255  -1.867  1.00  0.00    -0.550 OA
ENDBRANCH  11  12
ENDBRANCH  10  11
ENDBRANCH   9  10
ENDBRANCH   8   9
ENDBRANCH   1   8
TORSDOF 9
ENDMDL
MODEL 5
REMARK VINA RESULT:    -5.085      1.926      7.721
REMARK INTER + INTRA:          -8.199
REMARK INTER:                  -7.831
REMARK INTRA:                  -0.368
REMARK UNBOUND:                -0.438
REMARK SMILES O=C([O-])CCCCCCCCC(=O)[O-]
REMARK SMILES IDX 7 1 6 2 5 3 4 4 2 5 1 6 3 7 8 8 9 9 10 10 11 11 12 12 13 13
REMARK SMILES IDX 14 14
REMARK H PARENT
REMARK Flexibility Score: inf
ROOT
ATOM      1  C   UNL     1     -16.940  26.350   1.260  1.00  0.00     0.000 C 
ENDROOT
BRANCH   1   2
ATOM      2  C   UNL     1     -16.511  27.236   0.081  1.00  0.00     0.000 C 
BRANCH   2   3
ATOM      3  C   UNL     1     -16.339  28.710   0.480  1.00  0.00     0.006 C 
BRANCH   3   4
ATOM      4  C   UNL     1     -16.168  28.898   1.993  1.00  0.00     0.053 C 
BRANCH   4   5
ATOM      5  C   UNL     1     -15.531  30.219   2.287  1.00  0.00     0.041 C 
ATOM      6  O   UNL     1     -15.014  30.436   3.414  1.00  0.00    -0.550 OA
ATOM      7  O   UNL     1     -15.465  31.194   1.300  1.00  0.00    -0.550 OA
ENDBRANCH   4   5
ENDBRANCH   3   4
ENDBRANCH   2   3
ENDBRANCH   1   2
BRANCH   1   8
ATOM      8  C   UNL     1     -18.136  25.470   0.879  1.00  0.00     0.000 C 
BRANCH   8   9
ATOM      9  C   UNL     1     -18.018  24.978  -0.572  1.00  0.00     0.000 C 
BRANCH   9  10
ATOM     10  C   UNL     1     -18.748  23.646  -0.806  1.00  0.00     0.006 C 
BRANCH  10  11
ATOM     11  C   UNL     1     -20.158  23.630  -0.200  1.00  0.00     0.053 C 
BRANCH  11  12
ATOM     12  C   UNL     1     -21.091  22.848  -1.070  1.00  0.00     0.041 C 
ATOM     13  O   UNL     1     -20.657  22.256  -2.093  1.00  0.00    -0.550 OA
ATOM     14  O   UNL     1     -22.449  22.813  -0.779  1.00  0.00    -0.550 OA
ENDBRANCH  11  12
ENDBRANCH  10  11
ENDBRANCH   9  10
ENDBRANCH   8   9
ENDBRANCH   1   8
TORSDOF 9
ENDMDL
MODEL 6
REMARK VINA RESULT:    -5.048      2.412      3.264
REMARK INTER + INTRA:          -8.142
REMARK INTER:                  -7.734
REMARK INTRA:                  -0.408
REMARK UNBOUND:                -0.438
REMARK SMILES O=C([O-])CCCCCCCCC(=O)[O-]
REMARK SMILES IDX 7 1 6 2 5 3 4 4 2 5 1 6 3 7 8 8 9 9 10 10 11 11 12 12 13 13
REMARK SMILES IDX 14 14
REMARK H PARENT
REMARK Flexibility Score: inf
ROOT
ATOM      1  C   UNL     1     -17.416  25.369   0.401  1.00  0.00     0.000 C 
ENDROOT
BRANCH   1   2
ATOM      2  C   UNL     1     -18.914  25.222   0.709  1.00  0.00     0.000 C 
BRANCH   2   3
ATOM      3  C   UNL     1     -19.528  23.964   0.075  1.00  0.00     0.006 C 
BRANCH   3   4
ATOM      4  C   UNL     1     -18.839  23.567  -1.237  1.00  0.00     0.053 C 
BRANCH   4   5
ATOM      5  C   UNL     1     -19.099  22.127  -1.548  1.00  0.00     0.041 C 
ATOM      6  O   UNL     1     -20.154  21.788  -2.144  1.00  0.00    -0.550 OA
ATOM      7  O   UNL     1     -18.153  21.163  -1.223  1.00  0.00    -0.550 OA
ENDBRANCH   4   5
ENDBRANCH   3   4
ENDBRANCH   2   3
ENDBRANCH   1   2
BRANCH   1   8
ATOM      8  C   UNL     1     -16.837  26.619   1.074  1.00  0.00     0.000 C 
BRANCH   8   9
ATOM      9  C   UNL     1     -16.051  27.473   0.066  1.00  0.00     0.000 C 
BRANCH   9  10
ATOM     10  C   UNL     1     -16.743  28.809  -0.244  1.00  0.00     0.006 C 
BRANCH  10  11
ATOM     11  C   UNL     1     -18.140  28.626  -0.851  1.00  0.00     0.053 C 
BRANCH  11  12
ATOM     12  C   UNL     1     -18.575  29.875  -1.548  1.00  0.00     0.041 C 
ATOM     13  O   UNL     1     -19.238  29.808  -2.616  1.00  0.00    -0.550 OA
ATOM     14  O   UNL     1     -18.208  31.117  -1.044  1.00  0.00    -0.550 OA
ENDBRANCH  11  12
ENDBRANCH  10  11
ENDBRANCH   9  10
ENDBRANCH   8   9
ENDBRANCH   1   8
TORSDOF 9
ENDMDL
MODEL 7
REMARK VINA RESULT:    -5.046      1.952      7.969
REMARK INTER + INTRA:          -8.138
REMARK INTER:                  -7.825
REMARK INTRA:                  -0.314
REMARK UNBOUND:                -0.438
REMARK SMILES O=C([O-])CCCCCCCCC(=O)[O-]
REMARK SMILES IDX 7 1 6 2 5 3 4 4 2 5 1 6 3 7 8 8 9 9 10 10 11 11 12 12 13 13
REMARK SMILES IDX 14 14
REMARK H PARENT
REMARK Flexibility Score: inf
ROOT
ATOM      1  C   UNL     1     -17.045  26.415   0.699  1.00  0.00     0.000 C 
ENDROOT
BRANCH   1   2
ATOM      2  C   UNL     1     -16.245  27.355  -0.215  1.00  0.00     0.000 C 
BRANCH   2   3
ATOM      3  C   UNL     1     -16.293  28.818   0.252  1.00  0.00     0.006 C 
BRANCH   3   4
ATOM      4  C   UNL     1     -16.219  28.953   1.779  1.00  0.00     0.053 C 
BRANCH   4   5
ATOM      5  C   UNL     1     -15.566  30.245   2.157  1.00  0.00     0.041 C 
ATOM      6  O   UNL     1     -15.486  31.183   1.322  1.00  0.00    -0.550 OA
ATOM      7  O   UNL     1     -15.089  30.431   3.448  1.00  0.00    -0.550 OA
ENDBRANCH   4   5
ENDBRANCH   3   4
ENDBRANCH   2   3
ENDBRANCH   1   2
BRANCH   1   8
ATOM      8  C   UNL     1     -17.754  25.327  -0.117  1.00  0.00     0.000 C 
BRANCH   8   9
ATOM      9  C   UNL     1     -18.883  24.676   0.698  1.00  0.00     0.000 C 
BRANCH   9  10
ATOM     10  C   UNL     1     -19.590  23.547  -0.068  1.00  0.00     0.006 C 
BRANCH  10  11
ATOM     11  C   UNL     1     -18.806  23.090  -1.305  1.00  0.00     0.053 C 
BRANCH  11  12
ATOM     12  C   UNL     1     -18.718  21.597  -1.345  1.00  0.00     0.041 C 
ATOM     13  O   UNL     1     -18.482  20.947  -0.293  1.00  0.00    -0.550 OA
ATOM     14  O   UNL     1     -18.848  20.925  -2.554  1.00  0.00    -0.550 OA
ENDBRANCH  11  12
ENDBRANCH  10  11
ENDBRANCH   9  10
ENDBRANCH   8   9
ENDBRANCH   1   8
TORSDOF 9
ENDMDL
MODEL 8
REMARK VINA RESULT:    -5.039      1.837      2.669
REMARK INTER + INTRA:          -8.129
REMARK INTER:                  -7.761
REMARK INTRA:                  -0.367
REMARK UNBOUND:                -0.438
REMARK SMILES O=C([O-])CCCCCCCCC(=O)[O-]
REMARK SMILES IDX 7 1 6 2 5 3 4 4 2 5 1 6 3 7 8 8 9 9 10 10 11 11 12 12 13 13
REMARK SMILES IDX 14 14
REMARK H PARENT
REMARK Flexibility Score: inf
ROOT
ATOM      1  C   UNL     1     -17.763  25.664   1.227  1.00  0.00     0.000 C 
ENDROOT
BRANCH   1   2
ATOM      2  C   UNL     1     -17.873  25.146  -0.215  1.00  0.00     0.000 C 
BRANCH   2   3
ATOM      3  C   UNL     1     -18.917  24.029  -0.366  1.00  0.00     0.006 C 
BRANCH   3   4
ATOM      4  C   UNL     1     -18.921  23.408  -1.769  1.00  0.00     0.053 C 
BRANCH   4   5
ATOM      5  C   UNL     1     -19.870  22.253  -1.826  1.00  0.00     0.041 C 
ATOM      6  O   UNL     1     -21.090  22.422  -1.566  1.00  0.00    -0.550 OA
ATOM      7  O   UNL     1     -19.417  20.999  -2.215  1.00  0.00    -0.550 OA
ENDBRANCH   4   5
ENDBRANCH   3   4
ENDBRANCH   2   3
ENDBRANCH   1   2
BRANCH   1   8
ATOM      8  C   UNL     1     -16.505  26.521   1.409  1.00  0.00     0.000 C 
BRANCH   8   9
ATOM      9  C   UNL     1     -16.157  27.270   0.113  1.00  0.00     0.000 C 
BRANCH   9  10
ATOM     10  C   UNL     1     -16.321  28.792   0.248  1.00  0.00     0.006 C 
BRANCH  10  11
ATOM     11  C   UNL     1     -16.276  29.265   1.707  1.00  0.00     0.053 C 
BRANCH  11  12
ATOM     12  C   UNL     1     -15.550  30.569   1.811  1.00  0.00     0.041 C 
ATOM     13  O   UNL     1     -14.301  30.613   1.660  1.00  0.00    -0.550 OA
ATOM     14  O   UNL     1     -16.246  31.730   2.125  1.00  0.00    -0.550 OA
ENDBRANCH  11  12
ENDBRANCH  10  11
ENDBRANCH   9  10
ENDBRANCH   8   9
ENDBRANCH   1   8
TORSDOF 9
ENDMDL
MODEL 9
REMARK VINA RESULT:    -4.914      2.073      7.577
REMARK INTER + INTRA:          -7.938
REMARK INTER:                  -7.615
REMARK INTRA:                  -0.323
REMARK UNBOUND:                -0.438
REMARK SMILES O=C([O-])CCCCCCCCC(=O)[O-]
REMARK SMILES IDX 7 1 6 2 5 3 4 4 2 5 1 6 3 7 8 8 9 9 10 10 11 11 12 12 13 13
REMARK SMILES IDX 14 14
REMARK H PARENT
REMARK Flexibility Score: inf
ROOT
ATOM      1  C   UNL     1     -16.585  27.254  -0.242  1.00  0.00     0.000 C 
ENDROOT
BRANCH   1   2
ATOM      2  C   UNL     1     -16.386  28.710   0.204  1.00  0.00     0.000 C 
BRANCH   2   3
ATOM      3  C   UNL     1     -16.194  28.844   1.723  1.00  0.00     0.006 C 
BRANCH   3   4
ATOM      4  C   UNL     1     -15.735  30.247   2.140  1.00  0.00     0.053 C 
BRANCH   4   5
ATOM      5  C   UNL     1     -16.173  30.545   3.538  1.00  0.00     0.041 C 
ATOM      6  O   UNL     1     -16.014  31.698   4.020  1.00  0.00    -0.550 OA
ATOM      7  O   UNL     1     -16.801  29.565   4.295  1.00  0.00    -0.550 OA
ENDBRANCH   4   5
ENDBRANCH   3   4
ENDBRANCH   2   3
ENDBRANCH   1   2
BRANCH   1   8
ATOM      8  C   UNL     1     -16.765  26.329   0.967  1.00  0.00     0.000 C 
BRANCH   8   9
ATOM      9  C   UNL     1     -18.095  25.563   0.881  1.00  0.00     0.000 C 
BRANCH   9  10
ATOM     10  C   UNL     1     -18.128  24.565  -0.287  1.00  0.00     0.006 C 
BRANCH  10  11
ATOM     11  C   UNL     1     -19.262  23.538  -0.155  1.00  0.00     0.053 C 
BRANCH  11  12
ATOM     12  C   UNL     1     -19.090  22.439  -1.155  1.00  0.00     0.041 C 
ATOM     13  O   UNL     1     -19.912  22.306  -2.099  1.00  0.00    -0.550 OA
ATOM     14  O   UNL     1     -18.048  21.530  -1.016  1.00  0.00    -0.550 OA
ENDBRANCH  11  12
ENDBRANCH  10  11
ENDBRANCH   9  10
ENDBRANCH   8   9
ENDBRANCH   1   8
TORSDOF 9
ENDMDL
