MODEL 1
REMARK VINA RESULT:    -4.306      0.000      0.000
REMARK INTER + INTRA:         -16.667
REMARK INTER:                 -11.356
REMARK INTRA:                  -5.311
REMARK UNBOUND:                -5.311
REMARK SMILES CCCCCCCCCCCCCCCCCCCCCCCCCCCCCC(=O)[O-]
REMARK SMILES IDX 16 1 17 2 18 3 19 4 20 5 21 6 22 7 23 8 24 9 25 10 26 11
REMARK SMILES IDX 27 12 28 13 29 14 30 15 31 16 32 17 15 18 14 19 13 20 12 21
REMARK SMILES IDX 11 22 10 23 9 24 8 25 7 26 6 27 5 28 4 29 3 30 2 31 1 32
REMARK H PARENT
REMARK Flexibility Score: inf
ROOT
ATOM      1  C   UNL     1       7.655  -6.227 -35.045  1.00  0.00     0.000 C 
ENDROOT
BRANCH   1   2
ATOM      2  C   UNL     1       7.840  -7.511 -35.874  1.00  0.00     0.000 C 
BRANCH   2   3
ATOM      3  C   UNL     1       6.828  -7.627 -37.027  1.00  0.00     0.000 C 
BRANCH   3   4
ATOM      4  C   UNL     1       6.235  -6.268 -37.445  1.00  0.00     0.000 C 
BRANCH   4   5
ATOM      5  C   UNL     1       4.752  -6.295 -37.871  1.00  0.00     0.000 C 
BRANCH   5   6
ATOM      6  C   UNL     1       3.832  -5.331 -37.100  1.00  0.00     0.000 C 
BRANCH   6   7
ATOM      7  C   UNL     1       4.560  -4.586 -35.968  1.00  0.00     0.000 C 
BRANCH   7   8
ATOM      8  C   UNL     1       4.674  -3.072 -36.243  1.00  0.00     0.000 C 
BRANCH   8   9
ATOM      9  C   UNL     1       5.530  -2.724 -37.473  1.00  0.00     0.000 C 
BRANCH   9  10
ATOM     10  C   UNL     1       6.836  -2.001 -37.112  1.00  0.00     0.000 C 
BRANCH  10  11
ATOM     11  C   UNL     1       7.809  -2.880 -36.305  1.00  0.00     0.000 C 
BRANCH  11  12
ATOM     12  C   UNL     1       8.037  -2.394 -34.858  1.00  0.00     0.000 C 
BRANCH  12  13
ATOM     13  C   UNL     1       9.531  -2.265 -34.513  1.00  0.00     0.006 C 
BRANCH  13  14
ATOM     14  C   UNL     1      10.334  -1.620 -35.650  1.00  0.00     0.053 C 
BRANCH  14  15
ATOM     15  C   UNL     1      11.619  -1.029 -35.154  1.00  0.00     0.041 C 
ATOM     16  O   UNL     1      12.275  -1.604 -34.247  1.00  0.00    -0.550 OA
ATOM     17  O   UNL     1      12.108   0.143 -35.721  1.00  0.00    -0.550 OA
ENDBRANCH  14  15
ENDBRANCH  13  14
ENDBRANCH  12  13
ENDBRANCH  11  12
ENDBRANCH  10  11
ENDBRANCH   9  10
ENDBRANCH   8   9
ENDBRANCH   7   8
ENDBRANCH   6   7
ENDBRANCH   5   6
ENDBRANCH   4   5
ENDBRANCH   3   4
ENDBRANCH   2   3
ENDBRANCH   1   2
BRANCH   1  18
ATOM     18  C   UNL     1       8.749  -5.965 -33.989  1.00  0.00     0.000 C 
BRANCH  18  19
ATOM     19  C   UNL     1       8.239  -5.795 -32.545  1.00  0.00     0.000 C 
BRANCH  19  20
ATOM     20  C   UNL     1       6.712  -5.642 -32.411  1.00  0.00     0.000 C 
BRANCH  20  21
ATOM     21  C   UNL     1       6.019  -6.949 -31.990  1.00  0.00     0.000 C 
BRANCH  21  22
ATOM     22  C   UNL     1       4.745  -7.229 -32.802  1.00  0.00     0.000 C 
BRANCH  22  23
ATOM     23  C   UNL     1       4.927  -8.376 -33.811  1.00  0.00     0.000 C 
BRANCH  23  24
ATOM     24  C   UNL     1       3.891  -8.340 -34.950  1.00  0.00    -0.000 C 
BRANCH  24  25
ATOM     25  C   UNL     1       3.774  -9.645 -35.759  1.00  0.00    -0.000 C 
BRANCH  25  26
ATOM     26  C   UNL     1       2.700 -10.595 -35.209  1.00  0.00    -0.000 C 
BRANCH  26  27
ATOM     27  C   UNL     1       1.696  -9.841 -34.327  1.00  0.00    -0.000 C 
BRANCH  27  28
ATOM     28  C   UNL     1       1.690 -10.403 -32.898  1.00  0.00    -0.000 C 
BRANCH  28  29
ATOM     29  C   UNL     1       2.715 -11.540 -32.707  1.00  0.00    -0.000 C 
BRANCH  29  30
ATOM     30  C   UNL     1       3.672 -11.326 -31.519  1.00  0.00    -0.000 C 
BRANCH  30  31
ATOM     31  C   UNL     1       5.161 -11.527 -31.868  1.00  0.00    -0.003 C 
ATOM     32  C   UNL     1       6.086 -10.632 -31.042  1.00  0.00     0.004 C 
ENDBRANCH  30  31
ENDBRANCH  29  30
ENDBRANCH  28  29
ENDBRANCH  27  28
ENDBRANCH  26  27
ENDBRANCH  25  26
ENDBRANCH  24  25
ENDBRANCH  23  24
ENDBRANCH  22  23
ENDBRANCH  21  22
ENDBRANCH  20  21
ENDBRANCH  19  20
ENDBRANCH  18  19
ENDBRANCH   1  18
TORSDOF 28
ENDMDL
MODEL 2
REMARK VINA RESULT:    -4.236     10.293     14.681
REMARK INTER + INTRA:         -16.481
REMARK INTER:                 -13.604
REMARK INTRA:                  -2.877
REMARK UNBOUND:                -5.311
REMARK SMILES CCCCCCCCCCCCCCCCCCCCCCCCCCCCCC(=O)[O-]
REMARK SMILES IDX 16 1 17 2 18 3 19 4 20 5 21 6 22 7 23 8 24 9 25 10 26 11
REMARK SMILES IDX 27 12 28 13 29 14 30 15 31 16 32 17 15 18 14 19 13 20 12 21
REMARK SMILES IDX 11 22 10 23 9 24 8 25 7 26 6 27 5 28 4 29 3 30 2 31 1 32
REMARK H PARENT
REMARK Flexibility Score: inf
ROOT
ATOM      1  C   UNL     1      11.305 -11.751 -25.249  1.00  0.00     0.000 C 
ENDROOT
BRANCH   1   2
ATOM      2  C   UNL     1      10.312 -10.686 -25.749  1.00  0.00     0.000 C 
BRANCH   2   3
ATOM      3  C   UNL     1       8.856 -11.002 -25.365  1.00  0.00     0.000 C 
BRANCH   3   4
ATOM      4  C   UNL     1       8.746 -12.018 -24.212  1.00  0.00     0.000 C 
BRANCH   4   5
ATOM      5  C   UNL     1       7.963 -13.307 -24.538  1.00  0.00     0.000 C 
BRANCH   5   6
ATOM      6  C   UNL     1       7.470 -14.100 -23.314  1.00  0.00     0.000 C 
BRANCH   6   7
ATOM      7  C   UNL     1       6.602 -13.257 -22.364  1.00  0.00     0.000 C 
BRANCH   7   8
ATOM      8  C   UNL     1       6.094 -14.073 -21.157  1.00  0.00     0.000 C 
BRANCH   8   9
ATOM      9  C   UNL     1       5.193 -13.274 -20.199  1.00  0.00     0.000 C 
BRANCH   9  10
ATOM     10  C   UNL     1       4.622 -11.998 -20.835  1.00  0.00     0.000 C 
BRANCH  10  11
ATOM     11  C   UNL     1       3.083 -11.968 -20.850  1.00  0.00     0.000 C 
BRANCH  11  12
ATOM     12  C   UNL     1       2.470 -12.042 -22.265  1.00  0.00     0.000 C 
BRANCH  12  13
ATOM     13  C   UNL     1       2.470 -13.475 -22.827  1.00  0.00     0.006 C 
BRANCH  13  14
ATOM     14  C   UNL     1       1.931 -13.534 -24.262  1.00  0.00     0.053 C 
BRANCH  14  15
ATOM     15  C   UNL     1       3.016 -13.306 -25.270  1.00  0.00     0.041 C 
ATOM     16  O   UNL     1       4.222 -13.266 -24.909  1.00  0.00    -0.550 OA
ATOM     17  O   UNL     1       2.696 -13.170 -26.616  1.00  0.00    -0.550 OA
ENDBRANCH  14  15
ENDBRANCH  13  14
ENDBRANCH  12  13
ENDBRANCH  11  12
ENDBRANCH  10  11
ENDBRANCH   9  10
ENDBRANCH   8   9
ENDBRANCH   7   8
ENDBRANCH   6   7
ENDBRANCH   5   6
ENDBRANCH   4   5
ENDBRANCH   3   4
ENDBRANCH   2   3
ENDBRANCH   1   2
BRANCH   1  18
ATOM     18  C   UNL     1      12.527 -11.987 -26.161  1.00  0.00     0.000 C 
BRANCH  18  19
ATOM     19  C   UNL     1      12.536 -13.335 -26.908  1.00  0.00     0.000 C 
BRANCH  19  20
ATOM     20  C   UNL     1      11.191 -13.733 -27.544  1.00  0.00     0.000 C 
BRANCH  20  21
ATOM     21  C   UNL     1      11.086 -13.313 -29.021  1.00  0.00     0.000 C 
BRANCH  21  22
ATOM     22  C   UNL     1      10.430 -11.935 -29.197  1.00  0.00     0.000 C 
BRANCH  22  23
ATOM     23  C   UNL     1      11.460 -10.813 -29.414  1.00  0.00     0.000 C 
BRANCH  23  24
ATOM     24  C   UNL     1      12.571 -11.206 -30.405  1.00  0.00    -0.000 C 
BRANCH  24  25
ATOM     25  C   UNL     1      13.995 -11.190 -29.818  1.00  0.00    -0.000 C 
BRANCH  25  26
ATOM     26  C   UNL     1      14.965 -12.106 -30.578  1.00  0.00    -0.000 C 
BRANCH  26  27
ATOM     27  C   UNL     1      14.669 -12.097 -32.083  1.00  0.00    -0.000 C 
BRANCH  27  28
ATOM     28  C   UNL     1      15.709 -12.924 -32.852  1.00  0.00    -0.000 C 
BRANCH  28  29
ATOM     29  C   UNL     1      17.088 -12.236 -32.906  1.00  0.00    -0.000 C 
BRANCH  29  30
ATOM     30  C   UNL     1      17.443 -11.653 -34.286  1.00  0.00    -0.000 C 
BRANCH  30  31
ATOM     31  C   UNL     1      18.546 -10.575 -34.248  1.00  0.00    -0.003 C 
ATOM     32  C   UNL     1      19.692 -10.938 -33.302  1.00  0.00     0.004 C 
ENDBRANCH  30  31
ENDBRANCH  29  30
ENDBRANCH  28  29
ENDBRANCH  27  28
ENDBRANCH  26  27
ENDBRANCH  25  26
ENDBRANCH  24  25
ENDBRANCH  23  24
ENDBRANCH  22  23
ENDBRANCH  21  22
ENDBRANCH  20  21
ENDBRANCH  19  20
ENDBRANCH  18  19
ENDBRANCH   1  18
TORSDOF 28
ENDMDL
MODEL 3
REMARK VINA RESULT:    -4.130     10.596     15.059
REMARK INTER + INTRA:         -16.201
REMARK INTER:                 -13.394
REMARK INTRA:                  -2.807
REMARK UNBOUND:                -5.311
REMARK SMILES CCCCCCCCCCCCCCCCCCCCCCCCCCCCCC(=O)[O-]
REMARK SMILES IDX 16 1 17 2 18 3 19 4 20 5 21 6 22 7 23 8 24 9 25 10 26 11
REMARK SMILES IDX 27 12 28 13 29 14 30 15 31 16 32 17 15 18 14 19 13 20 12 21
REMARK SMILES IDX 11 22 10 23 9 24 8 25 7 26 6 27 5 28 4 29 3 30 2 31 1 32
REMARK H PARENT
REMARK Flexibility Score: inf
ROOT
ATOM      1  C   UNL     1      10.798 -12.372 -28.084  1.00  0.00     0.000 C 
ENDROOT
BRANCH   1   2
ATOM      2  C   UNL     1      11.754 -11.803 -27.020  1.00  0.00     0.000 C 
BRANCH   2   3
ATOM      3  C   UNL     1      11.081 -11.628 -25.648  1.00  0.00     0.000 C 
BRANCH   3   4
ATOM      4  C   UNL     1       9.911 -10.626 -25.675  1.00  0.00     0.000 C 
BRANCH   4   5
ATOM      5  C   UNL     1       8.616 -11.100 -24.983  1.00  0.00     0.000 C 
BRANCH   5   6
ATOM      6  C   UNL     1       7.777 -12.110 -25.786  1.00  0.00     0.000 C 
BRANCH   6   7
ATOM      7  C   UNL     1       7.575 -13.443 -25.044  1.00  0.00     0.000 C 
BRANCH   7   8
ATOM      8  C   UNL     1       8.096 -13.390 -23.593  1.00  0.00     0.000 C 
BRANCH   8   9
ATOM      9  C   UNL     1       7.076 -13.867 -22.545  1.00  0.00     0.000 C 
BRANCH   9  10
ATOM     10  C   UNL     1       5.862 -12.934 -22.419  1.00  0.00     0.000 C 
BRANCH  10  11
ATOM     11  C   UNL     1       5.258 -12.919 -21.003  1.00  0.00     0.000 C 
BRANCH  11  12
ATOM     12  C   UNL     1       4.281 -11.751 -20.753  1.00  0.00     0.000 C 
BRANCH  12  13
ATOM     13  C   UNL     1       2.810 -12.179 -20.893  1.00  0.00     0.006 C 
BRANCH  13  14
ATOM     14  C   UNL     1       2.226 -11.806 -22.262  1.00  0.00     0.053 C 
BRANCH  14  15
ATOM     15  C   UNL     1       2.098 -13.003 -23.154  1.00  0.00     0.041 C 
ATOM     16  O   UNL     1       1.643 -12.880 -24.322  1.00  0.00    -0.550 OA
ATOM     17  O   UNL     1       2.514 -14.251 -22.705  1.00  0.00    -0.550 OA
ENDBRANCH  14  15
ENDBRANCH  13  14
ENDBRANCH  12  13
ENDBRANCH  11  12
ENDBRANCH  10  11
ENDBRANCH   9  10
ENDBRANCH   8   9
ENDBRANCH   7   8
ENDBRANCH   6   7
ENDBRANCH   5   6
ENDBRANCH   4   5
ENDBRANCH   3   4
ENDBRANCH   2   3
ENDBRANCH   1   2
BRANCH   1  18
ATOM     18  C   UNL     1      11.131 -11.983 -29.539  1.00  0.00     0.000 C 
BRANCH  18  19
ATOM     19  C   UNL     1      11.919 -10.668 -29.702  1.00  0.00     0.000 C 
BRANCH  19  20
ATOM     20  C   UNL     1      13.329 -10.828 -30.301  1.00  0.00     0.000 C 
BRANCH  20  21
ATOM     21  C   UNL     1      14.106 -12.004 -29.685  1.00  0.00     0.000 C 
BRANCH  21  22
ATOM     22  C   UNL     1      15.173 -12.568 -30.636  1.00  0.00     0.000 C 
BRANCH  22  23
ATOM     23  C   UNL     1      15.157 -11.886 -32.015  1.00  0.00     0.000 C 
BRANCH  23  24
ATOM     24  C   UNL     1      15.466 -12.860 -33.167  1.00  0.00    -0.000 C 
BRANCH  24  25
ATOM     25  C   UNL     1      16.929 -12.849 -33.648  1.00  0.00    -0.000 C 
BRANCH  25  26
ATOM     26  C   UNL     1      17.307 -11.556 -34.383  1.00  0.00    -0.000 C 
BRANCH  26  27
ATOM     27  C   UNL     1      18.579 -10.936 -33.791  1.00  0.00    -0.000 C 
BRANCH  27  28
ATOM     28  C   UNL     1      19.453 -12.008 -33.124  1.00  0.00    -0.000 C 
BRANCH  28  29
ATOM     29  C   UNL     1      20.457 -11.409 -32.119  1.00  0.00    -0.000 C 
BRANCH  29  30
ATOM     30  C   UNL     1      20.186 -11.800 -30.654  1.00  0.00    -0.000 C 
BRANCH  30  31
ATOM     31  C   UNL     1      18.780 -12.388 -30.411  1.00  0.00    -0.003 C 
ATOM     32  C   UNL     1      18.459 -12.551 -28.924  1.00  0.00     0.004 C 
ENDBRANCH  30  31
ENDBRANCH  29  30
ENDBRANCH  28  29
ENDBRANCH  27  28
ENDBRANCH  26  27
ENDBRANCH  25  26
ENDBRANCH  24  25
ENDBRANCH  23  24
ENDBRANCH  22  23
ENDBRANCH  21  22
ENDBRANCH  20  21
ENDBRANCH  19  20
ENDBRANCH  18  19
ENDBRANCH   1  18
TORSDOF 28
ENDMDL
MODEL 4
REMARK VINA RESULT:    -4.036     10.175     12.851
REMARK INTER + INTRA:         -15.955
REMARK INTER:                 -13.338
REMARK INTRA:                  -2.617
REMARK UNBOUND:                -5.311
REMARK SMILES CCCCCCCCCCCCCCCCCCCCCCCCCCCCCC(=O)[O-]
REMARK SMILES IDX 16 1 17 2 18 3 19 4 20 5 21 6 22 7 23 8 24 9 25 10 26 11
REMARK SMILES IDX 27 12 28 13 29 14 30 15 31 16 32 17 15 18 14 19 13 20 12 21
REMARK SMILES IDX 11 22 10 23 9 24 8 25 7 26 6 27 5 28 4 29 3 30 2 31 1 32
REMARK H PARENT
REMARK Flexibility Score: inf
ROOT
ATOM      1  C   UNL     1      13.806 -11.771 -31.186  1.00  0.00     0.000 C 
ENDROOT
BRANCH   1   2
ATOM      2  C   UNL     1      15.302 -12.132 -31.215  1.00  0.00     0.000 C 
BRANCH   2   3
ATOM      3  C   UNL     1      15.548 -13.638 -31.410  1.00  0.00     0.000 C 
BRANCH   3   4
ATOM      4  C   UNL     1      15.994 -13.993 -32.841  1.00  0.00     0.000 C 
BRANCH   4   5
ATOM      5  C   UNL     1      15.783 -12.887 -33.895  1.00  0.00     0.000 C 
BRANCH   5   6
ATOM      6  C   UNL     1      16.933 -12.716 -34.904  1.00  0.00     0.000 C 
BRANCH   6   7
ATOM      7  C   UNL     1      17.666 -11.372 -34.755  1.00  0.00     0.000 C 
BRANCH   7   8
ATOM      8  C   UNL     1      18.295 -11.201 -33.356  1.00  0.00     0.000 C 
BRANCH   8   9
ATOM      9  C   UNL     1      19.826 -11.354 -33.338  1.00  0.00     0.000 C 
BRANCH   9  10
ATOM     10  C   UNL     1      20.282 -12.804 -33.120  1.00  0.00     0.000 C 
BRANCH  10  11
ATOM     11  C   UNL     1      20.286 -13.218 -31.637  1.00  0.00     0.000 C 
BRANCH  11  12
ATOM     12  C   UNL     1      20.801 -12.120 -30.682  1.00  0.00     0.000 C 
BRANCH  12  13
ATOM     13  C   UNL     1      20.063 -12.127 -29.332  1.00  0.00     0.006 C 
BRANCH  13  14
ATOM     14  C   UNL     1      18.567 -12.428 -29.491  1.00  0.00     0.053 C 
BRANCH  14  15
ATOM     15  C   UNL     1      17.823 -12.234 -28.205  1.00  0.00     0.041 C 
ATOM     16  O   UNL     1      18.386 -11.685 -27.221  1.00  0.00    -0.550 OA
ATOM     17  O   UNL     1      16.494 -12.630 -28.104  1.00  0.00    -0.550 OA
ENDBRANCH  14  15
ENDBRANCH  13  14
ENDBRANCH  12  13
ENDBRANCH  11  12
ENDBRANCH  10  11
ENDBRANCH   9  10
ENDBRANCH   8   9
ENDBRANCH   7   8
ENDBRANCH   6   7
ENDBRANCH   5   6
ENDBRANCH   4   5
ENDBRANCH   3   4
ENDBRANCH   2   3
ENDBRANCH   1   2
BRANCH   1  18
ATOM     18  C   UNL     1      13.345 -10.989 -29.939  1.00  0.00     0.000 C 
BRANCH  18  19
ATOM     19  C   UNL     1      11.828 -10.730 -29.851  1.00  0.00     0.000 C 
BRANCH  19  20
ATOM     20  C   UNL     1      11.190 -11.074 -28.492  1.00  0.00     0.000 C 
BRANCH  20  21
ATOM     21  C   UNL     1      12.162 -11.799 -27.545  1.00  0.00     0.000 C 
BRANCH  21  22
ATOM     22  C   UNL     1      11.923 -11.444 -26.069  1.00  0.00     0.000 C 
BRANCH  22  23
ATOM     23  C   UNL     1      10.605 -10.681 -25.850  1.00  0.00     0.000 C 
BRANCH  23  24
ATOM     24  C   UNL     1       9.612 -11.449 -24.958  1.00  0.00    -0.000 C 
BRANCH  24  25
ATOM     25  C   UNL     1       8.200 -11.607 -25.552  1.00  0.00    -0.000 C 
BRANCH  25  26
ATOM     26  C   UNL     1       7.313 -12.559 -24.737  1.00  0.00    -0.000 C 
BRANCH  26  27
ATOM     27  C   UNL     1       7.863 -12.748 -23.318  1.00  0.00    -0.000 C 
BRANCH  27  28
ATOM     28  C   UNL     1       6.883 -13.552 -22.451  1.00  0.00    -0.000 C 
BRANCH  28  29
ATOM     29  C   UNL     1       5.428 -13.060 -22.594  1.00  0.00    -0.000 C 
BRANCH  29  30
ATOM     30  C   UNL     1       4.871 -12.380 -21.329  1.00  0.00    -0.000 C 
BRANCH  30  31
ATOM     31  C   UNL     1       3.365 -12.621 -21.099  1.00  0.00    -0.003 C 
ATOM     32  C   UNL     1       2.486 -11.625 -21.858  1.00  0.00     0.004 C 
ENDBRANCH  30  31
ENDBRANCH  29  30
ENDBRANCH  28  29
ENDBRANCH  27  28
ENDBRANCH  26  27
ENDBRANCH  25  26
ENDBRANCH  24  25
ENDBRANCH  23  24
ENDBRANCH  22  23
ENDBRANCH  21  22
ENDBRANCH  20  21
ENDBRANCH  19  20
ENDBRANCH  18  19
ENDBRANCH   1  18
TORSDOF 28
ENDMDL
MODEL 5
REMARK VINA RESULT:    -4.017      7.618     12.335
REMARK INTER + INTRA:         -15.904
REMARK INTER:                 -10.717
REMARK INTRA:                  -5.186
REMARK UNBOUND:                -5.311
REMARK SMILES CCCCCCCCCCCCCCCCCCCCCCCCCCCCCC(=O)[O-]
REMARK SMILES IDX 16 1 17 2 18 3 19 4 20 5 21 6 22 7 23 8 24 9 25 10 26 11
REMARK SMILES IDX 27 12 28 13 29 14 30 15 31 16 32 17 15 18 14 19 13 20 12 21
REMARK SMILES IDX 11 22 10 23 9 24 8 25 7 26 6 27 5 28 4 29 3 30 2 31 1 32
REMARK H PARENT
REMARK Flexibility Score: inf
ROOT
ATOM      1  C   UNL     1      11.578 -11.485 -27.100  1.00  0.00     0.000 C 
ENDROOT
BRANCH   1   2
ATOM      2  C   UNL     1      11.304 -11.115 -28.569  1.00  0.00     0.000 C 
BRANCH   2   3
ATOM      3  C   UNL     1      10.758 -12.297 -29.389  1.00  0.00     0.000 C 
BRANCH   3   4
ATOM      4  C   UNL     1       9.253 -12.539 -29.166  1.00  0.00     0.000 C 
BRANCH   4   5
ATOM      5  C   UNL     1       8.857 -13.992 -28.834  1.00  0.00     0.000 C 
BRANCH   5   6
ATOM      6  C   UNL     1       9.267 -14.478 -27.432  1.00  0.00     0.000 C 
BRANCH   6   7
ATOM      7  C   UNL     1       8.082 -15.027 -26.619  1.00  0.00     0.000 C 
BRANCH   7   8
ATOM      8  C   UNL     1       6.786 -15.104 -27.453  1.00  0.00     0.000 C 
BRANCH   8   9
ATOM      9  C   UNL     1       5.500 -14.957 -26.622  1.00  0.00     0.000 C 
BRANCH   9  10
ATOM     10  C   UNL     1       4.851 -13.571 -26.759  1.00  0.00     0.000 C 
BRANCH  10  11
ATOM     11  C   UNL     1       5.843 -12.482 -27.206  1.00  0.00     0.000 C 
BRANCH  11  12
ATOM     12  C   UNL     1       5.400 -11.714 -28.469  1.00  0.00     0.000 C 
BRANCH  12  13
ATOM     13  C   UNL     1       4.755 -12.637 -29.519  1.00  0.00     0.006 C 
BRANCH  13  14
ATOM     14  C   UNL     1       4.444 -11.898 -30.826  1.00  0.00     0.053 C 
BRANCH  14  15
ATOM     15  C   UNL     1       5.656 -11.210 -31.376  1.00  0.00     0.041 C 
ATOM     16  O   UNL     1       5.668  -9.960 -31.520  1.00  0.00    -0.550 OA
ATOM     17  O   UNL     1       6.788 -11.951 -31.698  1.00  0.00    -0.550 OA
ENDBRANCH  14  15
ENDBRANCH  13  14
ENDBRANCH  12  13
ENDBRANCH  11  12
ENDBRANCH  10  11
ENDBRANCH   9  10
ENDBRANCH   8   9
ENDBRANCH   7   8
ENDBRANCH   6   7
ENDBRANCH   5   6
ENDBRANCH   4   5
ENDBRANCH   3   4
ENDBRANCH   2   3
ENDBRANCH   1   2
BRANCH   1  18
ATOM     18  C   UNL     1      10.624 -10.842 -26.073  1.00  0.00     0.000 C 
BRANCH  18  19
ATOM     19  C   UNL     1      10.083 -11.798 -24.992  1.00  0.00     0.000 C 
BRANCH  19  20
ATOM     20  C   UNL     1       8.582 -11.641 -24.681  1.00  0.00     0.000 C 
BRANCH  20  21
ATOM     21  C   UNL     1       8.110 -12.570 -23.549  1.00  0.00     0.000 C 
BRANCH  21  22
ATOM     22  C   UNL     1       6.626 -12.947 -23.677  1.00  0.00     0.000 C 
BRANCH  22  23
ATOM     23  C   UNL     1       6.321 -14.347 -23.116  1.00  0.00     0.000 C 
BRANCH  23  24
ATOM     24  C   UNL     1       6.550 -14.445 -21.597  1.00  0.00    -0.000 C 
BRANCH  24  25
ATOM     25  C   UNL     1       5.290 -14.229 -20.738  1.00  0.00    -0.000 C 
BRANCH  25  26
ATOM     26  C   UNL     1       5.260 -12.853 -20.057  1.00  0.00    -0.000 C 
BRANCH  26  27
ATOM     27  C   UNL     1       4.476 -11.838 -20.897  1.00  0.00    -0.000 C 
BRANCH  27  28
ATOM     28  C   UNL     1       2.964 -12.086 -20.788  1.00  0.00    -0.000 C 
BRANCH  28  29
ATOM     29  C   UNL     1       2.254 -12.016 -22.155  1.00  0.00    -0.000 C 
BRANCH  29  30
ATOM     30  C   UNL     1       2.960 -12.813 -23.268  1.00  0.00    -0.000 C 
BRANCH  30  31
ATOM     31  C   UNL     1       2.492 -14.279 -23.383  1.00  0.00    -0.003 C 
ATOM     32  C   UNL     1       1.921 -14.609 -24.764  1.00  0.00     0.004 C 
ENDBRANCH  30  31
ENDBRANCH  29  30
ENDBRANCH  28  29
ENDBRANCH  27  28
ENDBRANCH  26  27
ENDBRANCH  25  26
ENDBRANCH  24  25
ENDBRANCH  23  24
ENDBRANCH  22  23
ENDBRANCH  21  22
ENDBRANCH  20  21
ENDBRANCH  19  20
ENDBRANCH  18  19
ENDBRANCH   1  18
TORSDOF 28
ENDMDL
MODEL 6
REMARK VINA RESULT:    -4.008     12.575     15.876
REMARK INTER + INTRA:         -15.879
REMARK INTER:                 -12.874
REMARK INTRA:                  -3.005
REMARK UNBOUND:                -5.311
REMARK SMILES CCCCCCCCCCCCCCCCCCCCCCCCCCCCCC(=O)[O-]
REMARK SMILES IDX 16 1 17 2 18 3 19 4 20 5 21 6 22 7 23 8 24 9 25 10 26 11
REMARK SMILES IDX 27 12 28 13 29 14 30 15 31 16 32 17 15 18 14 19 13 20 12 21
REMARK SMILES IDX 11 22 10 23 9 24 8 25 7 26 6 27 5 28 4 29 3 30 2 31 1 32
REMARK H PARENT
REMARK Flexibility Score: inf
ROOT
ATOM      1  C   UNL     1      16.248  -9.068 -23.792  1.00  0.00     0.000 C 
ENDROOT
BRANCH   1   2
ATOM      2  C   UNL     1      17.048  -8.695 -22.531  1.00  0.00     0.000 C 
BRANCH   2   3
ATOM      3  C   UNL     1      18.323  -9.539 -22.362  1.00  0.00     0.000 C 
BRANCH   3   4
ATOM      4  C   UNL     1      19.612  -8.697 -22.405  1.00  0.00     0.000 C 
BRANCH   4   5
ATOM      5  C   UNL     1      19.557  -7.362 -21.634  1.00  0.00     0.000 C 
BRANCH   5   6
ATOM      6  C   UNL     1      20.835  -6.508 -21.711  1.00  0.00     0.000 C 
BRANCH   6   7
ATOM      7  C   UNL     1      20.988  -5.549 -20.518  1.00  0.00     0.000 C 
BRANCH   7   8
ATOM      8  C   UNL     1      20.264  -6.066 -19.256  1.00  0.00     0.000 C 
BRANCH   8   9
ATOM      9  C   UNL     1      19.562  -4.963 -18.445  1.00  0.00     0.000 C 
BRANCH   9  10
ATOM     10  C   UNL     1      18.034  -4.982 -18.602  1.00  0.00     0.000 C 
BRANCH  10  11
ATOM     11  C   UNL     1      17.487  -6.360 -19.014  1.00  0.00     0.000 C 
BRANCH  11  12
ATOM     12  C   UNL     1      16.049  -6.320 -19.574  1.00  0.00     0.000 C 
BRANCH  12  13
ATOM     13  C   UNL     1      15.970  -5.594 -20.929  1.00  0.00     0.006 C 
BRANCH  13  14
ATOM     14  C   UNL     1      15.000  -4.406 -20.893  1.00  0.00     0.053 C 
BRANCH  14  15
ATOM     15  C   UNL     1      13.933  -4.531 -21.938  1.00  0.00     0.041 C 
ATOM     16  O   UNL     1      12.898  -5.212 -21.712  1.00  0.00    -0.550 OA
ATOM     17  O   UNL     1      14.068  -3.865 -23.151  1.00  0.00    -0.550 OA
ENDBRANCH  14  15
ENDBRANCH  13  14
ENDBRANCH  12  13
ENDBRANCH  11  12
ENDBRANCH  10  11
ENDBRANCH   9  10
ENDBRANCH   8   9
ENDBRANCH   7   8
ENDBRANCH   6   7
ENDBRANCH   5   6
ENDBRANCH   4   5
ENDBRANCH   3   4
ENDBRANCH   2   3
ENDBRANCH   1   2
BRANCH   1  18
ATOM     18  C   UNL     1      16.797 -10.273 -24.583  1.00  0.00     0.000 C 
BRANCH  18  19
ATOM     19  C   UNL     1      15.817 -11.451 -24.746  1.00  0.00     0.000 C 
BRANCH  19  20
ATOM     20  C   UNL     1      15.447 -11.790 -26.202  1.00  0.00     0.000 C 
BRANCH  20  21
ATOM     21  C   UNL     1      14.386 -12.899 -26.302  1.00  0.00     0.000 C 
BRANCH  21  22
ATOM     22  C   UNL     1      13.511 -12.994 -25.042  1.00  0.00     0.000 C 
BRANCH  22  23
ATOM     23  C   UNL     1      12.015 -12.802 -25.345  1.00  0.00     0.000 C 
BRANCH  23  24
ATOM     24  C   UNL     1      11.647 -11.334 -25.629  1.00  0.00    -0.000 C 
BRANCH  24  25
ATOM     25  C   UNL     1      10.796 -11.115 -26.894  1.00  0.00    -0.000 C 
BRANCH  25  26
ATOM     26  C   UNL     1      11.202 -12.036 -28.054  1.00  0.00    -0.000 C 
BRANCH  26  27
ATOM     27  C   UNL     1      10.946 -11.362 -29.409  1.00  0.00    -0.000 C 
BRANCH  27  28
ATOM     28  C   UNL     1      12.063 -10.364 -29.746  1.00  0.00    -0.000 C 
BRANCH  28  29
ATOM     29  C   UNL     1      13.162 -10.986 -30.631  1.00  0.00    -0.000 C 
BRANCH  29  30
ATOM     30  C   UNL     1      14.352 -11.561 -29.839  1.00  0.00    -0.000 C 
BRANCH  30  31
ATOM     31  C   UNL     1      15.232 -12.536 -30.648  1.00  0.00    -0.003 C 
ATOM     32  C   UNL     1      15.083 -12.351 -32.159  1.00  0.00     0.004 C 
ENDBRANCH  30  31
ENDBRANCH  29  30
ENDBRANCH  28  29
ENDBRANCH  27  28
ENDBRANCH  26  27
ENDBRANCH  25  26
ENDBRANCH  24  25
ENDBRANCH  23  24
ENDBRANCH  22  23
ENDBRANCH  21  22
ENDBRANCH  20  21
ENDBRANCH  19  20
ENDBRANCH  18  19
ENDBRANCH   1  18
TORSDOF 28
ENDMDL
MODEL 7
REMARK VINA RESULT:    -4.007      1.313      2.212
REMARK INTER + INTRA:         -15.878
REMARK INTER:                 -12.093
REMARK INTRA:                  -3.785
REMARK UNBOUND:                -5.311
REMARK SMILES CCCCCCCCCCCCCCCCCCCCCCCCCCCCCC(=O)[O-]
REMARK SMILES IDX 16 1 17 2 18 3 19 4 20 5 21 6 22 7 23 8 24 9 25 10 26 11
REMARK SMILES IDX 27 12 28 13 29 14 30 15 31 16 32 17 15 18 14 19 13 20 12 21
REMARK SMILES IDX 11 22 10 23 9 24 8 25 7 26 6 27 5 28 4 29 3 30 2 31 1 32
REMARK H PARENT
REMARK Flexibility Score: inf
ROOT
ATOM      1  C   UNL     1       8.351  -6.125 -32.973  1.00  0.00     0.000 C 
ENDROOT
BRANCH   1   2
ATOM      2  C   UNL     1       7.850  -5.716 -34.370  1.00  0.00     0.000 C 
BRANCH   2   3
ATOM      3  C   UNL     1       8.000  -6.839 -35.410  1.00  0.00     0.000 C 
BRANCH   3   4
ATOM      4  C   UNL     1       7.654  -6.384 -36.840  1.00  0.00     0.000 C 
BRANCH   4   5
ATOM      5  C   UNL     1       6.147  -6.288 -37.158  1.00  0.00     0.000 C 
BRANCH   5   6
ATOM      6  C   UNL     1       5.650  -4.886 -37.553  1.00  0.00     0.000 C 
BRANCH   6   7
ATOM      7  C   UNL     1       4.469  -4.405 -36.691  1.00  0.00     0.000 C 
BRANCH   7   8
ATOM      8  C   UNL     1       4.817  -3.144 -35.874  1.00  0.00     0.000 C 
BRANCH   8   9
ATOM      9  C   UNL     1       6.271  -2.671 -36.044  1.00  0.00     0.000 C 
BRANCH   9  10
ATOM     10  C   UNL     1       7.014  -2.520 -34.708  1.00  0.00     0.000 C 
BRANCH  10  11
ATOM     11  C   UNL     1       8.540  -2.409 -34.876  1.00  0.00     0.000 C 
BRANCH  11  12
ATOM     12  C   UNL     1       8.989  -2.104 -36.321  1.00  0.00     0.000 C 
BRANCH  12  13
ATOM     13  C   UNL     1      10.462  -1.662 -36.394  1.00  0.00     0.006 C 
BRANCH  13  14
ATOM     14  C   UNL     1      11.186  -1.836 -35.053  1.00  0.00     0.053 C 
BRANCH  14  15
ATOM     15  C   UNL     1      11.529  -0.515 -34.434  1.00  0.00     0.041 C 
ATOM     16  O   UNL     1      12.072   0.388 -35.123  1.00  0.00    -0.550 OA
ATOM     17  O   UNL     1      11.219  -0.271 -33.101  1.00  0.00    -0.550 OA
ENDBRANCH  14  15
ENDBRANCH  13  14
ENDBRANCH  12  13
ENDBRANCH  11  12
ENDBRANCH  10  11
ENDBRANCH   9  10
ENDBRANCH   8   9
ENDBRANCH   7   8
ENDBRANCH   6   7
ENDBRANCH   5   6
ENDBRANCH   4   5
ENDBRANCH   3   4
ENDBRANCH   2   3
ENDBRANCH   1   2
BRANCH   1  18
ATOM     18  C   UNL     1       7.394  -5.792 -31.810  1.00  0.00     0.000 C 
BRANCH  18  19
ATOM     19  C   UNL     1       6.362  -6.886 -31.476  1.00  0.00     0.000 C 
BRANCH  19  20
ATOM     20  C   UNL     1       5.150  -6.944 -32.425  1.00  0.00     0.000 C 
BRANCH  20  21
ATOM     21  C   UNL     1       4.942  -8.339 -33.039  1.00  0.00     0.000 C 
BRANCH  21  22
ATOM     22  C   UNL     1       4.790  -8.295 -34.567  1.00  0.00     0.000 C 
BRANCH  22  23
ATOM     23  C   UNL     1       3.498  -7.588 -35.013  1.00  0.00     0.000 C 
BRANCH  23  24
ATOM     24  C   UNL     1       2.465  -8.558 -35.616  1.00  0.00    -0.000 C 
BRANCH  24  25
ATOM     25  C   UNL     1       1.136  -8.648 -34.843  1.00  0.00    -0.000 C 
BRANCH  25  26
ATOM     26  C   UNL     1       1.299  -9.250 -33.440  1.00  0.00    -0.000 C 
BRANCH  26  27
ATOM     27  C   UNL     1       1.957 -10.634 -33.507  1.00  0.00    -0.000 C 
BRANCH  27  28
ATOM     28  C   UNL     1       2.468 -11.066 -32.125  1.00  0.00    -0.000 C 
BRANCH  28  29
ATOM     29  C   UNL     1       1.775 -12.345 -31.613  1.00  0.00    -0.000 C 
BRANCH  29  30
ATOM     30  C   UNL     1       2.025 -13.587 -32.489  1.00  0.00    -0.000 C 
BRANCH  30  31
ATOM     31  C   UNL     1       3.517 -13.906 -32.716  1.00  0.00    -0.003 C 
ATOM     32  C   UNL     1       3.844 -14.188 -34.183  1.00  0.00     0.004 C 
ENDBRANCH  30  31
ENDBRANCH  29  30
ENDBRANCH  28  29
ENDBRANCH  27  28
ENDBRANCH  26  27
ENDBRANCH  25  26
ENDBRANCH  24  25
ENDBRANCH  23  24
ENDBRANCH  22  23
ENDBRANCH  21  22
ENDBRANCH  20  21
ENDBRANCH  19  20
ENDBRANCH  18  19
ENDBRANCH   1  18
TORSDOF 28
ENDMDL
MODEL 8
REMARK VINA RESULT:    -4.003     10.622     14.318
REMARK INTER + INTRA:         -15.868
REMARK INTER:                 -11.864
REMARK INTRA:                  -4.003
REMARK UNBOUND:                -5.311
REMARK SMILES CCCCCCCCCCCCCCCCCCCCCCCCCCCCCC(=O)[O-]
REMARK SMILES IDX 16 1 17 2 18 3 19 4 20 5 21 6 22 7 23 8 24 9 25 10 26 11
REMARK SMILES IDX 27 12 28 13 29 14 30 15 31 16 32 17 15 18 14 19 13 20 12 21
REMARK SMILES IDX 11 22 10 23 9 24 8 25 7 26 6 27 5 28 4 29 3 30 2 31 1 32
REMARK H PARENT
REMARK Flexibility Score: inf
ROOT
ATOM      1  C   UNL     1      16.255 -15.022 -33.692  1.00  0.00     0.000 C 
ENDROOT
BRANCH   1   2
ATOM      2  C   UNL     1      15.713 -14.621 -32.308  1.00  0.00     0.000 C 
BRANCH   2   3
ATOM      3  C   UNL     1      16.776 -13.947 -31.424  1.00  0.00     0.000 C 
BRANCH   3   4
ATOM      4  C   UNL     1      16.266 -12.662 -30.745  1.00  0.00     0.000 C 
BRANCH   4   5
ATOM      5  C   UNL     1      14.776 -12.336 -30.978  1.00  0.00     0.000 C 
BRANCH   5   6
ATOM      6  C   UNL     1      14.190 -11.255 -30.052  1.00  0.00     0.000 C 
BRANCH   6   7
ATOM      7  C   UNL     1      12.876 -10.658 -30.586  1.00  0.00     0.000 C 
BRANCH   7   8
ATOM      8  C   UNL     1      11.778 -10.598 -29.503  1.00  0.00     0.000 C 
BRANCH   8   9
ATOM      9  C   UNL     1      11.080 -11.945 -29.248  1.00  0.00     0.000 C 
BRANCH   9  10
ATOM     10  C   UNL     1      10.924 -12.268 -27.755  1.00  0.00     0.000 C 
BRANCH  10  11
ATOM     11  C   UNL     1      10.965 -11.017 -26.860  1.00  0.00     0.000 C 
BRANCH  11  12
ATOM     12  C   UNL     1      10.540 -11.279 -25.399  1.00  0.00     0.000 C 
BRANCH  12  13
ATOM     13  C   UNL     1       9.012 -11.244 -25.220  1.00  0.00     0.006 C 
BRANCH  13  14
ATOM     14  C   UNL     1       8.398 -12.650 -25.209  1.00  0.00     0.053 C 
BRANCH  14  15
ATOM     15  C   UNL     1       7.253 -12.747 -24.247  1.00  0.00     0.041 C 
ATOM     16  O   UNL     1       7.469 -12.839 -23.010  1.00  0.00    -0.550 OA
ATOM     17  O   UNL     1       5.946 -12.700 -24.716  1.00  0.00    -0.550 OA
ENDBRANCH  14  15
ENDBRANCH  13  14
ENDBRANCH  12  13
ENDBRANCH  11  12
ENDBRANCH  10  11
ENDBRANCH   9  10
ENDBRANCH   8   9
ENDBRANCH   7   8
ENDBRANCH   6   7
ENDBRANCH   5   6
ENDBRANCH   4   5
ENDBRANCH   3   4
ENDBRANCH   2   3
ENDBRANCH   1   2
BRANCH   1  18
ATOM     18  C   UNL     1      17.203 -13.996 -34.347  1.00  0.00     0.000 C 
BRANCH  18  19
ATOM     19  C   UNL     1      16.509 -12.791 -35.011  1.00  0.00     0.000 C 
BRANCH  19  20
ATOM     20  C   UNL     1      17.305 -11.474 -34.956  1.00  0.00     0.000 C 
BRANCH  20  21
ATOM     21  C   UNL     1      18.034 -11.276 -33.616  1.00  0.00     0.000 C 
BRANCH  21  22
ATOM     22  C   UNL     1      19.432 -10.663 -33.791  1.00  0.00     0.000 C 
BRANCH  22  23
ATOM     23  C   UNL     1      20.321 -10.852 -32.549  1.00  0.00     0.000 C 
BRANCH  23  24
ATOM     24  C   UNL     1      19.791 -11.938 -31.595  1.00  0.00    -0.000 C 
BRANCH  24  25
ATOM     25  C   UNL     1      20.523 -12.025 -30.243  1.00  0.00    -0.000 C 
BRANCH  25  26
ATOM     26  C   UNL     1      19.750 -12.839 -29.196  1.00  0.00    -0.000 C 
BRANCH  26  27
ATOM     27  C   UNL     1      18.914 -11.923 -28.292  1.00  0.00    -0.000 C 
BRANCH  27  28
ATOM     28  C   UNL     1      18.402 -12.685 -27.061  1.00  0.00    -0.000 C 
BRANCH  28  29
ATOM     29  C   UNL     1      16.905 -12.433 -26.791  1.00  0.00    -0.000 C 
BRANCH  29  30
ATOM     30  C   UNL     1      15.969 -13.468 -27.442  1.00  0.00    -0.000 C 
BRANCH  30  31
ATOM     31  C   UNL     1      14.492 -13.335 -27.017  1.00  0.00    -0.003 C 
ATOM     32  C   UNL     1      14.271 -12.216 -25.998  1.00  0.00     0.004 C 
ENDBRANCH  30  31
ENDBRANCH  29  30
ENDBRANCH  28  29
ENDBRANCH  27  28
ENDBRANCH  26  27
ENDBRANCH  25  26
ENDBRANCH  24  25
ENDBRANCH  23  24
ENDBRANCH  22  23
ENDBRANCH  21  22
ENDBRANCH  20  21
ENDBRANCH  19  20
ENDBRANCH  18  19
ENDBRANCH   1  18
TORSDOF 28
ENDMDL
MODEL 9
REMARK VINA RESULT:    -3.978      4.722      9.869
REMARK INTER + INTRA:         -15.801
REMARK INTER:                 -12.308
REMARK INTRA:                  -3.492
REMARK UNBOUND:                -5.311
REMARK SMILES CCCCCCCCCCCCCCCCCCCCCCCCCCCCCC(=O)[O-]
REMARK SMILES IDX 16 1 17 2 18 3 19 4 20 5 21 6 22 7 23 8 24 9 25 10 26 11
REMARK SMILES IDX 27 12 28 13 29 14 30 15 31 16 32 17 15 18 14 19 13 20 12 21
REMARK SMILES IDX 11 22 10 23 9 24 8 25 7 26 6 27 5 28 4 29 3 30 2 31 1 32
REMARK H PARENT
REMARK Flexibility Score: inf
ROOT
ATOM      1  C   UNL     1       6.072 -11.560 -31.440  1.00  0.00     0.000 C 
ENDROOT
BRANCH   1   2
ATOM      2  C   UNL     1       6.260 -11.917 -29.955  1.00  0.00     0.000 C 
BRANCH   2   3
ATOM      3  C   UNL     1       7.253 -13.072 -29.741  1.00  0.00     0.000 C 
BRANCH   3   4
ATOM      4  C   UNL     1       8.261 -12.795 -28.609  1.00  0.00     0.000 C 
BRANCH   4   5
ATOM      5  C   UNL     1       8.472 -13.953 -27.612  1.00  0.00     0.000 C 
BRANCH   5   6
ATOM      6  C   UNL     1       7.992 -13.675 -26.176  1.00  0.00     0.000 C 
BRANCH   6   7
ATOM      7  C   UNL     1       7.262 -12.328 -26.039  1.00  0.00     0.000 C 
BRANCH   7   8
ATOM      8  C   UNL     1       8.158 -11.238 -25.414  1.00  0.00     0.000 C 
BRANCH   8   9
ATOM      9  C   UNL     1       9.289 -11.791 -24.531  1.00  0.00     0.000 C 
BRANCH   9  10
ATOM     10  C   UNL     1      10.684 -11.573 -25.133  1.00  0.00     0.000 C 
BRANCH  10  11
ATOM     11  C   UNL     1      10.648 -10.852 -26.493  1.00  0.00     0.000 C 
BRANCH  11  12
ATOM     12  C   UNL     1      11.647 -11.414 -27.526  1.00  0.00     0.000 C 
BRANCH  12  13
ATOM     13  C   UNL     1      11.333 -10.945 -28.958  1.00  0.00     0.006 C 
BRANCH  13  14
ATOM     14  C   UNL     1      11.855 -11.927 -30.016  1.00  0.00     0.053 C 
BRANCH  14  15
ATOM     15  C   UNL     1      13.177 -11.491 -30.571  1.00  0.00     0.041 C 
ATOM     16  O   UNL     1      13.578 -10.309 -30.405  1.00  0.00    -0.550 OA
ATOM     17  O   UNL     1      13.982 -12.404 -31.243  1.00  0.00    -0.550 OA
ENDBRANCH  14  15
ENDBRANCH  13  14
ENDBRANCH  12  13
ENDBRANCH  11  12
ENDBRANCH  10  11
ENDBRANCH   9  10
ENDBRANCH   8   9
ENDBRANCH   7   8
ENDBRANCH   6   7
ENDBRANCH   5   6
ENDBRANCH   4   5
ENDBRANCH   3   4
ENDBRANCH   2   3
ENDBRANCH   1   2
BRANCH   1  18
ATOM     18  C   UNL     1       4.720 -10.904 -31.791  1.00  0.00     0.000 C 
BRANCH  18  19
ATOM     19  C   UNL     1       3.475 -11.740 -31.437  1.00  0.00     0.000 C 
BRANCH  19  20
ATOM     20  C   UNL     1       2.191 -11.338 -32.186  1.00  0.00     0.000 C 
BRANCH  20  21
ATOM     21  C   UNL     1       2.478 -10.576 -33.491  1.00  0.00     0.000 C 
BRANCH  21  22
ATOM     22  C   UNL     1       1.762  -9.218 -33.552  1.00  0.00     0.000 C 
BRANCH  22  23
ATOM     23  C   UNL     1       2.691  -8.077 -34.000  1.00  0.00     0.000 C 
BRANCH  23  24
ATOM     24  C   UNL     1       4.019  -8.586 -34.592  1.00  0.00    -0.000 C 
BRANCH  24  25
ATOM     25  C   UNL     1       5.278  -7.880 -34.057  1.00  0.00    -0.000 C 
BRANCH  25  26
ATOM     26  C   UNL     1       5.032  -7.139 -32.735  1.00  0.00    -0.000 C 
BRANCH  26  27
ATOM     27  C   UNL     1       6.143  -7.438 -31.720  1.00  0.00    -0.000 C 
BRANCH  27  28
ATOM     28  C   UNL     1       6.892  -6.156 -31.332  1.00  0.00    -0.000 C 
BRANCH  28  29
ATOM     29  C   UNL     1       7.703  -5.569 -32.505  1.00  0.00    -0.000 C 
BRANCH  29  30
ATOM     30  C   UNL     1       7.382  -4.094 -32.813  1.00  0.00    -0.000 C 
BRANCH  30  31
ATOM     31  C   UNL     1       7.237  -3.784 -34.317  1.00  0.00    -0.003 C 
ATOM     32  C   UNL     1       5.777  -3.690 -34.763  1.00  0.00     0.004 C 
ENDBRANCH  30  31
ENDBRANCH  29  30
ENDBRANCH  28  29
ENDBRANCH  27  28
ENDBRANCH  26  27
ENDBRANCH  25  26
ENDBRANCH  24  25
ENDBRANCH  23  24
ENDBRANCH  22  23
ENDBRANCH  21  22
ENDBRANCH  20  21
ENDBRANCH  19  20
ENDBRANCH  18  19
ENDBRANCH   1  18
TORSDOF 28
ENDMDL
