MODEL 1
REMARK VINA RESULT:    -5.991      0.000      0.000
REMARK INTER + INTRA:         -13.537
REMARK INTER:                 -11.245
REMARK INTRA:                  -2.293
REMARK UNBOUND:                -2.293
REMARK SMILES CCCCCCCCC=CCCCCCCCC(=O)[O-]
REMARK SMILES IDX 10 1 9 2 11 3 12 4 13 5 14 6 15 7 16 8 17 9 18 10 19 11
REMARK SMILES IDX 20 12 8 13 7 14 6 15 5 16 4 17 3 18 2 19 1 20
REMARK H PARENT
REMARK Flexibility Score: inf
ROOT
ATOM      1  C   UNL     1      50.852  52.032   4.994  1.00  0.00    -0.031 C 
ATOM      2  C   UNL     1      51.133  51.811   6.287  1.00  0.00    -0.031 C 
ENDROOT
BRANCH   1   3
ATOM      3  C   UNL     1      49.883  53.102   4.569  1.00  0.00     0.027 C 
BRANCH   3   4
ATOM      4  C   UNL     1      48.899  52.586   3.506  1.00  0.00     0.004 C 
BRANCH   4   5
ATOM      5  C   UNL     1      47.433  52.515   3.974  1.00  0.00     0.000 C 
BRANCH   5   6
ATOM      6  C   UNL     1      46.950  51.073   4.209  1.00  0.00     0.000 C 
BRANCH   6   7
ATOM      7  C   UNL     1      47.436  50.499   5.550  1.00  0.00     0.000 C 
BRANCH   7   8
ATOM      8  C   UNL     1      48.480  49.383   5.377  1.00  0.00     0.006 C 
BRANCH   8   9
ATOM      9  C   UNL     1      48.420  48.744   3.983  1.00  0.00     0.053 C 
BRANCH   9  10
ATOM     10  C   UNL     1      49.700  48.934   3.228  1.00  0.00     0.041 C 
ATOM     11  O   UNL     1      49.695  49.490   2.098  1.00  0.00    -0.550 OA
ATOM     12  O   UNL     1      50.904  48.523   3.787  1.00  0.00    -0.550 OA
ENDBRANCH   9  10
ENDBRANCH   8   9
ENDBRANCH   7   8
ENDBRANCH   6   7
ENDBRANCH   5   6
ENDBRANCH   4   5
ENDBRANCH   3   4
ENDBRANCH   1   3
BRANCH   2  13
ATOM     13  C   UNL     1      52.032  50.685   6.713  1.00  0.00     0.027 C 
BRANCH  13  14
ATOM     14  C   UNL     1      53.187  51.204   7.578  1.00  0.00     0.004 C 
BRANCH  14  15
ATOM     15  C   UNL     1      53.594  52.622   7.162  1.00  0.00     0.000 C 
BRANCH  15  16
ATOM     16  C   UNL     1      54.909  52.606   6.369  1.00  0.00     0.000 C 
BRANCH  16  17
ATOM     17  C   UNL     1      54.684  52.436   4.858  1.00  0.00    -0.000 C 
BRANCH  17  18
ATOM     18  C   UNL     1      55.861  51.728   4.164  1.00  0.00    -0.000 C 
BRANCH  18  19
ATOM     19  C   UNL     1      55.517  50.291   3.741  1.00  0.00    -0.003 C 
ATOM     20  C   UNL     1      54.100  49.881   4.141  1.00  0.00     0.004 C 
ENDBRANCH  18  19
ENDBRANCH  17  18
ENDBRANCH  16  17
ENDBRANCH  15  16
ENDBRANCH  14  15
ENDBRANCH  13  14
ENDBRANCH   2  13
TORSDOF 15
ENDMDL
MODEL 2
REMARK VINA RESULT:    -5.831      1.261      1.616
REMARK INTER + INTRA:         -13.237
REMARK INTER:                 -10.869
REMARK INTRA:                  -2.368
REMARK UNBOUND:                -2.293
REMARK SMILES CCCCCCCCC=CCCCCCCCC(=O)[O-]
REMARK SMILES IDX 10 1 9 2 11 3 12 4 13 5 14 6 15 7 16 8 17 9 18 10 19 11
REMARK SMILES IDX 20 12 8 13 7 14 6 15 5 16 4 17 3 18 2 19 1 20
REMARK H PARENT
REMARK Flexibility Score: inf
ROOT
ATOM      1  C   UNL     1      50.280  52.665   4.870  1.00  0.00    -0.031 C 
ATOM      2  C   UNL     1      50.119  51.590   5.657  1.00  0.00    -0.031 C 
ENDROOT
BRANCH   1   3
ATOM      3  C   UNL     1      49.484  52.843   3.606  1.00  0.00     0.027 C 
BRANCH   3   4
ATOM      4  C   UNL     1      47.974  52.708   3.863  1.00  0.00     0.004 C 
BRANCH   4   5
ATOM      5  C   UNL     1      47.278  51.619   3.024  1.00  0.00     0.000 C 
BRANCH   5   6
ATOM      6  C   UNL     1      47.068  50.310   3.803  1.00  0.00     0.000 C 
BRANCH   6   7
ATOM      7  C   UNL     1      47.384  49.064   2.960  1.00  0.00     0.000 C 
BRANCH   7   8
ATOM      8  C   UNL     1      48.620  49.250   2.063  1.00  0.00     0.006 C 
BRANCH   8   9
ATOM      9  C   UNL     1      49.929  49.195   2.862  1.00  0.00     0.053 C 
BRANCH   9  10
ATOM     10  C   UNL     1      49.929  48.071   3.853  1.00  0.00     0.041 C 
ATOM     11  O   UNL     1      50.113  46.886   3.470  1.00  0.00    -0.550 OA
ATOM     12  O   UNL     1      49.756  48.338   5.205  1.00  0.00    -0.550 OA
ENDBRANCH   9  10
ENDBRANCH   8   9
ENDBRANCH   7   8
ENDBRANCH   6   7
ENDBRANCH   5   6
ENDBRANCH   4   5
ENDBRANCH   3   4
ENDBRANCH   1   3
BRANCH   2  13
ATOM     13  C   UNL     1      50.978  51.370   6.870  1.00  0.00     0.027 C 
BRANCH  13  14
ATOM     14  C   UNL     1      52.054  52.457   6.984  1.00  0.00     0.004 C 
BRANCH  14  15
ATOM     15  C   UNL     1      53.386  51.866   7.458  1.00  0.00     0.000 C 
BRANCH  15  16
ATOM     16  C   UNL     1      54.551  52.377   6.596  1.00  0.00     0.000 C 
BRANCH  16  17
ATOM     17  C   UNL     1      54.186  52.471   5.107  1.00  0.00    -0.000 C 
BRANCH  17  18
ATOM     18  C   UNL     1      55.100  51.608   4.220  1.00  0.00    -0.000 C 
BRANCH  18  19
ATOM     19  C   UNL     1      54.699  50.124   4.228  1.00  0.00    -0.003 C 
ATOM     20  C   UNL     1      53.183  49.924   4.245  1.00  0.00     0.004 C 
ENDBRANCH  18  19
ENDBRANCH  17  18
ENDBRANCH  16  17
ENDBRANCH  15  16
ENDBRANCH  14  15
ENDBRANCH  13  14
ENDBRANCH   2  13
TORSDOF 15
ENDMDL
MODEL 3
REMARK VINA RESULT:    -5.804      1.690      6.190
REMARK INTER + INTRA:         -13.186
REMARK INTER:                 -11.238
REMARK INTRA:                  -1.948
REMARK UNBOUND:                -2.293
REMARK SMILES CCCCCCCCC=CCCCCCCCC(=O)[O-]
REMARK SMILES IDX 10 1 9 2 11 3 12 4 13 5 14 6 15 7 16 8 17 9 18 10 19 11
REMARK SMILES IDX 20 12 8 13 7 14 6 15 5 16 4 17 3 18 2 19 1 20
REMARK H PARENT
REMARK Flexibility Score: inf
ROOT
ATOM      1  C   UNL     1      51.164  51.833   5.734  1.00  0.00    -0.031 C 
ATOM      2  C   UNL     1      49.921  52.073   5.287  1.00  0.00    -0.031 C 
ENDROOT
BRANCH   1   3
ATOM      3  C   UNL     1      51.420  50.908   6.893  1.00  0.00     0.027 C 
BRANCH   3   4
ATOM      4  C   UNL     1      52.896  50.483   6.963  1.00  0.00     0.004 C 
BRANCH   4   5
ATOM      5  C   UNL     1      53.763  51.340   7.905  1.00  0.00     0.000 C 
BRANCH   5   6
ATOM      6  C   UNL     1      53.949  52.781   7.399  1.00  0.00     0.000 C 
BRANCH   6   7
ATOM      7  C   UNL     1      55.114  52.911   6.405  1.00  0.00     0.000 C 
BRANCH   7   8
ATOM      8  C   UNL     1      54.690  52.640   4.952  1.00  0.00     0.006 C 
BRANCH   8   9
ATOM      9  C   UNL     1      55.784  51.916   4.155  1.00  0.00     0.053 C 
BRANCH   9  10
ATOM     10  C   UNL     1      55.382  50.516   3.804  1.00  0.00     0.041 C 
ATOM     11  O   UNL     1      56.225  49.715   3.322  1.00  0.00    -0.550 OA
ATOM     12  O   UNL     1      54.081  50.088   4.037  1.00  0.00    -0.550 OA
ENDBRANCH   9  10
ENDBRANCH   8   9
ENDBRANCH   7   8
ENDBRANCH   6   7
ENDBRANCH   5   6
ENDBRANCH   4   5
ENDBRANCH   3   4
ENDBRANCH   1   3
BRANCH   2  13
ATOM     13  C   UNL     1      49.660  53.064   4.189  1.00  0.00     0.027 C 
BRANCH  13  14
ATOM     14  C   UNL     1      48.375  52.715   3.429  1.00  0.00     0.004 C 
BRANCH  14  15
ATOM     15  C   UNL     1      47.803  51.374   3.902  1.00  0.00     0.000 C 
BRANCH  15  16
ATOM     16  C   UNL     1      47.371  50.509   2.708  1.00  0.00     0.000 C 
BRANCH  16  17
ATOM     17  C   UNL     1      48.280  49.287   2.505  1.00  0.00    -0.000 C 
BRANCH  17  18
ATOM     18  C   UNL     1      49.767  49.668   2.406  1.00  0.00    -0.000 C 
BRANCH  18  19
ATOM     19  C   UNL     1      50.634  48.934   3.440  1.00  0.00    -0.003 C 
ATOM     20  C   UNL     1      49.823  48.419   4.630  1.00  0.00     0.004 C 
ENDBRANCH  18  19
ENDBRANCH  17  18
ENDBRANCH  16  17
ENDBRANCH  15  16
ENDBRANCH  14  15
ENDBRANCH  13  14
ENDBRANCH   2  13
TORSDOF 15
ENDMDL
MODEL 4
REMARK VINA RESULT:    -5.588      2.405      3.278
REMARK INTER + INTRA:         -12.781
REMARK INTER:                 -11.374
REMARK INTRA:                  -1.407
REMARK UNBOUND:                -2.293
REMARK SMILES CCCCCCCCC=CCCCCCCCC(=O)[O-]
REMARK SMILES IDX 10 1 9 2 11 3 12 4 13 5 14 6 15 7 16 8 17 9 18 10 19 11
REMARK SMILES IDX 20 12 8 13 7 14 6 15 5 16 4 17 3 18 2 19 1 20
REMARK H PARENT
REMARK Flexibility Score: inf
ROOT
ATOM      1  C   UNL     1      49.430  50.254   5.908  1.00  0.00    -0.031 C 
ATOM      2  C   UNL     1      50.533  50.769   6.473  1.00  0.00    -0.031 C 
ENDROOT
BRANCH   1   3
ATOM      3  C   UNL     1      49.474  48.981   5.108  1.00  0.00     0.027 C 
BRANCH   3   4
ATOM      4  C   UNL     1      50.512  49.059   3.975  1.00  0.00     0.004 C 
BRANCH   4   5
ATOM      5  C   UNL     1      49.921  49.386   2.590  1.00  0.00     0.000 C 
BRANCH   5   6
ATOM      6  C   UNL     1      48.402  49.624   2.630  1.00  0.00     0.000 C 
BRANCH   6   7
ATOM      7  C   UNL     1      47.628  48.652   1.726  1.00  0.00     0.000 C 
BRANCH   7   8
ATOM      8  C   UNL     1      47.464  47.257   2.354  1.00  0.00     0.006 C 
BRANCH   8   9
ATOM      9  C   UNL     1      47.252  46.166   1.295  1.00  0.00     0.053 C 
BRANCH   9  10
ATOM     10  C   UNL     1      48.251  45.058   1.430  1.00  0.00     0.041 C 
ATOM     11  O   UNL     1      48.459  44.269   0.471  1.00  0.00    -0.550 OA
ATOM     12  O   UNL     1      48.974  44.915   2.608  1.00  0.00    -0.550 OA
ENDBRANCH   9  10
ENDBRANCH   8   9
ENDBRANCH   7   8
ENDBRANCH   6   7
ENDBRANCH   5   6
ENDBRANCH   4   5
ENDBRANCH   3   4
ENDBRANCH   1   3
BRANCH   2  13
ATOM     13  C   UNL     1      50.502  52.086   7.195  1.00  0.00     0.027 C 
BRANCH  13  14
ATOM     14  C   UNL     1      51.786  52.883   6.934  1.00  0.00     0.004 C 
BRANCH  14  15
ATOM     15  C   UNL     1      52.078  52.983   5.433  1.00  0.00     0.000 C 
BRANCH  15  16
ATOM     16  C   UNL     1      53.588  52.907   5.160  1.00  0.00     0.000 C 
BRANCH  16  17
ATOM     17  C   UNL     1      54.204  51.576   5.618  1.00  0.00    -0.000 C 
BRANCH  17  18
ATOM     18  C   UNL     1      53.971  50.441   4.606  1.00  0.00    -0.000 C 
BRANCH  18  19
ATOM     19  C   UNL     1      55.211  50.155   3.745  1.00  0.00    -0.003 C 
ATOM     20  C   UNL     1      56.311  51.200   3.929  1.00  0.00     0.004 C 
ENDBRANCH  18  19
ENDBRANCH  17  18
ENDBRANCH  16  17
ENDBRANCH  15  16
ENDBRANCH  14  15
ENDBRANCH  13  14
ENDBRANCH   2  13
TORSDOF 15
ENDMDL
MODEL 5
REMARK VINA RESULT:    -5.504      2.096      5.897
REMARK INTER + INTRA:         -12.623
REMARK INTER:                 -10.400
REMARK INTRA:                  -2.223
REMARK UNBOUND:                -2.293
REMARK SMILES CCCCCCCCC=CCCCCCCCC(=O)[O-]
REMARK SMILES IDX 10 1 9 2 11 3 12 4 13 5 14 6 15 7 16 8 17 9 18 10 19 11
REMARK SMILES IDX 20 12 8 13 7 14 6 15 5 16 4 17 3 18 2 19 1 20
REMARK H PARENT
REMARK Flexibility Score: inf
ROOT
ATOM      1  C   UNL     1      50.414  52.494   4.446  1.00  0.00    -0.031 C 
ATOM      2  C   UNL     1      49.265  53.125   4.159  1.00  0.00    -0.031 C 
ENDROOT
BRANCH   1   3
ATOM      3  C   UNL     1      51.460  53.122   5.327  1.00  0.00     0.027 C 
BRANCH   3   4
ATOM      4  C   UNL     1      51.237  52.773   6.808  1.00  0.00     0.004 C 
BRANCH   4   5
ATOM      5  C   UNL     1      52.517  52.784   7.666  1.00  0.00     0.000 C 
BRANCH   5   6
ATOM      6  C   UNL     1      53.723  52.155   6.947  1.00  0.00     0.000 C 
BRANCH   6   7
ATOM      7  C   UNL     1      53.681  50.618   6.958  1.00  0.00     0.000 C 
BRANCH   7   8
ATOM      8  C   UNL     1      53.513  50.016   5.553  1.00  0.00     0.006 C 
BRANCH   8   9
ATOM      9  C   UNL     1      53.967  50.983   4.450  1.00  0.00     0.053 C 
BRANCH   9  10
ATOM     10  C   UNL     1      55.408  50.784   4.095  1.00  0.00     0.041 C 
ATOM     11  O   UNL     1      55.751  49.843   3.333  1.00  0.00    -0.550 OA
ATOM     12  O   UNL     1      56.371  51.659   4.585  1.00  0.00    -0.550 OA
ENDBRANCH   9  10
ENDBRANCH   8   9
ENDBRANCH   7   8
ENDBRANCH   6   7
ENDBRANCH   5   6
ENDBRANCH   4   5
ENDBRANCH   3   4
ENDBRANCH   1   3
BRANCH   2  13
ATOM     13  C   UNL     1      48.263  52.535   3.208  1.00  0.00     0.027 C 
BRANCH  13  14
ATOM     14  C   UNL     1      47.315  51.575   3.936  1.00  0.00     0.004 C 
BRANCH  14  15
ATOM     15  C   UNL     1      47.303  50.198   3.265  1.00  0.00     0.000 C 
BRANCH  15  16
ATOM     16  C   UNL     1      48.521  50.023   2.346  1.00  0.00     0.000 C 
BRANCH  16  17
ATOM     17  C   UNL     1      49.432  48.868   2.786  1.00  0.00    -0.000 C 
BRANCH  17  18
ATOM     18  C   UNL     1      50.199  49.183   4.082  1.00  0.00    -0.000 C 
BRANCH  18  19
ATOM     19  C   UNL     1      49.415  48.783   5.343  1.00  0.00    -0.003 C 
ATOM     20  C   UNL     1      49.584  49.786   6.484  1.00  0.00     0.004 C 
ENDBRANCH  18  19
ENDBRANCH  17  18
ENDBRANCH  16  17
ENDBRANCH  15  16
ENDBRANCH  14  15
ENDBRANCH  13  14
ENDBRANCH   2  13
TORSDOF 15
ENDMDL
MODEL 6
REMARK VINA RESULT:    -5.469      1.423      2.285
REMARK INTER + INTRA:         -12.557
REMARK INTER:                 -10.739
REMARK INTRA:                  -1.818
REMARK UNBOUND:                -2.293
REMARK SMILES CCCCCCCCC=CCCCCCCCC(=O)[O-]
REMARK SMILES IDX 10 1 9 2 11 3 12 4 13 5 14 6 15 7 16 8 17 9 18 10 19 11
REMARK SMILES IDX 20 12 8 13 7 14 6 15 5 16 4 17 3 18 2 19 1 20
REMARK H PARENT
REMARK Flexibility Score: inf
ROOT
ATOM      1  C   UNL     1      50.511  50.795   5.910  1.00  0.00    -0.031 C 
ATOM      2  C   UNL     1      50.153  52.073   5.706  1.00  0.00    -0.031 C 
ENDROOT
BRANCH   1   3
ATOM      3  C   UNL     1      49.524  49.768   6.396  1.00  0.00     0.027 C 
BRANCH   3   4
ATOM      4  C   UNL     1      48.089  50.319   6.403  1.00  0.00     0.004 C 
BRANCH   4   5
ATOM      5  C   UNL     1      47.261  49.961   5.154  1.00  0.00     0.000 C 
BRANCH   5   6
ATOM      6  C   UNL     1      46.920  51.189   4.292  1.00  0.00     0.000 C 
BRANCH   6   7
ATOM      7  C   UNL     1      47.554  51.122   2.893  1.00  0.00     0.000 C 
BRANCH   7   8
ATOM      8  C   UNL     1      48.739  50.144   2.822  1.00  0.00     0.006 C 
BRANCH   8   9
ATOM      9  C   UNL     1      48.428  48.919   1.950  1.00  0.00     0.053 C 
BRANCH   9  10
ATOM     10  C   UNL     1      48.782  47.639   2.642  1.00  0.00     0.041 C 
ATOM     11  O   UNL     1      48.121  46.591   2.417  1.00  0.00    -0.550 OA
ATOM     12  O   UNL     1      49.862  47.597   3.515  1.00  0.00    -0.550 OA
ENDBRANCH   9  10
ENDBRANCH   8   9
ENDBRANCH   7   8
ENDBRANCH   6   7
ENDBRANCH   5   6
ENDBRANCH   4   5
ENDBRANCH   3   4
ENDBRANCH   1   3
BRANCH   2  13
ATOM     13  C   UNL     1      51.159  53.115   5.307  1.00  0.00     0.027 C 
BRANCH  13  14
ATOM     14  C   UNL     1      52.420  53.019   6.175  1.00  0.00     0.004 C 
BRANCH  14  15
ATOM     15  C   UNL     1      53.687  53.124   5.319  1.00  0.00     0.000 C 
BRANCH  15  16
ATOM     16  C   UNL     1      54.684  52.011   5.674  1.00  0.00     0.000 C 
BRANCH  16  17
ATOM     17  C   UNL     1      55.568  51.608   4.484  1.00  0.00    -0.000 C 
BRANCH  17  18
ATOM     18  C   UNL     1      55.077  50.324   3.793  1.00  0.00    -0.000 C 
BRANCH  18  19
ATOM     19  C   UNL     1      54.000  49.590   4.609  1.00  0.00    -0.003 C 
ATOM     20  C   UNL     1      52.618  49.664   3.961  1.00  0.00     0.004 C 
ENDBRANCH  18  19
ENDBRANCH  17  18
ENDBRANCH  16  17
ENDBRANCH  15  16
ENDBRANCH  14  15
ENDBRANCH  13  14
ENDBRANCH   2  13
TORSDOF 15
ENDMDL
MODEL 7
REMARK VINA RESULT:    -5.377      2.357      6.610
REMARK INTER + INTRA:         -12.384
REMARK INTER:                 -10.123
REMARK INTRA:                  -2.261
REMARK UNBOUND:                -2.293
REMARK SMILES CCCCCCCCC=CCCCCCCCC(=O)[O-]
REMARK SMILES IDX 10 1 9 2 11 3 12 4 13 5 14 6 15 7 16 8 17 9 18 10 19 11
REMARK SMILES IDX 20 12 8 13 7 14 6 15 5 16 4 17 3 18 2 19 1 20
REMARK H PARENT
REMARK Flexibility Score: inf
ROOT
ATOM      1  C   UNL     1      50.736  48.714   3.470  1.00  0.00    -0.031 C 
ATOM      2  C   UNL     1      49.737  47.907   3.861  1.00  0.00    -0.031 C 
ENDROOT
BRANCH   1   3
ATOM      3  C   UNL     1      51.064  49.980   4.215  1.00  0.00     0.027 C 
BRANCH   3   4
ATOM      4  C   UNL     1      50.455  49.982   5.626  1.00  0.00     0.004 C 
BRANCH   4   5
ATOM      5  C   UNL     1      51.012  51.072   6.561  1.00  0.00     0.000 C 
BRANCH   5   6
ATOM      6  C   UNL     1      51.566  52.287   5.797  1.00  0.00     0.000 C 
BRANCH   6   7
ATOM      7  C   UNL     1      53.014  52.622   6.190  1.00  0.00     0.000 C 
BRANCH   7   8
ATOM      8  C   UNL     1      53.988  52.540   5.003  1.00  0.00     0.006 C 
BRANCH   8   9
ATOM      9  C   UNL     1      54.312  51.089   4.619  1.00  0.00     0.053 C 
BRANCH   9  10
ATOM     10  C   UNL     1      55.624  50.983   3.903  1.00  0.00     0.041 C 
ATOM     11  O   UNL     1      56.383  51.984   3.816  1.00  0.00    -0.550 OA
ATOM     12  O   UNL     1      56.021  49.769   3.357  1.00  0.00    -0.550 OA
ENDBRANCH   9  10
ENDBRANCH   8   9
ENDBRANCH   7   8
ENDBRANCH   6   7
ENDBRANCH   5   6
ENDBRANCH   4   5
ENDBRANCH   3   4
ENDBRANCH   1   3
BRANCH   2  13
ATOM     13  C   UNL     1      49.353  46.693   3.065  1.00  0.00     0.027 C 
BRANCH  13  14
ATOM     14  C   UNL     1      48.012  46.906   2.353  1.00  0.00     0.004 C 
BRANCH  14  15
ATOM     15  C   UNL     1      47.287  48.140   2.902  1.00  0.00     0.000 C 
BRANCH  15  16
ATOM     16  C   UNL     1      47.126  49.212   1.813  1.00  0.00     0.000 C 
BRANCH  16  17
ATOM     17  C   UNL     1      46.896  50.615   2.396  1.00  0.00    -0.000 C 
BRANCH  17  18
ATOM     18  C   UNL     1      47.194  50.683   3.904  1.00  0.00    -0.000 C 
BRANCH  18  19
ATOM     19  C   UNL     1      47.778  52.039   4.329  1.00  0.00    -0.003 C 
ATOM     20  C   UNL     1      48.701  52.641   3.269  1.00  0.00     0.004 C 
ENDBRANCH  18  19
ENDBRANCH  17  18
ENDBRANCH  16  17
ENDBRANCH  15  16
ENDBRANCH  14  15
ENDBRANCH  13  14
ENDBRANCH   2  13
TORSDOF 15
ENDMDL
MODEL 8
REMARK VINA RESULT:    -5.332      1.145      2.368
REMARK INTER + INTRA:         -12.300
REMARK INTER:                 -10.595
REMARK INTRA:                  -1.704
REMARK UNBOUND:                -2.293
REMARK SMILES CCCCCCCCC=CCCCCCCCC(=O)[O-]
REMARK SMILES IDX 10 1 9 2 11 3 12 4 13 5 14 6 15 7 16 8 17 9 18 10 19 11
REMARK SMILES IDX 20 12 8 13 7 14 6 15 5 16 4 17 3 18 2 19 1 20
REMARK H PARENT
REMARK Flexibility Score: inf
ROOT
ATOM      1  C   UNL     1      51.821  51.400   7.147  1.00  0.00    -0.031 C 
ATOM      2  C   UNL     1      53.034  50.903   7.434  1.00  0.00    -0.031 C 
ENDROOT
BRANCH   1   3
ATOM      3  C   UNL     1      50.643  50.503   6.879  1.00  0.00     0.027 C 
BRANCH   3   4
ATOM      4  C   UNL     1      49.618  51.174   5.950  1.00  0.00     0.004 C 
BRANCH   4   5
ATOM      5  C   UNL     1      50.225  52.163   4.937  1.00  0.00     0.000 C 
BRANCH   5   6
ATOM      6  C   UNL     1      49.170  52.790   4.010  1.00  0.00     0.000 C 
BRANCH   6   7
ATOM      7  C   UNL     1      47.790  52.129   4.154  1.00  0.00     0.000 C 
BRANCH   7   8
ATOM      8  C   UNL     1      47.343  51.399   2.876  1.00  0.00     0.006 C 
BRANCH   8   9
ATOM      9  C   UNL     1      47.253  49.880   3.078  1.00  0.00     0.053 C 
BRANCH   9  10
ATOM     10  C   UNL     1      48.591  49.220   2.938  1.00  0.00     0.041 C 
ATOM     11  O   UNL     1      48.858  48.180   3.596  1.00  0.00    -0.550 OA
ATOM     12  O   UNL     1      49.532  49.738   2.057  1.00  0.00    -0.550 OA
ENDBRANCH   9  10
ENDBRANCH   8   9
ENDBRANCH   7   8
ENDBRANCH   6   7
ENDBRANCH   5   6
ENDBRANCH   4   5
ENDBRANCH   3   4
ENDBRANCH   1   3
BRANCH   2  13
ATOM     13  C   UNL     1      54.227  51.798   7.612  1.00  0.00     0.027 C 
BRANCH  13  14
ATOM     14  C   UNL     1      54.031  53.125   6.869  1.00  0.00     0.004 C 
BRANCH  14  15
ATOM     15  C   UNL     1      53.779  52.889   5.376  1.00  0.00     0.000 C 
BRANCH  15  16
ATOM     16  C   UNL     1      55.103  52.765   4.607  1.00  0.00     0.000 C 
BRANCH  16  17
ATOM     17  C   UNL     1      55.673  51.339   4.640  1.00  0.00    -0.000 C 
BRANCH  17  18
ATOM     18  C   UNL     1      54.867  50.361   3.768  1.00  0.00    -0.000 C 
BRANCH  18  19
ATOM     19  C   UNL     1      53.870  49.526   4.586  1.00  0.00    -0.003 C 
ATOM     20  C   UNL     1      52.474  49.498   3.962  1.00  0.00     0.004 C 
ENDBRANCH  18  19
ENDBRANCH  17  18
ENDBRANCH  16  17
ENDBRANCH  15  16
ENDBRANCH  14  15
ENDBRANCH  13  14
ENDBRANCH   2  13
TORSDOF 15
ENDMDL
