MODEL 1
REMARK VINA RESULT:    -8.277      0.000      0.000
REMARK INTER + INTRA:         -10.258
REMARK INTER:                  -9.970
REMARK INTRA:                  -0.288
REMARK UNBOUND:                -0.288
REMARK SMILES O=c1c(O)c(-c2ccc(O)c(O)c2)oc2cc(O)cc(O)c12
REMARK SMILES IDX 5 1 3 2 2 3 1 4 22 5 20 6 19 7 17 8 16 9 15 10 14 11 6 12
REMARK SMILES IDX 7 13 8 14 9 15 13 16 11 17 10 18 12 20 4 22 21 24 18 26
REMARK H PARENT 10 19 12 21 4 23 21 25 18 27
REMARK Flexibility Score: inf
ROOT
ATOM      1  C   UNL     1     -35.701  -5.882 -16.428  1.00  0.00     0.180 A 
ATOM      2  C   UNL     1     -36.303  -5.281 -17.548  1.00  0.00     0.208 A 
ATOM      3  C   UNL     1     -35.538  -4.418 -18.350  1.00  0.00     0.238 A 
ATOM      4  O   UNL     1     -36.067  -3.927 -19.381  1.00  0.00    -0.285 OA
ATOM      5  C   UNL     1     -34.189  -4.155 -18.014  1.00  0.00     0.111 A 
ATOM      6  C   UNL     1     -33.334  -3.267 -18.734  1.00  0.00     0.134 A 
ATOM      7  C   UNL     1     -31.980  -3.182 -18.390  1.00  0.00     0.093 A 
ATOM      8  C   UNL     1     -31.463  -3.902 -17.313  1.00  0.00     0.123 A 
ATOM      9  C   UNL     1     -32.304  -4.729 -16.566  1.00  0.00     0.094 A 
ATOM     10  C   UNL     1     -33.652  -4.862 -16.907  1.00  0.00     0.146 A 
ATOM     11  O   UNL     1     -34.415  -5.666 -16.177  1.00  0.00    -0.452 OA
ENDROOT
BRANCH   1  12
ATOM     12  C   UNL     1     -36.448  -6.782 -15.520  1.00  0.00     0.025 A 
ATOM     13  C   UNL     1     -36.335  -8.178 -15.620  1.00  0.00     0.016 A 
ATOM     14  C   UNL     1     -37.067  -9.008 -14.768  1.00  0.00     0.051 A 
ATOM     15  C   UNL     1     -37.932  -8.465 -13.813  1.00  0.00     0.157 A 
ATOM     16  C   UNL     1     -37.332  -6.237 -14.577  1.00  0.00     0.062 A 
ATOM     17  C   UNL     1     -38.070  -7.061 -13.718  1.00  0.00     0.158 A 
BRANCH  15  18
ATOM     18  O   UNL     1     -38.632  -9.350 -12.989  1.00  0.00    -0.504 OA
ATOM     19  H   UNL     1     -39.420  -9.903 -13.295  1.00  0.00     0.293 HD
ENDBRANCH  15  18
BRANCH  17  20
ATOM     20  O   UNL     1     -38.921  -6.446 -12.797  1.00  0.00    -0.504 OA
ATOM     21  H   UNL     1     -38.621  -5.749 -12.131  1.00  0.00     0.293 HD
ENDBRANCH  17  20
ENDBRANCH   1  12
BRANCH   2  22
ATOM     22  O   UNL     1     -37.630  -5.572 -17.872  1.00  0.00    -0.502 OA
ATOM     23  H   UNL     1     -38.116  -6.382 -17.506  1.00  0.00     0.293 HD
ENDBRANCH   2  22
BRANCH   6  24
ATOM     24  O   UNL     1     -33.769  -2.431 -19.767  1.00  0.00    -0.507 OA
ATOM     25  H   UNL     1     -33.398  -2.434 -20.705  1.00  0.00     0.293 HD
ENDBRANCH   6  24
BRANCH   8  26
ATOM     26  O   UNL     1     -30.114  -3.782 -16.990  1.00  0.00    -0.508 OA
ATOM     27  H   UNL     1     -29.386  -4.065 -17.636  1.00  0.00     0.293 HD
ENDBRANCH   8  26
TORSDOF 6
ENDMDL
MODEL 2
REMARK VINA RESULT:    -7.872      1.848      6.976
REMARK INTER + INTRA:          -9.770
REMARK INTER:                  -9.581
REMARK INTRA:                  -0.189
REMARK UNBOUND:                -0.288
REMARK SMILES O=c1c(O)c(-c2ccc(O)c(O)c2)oc2cc(O)cc(O)c12
REMARK SMILES IDX 5 1 3 2 2 3 1 4 22 5 20 6 19 7 17 8 16 9 15 10 14 11 6 12
REMARK SMILES IDX 7 13 8 14 9 15 13 16 11 17 10 18 12 20 4 22 21 24 18 26
REMARK H PARENT 10 19 12 21 4 23 21 25 18 27
REMARK Flexibility Score: inf
ROOT
ATOM      1  C   UNL     1     -34.810  -4.120 -16.980  1.00  0.00     0.180 A 
ATOM      2  C   UNL     1     -35.767  -3.229 -16.463  1.00  0.00     0.208 A 
ATOM      3  C   UNL     1     -36.872  -3.747 -15.769  1.00  0.00     0.238 A 
ATOM      4  O   UNL     1     -37.697  -2.943 -15.262  1.00  0.00    -0.285 OA
ATOM      5  C   UNL     1     -37.015  -5.147 -15.614  1.00  0.00     0.111 A 
ATOM      6  C   UNL     1     -38.115  -5.782 -14.963  1.00  0.00     0.134 A 
ATOM      7  C   UNL     1     -38.088  -7.165 -14.753  1.00  0.00     0.093 A 
ATOM      8  C   UNL     1     -37.034  -7.946 -15.226  1.00  0.00     0.123 A 
ATOM      9  C   UNL     1     -35.981  -7.342 -15.916  1.00  0.00     0.094 A 
ATOM     10  C   UNL     1     -35.962  -5.958 -16.110  1.00  0.00     0.146 A 
ATOM     11  O   UNL     1     -34.938  -5.423 -16.762  1.00  0.00    -0.452 OA
ENDROOT
BRANCH   1  12
ATOM     12  C   UNL     1     -33.631  -3.653 -17.746  1.00  0.00     0.025 A 
ATOM     13  C   UNL     1     -32.333  -3.750 -17.220  1.00  0.00     0.016 A 
ATOM     14  C   UNL     1     -31.239  -3.281 -17.951  1.00  0.00     0.051 A 
ATOM     15  C   UNL     1     -31.418  -2.697 -19.208  1.00  0.00     0.157 A 
ATOM     16  C   UNL     1     -33.815  -3.046 -18.998  1.00  0.00     0.062 A 
ATOM     17  C   UNL     1     -32.723  -2.573 -19.738  1.00  0.00     0.158 A 
BRANCH  15  18
ATOM     18  O   UNL     1     -30.282  -2.252 -19.889  1.00  0.00    -0.504 OA
ATOM     19  H   UNL     1     -30.083  -2.466 -20.856  1.00  0.00     0.293 HD
ENDBRANCH  15  18
BRANCH  17  20
ATOM     20  O   UNL     1     -32.982  -1.993 -20.982  1.00  0.00    -0.504 OA
ATOM     21  H   UNL     1     -33.285  -1.038 -21.107  1.00  0.00     0.293 HD
ENDBRANCH  17  20
ENDBRANCH   1  12
BRANCH   2  22
ATOM     22  O   UNL     1     -35.595  -1.851 -16.609  1.00  0.00    -0.502 OA
ATOM     23  H   UNL     1     -35.189  -1.272 -15.884  1.00  0.00     0.293 HD
ENDBRANCH   2  22
BRANCH   6  24
ATOM     24  O   UNL     1     -39.263  -5.107 -14.533  1.00  0.00    -0.507 OA
ATOM     25  H   UNL     1     -40.207  -5.421 -14.692  1.00  0.00     0.293 HD
ENDBRANCH   6  24
BRANCH   8  26
ATOM     26  O   UNL     1     -37.047  -9.322 -15.013  1.00  0.00    -0.508 OA
ATOM     27  H   UNL     1     -37.839  -9.893 -15.286  1.00  0.00     0.293 HD
ENDBRANCH   8  26
TORSDOF 6
ENDMDL
MODEL 3
REMARK VINA RESULT:    -7.710      1.172      1.650
REMARK INTER + INTRA:          -9.575
REMARK INTER:                  -9.397
REMARK INTRA:                  -0.178
REMARK UNBOUND:                -0.288
REMARK SMILES O=c1c(O)c(-c2ccc(O)c(O)c2)oc2cc(O)cc(O)c12
REMARK SMILES IDX 5 1 3 2 2 3 1 4 22 5 20 6 19 7 17 8 16 9 15 10 14 11 6 12
REMARK SMILES IDX 7 13 8 14 9 15 13 16 11 17 10 18 12 20 4 22 21 24 18 26
REMARK H PARENT 10 19 12 21 4 23 21 25 18 27
REMARK Flexibility Score: inf
ROOT
ATOM      1  C   UNL     1     -36.546  -5.292 -16.239  1.00  0.00     0.180 A 
ATOM      2  C   UNL     1     -36.986  -4.710 -17.439  1.00  0.00     0.208 A 
ATOM      3  C   UNL     1     -36.052  -4.065 -18.265  1.00  0.00     0.238 A 
ATOM      4  O   UNL     1     -36.442  -3.593 -19.365  1.00  0.00    -0.285 OA
ATOM      5  C   UNL     1     -34.693  -3.997 -17.873  1.00  0.00     0.111 A 
ATOM      6  C   UNL     1     -33.669  -3.334 -18.614  1.00  0.00     0.134 A 
ATOM      7  C   UNL     1     -32.337  -3.441 -18.198  1.00  0.00     0.093 A 
ATOM      8  C   UNL     1     -31.999  -4.131 -17.034  1.00  0.00     0.123 A 
ATOM      9  C   UNL     1     -33.000  -4.733 -16.270  1.00  0.00     0.094 A 
ATOM     10  C   UNL     1     -34.335  -4.674 -16.679  1.00  0.00     0.146 A 
ATOM     11  O   UNL     1     -35.255  -5.268 -15.930  1.00  0.00    -0.452 OA
ENDROOT
BRANCH   1  12
ATOM     12  C   UNL     1     -37.474  -5.968 -15.303  1.00  0.00     0.025 A 
ATOM     13  C   UNL     1     -37.718  -5.456 -14.018  1.00  0.00     0.016 A 
ATOM     14  C   UNL     1     -38.580  -6.123 -13.145  1.00  0.00     0.051 A 
ATOM     15  C   UNL     1     -39.202  -7.315 -13.528  1.00  0.00     0.157 A 
ATOM     16  C   UNL     1     -38.082  -7.175 -15.681  1.00  0.00     0.062 A 
ATOM     17  C   UNL     1     -38.947  -7.851 -14.812  1.00  0.00     0.158 A 
BRANCH  15  18
ATOM     18  O   UNL     1     -40.056  -7.930 -12.609  1.00  0.00    -0.504 OA
ATOM     19  H   UNL     1     -40.281  -7.544 -11.703  1.00  0.00     0.293 HD
ENDBRANCH  15  18
BRANCH  17  20
ATOM     20  O   UNL     1     -39.524  -9.040 -15.262  1.00  0.00    -0.504 OA
ATOM     21  H   UNL     1     -39.024  -9.752 -15.775  1.00  0.00     0.293 HD
ENDBRANCH  17  20
ENDBRANCH   1  12
BRANCH   2  22
ATOM     22  O   UNL     1     -38.328  -4.808 -17.817  1.00  0.00    -0.502 OA
ATOM     23  H   UNL     1     -38.812  -5.695 -17.883  1.00  0.00     0.293 HD
ENDBRANCH   2  22
BRANCH   6  24
ATOM     24  O   UNL     1     -33.909  -2.539 -19.740  1.00  0.00    -0.507 OA
ATOM     25  H   UNL     1     -34.809  -2.419 -20.177  1.00  0.00     0.293 HD
ENDBRANCH   6  24
BRANCH   8  26
ATOM     26  O   UNL     1     -30.664  -4.204 -16.641  1.00  0.00    -0.508 OA
ATOM     27  H   UNL     1     -30.398  -4.562 -15.731  1.00  0.00     0.293 HD
ENDBRANCH   8  26
TORSDOF 6
ENDMDL
MODEL 4
REMARK VINA RESULT:    -7.692      1.969      7.270
REMARK INTER + INTRA:          -9.553
REMARK INTER:                  -9.224
REMARK INTRA:                  -0.329
REMARK UNBOUND:                -0.288
REMARK SMILES O=c1c(O)c(-c2ccc(O)c(O)c2)oc2cc(O)cc(O)c12
REMARK SMILES IDX 5 1 3 2 2 3 1 4 22 5 20 6 19 7 17 8 16 9 15 10 14 11 6 12
REMARK SMILES IDX 7 13 8 14 9 15 13 16 11 17 10 18 12 20 4 22 21 24 18 26
REMARK H PARENT 10 19 12 21 4 23 21 25 18 27
REMARK Flexibility Score: inf
ROOT
ATOM      1  C   UNL     1     -37.181  -5.429 -15.888  1.00  0.00     0.180 A 
ATOM      2  C   UNL     1     -37.594  -4.404 -15.020  1.00  0.00     0.208 A 
ATOM      3  C   UNL     1     -38.495  -4.709 -13.987  1.00  0.00     0.238 A 
ATOM      4  O   UNL     1     -38.819  -3.799 -13.180  1.00  0.00    -0.285 OA
ATOM      5  C   UNL     1     -38.984  -6.030 -13.845  1.00  0.00     0.111 A 
ATOM      6  C   UNL     1     -39.930  -6.442 -12.860  1.00  0.00     0.134 A 
ATOM      7  C   UNL     1     -40.244  -7.800 -12.729  1.00  0.00     0.093 A 
ATOM      8  C   UNL     1     -39.697  -8.752 -13.589  1.00  0.00     0.123 A 
ATOM      9  C   UNL     1     -38.816  -8.352 -14.594  1.00  0.00     0.094 A 
ATOM     10  C   UNL     1     -38.456  -7.008 -14.727  1.00  0.00     0.146 A 
ATOM     11  O   UNL     1     -37.606  -6.671 -15.690  1.00  0.00    -0.452 OA
ENDROOT
BRANCH   1  12
ATOM     12  C   UNL     1     -36.253  -5.181 -17.016  1.00  0.00     0.025 A 
ATOM     13  C   UNL     1     -36.730  -4.858 -18.296  1.00  0.00     0.016 A 
ATOM     14  C   UNL     1     -35.836  -4.651 -19.349  1.00  0.00     0.051 A 
ATOM     15  C   UNL     1     -34.458  -4.775 -19.151  1.00  0.00     0.157 A 
ATOM     16  C   UNL     1     -34.871  -5.327 -16.820  1.00  0.00     0.062 A 
ATOM     17  C   UNL     1     -33.968  -5.122 -17.871  1.00  0.00     0.158 A 
BRANCH  15  18
ATOM     18  O   UNL     1     -33.618  -4.551 -20.246  1.00  0.00    -0.504 OA
ATOM     19  H   UNL     1     -32.669  -4.891 -20.308  1.00  0.00     0.293 HD
ENDBRANCH  15  18
BRANCH  17  20
ATOM     20  O   UNL     1     -32.607  -5.273 -17.598  1.00  0.00    -0.504 OA
ATOM     21  H   UNL     1     -31.870  -4.991 -18.228  1.00  0.00     0.293 HD
ENDBRANCH  17  20
ENDBRANCH   1  12
BRANCH   2  22
ATOM     22  O   UNL     1     -37.083  -3.112 -15.164  1.00  0.00    -0.502 OA
ATOM     23  H   UNL     1     -37.154  -2.592 -16.031  1.00  0.00     0.293 HD
ENDBRANCH   2  22
BRANCH   6  24
ATOM     24  O   UNL     1     -40.607  -5.561 -12.010  1.00  0.00    -0.507 OA
ATOM     25  H   UNL     1     -41.478  -5.104 -12.231  1.00  0.00     0.293 HD
ENDBRANCH   6  24
BRANCH   8  26
ATOM     26  O   UNL     1     -40.043 -10.093 -13.440  1.00  0.00    -0.508 OA
ATOM     27  H   UNL     1     -40.941 -10.369 -13.058  1.00  0.00     0.293 HD
ENDBRANCH   8  26
TORSDOF 6
ENDMDL
MODEL 5
REMARK VINA RESULT:    -7.685      2.278      7.210
REMARK INTER + INTRA:          -9.545
REMARK INTER:                  -9.265
REMARK INTRA:                  -0.279
REMARK UNBOUND:                -0.288
REMARK SMILES O=c1c(O)c(-c2ccc(O)c(O)c2)oc2cc(O)cc(O)c12
REMARK SMILES IDX 5 1 3 2 2 3 1 4 22 5 20 6 19 7 17 8 16 9 15 10 14 11 6 12
REMARK SMILES IDX 7 13 8 14 9 15 13 16 11 17 10 18 12 20 4 22 21 24 18 26
REMARK H PARENT 10 19 12 21 4 23 21 25 18 27
REMARK Flexibility Score: inf
ROOT
ATOM      1  C   UNL     1     -34.163  -3.977 -17.014  1.00  0.00     0.180 A 
ATOM      2  C   UNL     1     -34.365  -5.346 -16.765  1.00  0.00     0.208 A 
ATOM      3  C   UNL     1     -35.386  -5.734 -15.882  1.00  0.00     0.238 A 
ATOM      4  O   UNL     1     -35.596  -6.962 -15.705  1.00  0.00    -0.285 OA
ATOM      5  C   UNL     1     -36.181  -4.749 -15.248  1.00  0.00     0.111 A 
ATOM      6  C   UNL     1     -37.216  -5.027 -14.306  1.00  0.00     0.134 A 
ATOM      7  C   UNL     1     -38.025  -3.984 -13.840  1.00  0.00     0.093 A 
ATOM      8  C   UNL     1     -37.796  -2.665 -14.232  1.00  0.00     0.123 A 
ATOM      9  C   UNL     1     -36.749  -2.375 -15.107  1.00  0.00     0.094 A 
ATOM     10  C   UNL     1     -35.947  -3.399 -15.617  1.00  0.00     0.146 A 
ATOM     11  O   UNL     1     -34.968  -3.081 -16.455  1.00  0.00    -0.452 OA
ENDROOT
BRANCH   1  12
ATOM     12  C   UNL     1     -33.092  -3.489 -17.912  1.00  0.00     0.025 A 
ATOM     13  C   UNL     1     -31.746  -3.489 -17.512  1.00  0.00     0.016 A 
ATOM     14  C   UNL     1     -30.756  -3.002 -18.367  1.00  0.00     0.051 A 
ATOM     15  C   UNL     1     -31.087  -2.495 -19.627  1.00  0.00     0.157 A 
ATOM     16  C   UNL     1     -33.428  -2.960 -19.168  1.00  0.00     0.062 A 
ATOM     17  C   UNL     1     -32.442  -2.469 -20.032  1.00  0.00     0.158 A 
BRANCH  15  18
ATOM     18  O   UNL     1     -30.048  -2.026 -20.436  1.00  0.00    -0.504 OA
ATOM     19  H   UNL     1     -29.197  -2.541 -20.616  1.00  0.00     0.293 HD
ENDBRANCH  15  18
BRANCH  17  20
ATOM     20  O   UNL     1     -32.850  -1.970 -21.270  1.00  0.00    -0.504 OA
ATOM     21  H   UNL     1     -32.979  -2.540 -22.094  1.00  0.00     0.293 HD
ENDBRANCH  17  20
ENDBRANCH   1  12
BRANCH   2  22
ATOM     22  O   UNL     1     -33.582  -6.302 -17.418  1.00  0.00    -0.502 OA
ATOM     23  H   UNL     1     -32.570  -6.263 -17.427  1.00  0.00     0.293 HD
ENDBRANCH   2  22
BRANCH   6  24
ATOM     24  O   UNL     1     -37.470  -6.297 -13.777  1.00  0.00    -0.507 OA
ATOM     25  H   UNL     1     -38.251  -6.527 -13.183  1.00  0.00     0.293 HD
ENDBRANCH   6  24
BRANCH   8  26
ATOM     26  O   UNL     1     -38.611  -1.650 -13.737  1.00  0.00    -0.508 OA
ATOM     27  H   UNL     1     -38.479  -0.683 -14.011  1.00  0.00     0.293 HD
ENDBRANCH   8  26
TORSDOF 6
ENDMDL
MODEL 6
REMARK VINA RESULT:    -7.535      4.653      7.908
REMARK INTER + INTRA:          -9.364
REMARK INTER:                  -9.123
REMARK INTRA:                  -0.241
REMARK UNBOUND:                -0.288
REMARK SMILES O=c1c(O)c(-c2ccc(O)c(O)c2)oc2cc(O)cc(O)c12
REMARK SMILES IDX 5 1 3 2 2 3 1 4 22 5 20 6 19 7 17 8 16 9 15 10 14 11 6 12
REMARK SMILES IDX 7 13 8 14 9 15 13 16 11 17 10 18 12 20 4 22 21 24 18 26
REMARK H PARENT 10 19 12 21 4 23 21 25 18 27
REMARK Flexibility Score: inf
ROOT
ATOM      1  C   UNL     1     -37.684  -4.261 -12.277  1.00  0.00     0.180 A 
ATOM      2  C   UNL     1     -36.530  -4.845 -12.827  1.00  0.00     0.208 A 
ATOM      3  C   UNL     1     -36.619  -6.128 -13.390  1.00  0.00     0.238 A 
ATOM      4  O   UNL     1     -35.595  -6.624 -13.928  1.00  0.00    -0.285 OA
ATOM      5  C   UNL     1     -37.856  -6.816 -13.383  1.00  0.00     0.111 A 
ATOM      6  C   UNL     1     -38.052  -8.136 -13.891  1.00  0.00     0.134 A 
ATOM      7  C   UNL     1     -39.346  -8.668 -13.950  1.00  0.00     0.093 A 
ATOM      8  C   UNL     1     -40.441  -7.955 -13.462  1.00  0.00     0.123 A 
ATOM      9  C   UNL     1     -40.252  -6.688 -12.910  1.00  0.00     0.094 A 
ATOM     10  C   UNL     1     -38.978  -6.116 -12.869  1.00  0.00     0.146 A 
ATOM     11  O   UNL     1     -38.843  -4.904 -12.344  1.00  0.00    -0.452 OA
ENDROOT
BRANCH   1  12
ATOM     12  C   UNL     1     -37.664  -2.922 -11.643  1.00  0.00     0.025 A 
ATOM     13  C   UNL     1     -37.789  -2.771 -10.253  1.00  0.00     0.016 A 
ATOM     14  C   UNL     1     -37.791  -1.497  -9.680  1.00  0.00     0.051 A 
ATOM     15  C   UNL     1     -37.682  -0.355 -10.478  1.00  0.00     0.157 A 
ATOM     16  C   UNL     1     -37.577  -1.776 -12.448  1.00  0.00     0.062 A 
ATOM     17  C   UNL     1     -37.578  -0.495 -11.882  1.00  0.00     0.158 A 
BRANCH  15  18
ATOM     18  O   UNL     1     -37.687   0.889  -9.841  1.00  0.00    -0.504 OA
ATOM     19  H   UNL     1     -37.327   1.737 -10.257  1.00  0.00     0.293 HD
ENDBRANCH  15  18
BRANCH  17  20
ATOM     20  O   UNL     1     -37.475   0.598 -12.744  1.00  0.00    -0.504 OA
ATOM     21  H   UNL     1     -37.449   1.560 -12.436  1.00  0.00     0.293 HD
ENDBRANCH  17  20
ENDBRANCH   1  12
BRANCH   2  22
ATOM     22  O   UNL     1     -35.324  -4.140 -12.842  1.00  0.00    -0.502 OA
ATOM     23  H   UNL     1     -34.911  -3.786 -13.697  1.00  0.00     0.293 HD
ENDBRANCH   2  22
BRANCH   6  24
ATOM     24  O   UNL     1     -37.014  -8.970 -14.318  1.00  0.00    -0.507 OA
ATOM     25  H   UNL     1     -36.780  -9.857 -13.901  1.00  0.00     0.293 HD
ENDBRANCH   6  24
BRANCH   8  26
ATOM     26  O   UNL     1     -41.712  -8.522 -13.524  1.00  0.00    -0.508 OA
ATOM     27  H   UNL     1     -42.150  -8.931 -12.706  1.00  0.00     0.293 HD
ENDBRANCH   8  26
TORSDOF 6
ENDMDL
MODEL 7
REMARK VINA RESULT:    -7.313      2.096      7.196
REMARK INTER + INTRA:          -9.097
REMARK INTER:                  -9.055
REMARK INTRA:                  -0.042
REMARK UNBOUND:                -0.288
REMARK SMILES O=c1c(O)c(-c2ccc(O)c(O)c2)oc2cc(O)cc(O)c12
REMARK SMILES IDX 5 1 3 2 2 3 1 4 22 5 20 6 19 7 17 8 16 9 15 10 14 11 6 12
REMARK SMILES IDX 7 13 8 14 9 15 13 16 11 17 10 18 12 20 4 22 21 24 18 26
REMARK H PARENT 10 19 12 21 4 23 21 25 18 27
REMARK Flexibility Score: inf
ROOT
ATOM      1  C   UNL     1     -36.260  -5.740 -15.079  1.00  0.00     0.180 A 
ATOM      2  C   UNL     1     -36.740  -7.060 -15.142  1.00  0.00     0.208 A 
ATOM      3  C   UNL     1     -37.883  -7.403 -14.403  1.00  0.00     0.238 A 
ATOM      4  O   UNL     1     -38.340  -8.571 -14.506  1.00  0.00    -0.285 OA
ATOM      5  C   UNL     1     -38.521  -6.429 -13.598  1.00  0.00     0.111 A 
ATOM      6  C   UNL     1     -39.662  -6.677 -12.777  1.00  0.00     0.134 A 
ATOM      7  C   UNL     1     -40.289  -5.610 -12.124  1.00  0.00     0.093 A 
ATOM      8  C   UNL     1     -39.779  -4.314 -12.209  1.00  0.00     0.123 A 
ATOM      9  C   UNL     1     -38.630  -4.070 -12.962  1.00  0.00     0.094 A 
ATOM     10  C   UNL     1     -38.003  -5.110 -13.654  1.00  0.00     0.146 A 
ATOM     11  O   UNL     1     -36.918  -4.833 -14.367  1.00  0.00    -0.452 OA
ENDROOT
BRANCH   1  12
ATOM     12  C   UNL     1     -35.046  -5.308 -15.810  1.00  0.00     0.025 A 
ATOM     13  C   UNL     1     -33.976  -4.687 -15.146  1.00  0.00     0.016 A 
ATOM     14  C   UNL     1     -32.852  -4.267 -15.861  1.00  0.00     0.051 A 
ATOM     15  C   UNL     1     -32.778  -4.443 -17.245  1.00  0.00     0.157 A 
ATOM     16  C   UNL     1     -34.984  -5.466 -17.203  1.00  0.00     0.062 A 
ATOM     17  C   UNL     1     -33.860  -5.047 -17.927  1.00  0.00     0.158 A 
BRANCH  15  18
ATOM     18  O   UNL     1     -31.624  -4.004 -17.899  1.00  0.00    -0.504 OA
ATOM     19  H   UNL     1     -31.240  -3.074 -17.802  1.00  0.00     0.293 HD
ENDBRANCH  15  18
BRANCH  17  20
ATOM     20  O   UNL     1     -33.864  -5.249 -19.309  1.00  0.00    -0.504 OA
ATOM     21  H   UNL     1     -33.820  -6.158 -19.747  1.00  0.00     0.293 HD
ENDBRANCH  17  20
ENDBRANCH   1  12
BRANCH   2  22
ATOM     22  O   UNL     1     -36.108  -8.000 -15.960  1.00  0.00    -0.502 OA
ATOM     23  H   UNL     1     -36.408  -8.186 -16.909  1.00  0.00     0.293 HD
ENDBRANCH   2  22
BRANCH   6  24
ATOM     24  O   UNL     1     -40.197  -7.949 -12.548  1.00  0.00    -0.507 OA
ATOM     25  H   UNL     1     -40.069  -8.484 -11.703  1.00  0.00     0.293 HD
ENDBRANCH   6  24
BRANCH   8  26
ATOM     26  O   UNL     1     -40.419  -3.278 -11.534  1.00  0.00    -0.508 OA
ATOM     27  H   UNL     1     -41.235  -3.446 -10.955  1.00  0.00     0.293 HD
ENDBRANCH   8  26
TORSDOF 6
ENDMDL
MODEL 8
REMARK VINA RESULT:    -7.289      2.041      6.766
REMARK INTER + INTRA:          -9.069
REMARK INTER:                  -8.818
REMARK INTRA:                  -0.250
REMARK UNBOUND:                -0.288
REMARK SMILES O=c1c(O)c(-c2ccc(O)c(O)c2)oc2cc(O)cc(O)c12
REMARK SMILES IDX 5 1 3 2 2 3 1 4 22 5 20 6 19 7 17 8 16 9 15 10 14 11 6 12
REMARK SMILES IDX 7 13 8 14 9 15 13 16 11 17 10 18 12 20 4 22 21 24 18 26
REMARK H PARENT 10 19 12 21 4 23 21 25 18 27
REMARK Flexibility Score: inf
ROOT
ATOM      1  C   UNL     1     -34.395  -4.575 -16.195  1.00  0.00     0.180 A 
ATOM      2  C   UNL     1     -35.383  -5.220 -16.960  1.00  0.00     0.208 A 
ATOM      3  C   UNL     1     -36.622  -5.509 -16.366  1.00  0.00     0.238 A 
ATOM      4  O   UNL     1     -37.521  -6.038 -17.071  1.00  0.00    -0.285 OA
ATOM      5  C   UNL     1     -36.852  -5.165 -15.013  1.00  0.00     0.111 A 
ATOM      6  C   UNL     1     -38.056  -5.446 -14.299  1.00  0.00     0.134 A 
ATOM      7  C   UNL     1     -38.224  -4.945 -13.003  1.00  0.00     0.093 A 
ATOM      8  C   UNL     1     -37.208  -4.228 -12.370  1.00  0.00     0.123 A 
ATOM      9  C   UNL     1     -36.004  -3.998 -13.038  1.00  0.00     0.094 A 
ATOM     10  C   UNL     1     -35.821  -4.456 -14.345  1.00  0.00     0.146 A 
ATOM     11  O   UNL     1     -34.665  -4.207 -14.948  1.00  0.00    -0.452 OA
ENDROOT
BRANCH   1  12
ATOM     12  C   UNL     1     -33.056  -4.260 -16.742  1.00  0.00     0.025 A 
ATOM     13  C   UNL     1     -32.870  -3.219 -17.666  1.00  0.00     0.016 A 
ATOM     14  C   UNL     1     -31.601  -2.955 -18.186  1.00  0.00     0.051 A 
ATOM     15  C   UNL     1     -30.500  -3.729 -17.808  1.00  0.00     0.157 A 
ATOM     16  C   UNL     1     -31.955  -5.051 -16.378  1.00  0.00     0.062 A 
ATOM     17  C   UNL     1     -30.679  -4.794 -16.895  1.00  0.00     0.158 A 
BRANCH  15  18
ATOM     18  O   UNL     1     -29.257  -3.410 -18.361  1.00  0.00    -0.504 OA
ATOM     19  H   UNL     1     -28.680  -4.066 -18.869  1.00  0.00     0.293 HD
ENDBRANCH  15  18
BRANCH  17  20
ATOM     20  O   UNL     1     -29.630  -5.615 -16.477  1.00  0.00    -0.504 OA
ATOM     21  H   UNL     1     -29.572  -6.035 -15.560  1.00  0.00     0.293 HD
ENDBRANCH  17  20
ENDBRANCH   1  12
BRANCH   2  22
ATOM     22  O   UNL     1     -35.142  -5.531 -18.300  1.00  0.00    -0.502 OA
ATOM     23  H   UNL     1     -35.546  -6.343 -18.752  1.00  0.00     0.293 HD
ENDBRANCH   2  22
BRANCH   6  24
ATOM     24  O   UNL     1     -39.097  -6.233 -14.803  1.00  0.00    -0.507 OA
ATOM     25  H   UNL     1     -39.432  -7.084 -14.380  1.00  0.00     0.293 HD
ENDBRANCH   6  24
BRANCH   8  26
ATOM     26  O   UNL     1     -37.403  -3.758 -11.074  1.00  0.00    -0.508 OA
ATOM     27  H   UNL     1     -38.232  -3.998 -10.542  1.00  0.00     0.293 HD
ENDBRANCH   8  26
TORSDOF 6
ENDMDL
MODEL 9
REMARK VINA RESULT:    -7.231      1.789      3.517
REMARK INTER + INTRA:          -8.999
REMARK INTER:                  -8.683
REMARK INTRA:                  -0.316
REMARK UNBOUND:                -0.288
REMARK SMILES O=c1c(O)c(-c2ccc(O)c(O)c2)oc2cc(O)cc(O)c12
REMARK SMILES IDX 5 1 3 2 2 3 1 4 22 5 20 6 19 7 17 8 16 9 15 10 14 11 6 12
REMARK SMILES IDX 7 13 8 14 9 15 13 16 11 17 10 18 12 20 4 22 21 24 18 26
REMARK H PARENT 10 19 12 21 4 23 21 25 18 27
REMARK Flexibility Score: inf
ROOT
ATOM      1  C   UNL     1     -37.112  -6.023 -15.053  1.00  0.00     0.180 A 
ATOM      2  C   UNL     1     -36.170  -5.379 -14.233  1.00  0.00     0.208 A 
ATOM      3  C   UNL     1     -35.054  -4.768 -14.829  1.00  0.00     0.238 A 
ATOM      4  O   UNL     1     -34.243  -4.146 -14.095  1.00  0.00    -0.285 OA
ATOM      5  C   UNL     1     -34.888  -4.822 -16.234  1.00  0.00     0.111 A 
ATOM      6  C   UNL     1     -33.776  -4.272 -16.939  1.00  0.00     0.134 A 
ATOM      7  C   UNL     1     -33.778  -4.269 -18.339  1.00  0.00     0.093 A 
ATOM      8  C   UNL     1     -34.820  -4.855 -19.058  1.00  0.00     0.123 A 
ATOM      9  C   UNL     1     -35.884  -5.448 -18.377  1.00  0.00     0.094 A 
ATOM     10  C   UNL     1     -35.927  -5.434 -16.981  1.00  0.00     0.146 A 
ATOM     11  O   UNL     1     -36.961  -6.001 -16.372  1.00  0.00    -0.452 OA
ENDROOT
BRANCH   1  12
ATOM     12  C   UNL     1     -38.300  -6.712 -14.498  1.00  0.00     0.025 A 
ATOM     13  C   UNL     1     -39.480  -6.011 -14.205  1.00  0.00     0.016 A 
ATOM     14  C   UNL     1     -40.580  -6.678 -13.660  1.00  0.00     0.051 A 
ATOM     15  C   UNL     1     -40.520  -8.047 -13.385  1.00  0.00     0.157 A 
ATOM     16  C   UNL     1     -38.230  -8.082 -14.202  1.00  0.00     0.062 A 
ATOM     17  C   UNL     1     -39.328  -8.759 -13.656  1.00  0.00     0.158 A 
BRANCH  15  18
ATOM     18  O   UNL     1     -41.656  -8.654 -12.844  1.00  0.00    -0.504 OA
ATOM     19  H   UNL     1     -41.692  -9.063 -11.921  1.00  0.00     0.293 HD
ENDBRANCH  15  18
BRANCH  17  20
ATOM     20  O   UNL     1     -39.189 -10.125 -13.400  1.00  0.00    -0.504 OA
ATOM     21  H   UNL     1     -39.450 -10.850 -14.052  1.00  0.00     0.293 HD
ENDBRANCH  17  20
ENDBRANCH   1  12
BRANCH   2  22
ATOM     22  O   UNL     1     -36.365  -5.319 -12.851  1.00  0.00    -0.502 OA
ATOM     23  H   UNL     1     -35.599  -5.362 -12.191  1.00  0.00     0.293 HD
ENDBRANCH   2  22
BRANCH   6  24
ATOM     24  O   UNL     1     -32.639  -3.746 -16.316  1.00  0.00    -0.507 OA
ATOM     25  H   UNL     1     -31.854  -3.339 -16.801  1.00  0.00     0.293 HD
ENDBRANCH   6  24
BRANCH   8  26
ATOM     26  O   UNL     1     -34.782  -4.848 -20.450  1.00  0.00    -0.508 OA
ATOM     27  H   UNL     1     -35.625  -4.953 -21.004  1.00  0.00     0.293 HD
ENDBRANCH   8  26
TORSDOF 6
ENDMDL
