MODEL 1
REMARK VINA RESULT:    -4.802      0.000      0.000
REMARK INTER + INTRA:          -7.397
REMARK INTER:                  -7.329
REMARK INTRA:                  -0.068
REMARK UNBOUND:                -0.068
REMARK SMILES CC1=CCC[C@@H](C)C(=O)C[C@@H](C(C)C)C(=O)C1
REMARK SMILES IDX 8 1 9 2 6 3 7 4 5 5 4 6 3 7 2 8 1 9 10 11 11 12 15 13 16 14
REMARK SMILES IDX 17 15 12 17 13 18 14 19
REMARK H PARENT
REMARK Flexibility Score: 70.00
ROOT
ATOM      1  C   UNL     1     -12.050 -15.939  31.262  1.00  0.00     0.136 C 
ATOM      2  O   UNL     1     -11.256 -15.746  32.172  1.00  0.00    -0.299 OA
ENDROOT
BRANCH   1   3
ATOM      3  C   UNL     1     -13.487 -16.297  31.579  1.00  0.00     0.053 C 
ATOM      4  C   UNL     1     -14.166 -15.111  32.270  1.00  0.00     0.016 C 
BRANCH   3   5
ATOM      5  C   UNL     1     -13.595 -17.562  32.461  1.00  0.00     0.015 C 
BRANCH   5   6
ATOM      6  C   UNL     1     -12.690 -18.709  31.990  1.00  0.00     0.028 C 
BRANCH   6   7
ATOM      7  C   UNL     1     -13.323 -19.474  30.853  1.00  0.00    -0.028 C 
ATOM      8  C   UNL     1     -12.847 -19.564  29.588  1.00  0.00    -0.070 CG0
ATOM      9  C   UNL     1     -13.651 -20.363  28.593  1.00  0.00     0.039 C 
ATOM     10  G   UNL     1     -11.570 -18.896  29.112  1.00  0.00     0.000 G0
ENDBRANCH   6   7
ENDBRANCH   5   6
ENDBRANCH   3   5
ENDBRANCH   1   3
BRANCH   1  11
ATOM     11  C   UNL     1     -11.616 -15.705  29.836  1.00  0.00     0.087 C 
BRANCH  11  12
ATOM     12  C   UNL     1     -12.515 -16.396  28.780  1.00  0.00     0.066 C 
BRANCH  12  13
ATOM     13  C   UNL     1     -11.825 -17.662  28.273  1.00  0.00     0.140 C 
ATOM     14  O   UNL     1     -11.441 -17.668  27.112  1.00  0.00    -0.299 OA
BRANCH  13  15
ATOM     15  C   UNL     1     -11.553 -18.896  29.111  1.00  0.00     0.106 CG0
ATOM     16  G   UNL     1     -12.842 -19.548  29.577  1.00  0.00     0.000 G0
ENDBRANCH  13  15
ENDBRANCH  12  13
BRANCH  12  17
ATOM     17  C   UNL     1     -13.083 -15.441  27.677  1.00  0.00    -0.006 C 
ATOM     18  C   UNL     1     -13.960 -16.211  26.671  1.00  0.00     0.008 C 
ATOM     19  C   UNL     1     -13.939 -14.310  28.280  1.00  0.00     0.008 C 
ENDBRANCH  12  17
ENDBRANCH  11  12
ENDBRANCH   1  11
TORSDOF 1
ENDMDL
MODEL 2
REMARK VINA RESULT:    -4.554      1.982      4.066
REMARK INTER + INTRA:          -7.019
REMARK INTER:                  -6.581
REMARK INTRA:                  -0.437
REMARK UNBOUND:                -0.068
REMARK SMILES CC1=CCC[C@@H](C)C(=O)C[C@@H](C(C)C)C(=O)C1
REMARK SMILES IDX 8 1 9 2 6 3 7 4 5 5 4 6 3 7 2 8 1 9 10 11 11 12 15 13 16 14
REMARK SMILES IDX 17 15 12 17 13 18 14 19
REMARK H PARENT
REMARK Flexibility Score: 70.00
ROOT
ATOM      1  C   UNL     1     -11.616 -17.722  31.550  1.00  0.00     0.136 C 
ATOM      2  O   UNL     1     -10.507 -18.054  31.946  1.00  0.00    -0.299 OA
ENDROOT
BRANCH   1   3
ATOM      3  C   UNL     1     -12.527 -18.749  30.911  1.00  0.00     0.053 C 
ATOM      4  C   UNL     1     -12.696 -19.939  31.859  1.00  0.00     0.016 C 
BRANCH   3   5
ATOM      5  C   UNL     1     -11.996 -19.230  29.541  1.00  0.00     0.015 C 
BRANCH   5   6
ATOM      6  C   UNL     1     -11.385 -18.103  28.697  1.00  0.00     0.028 C 
BRANCH   6   7
ATOM      7  C   UNL     1     -12.418 -17.474  27.794  1.00  0.00    -0.028 C 
ATOM      8  C   UNL     1     -12.921 -16.221  27.906  1.00  0.00    -0.070 CG0
ATOM      9  C   UNL     1     -13.970 -15.796  26.909  1.00  0.00     0.039 C 
ATOM     10  G   UNL     1     -12.507 -15.234  28.982  1.00  0.00     0.000 G0
ENDBRANCH   6   7
ENDBRANCH   5   6
ENDBRANCH   3   5
ENDBRANCH   1   3
BRANCH   1  11
ATOM     11  C   UNL     1     -12.107 -16.319  31.808  1.00  0.00     0.087 C 
BRANCH  11  12
ATOM     12  C   UNL     1     -13.555 -16.058  31.325  1.00  0.00     0.066 C 
BRANCH  12  13
ATOM     13  C   UNL     1     -13.529 -15.143  30.101  1.00  0.00     0.140 C 
ATOM     14  O   UNL     1     -14.378 -14.266  30.034  1.00  0.00    -0.299 OA
BRANCH  13  15
ATOM     15  C   UNL     1     -12.509 -15.223  28.982  1.00  0.00     0.106 CG0
ATOM     16  G   UNL     1     -12.923 -16.226  27.921  1.00  0.00     0.000 G0
ENDBRANCH  13  15
ENDBRANCH  12  13
BRANCH  12  17
ATOM     17  C   UNL     1     -14.560 -15.653  32.457  1.00  0.00    -0.006 C 
ATOM     18  C   UNL     1     -14.831 -16.833  33.409  1.00  0.00     0.008 C 
ATOM     19  C   UNL     1     -14.032 -14.477  33.302  1.00  0.00     0.008 C 
ENDBRANCH  12  17
ENDBRANCH  11  12
ENDBRANCH   1  11
TORSDOF 1
ENDMDL
MODEL 3
REMARK VINA RESULT:    -4.364      2.029      4.854
REMARK INTER + INTRA:          -6.728
REMARK INTER:                  -6.740
REMARK INTRA:                   0.012
REMARK UNBOUND:                -0.068
REMARK SMILES CC1=CCC[C@@H](C)C(=O)C[C@@H](C(C)C)C(=O)C1
REMARK SMILES IDX 8 1 9 2 6 3 7 4 5 5 4 6 3 7 2 8 1 9 10 11 11 12 15 13 16 14
REMARK SMILES IDX 17 15 12 17 13 18 14 19
REMARK H PARENT
REMARK Flexibility Score: 70.00
ROOT
ATOM      1  C   UNL     1     -11.261 -17.092  28.719  1.00  0.00     0.136 C 
ATOM      2  O   UNL     1     -10.260 -16.396  28.626  1.00  0.00    -0.299 OA
ENDROOT
BRANCH   1   3
ATOM      3  C   UNL     1     -12.299 -17.071  27.615  1.00  0.00     0.053 C 
ATOM      4  C   UNL     1     -11.596 -17.026  26.256  1.00  0.00     0.016 C 
BRANCH   3   5
ATOM      5  C   UNL     1     -13.274 -15.879  27.751  1.00  0.00     0.015 C 
BRANCH   5   6
ATOM      6  C   UNL     1     -12.823 -14.840  28.787  1.00  0.00     0.028 C 
BRANCH   6   7
ATOM      7  C   UNL     1     -13.892 -14.604  29.827  1.00  0.00    -0.028 C 
ATOM      8  C   UNL     1     -13.906 -15.103  31.086  1.00  0.00    -0.070 CG0
ATOM      9  C   UNL     1     -15.087 -14.764  31.960  1.00  0.00     0.039 C 
ATOM     10  G   UNL     1     -12.819 -15.996  31.657  1.00  0.00     0.000 G0
ENDBRANCH   6   7
ENDBRANCH   5   6
ENDBRANCH   3   5
ENDBRANCH   1   3
BRANCH   1  11
ATOM     11  C   UNL     1     -11.395 -18.049  29.876  1.00  0.00     0.087 C 
BRANCH  11  12
ATOM     12  C   UNL     1     -12.859 -18.329  30.300  1.00  0.00     0.066 C 
BRANCH  12  13
ATOM     13  C   UNL     1     -13.214 -17.464  31.509  1.00  0.00     0.140 C 
ATOM     14  O   UNL     1     -13.822 -17.999  32.425  1.00  0.00    -0.299 OA
BRANCH  13  15
ATOM     15  C   UNL     1     -12.841 -16.004  31.670  1.00  0.00     0.106 CG0
ATOM     16  G   UNL     1     -13.904 -15.089  31.088  1.00  0.00     0.000 G0
ENDBRANCH  13  15
ENDBRANCH  12  13
BRANCH  12  17
ATOM     17  C   UNL     1     -13.229 -19.846  30.414  1.00  0.00    -0.006 C 
ATOM     18  C   UNL     1     -13.297 -20.509  29.024  1.00  0.00     0.008 C 
ATOM     19  C   UNL     1     -12.205 -20.628  31.260  1.00  0.00     0.008 C 
ENDBRANCH  12  17
ENDBRANCH  11  12
ENDBRANCH   1  11
TORSDOF 1
ENDMDL
MODEL 4
REMARK VINA RESULT:    -4.183      1.513      3.607
REMARK INTER + INTRA:          -6.453
REMARK INTER:                  -6.788
REMARK INTRA:                   0.336
REMARK UNBOUND:                -0.068
REMARK SMILES CC1=CCC[C@@H](C)C(=O)C[C@@H](C(C)C)C(=O)C1
REMARK SMILES IDX 8 1 9 2 6 3 7 4 5 5 4 6 3 7 2 8 1 9 10 11 11 12 15 13 16 14
REMARK SMILES IDX 17 15 12 17 13 18 14 19
REMARK H PARENT
REMARK Flexibility Score: 70.00
ROOT
ATOM      1  C   UNL     1     -12.782 -15.448  28.545  1.00  0.00     0.136 C 
ATOM      2  O   UNL     1     -13.411 -14.400  28.602  1.00  0.00    -0.299 OA
ENDROOT
BRANCH   1   3
ATOM      3  C   UNL     1     -13.081 -16.447  27.446  1.00  0.00     0.053 C 
ATOM      4  C   UNL     1     -14.143 -15.868  26.507  1.00  0.00     0.016 C 
BRANCH   3   5
ATOM      5  C   UNL     1     -13.549 -17.810  28.005  1.00  0.00     0.015 C 
BRANCH   5   6
ATOM      6  C   UNL     1     -12.394 -18.785  28.272  1.00  0.00     0.028 C 
BRANCH   6   7
ATOM      7  C   UNL     1     -12.576 -19.501  29.589  1.00  0.00    -0.028 C 
ATOM      8  C   UNL     1     -11.875 -19.275  30.725  1.00  0.00    -0.070 CG0
ATOM      9  C   UNL     1     -12.200 -20.123  31.929  1.00  0.00     0.039 C 
ATOM     10  G   UNL     1     -10.775 -18.237  30.850  1.00  0.00     0.000 G0
ENDBRANCH   6   7
ENDBRANCH   5   6
ENDBRANCH   3   5
ENDBRANCH   1   3
BRANCH   1  11
ATOM     11  C   UNL     1     -11.639 -15.681  29.501  1.00  0.00     0.087 C 
BRANCH  11  12
ATOM     12  C   UNL     1     -12.078 -15.890  30.972  1.00  0.00     0.066 C 
BRANCH  12  13
ATOM     13  C   UNL     1     -11.237 -16.999  31.603  1.00  0.00     0.140 C 
ATOM     14  O   UNL     1     -10.953 -16.887  32.787  1.00  0.00    -0.299 OA
BRANCH  13  15
ATOM     15  C   UNL     1     -10.759 -18.242  30.879  1.00  0.00     0.106 CG0
ATOM     16  G   UNL     1     -11.867 -19.269  30.743  1.00  0.00     0.000 G0
ENDBRANCH  13  15
ENDBRANCH  12  13
BRANCH  12  17
ATOM     17  C   UNL     1     -13.625 -16.001  31.185  1.00  0.00    -0.006 C 
ATOM     18  C   UNL     1     -13.972 -17.139  32.165  1.00  0.00     0.008 C 
ATOM     19  C   UNL     1     -14.226 -14.697  31.744  1.00  0.00     0.008 C 
ENDBRANCH  12  17
ENDBRANCH  11  12
ENDBRANCH   1  11
TORSDOF 1
ENDMDL
MODEL 5
REMARK VINA RESULT:    -4.119      2.226      4.092
REMARK INTER + INTRA:          -6.354
REMARK INTER:                  -6.014
REMARK INTRA:                  -0.340
REMARK UNBOUND:                -0.068
REMARK SMILES CC1=CCC[C@@H](C)C(=O)C[C@@H](C(C)C)C(=O)C1
REMARK SMILES IDX 8 1 9 2 6 3 7 4 5 5 4 6 3 7 2 8 1 9 10 11 11 12 15 13 16 14
REMARK SMILES IDX 17 15 12 17 13 18 14 19
REMARK H PARENT
REMARK Flexibility Score: 70.00
ROOT
ATOM      1  C   UNL     1     -13.514 -16.913  32.358  1.00  0.00     0.136 C 
ATOM      2  O   UNL     1     -14.352 -17.357  33.129  1.00  0.00    -0.299 OA
ENDROOT
BRANCH   1   3
ATOM      3  C   UNL     1     -13.610 -15.478  31.884  1.00  0.00     0.053 C 
ATOM      4  C   UNL     1     -14.529 -14.692  32.823  1.00  0.00     0.016 C 
BRANCH   3   5
ATOM      5  C   UNL     1     -14.121 -15.375  30.428  1.00  0.00     0.015 C 
BRANCH   5   6
ATOM      6  C   UNL     1     -13.071 -14.825  29.453  1.00  0.00     0.028 C 
BRANCH   6   7
ATOM      7  C   UNL     1     -12.837 -15.779  28.306  1.00  0.00    -0.028 C 
ATOM      8  C   UNL     1     -11.714 -16.500  28.083  1.00  0.00    -0.070 CG0
ATOM      9  C   UNL     1     -11.677 -17.378  26.857  1.00  0.00     0.039 C 
ATOM     10  G   UNL     1     -10.488 -16.461  28.978  1.00  0.00     0.000 G0
ENDBRANCH   6   7
ENDBRANCH   5   6
ENDBRANCH   3   5
ENDBRANCH   1   3
BRANCH   1  11
ATOM     11  C   UNL     1     -12.329 -17.766  31.979  1.00  0.00     0.087 C 
BRANCH  11  12
ATOM     12  C   UNL     1     -11.076 -16.958  31.558  1.00  0.00     0.066 C 
BRANCH  12  13
ATOM     13  C   UNL     1     -10.631 -17.394  30.163  1.00  0.00     0.140 C 
ATOM     14  O   UNL     1     -10.408 -18.584  29.989  1.00  0.00    -0.299 OA
BRANCH  13  15
ATOM     15  C   UNL     1     -10.478 -16.468  28.973  1.00  0.00     0.106 CG0
ATOM     16  G   UNL     1     -11.710 -16.488  28.088  1.00  0.00     0.000 G0
ENDBRANCH  13  15
ENDBRANCH  12  13
BRANCH  12  17
ATOM     17  C   UNL     1      -9.948 -16.887  32.643  1.00  0.00    -0.006 C 
ATOM     18  C   UNL     1     -10.165 -15.694  33.594  1.00  0.00     0.008 C 
ATOM     19  C   UNL     1      -9.890 -18.167  33.498  1.00  0.00     0.008 C 
ENDBRANCH  12  17
ENDBRANCH  11  12
ENDBRANCH   1  11
TORSDOF 1
ENDMDL
MODEL 6
REMARK VINA RESULT:    -3.979      1.704      3.978
REMARK INTER + INTRA:          -6.140
REMARK INTER:                  -6.689
REMARK INTRA:                   0.548
REMARK UNBOUND:                -0.068
REMARK SMILES CC1=CCC[C@@H](C)C(=O)C[C@@H](C(C)C)C(=O)C1
REMARK SMILES IDX 8 1 9 2 6 3 7 4 5 5 4 6 3 7 2 8 1 9 10 11 11 12 15 13 16 14
REMARK SMILES IDX 17 15 12 17 13 18 14 19
REMARK H PARENT
REMARK Flexibility Score: 70.00
ROOT
ATOM      1  C   UNL     1     -12.847 -15.721  29.562  1.00  0.00     0.136 C 
ATOM      2  O   UNL     1     -13.248 -14.892  28.758  1.00  0.00    -0.299 OA
ENDROOT
BRANCH   1   3
ATOM      3  C   UNL     1     -11.686 -16.623  29.199  1.00  0.00     0.053 C 
ATOM      4  C   UNL     1     -10.495 -15.768  28.759  1.00  0.00     0.016 C 
BRANCH   3   5
ATOM      5  C   UNL     1     -12.055 -17.635  28.089  1.00  0.00     0.015 C 
BRANCH   5   6
ATOM      6  C   UNL     1     -13.278 -18.495  28.435  1.00  0.00     0.028 C 
BRANCH   6   7
ATOM      7  C   UNL     1     -12.885 -19.705  29.247  1.00  0.00    -0.028 C 
ATOM      8  C   UNL     1     -12.957 -19.822  30.594  1.00  0.00    -0.070 CG0
ATOM      9  C   UNL     1     -12.487 -21.115  31.211  1.00  0.00     0.039 C 
ATOM     10  G   UNL     1     -13.461 -18.726  31.514  1.00  0.00     0.000 G0
ENDBRANCH   6   7
ENDBRANCH   5   6
ENDBRANCH   3   5
ENDBRANCH   1   3
BRANCH   1  11
ATOM     11  C   UNL     1     -13.439 -15.757  30.948  1.00  0.00     0.087 C 
BRANCH  11  12
ATOM     12  C   UNL     1     -12.465 -16.268  32.039  1.00  0.00     0.066 C 
BRANCH  12  13
ATOM     13  C   UNL     1     -12.325 -17.786  31.930  1.00  0.00     0.140 C 
ATOM     14  O   UNL     1     -11.238 -18.273  32.205  1.00  0.00    -0.299 OA
BRANCH  13  15
ATOM     15  C   UNL     1     -13.441 -18.733  31.537  1.00  0.00     0.106 CG0
ATOM     16  G   UNL     1     -12.945 -19.825  30.607  1.00  0.00     0.000 G0
ENDBRANCH  13  15
ENDBRANCH  12  13
BRANCH  12  17
ATOM     17  C   UNL     1     -12.742 -15.711  33.477  1.00  0.00    -0.006 C 
ATOM     18  C   UNL     1     -11.490 -15.026  34.059  1.00  0.00     0.008 C 
ATOM     19  C   UNL     1     -13.890 -14.682  33.486  1.00  0.00     0.008 C 
ENDBRANCH  12  17
ENDBRANCH  11  12
ENDBRANCH   1  11
TORSDOF 1
ENDMDL
MODEL 7
REMARK VINA RESULT:    -3.934      1.848      4.372
REMARK INTER + INTRA:          -6.072
REMARK INTER:                  -6.695
REMARK INTRA:                   0.623
REMARK UNBOUND:                -0.068
REMARK SMILES CC1=CCC[C@@H](C)C(=O)C[C@@H](C(C)C)C(=O)C1
REMARK SMILES IDX 8 1 9 2 6 3 7 4 5 5 4 6 3 7 2 8 1 9 10 11 11 12 15 13 16 14
REMARK SMILES IDX 17 15 12 17 13 18 14 19
REMARK H PARENT
REMARK Flexibility Score: 70.00
ROOT
ATOM      1  C   UNL     1     -12.804 -19.074  30.814  1.00  0.00     0.136 C 
ATOM      2  O   UNL     1     -13.264 -20.078  31.339  1.00  0.00    -0.299 OA
ENDROOT
BRANCH   1   3
ATOM      3  C   UNL     1     -12.896 -18.899  29.312  1.00  0.00     0.053 C 
ATOM      4  C   UNL     1     -13.579 -20.124  28.698  1.00  0.00     0.016 C 
BRANCH   3   5
ATOM      5  C   UNL     1     -11.511 -18.677  28.662  1.00  0.00     0.015 C 
BRANCH   5   6
ATOM      6  C   UNL     1     -11.549 -17.722  27.462  1.00  0.00     0.028 C 
BRANCH   6   7
ATOM      7  C   UNL     1     -12.644 -16.694  27.616  1.00  0.00    -0.028 C 
ATOM      8  C   UNL     1     -12.594 -15.583  28.388  1.00  0.00    -0.070 CG0
ATOM      9  C   UNL     1     -13.814 -14.696  28.419  1.00  0.00     0.039 C 
ATOM     10  G   UNL     1     -11.397 -15.190  29.234  1.00  0.00     0.000 G0
ENDBRANCH   6   7
ENDBRANCH   5   6
ENDBRANCH   3   5
ENDBRANCH   1   3
BRANCH   1  11
ATOM     11  C   UNL     1     -12.254 -17.969  31.680  1.00  0.00     0.087 C 
BRANCH  11  12
ATOM     12  C   UNL     1     -12.654 -16.545  31.220  1.00  0.00     0.066 C 
BRANCH  12  13
ATOM     13  C   UNL     1     -11.440 -15.845  30.608  1.00  0.00     0.140 C 
ATOM     14  O   UNL     1     -10.407 -15.836  31.262  1.00  0.00    -0.299 OA
BRANCH  13  15
ATOM     15  C   UNL     1     -11.415 -15.192  29.241  1.00  0.00     0.106 CG0
ATOM     16  G   UNL     1     -12.611 -15.607  28.403  1.00  0.00     0.000 G0
ENDBRANCH  13  15
ENDBRANCH  12  13
BRANCH  12  17
ATOM     17  C   UNL     1     -13.457 -15.716  32.278  1.00  0.00    -0.006 C 
ATOM     18  C   UNL     1     -14.383 -14.690  31.597  1.00  0.00     0.008 C 
ATOM     19  C   UNL     1     -14.330 -16.617  33.174  1.00  0.00     0.008 C 
ENDBRANCH  12  17
ENDBRANCH  11  12
ENDBRANCH   1  11
TORSDOF 1
ENDMDL
MODEL 8
REMARK VINA RESULT:    -3.551      1.815      3.860
REMARK INTER + INTRA:          -5.487
REMARK INTER:                  -5.940
REMARK INTRA:                   0.453
REMARK UNBOUND:                -0.068
REMARK SMILES CC1=CCC[C@@H](C)C(=O)C[C@@H](C(C)C)C(=O)C1
REMARK SMILES IDX 8 1 9 2 6 3 7 4 5 5 4 6 3 7 2 8 1 9 10 11 11 12 15 13 16 14
REMARK SMILES IDX 17 15 12 17 13 18 14 19
REMARK H PARENT
REMARK Flexibility Score: 70.00
ROOT
ATOM      1  C   UNL     1     -10.522 -15.840  29.433  1.00  0.00     0.136 C 
ATOM      2  O   UNL     1      -9.913 -14.870  29.861  1.00  0.00    -0.299 OA
ENDROOT
BRANCH   1   3
ATOM      3  C   UNL     1     -11.495 -15.672  28.285  1.00  0.00     0.053 C 
ATOM      4  C   UNL     1     -12.826 -15.135  28.820  1.00  0.00     0.016 C 
BRANCH   3   5
ATOM      5  C   UNL     1     -11.724 -16.993  27.513  1.00  0.00     0.015 C 
BRANCH   5   6
ATOM      6  C   UNL     1     -13.170 -17.500  27.593  1.00  0.00     0.028 C 
BRANCH   6   7
ATOM      7  C   UNL     1     -13.231 -18.888  28.184  1.00  0.00    -0.028 C 
ATOM      8  C   UNL     1     -13.213 -19.196  29.503  1.00  0.00    -0.070 CG0
ATOM      9  C   UNL     1     -13.258 -20.656  29.881  1.00  0.00     0.039 C 
ATOM     10  G   UNL     1     -13.129 -18.166  30.614  1.00  0.00     0.000 G0
ENDBRANCH   6   7
ENDBRANCH   5   6
ENDBRANCH   3   5
ENDBRANCH   1   3
BRANCH   1  11
ATOM     11  C   UNL     1     -10.211 -17.211  29.978  1.00  0.00     0.087 C 
BRANCH  11  12
ATOM     12  C   UNL     1     -10.658 -17.425  31.446  1.00  0.00     0.066 C 
BRANCH  12  13
ATOM     13  C   UNL     1     -11.875 -18.350  31.480  1.00  0.00     0.140 C 
ATOM     14  O   UNL     1     -11.847 -19.289  32.263  1.00  0.00    -0.299 OA
BRANCH  13  15
ATOM     15  C   UNL     1     -13.123 -18.170  30.639  1.00  0.00     0.106 CG0
ATOM     16  G   UNL     1     -13.198 -19.197  29.524  1.00  0.00     0.000 G0
ENDBRANCH  13  15
ENDBRANCH  12  13
BRANCH  12  17
ATOM     17  C   UNL     1     -10.775 -16.113  32.293  1.00  0.00    -0.006 C 
ATOM     18  C   UNL     1     -12.226 -15.875  32.754  1.00  0.00     0.008 C 
ATOM     19  C   UNL     1      -9.882 -16.156  33.549  1.00  0.00     0.008 C 
ENDBRANCH  12  17
ENDBRANCH  11  12
ENDBRANCH   1  11
TORSDOF 1
ENDMDL
MODEL 9
REMARK VINA RESULT:    -3.526      1.872      3.744
REMARK INTER + INTRA:          -5.449
REMARK INTER:                  -6.395
REMARK INTRA:                   0.946
REMARK UNBOUND:                -0.068
REMARK SMILES CC1=CCC[C@@H](C)C(=O)C[C@@H](C(C)C)C(=O)C1
REMARK SMILES IDX 8 1 9 2 6 3 7 4 5 5 4 6 3 7 2 8 1 9 10 11 11 12 15 13 16 14
REMARK SMILES IDX 17 15 12 17 13 18 14 19
REMARK H PARENT
REMARK Flexibility Score: 70.00
ROOT
ATOM      1  C   UNL     1     -12.894 -18.521  28.546  1.00  0.00     0.136 C 
ATOM      2  O   UNL     1     -13.975 -18.052  28.221  1.00  0.00    -0.299 OA
ENDROOT
BRANCH   1   3
ATOM      3  C   UNL     1     -12.823 -19.916  29.131  1.00  0.00     0.053 C 
ATOM      4  C   UNL     1     -14.000 -20.746  28.613  1.00  0.00     0.016 C 
BRANCH   3   5
ATOM      5  C   UNL     1     -12.818 -19.903  30.677  1.00  0.00     0.015 C 
BRANCH   5   6
ATOM      6  C   UNL     1     -11.432 -19.627  31.278  1.00  0.00     0.028 C 
BRANCH   6   7
ATOM      7  C   UNL     1     -11.445 -18.385  32.135  1.00  0.00    -0.028 C 
ATOM      8  C   UNL     1     -10.797 -17.225  31.872  1.00  0.00    -0.070 CG0
ATOM      9  C   UNL     1     -10.923 -16.109  32.878  1.00  0.00     0.039 C 
ATOM     10  G   UNL     1      -9.940 -16.993  30.641  1.00  0.00     0.000 G0
ENDBRANCH   6   7
ENDBRANCH   5   6
ENDBRANCH   3   5
ENDBRANCH   1   3
BRANCH   1  11
ATOM     11  C   UNL     1     -11.632 -17.749  28.253  1.00  0.00     0.087 C 
BRANCH  11  12
ATOM     12  C   UNL     1     -11.687 -16.260  28.680  1.00  0.00     0.066 C 
BRANCH  12  13
ATOM     13  C   UNL     1     -10.569 -15.974  29.682  1.00  0.00     0.140 C 
ATOM     14  O   UNL     1     -10.152 -14.827  29.748  1.00  0.00    -0.299 OA
BRANCH  13  15
ATOM     15  C   UNL     1      -9.964 -16.999  30.620  1.00  0.00     0.106 CG0
ATOM     16  G   UNL     1     -10.816 -17.191  31.861  1.00  0.00     0.000 G0
ENDBRANCH  13  15
ENDBRANCH  12  13
BRANCH  12  17
ATOM     17  C   UNL     1     -13.112 -15.747  29.082  1.00  0.00    -0.006 C 
ATOM     18  C   UNL     1     -13.163 -15.356  30.572  1.00  0.00     0.008 C 
ATOM     19  C   UNL     1     -13.535 -14.516  28.257  1.00  0.00     0.008 C 
ENDBRANCH  12  17
ENDBRANCH  11  12
ENDBRANCH   1  11
TORSDOF 1
ENDMDL
