MODEL 1
REMARK VINA RESULT:    -7.084      0.000      0.000
REMARK INTER + INTRA:         -19.456
REMARK INTER:                 -17.852
REMARK INTRA:                  -1.604
REMARK UNBOUND:                -1.604
REMARK SMILES CCCCCCCCCCCCCCCCCCCCCCCCCCCC(=O)[O-]
REMARK SMILES IDX 15 1 16 2 17 3 18 4 19 5 20 6 21 7 22 8 23 9 24 10 25 11
REMARK SMILES IDX 26 12 27 13 28 14 29 15 30 16 14 17 13 18 12 19 11 20 10 21
REMARK SMILES IDX 9 22 8 23 7 24 6 25 5 26 4 27 3 28 2 29 1 30
REMARK H PARENT
REMARK Flexibility Score: inf
ROOT
ATOM      1  C   UNL     1      25.490  -6.016  20.166  1.00  0.00     0.000 C 
ENDROOT
BRANCH   1   2
ATOM      2  C   UNL     1      24.206  -6.415  19.423  1.00  0.00     0.000 C 
BRANCH   2   3
ATOM      3  C   UNL     1      23.415  -7.513  20.153  1.00  0.00     0.000 C 
BRANCH   3   4
ATOM      4  C   UNL     1      24.263  -8.252  21.203  1.00  0.00     0.000 C 
BRANCH   4   5
ATOM      5  C   UNL     1      23.691  -8.221  22.634  1.00  0.00     0.000 C 
BRANCH   5   6
ATOM      6  C   UNL     1      22.923  -9.506  23.024  1.00  0.00     0.000 C 
BRANCH   6   7
ATOM      7  C   UNL     1      22.200  -9.423  24.384  1.00  0.00     0.000 C 
BRANCH   7   8
ATOM      8  C   UNL     1      20.878  -8.630  24.376  1.00  0.00     0.000 C 
BRANCH   8   9
ATOM      9  C   UNL     1      20.182  -8.591  25.747  1.00  0.00     0.000 C 
BRANCH   9  10
ATOM     10  C   UNL     1      18.664  -8.437  25.584  1.00  0.00     0.000 C 
BRANCH  10  11
ATOM     11  C   UNL     1      18.327  -7.405  24.500  1.00  0.00     0.000 C 
BRANCH  11  12
ATOM     12  C   UNL     1      16.879  -7.569  24.018  1.00  0.00     0.006 C 
BRANCH  12  13
ATOM     13  C   UNL     1      16.037  -6.310  24.267  1.00  0.00     0.053 C 
BRANCH  13  14
ATOM     14  C   UNL     1      16.176  -5.818  25.675  1.00  0.00     0.041 C 
ATOM     15  O   UNL     1      16.735  -4.712  25.909  1.00  0.00    -0.550 OA
ATOM     16  O   UNL     1      15.672  -6.570  26.727  1.00  0.00    -0.550 OA
ENDBRANCH  13  14
ENDBRANCH  12  13
ENDBRANCH  11  12
ENDBRANCH  10  11
ENDBRANCH   9  10
ENDBRANCH   8   9
ENDBRANCH   7   8
ENDBRANCH   6   7
ENDBRANCH   5   6
ENDBRANCH   4   5
ENDBRANCH   3   4
ENDBRANCH   2   3
ENDBRANCH   1   2
BRANCH   1  17
ATOM     17  C   UNL     1      26.767  -6.515  19.464  1.00  0.00     0.000 C 
BRANCH  17  18
ATOM     18  C   UNL     1      27.380  -5.464  18.524  1.00  0.00     0.000 C 
BRANCH  18  19
ATOM     19  C   UNL     1      28.041  -4.298  19.278  1.00  0.00     0.000 C 
BRANCH  19  20
ATOM     20  C   UNL     1      29.401  -3.914  18.672  1.00  0.00     0.000 C 
BRANCH  20  21
ATOM     21  C   UNL     1      29.952  -2.595  19.242  1.00  0.00     0.000 C 
BRANCH  21  22
ATOM     22  C   UNL     1      28.955  -1.914  20.195  1.00  0.00    -0.000 C 
BRANCH  22  23
ATOM     23  C   UNL     1      28.747  -0.429  19.846  1.00  0.00    -0.000 C 
BRANCH  23  24
ATOM     24  C   UNL     1      27.264  -0.034  19.756  1.00  0.00    -0.000 C 
BRANCH  24  25
ATOM     25  C   UNL     1      26.303  -1.241  19.769  1.00  0.00    -0.000 C 
BRANCH  25  26
ATOM     26  C   UNL     1      24.837  -0.812  19.935  1.00  0.00    -0.000 C 
BRANCH  26  27
ATOM     27  C   UNL     1      24.692   0.712  19.798  1.00  0.00    -0.000 C 
BRANCH  27  28
ATOM     28  C   UNL     1      23.671   1.113  18.721  1.00  0.00    -0.000 C 
BRANCH  28  29
ATOM     29  C   UNL     1      24.091   2.378  17.957  1.00  0.00    -0.003 C 
ATOM     30  C   UNL     1      23.348   2.489  16.625  1.00  0.00     0.004 C 
ENDBRANCH  28  29
ENDBRANCH  27  28
ENDBRANCH  26  27
ENDBRANCH  25  26
ENDBRANCH  24  25
ENDBRANCH  23  24
ENDBRANCH  22  23
ENDBRANCH  21  22
ENDBRANCH  20  21
ENDBRANCH  19  20
ENDBRANCH  18  19
ENDBRANCH  17  18
ENDBRANCH   1  17
TORSDOF 26
ENDMDL
MODEL 2
REMARK VINA RESULT:    -7.000      1.023      2.383
REMARK INTER + INTRA:         -19.244
REMARK INTER:                 -17.487
REMARK INTRA:                  -1.757
REMARK UNBOUND:                -1.604
REMARK SMILES CCCCCCCCCCCCCCCCCCCCCCCCCCCC(=O)[O-]
REMARK SMILES IDX 15 1 16 2 17 3 18 4 19 5 20 6 21 7 22 8 23 9 24 10 25 11
REMARK SMILES IDX 26 12 27 13 28 14 29 15 30 16 14 17 13 18 12 19 11 20 10 21
REMARK SMILES IDX 9 22 8 23 7 24 6 25 5 26 4 27 3 28 2 29 1 30
REMARK H PARENT
REMARK Flexibility Score: inf
ROOT
ATOM      1  C   UNL     1      24.153  -7.524  20.477  1.00  0.00     0.000 C 
ENDROOT
BRANCH   1   2
ATOM      2  C   UNL     1      23.589  -8.710  21.273  1.00  0.00     0.000 C 
BRANCH   2   3
ATOM      3  C   UNL     1      23.612  -8.471  22.792  1.00  0.00     0.000 C 
BRANCH   3   4
ATOM      4  C   UNL     1      22.810  -9.531  23.567  1.00  0.00     0.000 C 
BRANCH   4   5
ATOM      5  C   UNL     1      21.561  -8.993  24.292  1.00  0.00     0.000 C 
BRANCH   5   6
ATOM      6  C   UNL     1      21.415  -9.505  25.744  1.00  0.00     0.000 C 
BRANCH   6   7
ATOM      7  C   UNL     1      20.225  -8.897  26.514  1.00  0.00     0.000 C 
BRANCH   7   8
ATOM      8  C   UNL     1      18.874  -8.938  25.773  1.00  0.00     0.000 C 
BRANCH   8   9
ATOM      9  C   UNL     1      18.360  -7.548  25.364  1.00  0.00     0.000 C 
BRANCH   9  10
ATOM     10  C   UNL     1      17.994  -7.518  23.874  1.00  0.00     0.000 C 
BRANCH  10  11
ATOM     11  C   UNL     1      16.473  -7.553  23.678  1.00  0.00     0.000 C 
BRANCH  11  12
ATOM     12  C   UNL     1      15.748  -6.999  24.913  1.00  0.00     0.006 C 
BRANCH  12  13
ATOM     13  C   UNL     1      14.989  -5.700  24.607  1.00  0.00     0.053 C 
BRANCH  13  14
ATOM     14  C   UNL     1      15.667  -4.505  25.206  1.00  0.00     0.041 C 
ATOM     15  O   UNL     1      16.008  -3.537  24.475  1.00  0.00    -0.550 OA
ATOM     16  O   UNL     1      15.904  -4.454  26.572  1.00  0.00    -0.550 OA
ENDBRANCH  13  14
ENDBRANCH  12  13
ENDBRANCH  11  12
ENDBRANCH  10  11
ENDBRANCH   9  10
ENDBRANCH   8   9
ENDBRANCH   7   8
ENDBRANCH   6   7
ENDBRANCH   5   6
ENDBRANCH   4   5
ENDBRANCH   3   4
ENDBRANCH   2   3
ENDBRANCH   1   2
BRANCH   1  17
ATOM     17  C   UNL     1      25.582  -7.776  19.959  1.00  0.00     0.000 C 
BRANCH  17  18
ATOM     18  C   UNL     1      26.497  -6.551  20.118  1.00  0.00     0.000 C 
BRANCH  18  19
ATOM     19  C   UNL     1      25.816  -5.237  19.701  1.00  0.00     0.000 C 
BRANCH  19  20
ATOM     20  C   UNL     1      26.616  -4.488  18.621  1.00  0.00     0.000 C 
BRANCH  20  21
ATOM     21  C   UNL     1      28.002  -5.111  18.371  1.00  0.00     0.000 C 
BRANCH  21  22
ATOM     22  C   UNL     1      29.131  -4.071  18.477  1.00  0.00    -0.000 C 
BRANCH  22  23
ATOM     23  C   UNL     1      29.072  -3.292  19.803  1.00  0.00    -0.000 C 
BRANCH  23  24
ATOM     24  C   UNL     1      28.982  -1.770  19.603  1.00  0.00    -0.000 C 
BRANCH  24  25
ATOM     25  C   UNL     1      27.571  -1.197  19.858  1.00  0.00    -0.000 C 
BRANCH  25  26
ATOM     26  C   UNL     1      27.591   0.326  20.047  1.00  0.00    -0.000 C 
BRANCH  26  27
ATOM     27  C   UNL     1      26.334   0.971  19.441  1.00  0.00    -0.000 C 
BRANCH  27  28
ATOM     28  C   UNL     1      25.046   0.220  19.817  1.00  0.00    -0.000 C 
BRANCH  28  29
ATOM     29  C   UNL     1      23.830   0.704  19.013  1.00  0.00    -0.003 C 
ATOM     30  C   UNL     1      24.067   2.102  18.443  1.00  0.00     0.004 C 
ENDBRANCH  28  29
ENDBRANCH  27  28
ENDBRANCH  26  27
ENDBRANCH  25  26
ENDBRANCH  24  25
ENDBRANCH  23  24
ENDBRANCH  22  23
ENDBRANCH  21  22
ENDBRANCH  20  21
ENDBRANCH  19  20
ENDBRANCH  18  19
ENDBRANCH  17  18
ENDBRANCH   1  17
TORSDOF 26
ENDMDL
MODEL 3
REMARK VINA RESULT:    -6.989      3.730     10.662
REMARK INTER + INTRA:         -19.215
REMARK INTER:                 -17.844
REMARK INTRA:                  -1.371
REMARK UNBOUND:                -1.604
REMARK SMILES CCCCCCCCCCCCCCCCCCCCCCCCCCCC(=O)[O-]
REMARK SMILES IDX 15 1 16 2 17 3 18 4 19 5 20 6 21 7 22 8 23 9 24 10 25 11
REMARK SMILES IDX 26 12 27 13 28 14 29 15 30 16 14 17 13 18 12 19 11 20 10 21
REMARK SMILES IDX 9 22 8 23 7 24 6 25 5 26 4 27 3 28 2 29 1 30
REMARK H PARENT
REMARK Flexibility Score: inf
ROOT
ATOM      1  C   UNL     1      25.868  -8.344  20.271  1.00  0.00     0.000 C 
ENDROOT
BRANCH   1   2
ATOM      2  C   UNL     1      26.982  -7.732  19.409  1.00  0.00     0.000 C 
BRANCH   2   3
ATOM      3  C   UNL     1      26.884  -6.201  19.310  1.00  0.00     0.000 C 
BRANCH   3   4
ATOM      4  C   UNL     1      28.123  -5.573  18.647  1.00  0.00     0.000 C 
BRANCH   4   5
ATOM      5  C   UNL     1      28.137  -4.032  18.634  1.00  0.00     0.000 C 
BRANCH   5   6
ATOM      6  C   UNL     1      29.142  -3.410  19.632  1.00  0.00     0.000 C 
BRANCH   6   7
ATOM      7  C   UNL     1      29.336  -1.889  19.471  1.00  0.00     0.000 C 
BRANCH   7   8
ATOM      8  C   UNL     1      28.429  -1.014  20.358  1.00  0.00     0.000 C 
BRANCH   8   9
ATOM      9  C   UNL     1      27.130  -0.578  19.661  1.00  0.00     0.000 C 
BRANCH   9  10
ATOM     10  C   UNL     1      25.968  -1.505  20.042  1.00  0.00     0.000 C 
BRANCH  10  11
ATOM     11  C   UNL     1      24.615  -0.821  19.805  1.00  0.00     0.000 C 
BRANCH  11  12
ATOM     12  C   UNL     1      24.791   0.692  19.616  1.00  0.00     0.006 C 
BRANCH  12  13
ATOM     13  C   UNL     1      23.493   1.377  19.167  1.00  0.00     0.053 C 
BRANCH  13  14
ATOM     14  C   UNL     1      23.678   2.139  17.891  1.00  0.00     0.041 C 
ATOM     15  O   UNL     1      23.498   1.571  16.780  1.00  0.00    -0.550 OA
ATOM     16  O   UNL     1      24.030   3.481  17.928  1.00  0.00    -0.550 OA
ENDBRANCH  13  14
ENDBRANCH  12  13
ENDBRANCH  11  12
ENDBRANCH  10  11
ENDBRANCH   9  10
ENDBRANCH   8   9
ENDBRANCH   7   8
ENDBRANCH   6   7
ENDBRANCH   5   6
ENDBRANCH   4   5
ENDBRANCH   3   4
ENDBRANCH   2   3
ENDBRANCH   1   2
BRANCH   1  17
ATOM     17  C   UNL     1      24.607  -7.461  20.334  1.00  0.00     0.000 C 
BRANCH  17  18
ATOM     18  C   UNL     1      23.329  -8.268  20.611  1.00  0.00     0.000 C 
BRANCH  18  19
ATOM     19  C   UNL     1      23.491  -9.272  21.764  1.00  0.00     0.000 C 
BRANCH  19  20
ATOM     20  C   UNL     1      23.211  -8.632  23.134  1.00  0.00     0.000 C 
BRANCH  20  21
ATOM     21  C   UNL     1      22.129  -9.384  23.930  1.00  0.00     0.000 C 
BRANCH  21  22
ATOM     22  C   UNL     1      20.990  -8.453  24.381  1.00  0.00    -0.000 C 
BRANCH  22  23
ATOM     23  C   UNL     1      20.518  -8.774  25.811  1.00  0.00    -0.000 C 
BRANCH  23  24
ATOM     24  C   UNL     1      18.987  -8.809  25.945  1.00  0.00    -0.000 C 
BRANCH  24  25
ATOM     25  C   UNL     1      18.262  -7.838  24.989  1.00  0.00    -0.000 C 
BRANCH  25  26
ATOM     26  C   UNL     1      17.223  -6.975  25.720  1.00  0.00    -0.000 C 
BRANCH  26  27
ATOM     27  C   UNL     1      15.869  -7.014  24.995  1.00  0.00    -0.000 C 
BRANCH  27  28
ATOM     28  C   UNL     1      15.407  -5.623  24.531  1.00  0.00    -0.000 C 
BRANCH  28  29
ATOM     29  C   UNL     1      15.812  -4.513  25.514  1.00  0.00    -0.003 C 
ATOM     30  C   UNL     1      16.735  -3.495  24.845  1.00  0.00     0.004 C 
ENDBRANCH  28  29
ENDBRANCH  27  28
ENDBRANCH  26  27
ENDBRANCH  25  26
ENDBRANCH  24  25
ENDBRANCH  23  24
ENDBRANCH  22  23
ENDBRANCH  21  22
ENDBRANCH  20  21
ENDBRANCH  19  20
ENDBRANCH  18  19
ENDBRANCH  17  18
ENDBRANCH   1  17
TORSDOF 26
ENDMDL
MODEL 4
REMARK VINA RESULT:    -6.986      3.245     10.660
REMARK INTER + INTRA:         -19.208
REMARK INTER:                 -16.966
REMARK INTRA:                  -2.241
REMARK UNBOUND:                -1.604
REMARK SMILES CCCCCCCCCCCCCCCCCCCCCCCCCCCC(=O)[O-]
REMARK SMILES IDX 15 1 16 2 17 3 18 4 19 5 20 6 21 7 22 8 23 9 24 10 25 11
REMARK SMILES IDX 26 12 27 13 28 14 29 15 30 16 14 17 13 18 12 19 11 20 10 21
REMARK SMILES IDX 9 22 8 23 7 24 6 25 5 26 4 27 3 28 2 29 1 30
REMARK H PARENT
REMARK Flexibility Score: inf
ROOT
ATOM      1  C   UNL     1      23.628  -7.725  20.335  1.00  0.00     0.000 C 
ENDROOT
BRANCH   1   2
ATOM      2  C   UNL     1      24.422  -6.828  19.373  1.00  0.00     0.000 C 
BRANCH   2   3
ATOM      3  C   UNL     1      25.382  -5.875  20.106  1.00  0.00     0.000 C 
BRANCH   3   4
ATOM      4  C   UNL     1      25.524  -4.519  19.391  1.00  0.00     0.000 C 
BRANCH   4   5
ATOM      5  C   UNL     1      26.745  -4.407  18.457  1.00  0.00     0.000 C 
BRANCH   5   6
ATOM      6  C   UNL     1      28.100  -4.578  19.181  1.00  0.00     0.000 C 
BRANCH   6   7
ATOM      7  C   UNL     1      29.224  -3.669  18.644  1.00  0.00     0.000 C 
BRANCH   7   8
ATOM      8  C   UNL     1      29.625  -2.505  19.572  1.00  0.00     0.000 C 
BRANCH   8   9
ATOM      9  C   UNL     1      28.641  -1.325  19.530  1.00  0.00     0.000 C 
BRANCH   9  10
ATOM     10  C   UNL     1      27.907  -1.179  20.870  1.00  0.00     0.000 C 
BRANCH  10  11
ATOM     11  C   UNL     1      26.389  -1.305  20.684  1.00  0.00     0.000 C 
BRANCH  11  12
ATOM     12  C   UNL     1      25.903  -0.422  19.526  1.00  0.00     0.006 C 
BRANCH  12  13
ATOM     13  C   UNL     1      24.375  -0.284  19.502  1.00  0.00     0.053 C 
BRANCH  13  14
ATOM     14  C   UNL     1      23.947   1.097  19.109  1.00  0.00     0.041 C 
ATOM     15  O   UNL     1      24.796   1.930  18.692  1.00  0.00    -0.550 OA
ATOM     16  O   UNL     1      22.609   1.458  19.185  1.00  0.00    -0.550 OA
ENDBRANCH  13  14
ENDBRANCH  12  13
ENDBRANCH  11  12
ENDBRANCH  10  11
ENDBRANCH   9  10
ENDBRANCH   8   9
ENDBRANCH   7   8
ENDBRANCH   6   7
ENDBRANCH   5   6
ENDBRANCH   4   5
ENDBRANCH   3   4
ENDBRANCH   2   3
ENDBRANCH   1   2
BRANCH   1  17
ATOM     17  C   UNL     1      24.460  -8.188  21.546  1.00  0.00     0.000 C 
BRANCH  17  18
ATOM     18  C   UNL     1      23.655  -8.188  22.855  1.00  0.00     0.000 C 
BRANCH  18  19
ATOM     19  C   UNL     1      22.894  -9.504  23.091  1.00  0.00     0.000 C 
BRANCH  19  20
ATOM     20  C   UNL     1      22.039  -9.457  24.369  1.00  0.00     0.000 C 
BRANCH  20  21
ATOM     21  C   UNL     1      20.919  -8.404  24.294  1.00  0.00     0.000 C 
BRANCH  21  22
ATOM     22  C   UNL     1      19.810  -8.664  25.330  1.00  0.00    -0.000 C 
BRANCH  22  23
ATOM     23  C   UNL     1      18.671  -7.635  25.222  1.00  0.00    -0.000 C 
BRANCH  23  24
ATOM     24  C   UNL     1      17.976  -7.649  23.850  1.00  0.00    -0.000 C 
BRANCH  24  25
ATOM     25  C   UNL     1      16.462  -7.358  23.924  1.00  0.00    -0.000 C 
BRANCH  25  26
ATOM     26  C   UNL     1      15.989  -7.117  25.364  1.00  0.00    -0.000 C 
BRANCH  26  27
ATOM     27  C   UNL     1      14.715  -6.257  25.388  1.00  0.00    -0.000 C 
BRANCH  27  28
ATOM     28  C   UNL     1      14.978  -4.802  24.969  1.00  0.00    -0.000 C 
BRANCH  28  29
ATOM     29  C   UNL     1      16.160  -4.178  25.727  1.00  0.00    -0.003 C 
ATOM     30  C   UNL     1      17.277  -3.769  24.766  1.00  0.00     0.004 C 
ENDBRANCH  28  29
ENDBRANCH  27  28
ENDBRANCH  26  27
ENDBRANCH  25  26
ENDBRANCH  24  25
ENDBRANCH  23  24
ENDBRANCH  22  23
ENDBRANCH  21  22
ENDBRANCH  20  21
ENDBRANCH  19  20
ENDBRANCH  18  19
ENDBRANCH  17  18
ENDBRANCH   1  17
TORSDOF 26
ENDMDL
MODEL 5
REMARK VINA RESULT:    -6.806      4.150     10.923
REMARK INTER + INTRA:         -18.755
REMARK INTER:                 -16.905
REMARK INTRA:                  -1.850
REMARK UNBOUND:                -1.604
REMARK SMILES CCCCCCCCCCCCCCCCCCCCCCCCCCCC(=O)[O-]
REMARK SMILES IDX 15 1 16 2 17 3 18 4 19 5 20 6 21 7 22 8 23 9 24 10 25 11
REMARK SMILES IDX 26 12 27 13 28 14 29 15 30 16 14 17 13 18 12 19 11 20 10 21
REMARK SMILES IDX 9 22 8 23 7 24 6 25 5 26 4 27 3 28 2 29 1 30
REMARK H PARENT
REMARK Flexibility Score: inf
ROOT
ATOM      1  C   UNL     1      27.028  -7.858  19.439  1.00  0.00     0.000 C 
ENDROOT
BRANCH   1   2
ATOM      2  C   UNL     1      27.275  -6.359  19.667  1.00  0.00     0.000 C 
BRANCH   2   3
ATOM      3  C   UNL     1      27.461  -5.581  18.353  1.00  0.00     0.000 C 
BRANCH   3   4
ATOM      4  C   UNL     1      26.272  -4.655  18.044  1.00  0.00     0.000 C 
BRANCH   4   5
ATOM      5  C   UNL     1      25.537  -4.112  19.285  1.00  0.00     0.000 C 
BRANCH   5   6
ATOM      6  C   UNL     1      26.173  -2.831  19.874  1.00  0.00     0.000 C 
BRANCH   6   7
ATOM      7  C   UNL     1      25.156  -1.833  20.466  1.00  0.00     0.000 C 
BRANCH   7   8
ATOM      8  C   UNL     1      24.610  -0.787  19.474  1.00  0.00     0.000 C 
BRANCH   8   9
ATOM      9  C   UNL     1      25.251   0.601  19.638  1.00  0.00     0.000 C 
BRANCH   9  10
ATOM     10  C   UNL     1      26.601   0.497  20.360  1.00  0.00     0.000 C 
BRANCH  10  11
ATOM     11  C   UNL     1      27.759   0.858  19.422  1.00  0.00     0.000 C 
BRANCH  11  12
ATOM     12  C   UNL     1      28.443  -0.406  18.882  1.00  0.00     0.006 C 
BRANCH  12  13
ATOM     13  C   UNL     1      29.120  -1.220  19.994  1.00  0.00     0.053 C 
BRANCH  13  14
ATOM     14  C   UNL     1      29.663  -2.519  19.481  1.00  0.00     0.041 C 
ATOM     15  O   UNL     1      29.965  -3.441  20.284  1.00  0.00    -0.550 OA
ATOM     16  O   UNL     1      29.816  -2.717  18.116  1.00  0.00    -0.550 OA
ENDBRANCH  13  14
ENDBRANCH  12  13
ENDBRANCH  11  12
ENDBRANCH  10  11
ENDBRANCH   9  10
ENDBRANCH   8   9
ENDBRANCH   7   8
ENDBRANCH   6   7
ENDBRANCH   5   6
ENDBRANCH   4   5
ENDBRANCH   3   4
ENDBRANCH   2   3
ENDBRANCH   1   2
BRANCH   1  17
ATOM     17  C   UNL     1      26.035  -8.462  20.450  1.00  0.00     0.000 C 
BRANCH  17  18
ATOM     18  C   UNL     1      24.815  -7.559  20.698  1.00  0.00     0.000 C 
BRANCH  18  19
ATOM     19  C   UNL     1      23.478  -8.300  20.538  1.00  0.00     0.000 C 
BRANCH  19  20
ATOM     20  C   UNL     1      23.249  -9.330  21.657  1.00  0.00     0.000 C 
BRANCH  20  21
ATOM     21  C   UNL     1      23.166  -8.681  23.051  1.00  0.00     0.000 C 
BRANCH  21  22
ATOM     22  C   UNL     1      22.223  -9.450  23.993  1.00  0.00    -0.000 C 
BRANCH  22  23
ATOM     23  C   UNL     1      20.965  -8.634  24.338  1.00  0.00    -0.000 C 
BRANCH  23  24
ATOM     24  C   UNL     1      20.273  -9.111  25.626  1.00  0.00    -0.000 C 
BRANCH  24  25
ATOM     25  C   UNL     1      18.899  -8.451  25.868  1.00  0.00    -0.000 C 
BRANCH  25  26
ATOM     26  C   UNL     1      18.341  -7.795  24.597  1.00  0.00    -0.000 C 
BRANCH  26  27
ATOM     27  C   UNL     1      17.478  -6.571  24.944  1.00  0.00    -0.000 C 
BRANCH  27  28
ATOM     28  C   UNL     1      15.989  -6.791  24.629  1.00  0.00    -0.000 C 
BRANCH  28  29
ATOM     29  C   UNL     1      15.183  -5.483  24.667  1.00  0.00    -0.003 C 
ATOM     30  C   UNL     1      15.827  -4.466  25.610  1.00  0.00     0.004 C 
ENDBRANCH  28  29
ENDBRANCH  27  28
ENDBRANCH  26  27
ENDBRANCH  25  26
ENDBRANCH  24  25
ENDBRANCH  23  24
ENDBRANCH  22  23
ENDBRANCH  21  22
ENDBRANCH  20  21
ENDBRANCH  19  20
ENDBRANCH  18  19
ENDBRANCH  17  18
ENDBRANCH   1  17
TORSDOF 26
ENDMDL
MODEL 6
REMARK VINA RESULT:    -6.749      4.157     11.307
REMARK INTER + INTRA:         -18.612
REMARK INTER:                 -16.594
REMARK INTRA:                  -2.019
REMARK UNBOUND:                -1.604
REMARK SMILES CCCCCCCCCCCCCCCCCCCCCCCCCCCC(=O)[O-]
REMARK SMILES IDX 15 1 16 2 17 3 18 4 19 5 20 6 21 7 22 8 23 9 24 10 25 11
REMARK SMILES IDX 26 12 27 13 28 14 29 15 30 16 14 17 13 18 12 19 11 20 10 21
REMARK SMILES IDX 9 22 8 23 7 24 6 25 5 26 4 27 3 28 2 29 1 30
REMARK H PARENT
REMARK Flexibility Score: inf
ROOT
ATOM      1  C   UNL     1      23.951  -8.059  22.634  1.00  0.00     0.000 C 
ENDROOT
BRANCH   1   2
ATOM      2  C   UNL     1      24.296  -7.688  21.184  1.00  0.00     0.000 C 
BRANCH   2   3
ATOM      3  C   UNL     1      25.308  -8.655  20.547  1.00  0.00     0.000 C 
BRANCH   3   4
ATOM      4  C   UNL     1      26.530  -7.927  19.960  1.00  0.00     0.000 C 
BRANCH   4   5
ATOM      5  C   UNL     1      26.394  -6.393  19.890  1.00  0.00     0.000 C 
BRANCH   5   6
ATOM      6  C   UNL     1      27.154  -5.755  18.704  1.00  0.00     0.000 C 
BRANCH   6   7
ATOM      7  C   UNL     1      26.714  -4.316  18.370  1.00  0.00     0.000 C 
BRANCH   7   8
ATOM      8  C   UNL     1      25.494  -3.803  19.161  1.00  0.00     0.000 C 
BRANCH   8   9
ATOM      9  C   UNL     1      25.858  -2.770  20.241  1.00  0.00     0.000 C 
BRANCH   9  10
ATOM     10  C   UNL     1      25.526  -1.348  19.770  1.00  0.00     0.000 C 
BRANCH  10  11
ATOM     11  C   UNL     1      26.774  -0.455  19.789  1.00  0.00     0.000 C 
BRANCH  11  12
ATOM     12  C   UNL     1      27.983  -1.213  20.353  1.00  0.00     0.006 C 
BRANCH  12  13
ATOM     13  C   UNL     1      29.076  -1.433  19.298  1.00  0.00     0.053 C 
BRANCH  13  14
ATOM     14  C   UNL     1      29.840  -2.698  19.543  1.00  0.00     0.041 C 
ATOM     15  O   UNL     1      29.343  -3.611  20.256  1.00  0.00    -0.550 OA
ATOM     16  O   UNL     1      31.090  -2.877  18.969  1.00  0.00    -0.550 OA
ENDBRANCH  13  14
ENDBRANCH  12  13
ENDBRANCH  11  12
ENDBRANCH  10  11
ENDBRANCH   9  10
ENDBRANCH   8   9
ENDBRANCH   7   8
ENDBRANCH   6   7
ENDBRANCH   5   6
ENDBRANCH   4   5
ENDBRANCH   3   4
ENDBRANCH   2   3
ENDBRANCH   1   2
BRANCH   1  17
ATOM     17  C   UNL     1      23.232  -9.417  22.750  1.00  0.00     0.000 C 
BRANCH  17  18
ATOM     18  C   UNL     1      22.466  -9.573  24.074  1.00  0.00     0.000 C 
BRANCH  18  19
ATOM     19  C   UNL     1      22.752 -10.910  24.777  1.00  0.00     0.000 C 
BRANCH  19  20
ATOM     20  C   UNL     1      23.034 -10.726  26.278  1.00  0.00     0.000 C 
BRANCH  20  21
ATOM     21  C   UNL     1      21.787 -10.965  27.149  1.00  0.00     0.000 C 
BRANCH  21  22
ATOM     22  C   UNL     1      20.966  -9.680  27.350  1.00  0.00    -0.000 C 
BRANCH  22  23
ATOM     23  C   UNL     1      19.453  -9.941  27.239  1.00  0.00    -0.000 C 
BRANCH  23  24
ATOM     24  C   UNL     1      18.750  -8.998  26.248  1.00  0.00    -0.000 C 
BRANCH  24  25
ATOM     25  C   UNL     1      19.726  -8.152  25.405  1.00  0.00    -0.000 C 
BRANCH  25  26
ATOM     26  C   UNL     1      19.039  -7.518  24.187  1.00  0.00    -0.000 C 
BRANCH  26  27
ATOM     27  C   UNL     1      17.513  -7.500  24.366  1.00  0.00    -0.000 C 
BRANCH  27  28
ATOM     28  C   UNL     1      17.010  -6.198  25.011  1.00  0.00    -0.000 C 
BRANCH  28  29
ATOM     29  C   UNL     1      15.517  -5.949  24.744  1.00  0.00    -0.003 C 
ATOM     30  C   UNL     1      14.649  -6.975  25.472  1.00  0.00     0.004 C 
ENDBRANCH  28  29
ENDBRANCH  27  28
ENDBRANCH  26  27
ENDBRANCH  25  26
ENDBRANCH  24  25
ENDBRANCH  23  24
ENDBRANCH  22  23
ENDBRANCH  21  22
ENDBRANCH  20  21
ENDBRANCH  19  20
ENDBRANCH  18  19
ENDBRANCH  17  18
ENDBRANCH   1  17
TORSDOF 26
ENDMDL
MODEL 7
REMARK VINA RESULT:    -6.733      1.599      3.865
REMARK INTER + INTRA:         -18.570
REMARK INTER:                 -16.446
REMARK INTRA:                  -2.124
REMARK UNBOUND:                -1.604
REMARK SMILES CCCCCCCCCCCCCCCCCCCCCCCCCCCC(=O)[O-]
REMARK SMILES IDX 15 1 16 2 17 3 18 4 19 5 20 6 21 7 22 8 23 9 24 10 25 11
REMARK SMILES IDX 26 12 27 13 28 14 29 15 30 16 14 17 13 18 12 19 11 20 10 21
REMARK SMILES IDX 9 22 8 23 7 24 6 25 5 26 4 27 3 28 2 29 1 30
REMARK H PARENT
REMARK Flexibility Score: inf
ROOT
ATOM      1  C   UNL     1      23.579  -8.674  22.968  1.00  0.00     0.000 C 
ENDROOT
BRANCH   1   2
ATOM      2  C   UNL     1      22.453  -9.339  23.774  1.00  0.00     0.000 C 
BRANCH   2   3
ATOM      3  C   UNL     1      22.816 -10.758  24.244  1.00  0.00     0.000 C 
BRANCH   3   4
ATOM      4  C   UNL     1      23.131 -10.817  25.749  1.00  0.00     0.000 C 
BRANCH   4   5
ATOM      5  C   UNL     1      22.827 -12.170  26.419  1.00  0.00     0.000 C 
BRANCH   5   6
ATOM      6  C   UNL     1      21.898 -12.060  27.651  1.00  0.00     0.000 C 
BRANCH   6   7
ATOM      7  C   UNL     1      21.507 -10.615  28.022  1.00  0.00     0.000 C 
BRANCH   7   8
ATOM      8  C   UNL     1      20.128 -10.157  27.510  1.00  0.00     0.000 C 
BRANCH   8   9
ATOM      9  C   UNL     1      20.190  -8.889  26.642  1.00  0.00     0.000 C 
BRANCH   9  10
ATOM     10  C   UNL     1      18.906  -8.731  25.816  1.00  0.00     0.000 C 
BRANCH  10  11
ATOM     11  C   UNL     1      19.138  -7.819  24.604  1.00  0.00     0.000 C 
BRANCH  11  12
ATOM     12  C   UNL     1      17.880  -6.997  24.287  1.00  0.00     0.006 C 
BRANCH  12  13
ATOM     13  C   UNL     1      17.148  -6.543  25.557  1.00  0.00     0.053 C 
BRANCH  13  14
ATOM     14  C   UNL     1      16.169  -5.445  25.272  1.00  0.00     0.041 C 
ATOM     15  O   UNL     1      14.931  -5.684  25.267  1.00  0.00    -0.550 OA
ATOM     16  O   UNL     1      16.622  -4.155  25.032  1.00  0.00    -0.550 OA
ENDBRANCH  13  14
ENDBRANCH  12  13
ENDBRANCH  11  12
ENDBRANCH  10  11
ENDBRANCH   9  10
ENDBRANCH   8   9
ENDBRANCH   7   8
ENDBRANCH   6   7
ENDBRANCH   5   6
ENDBRANCH   4   5
ENDBRANCH   3   4
ENDBRANCH   2   3
ENDBRANCH   1   2
BRANCH   1  17
ATOM     17  C   UNL     1      23.506  -8.992  21.462  1.00  0.00     0.000 C 
BRANCH  17  18
ATOM     18  C   UNL     1      24.203  -7.931  20.596  1.00  0.00     0.000 C 
BRANCH  18  19
ATOM     19  C   UNL     1      25.728  -8.121  20.528  1.00  0.00     0.000 C 
BRANCH  19  20
ATOM     20  C   UNL     1      26.452  -6.833  20.102  1.00  0.00     0.000 C 
BRANCH  20  21
ATOM     21  C   UNL     1      25.480  -5.716  19.683  1.00  0.00     0.000 C 
BRANCH  21  22
ATOM     22  C   UNL     1      26.182  -4.352  19.562  1.00  0.00    -0.000 C 
BRANCH  22  23
ATOM     23  C   UNL     1      27.567  -4.475  18.902  1.00  0.00    -0.000 C 
BRANCH  23  24
ATOM     24  C   UNL     1      28.647  -3.641  19.610  1.00  0.00    -0.000 C 
BRANCH  24  25
ATOM     25  C   UNL     1      28.753  -2.194  19.082  1.00  0.00    -0.000 C 
BRANCH  25  26
ATOM     26  C   UNL     1      28.943  -1.177  20.217  1.00  0.00    -0.000 C 
BRANCH  26  27
ATOM     27  C   UNL     1      27.615  -0.485  20.563  1.00  0.00    -0.000 C 
BRANCH  27  28
ATOM     28  C   UNL     1      26.545  -0.687  19.477  1.00  0.00    -0.000 C 
BRANCH  28  29
ATOM     29  C   UNL     1      25.121  -0.708  20.053  1.00  0.00    -0.003 C 
ATOM     30  C   UNL     1      24.246   0.362  19.401  1.00  0.00     0.004 C 
ENDBRANCH  28  29
ENDBRANCH  27  28
ENDBRANCH  26  27
ENDBRANCH  25  26
ENDBRANCH  24  25
ENDBRANCH  23  24
ENDBRANCH  22  23
ENDBRANCH  21  22
ENDBRANCH  20  21
ENDBRANCH  19  20
ENDBRANCH  18  19
ENDBRANCH  17  18
ENDBRANCH   1  17
TORSDOF 26
ENDMDL
MODEL 8
REMARK VINA RESULT:    -6.699      4.813     10.502
REMARK INTER + INTRA:         -18.484
REMARK INTER:                 -16.994
REMARK INTRA:                  -1.490
REMARK UNBOUND:                -1.604
REMARK SMILES CCCCCCCCCCCCCCCCCCCCCCCCCCCC(=O)[O-]
REMARK SMILES IDX 15 1 16 2 17 3 18 4 19 5 20 6 21 7 22 8 23 9 24 10 25 11
REMARK SMILES IDX 26 12 27 13 28 14 29 15 30 16 14 17 13 18 12 19 11 20 10 21
REMARK SMILES IDX 9 22 8 23 7 24 6 25 5 26 4 27 3 28 2 29 1 30
REMARK H PARENT
REMARK Flexibility Score: inf
ROOT
ATOM      1  C   UNL     1      23.365   2.228  16.507  1.00  0.00     0.000 C 
ENDROOT
BRANCH   1   2
ATOM      2  C   UNL     1      24.152   2.379  17.817  1.00  0.00     0.000 C 
BRANCH   2   3
ATOM      3  C   UNL     1      23.535   1.578  18.977  1.00  0.00     0.000 C 
BRANCH   3   4
ATOM      4  C   UNL     1      24.268   0.249  19.231  1.00  0.00     0.000 C 
BRANCH   4   5
ATOM      5  C   UNL     1      25.709   0.397  19.757  1.00  0.00     0.000 C 
BRANCH   5   6
ATOM      6  C   UNL     1      26.378  -0.948  20.125  1.00  0.00     0.000 C 
BRANCH   6   7
ATOM      7  C   UNL     1      27.683  -1.237  19.357  1.00  0.00     0.000 C 
BRANCH   7   8
ATOM      8  C   UNL     1      28.387  -2.556  19.732  1.00  0.00     0.000 C 
BRANCH   8   9
ATOM      9  C   UNL     1      27.438  -3.766  19.763  1.00  0.00     0.000 C 
BRANCH   9  10
ATOM     10  C   UNL     1      27.684  -4.683  18.558  1.00  0.00     0.000 C 
BRANCH  10  11
ATOM     11  C   UNL     1      27.233  -6.119  18.856  1.00  0.00     0.000 C 
BRANCH  11  12
ATOM     12  C   UNL     1      25.874  -6.130  19.569  1.00  0.00     0.006 C 
BRANCH  12  13
ATOM     13  C   UNL     1      25.561  -7.493  20.202  1.00  0.00     0.053 C 
BRANCH  13  14
ATOM     14  C   UNL     1      24.175  -7.538  20.771  1.00  0.00     0.041 C 
ATOM     15  O   UNL     1      23.201  -7.101  20.101  1.00  0.00    -0.550 OA
ATOM     16  O   UNL     1      23.958  -8.079  22.030  1.00  0.00    -0.550 OA
ENDBRANCH  13  14
ENDBRANCH  12  13
ENDBRANCH  11  12
ENDBRANCH  10  11
ENDBRANCH   9  10
ENDBRANCH   8   9
ENDBRANCH   7   8
ENDBRANCH   6   7
ENDBRANCH   5   6
ENDBRANCH   4   5
ENDBRANCH   3   4
ENDBRANCH   2   3
ENDBRANCH   1   2
BRANCH   1  17
ATOM     17  C   UNL     1      22.830   3.570  15.973  1.00  0.00     0.000 C 
BRANCH  17  18
ATOM     18  C   UNL     1      22.104   3.428  14.625  1.00  0.00     0.000 C 
BRANCH  18  19
ATOM     19  C   UNL     1      22.443   4.558  13.639  1.00  0.00     0.000 C 
BRANCH  19  20
ATOM     20  C   UNL     1      22.353   4.095  12.175  1.00  0.00     0.000 C 
BRANCH  20  21
ATOM     21  C   UNL     1      20.962   4.339  11.561  1.00  0.00     0.000 C 
BRANCH  21  22
ATOM     22  C   UNL     1      20.028   3.130  11.743  1.00  0.00    -0.000 C 
BRANCH  22  23
ATOM     23  C   UNL     1      18.757   3.499  12.529  1.00  0.00    -0.000 C 
BRANCH  23  24
ATOM     24  C   UNL     1      18.096   2.288  13.208  1.00  0.00    -0.000 C 
BRANCH  24  25
ATOM     25  C   UNL     1      18.823   1.828  14.489  1.00  0.00    -0.000 C 
BRANCH  25  26
ATOM     26  C   UNL     1      17.931   0.947  15.375  1.00  0.00    -0.000 C 
BRANCH  26  27
ATOM     27  C   UNL     1      16.564   0.709  14.715  1.00  0.00    -0.000 C 
BRANCH  27  28
ATOM     28  C   UNL     1      16.287  -0.780  14.451  1.00  0.00    -0.000 C 
BRANCH  28  29
ATOM     29  C   UNL     1      16.261  -1.610  15.744  1.00  0.00    -0.003 C 
ATOM     30  C   UNL     1      14.846  -1.698  16.314  1.00  0.00     0.004 C 
ENDBRANCH  28  29
ENDBRANCH  27  28
ENDBRANCH  26  27
ENDBRANCH  25  26
ENDBRANCH  24  25
ENDBRANCH  23  24
ENDBRANCH  22  23
ENDBRANCH  21  22
ENDBRANCH  20  21
ENDBRANCH  19  20
ENDBRANCH  18  19
ENDBRANCH  17  18
ENDBRANCH   1  17
TORSDOF 26
ENDMDL
MODEL 9
REMARK VINA RESULT:    -6.661      3.314     10.986
REMARK INTER + INTRA:         -18.389
REMARK INTER:                 -16.765
REMARK INTRA:                  -1.624
REMARK UNBOUND:                -1.604
REMARK SMILES CCCCCCCCCCCCCCCCCCCCCCCCCCCC(=O)[O-]
REMARK SMILES IDX 15 1 16 2 17 3 18 4 19 5 20 6 21 7 22 8 23 9 24 10 25 11
REMARK SMILES IDX 26 12 27 13 28 14 29 15 30 16 14 17 13 18 12 19 11 20 10 21
REMARK SMILES IDX 9 22 8 23 7 24 6 25 5 26 4 27 3 28 2 29 1 30
REMARK H PARENT
REMARK Flexibility Score: inf
ROOT
ATOM      1  C   UNL     1      22.871 -10.165  23.497  1.00  0.00     0.000 C 
ENDROOT
BRANCH   1   2
ATOM      2  C   UNL     1      23.374  -8.812  22.973  1.00  0.00     0.000 C 
BRANCH   2   3
ATOM      3  C   UNL     1      23.722  -8.846  21.475  1.00  0.00     0.000 C 
BRANCH   3   4
ATOM      4  C   UNL     1      24.536  -7.618  21.031  1.00  0.00     0.000 C 
BRANCH   4   5
ATOM      5  C   UNL     1      23.961  -6.869  19.813  1.00  0.00     0.000 C 
BRANCH   5   6
ATOM      6  C   UNL     1      25.029  -6.119  18.983  1.00  0.00     0.000 C 
BRANCH   6   7
ATOM      7  C   UNL     1      26.279  -5.705  19.785  1.00  0.00     0.000 C 
BRANCH   7   8
ATOM      8  C   UNL     1      26.611  -4.200  19.753  1.00  0.00     0.000 C 
BRANCH   8   9
ATOM      9  C   UNL     1      27.903  -3.877  18.985  1.00  0.00     0.000 C 
BRANCH   9  10
ATOM     10  C   UNL     1      28.752  -2.855  19.752  1.00  0.00     0.000 C 
BRANCH  10  11
ATOM     11  C   UNL     1      27.871  -1.775  20.394  1.00  0.00     0.000 C 
BRANCH  11  12
ATOM     12  C   UNL     1      27.592  -0.635  19.404  1.00  0.00     0.006 C 
BRANCH  12  13
ATOM     13  C   UNL     1      26.678   0.443  20.003  1.00  0.00     0.053 C 
BRANCH  13  14
ATOM     14  C   UNL     1      25.233   0.172  19.712  1.00  0.00     0.041 C 
ATOM     15  O   UNL     1      24.479   1.104  19.322  1.00  0.00    -0.550 OA
ATOM     16  O   UNL     1      24.726  -1.111  19.853  1.00  0.00    -0.550 OA
ENDBRANCH  13  14
ENDBRANCH  12  13
ENDBRANCH  11  12
ENDBRANCH  10  11
ENDBRANCH   9  10
ENDBRANCH   8   9
ENDBRANCH   7   8
ENDBRANCH   6   7
ENDBRANCH   5   6
ENDBRANCH   4   5
ENDBRANCH   3   4
ENDBRANCH   2   3
ENDBRANCH   1   2
BRANCH   1  17
ATOM     17  C   UNL     1      22.486 -10.124  24.988  1.00  0.00     0.000 C 
BRANCH  17  18
ATOM     18  C   UNL     1      23.002 -11.342  25.770  1.00  0.00     0.000 C 
BRANCH  18  19
ATOM     19  C   UNL     1      22.427 -11.429  27.193  1.00  0.00     0.000 C 
BRANCH  19  20
ATOM     20  C   UNL     1      21.739 -10.121  27.620  1.00  0.00     0.000 C 
BRANCH  20  21
ATOM     21  C   UNL     1      20.244 -10.313  27.934  1.00  0.00     0.000 C 
BRANCH  21  22
ATOM     22  C   UNL     1      19.343  -9.811  26.792  1.00  0.00    -0.000 C 
BRANCH  22  23
ATOM     23  C   UNL     1      19.887  -8.519  26.156  1.00  0.00    -0.000 C 
BRANCH  23  24
ATOM     24  C   UNL     1      19.346  -8.272  24.738  1.00  0.00    -0.000 C 
BRANCH  24  25
ATOM     25  C   UNL     1      18.320  -7.122  24.662  1.00  0.00    -0.000 C 
BRANCH  25  26
ATOM     26  C   UNL     1      17.027  -7.547  23.952  1.00  0.00    -0.000 C 
BRANCH  26  27
ATOM     27  C   UNL     1      15.800  -6.892  24.607  1.00  0.00    -0.000 C 
BRANCH  27  28
ATOM     28  C   UNL     1      16.169  -6.052  25.841  1.00  0.00    -0.000 C 
BRANCH  28  29
ATOM     29  C   UNL     1      15.738  -4.584  25.701  1.00  0.00    -0.003 C 
ATOM     30  C   UNL     1      16.768  -3.781  24.906  1.00  0.00     0.004 C 
ENDBRANCH  28  29
ENDBRANCH  27  28
ENDBRANCH  26  27
ENDBRANCH  25  26
ENDBRANCH  24  25
ENDBRANCH  23  24
ENDBRANCH  22  23
ENDBRANCH  21  22
ENDBRANCH  20  21
ENDBRANCH  19  20
ENDBRANCH  18  19
ENDBRANCH  17  18
ENDBRANCH   1  17
TORSDOF 26
ENDMDL
