MODEL 1
REMARK VINA RESULT:    -3.284      0.000      0.000
REMARK INTER + INTRA:          -4.521
REMARK INTER:                  -4.243
REMARK INTRA:                  -0.278
REMARK UNBOUND:                -0.278
REMARK SMILES CCCCCCC(=O)[O-]
REMARK SMILES IDX 5 1 6 2 7 3 8 4 9 5 4 6 3 7 2 8 1 9
REMARK H PARENT
REMARK Flexibility Score: inf
ROOT
ATOM      1  C   UNL     1      39.973  12.069  12.682  1.00  0.00     0.006 C 
ENDROOT
BRANCH   1   2
ATOM      2  C   UNL     1      41.321  11.997  13.415  1.00  0.00     0.053 C 
BRANCH   2   3
ATOM      3  C   UNL     1      41.155  12.012  14.904  1.00  0.00     0.041 C 
ATOM      4  O   UNL     1      40.015  11.857  15.416  1.00  0.00    -0.550 OA
ATOM      5  O   UNL     1      42.264  12.165  15.727  1.00  0.00    -0.550 OA
ENDBRANCH   2   3
ENDBRANCH   1   2
BRANCH   1   6
ATOM      6  C   UNL     1      39.795  11.019  11.569  1.00  0.00     0.000 C 
BRANCH   6   7
ATOM      7  C   UNL     1      40.844   9.896  11.640  1.00  0.00    -0.000 C 
BRANCH   7   8
ATOM      8  C   UNL     1      40.206   8.499  11.691  1.00  0.00    -0.003 C 
ATOM      9  C   UNL     1      39.336   8.289  12.930  1.00  0.00     0.004 C 
ENDBRANCH   7   8
ENDBRANCH   6   7
ENDBRANCH   1   6
TORSDOF 5
ENDMDL
MODEL 2
REMARK VINA RESULT:    -3.234      1.061      1.703
REMARK INTER + INTRA:          -4.457
REMARK INTER:                  -4.224
REMARK INTRA:                  -0.233
REMARK UNBOUND:                -0.278
REMARK SMILES CCCCCCC(=O)[O-]
REMARK SMILES IDX 5 1 6 2 7 3 8 4 9 5 4 6 3 7 2 8 1 9
REMARK H PARENT
REMARK Flexibility Score: inf
ROOT
ATOM      1  C   UNL     1      41.165  11.740  13.402  1.00  0.00     0.006 C 
ENDROOT
BRANCH   1   2
ATOM      2  C   UNL     1      40.716  11.806  14.870  1.00  0.00     0.053 C 
BRANCH   2   3
ATOM      3  C   UNL     1      41.459  12.854  15.640  1.00  0.00     0.041 C 
ATOM      4  O   UNL     1      42.358  12.523  16.457  1.00  0.00    -0.550 OA
ATOM      5  O   UNL     1      41.182  14.200  15.431  1.00  0.00    -0.550 OA
ENDBRANCH   2   3
ENDBRANCH   1   2
BRANCH   1   6
ATOM      6  C   UNL     1      40.045  12.010  12.380  1.00  0.00     0.000 C 
BRANCH   6   7
ATOM      7  C   UNL     1      39.981  10.944  11.273  1.00  0.00    -0.000 C 
BRANCH   7   8
ATOM      8  C   UNL     1      40.908   9.751  11.552  1.00  0.00    -0.003 C 
ATOM      9  C   UNL     1      40.144   8.447  11.780  1.00  0.00     0.004 C 
ENDBRANCH   7   8
ENDBRANCH   6   7
ENDBRANCH   1   6
TORSDOF 5
ENDMDL
MODEL 3
REMARK VINA RESULT:    -3.104      2.418      4.230
REMARK INTER + INTRA:          -4.290
REMARK INTER:                  -4.044
REMARK INTRA:                  -0.246
REMARK UNBOUND:                -0.278
REMARK SMILES CCCCCCC(=O)[O-]
REMARK SMILES IDX 5 1 6 2 7 3 8 4 9 5 4 6 3 7 2 8 1 9
REMARK H PARENT
REMARK Flexibility Score: inf
ROOT
ATOM      1  C   UNL     1      39.753  12.159  12.241  1.00  0.00     0.006 C 
ENDROOT
BRANCH   1   2
ATOM      2  C   UNL     1      39.362  10.726  11.847  1.00  0.00     0.053 C 
BRANCH   2   3
ATOM      3  C   UNL     1      40.558   9.838  11.692  1.00  0.00     0.041 C 
ATOM      4  O   UNL     1      41.719  10.323  11.745  1.00  0.00    -0.550 OA
ATOM      5  O   UNL     1      40.392   8.469  11.521  1.00  0.00    -0.550 OA
ENDBRANCH   2   3
ENDBRANCH   1   2
BRANCH   1   6
ATOM      6  C   UNL     1      39.470  12.515  13.713  1.00  0.00     0.000 C 
BRANCH   6   7
ATOM      7  C   UNL     1      40.697  13.105  14.428  1.00  0.00    -0.000 C 
BRANCH   7   8
ATOM      8  C   UNL     1      41.701  12.025  14.861  1.00  0.00    -0.003 C 
ATOM      9  C   UNL     1      42.112  12.152  16.329  1.00  0.00     0.004 C 
ENDBRANCH   7   8
ENDBRANCH   6   7
ENDBRANCH   1   6
TORSDOF 5
ENDMDL
MODEL 4
REMARK VINA RESULT:    -3.087      2.415      4.116
REMARK INTER + INTRA:          -4.267
REMARK INTER:                  -4.028
REMARK INTRA:                  -0.239
REMARK UNBOUND:                -0.278
REMARK SMILES CCCCCCC(=O)[O-]
REMARK SMILES IDX 5 1 6 2 7 3 8 4 9 5 4 6 3 7 2 8 1 9
REMARK H PARENT
REMARK Flexibility Score: inf
ROOT
ATOM      1  C   UNL     1      39.754  12.151  12.245  1.00  0.00     0.006 C 
ENDROOT
BRANCH   1   2
ATOM      2  C   UNL     1      39.324  10.704  11.959  1.00  0.00     0.053 C 
BRANCH   2   3
ATOM      3  C   UNL     1      40.498   9.803  11.729  1.00  0.00     0.041 C 
ATOM      4  O   UNL     1      40.321   8.577  11.499  1.00  0.00    -0.550 OA
ATOM      5  O   UNL     1      41.787  10.322  11.737  1.00  0.00    -0.550 OA
ENDBRANCH   2   3
ENDBRANCH   1   2
BRANCH   1   6
ATOM      6  C   UNL     1      39.445  12.637  13.674  1.00  0.00     0.000 C 
BRANCH   6   7
ATOM      7  C   UNL     1      40.691  13.169  14.402  1.00  0.00    -0.000 C 
BRANCH   7   8
ATOM      8  C   UNL     1      41.667  12.048  14.793  1.00  0.00    -0.003 C 
ATOM      9  C   UNL     1      42.099  12.122  16.258  1.00  0.00     0.004 C 
ENDBRANCH   7   8
ENDBRANCH   6   7
ENDBRANCH   1   6
TORSDOF 5
ENDMDL
MODEL 5
REMARK VINA RESULT:    -3.053      1.247      1.782
REMARK INTER + INTRA:          -4.223
REMARK INTER:                  -4.006
REMARK INTRA:                  -0.217
REMARK UNBOUND:                -0.278
REMARK SMILES CCCCCCC(=O)[O-]
REMARK SMILES IDX 5 1 6 2 7 3 8 4 9 5 4 6 3 7 2 8 1 9
REMARK H PARENT
REMARK Flexibility Score: inf
ROOT
ATOM      1  C   UNL     1      40.204  12.079  14.248  1.00  0.00     0.006 C 
ENDROOT
BRANCH   1   2
ATOM      2  C   UNL     1      41.644  11.991  14.776  1.00  0.00     0.053 C 
BRANCH   2   3
ATOM      3  C   UNL     1      41.770  12.539  16.164  1.00  0.00     0.041 C 
ATOM      4  O   UNL     1      41.197  13.617  16.475  1.00  0.00    -0.550 OA
ATOM      5  O   UNL     1      42.492  11.842  17.125  1.00  0.00    -0.550 OA
ENDBRANCH   2   3
ENDBRANCH   1   2
BRANCH   1   6
ATOM      6  C   UNL     1      40.092  12.459  12.760  1.00  0.00     0.000 C 
BRANCH   6   7
ATOM      7  C   UNL     1      39.617  11.288  11.882  1.00  0.00    -0.000 C 
BRANCH   7   8
ATOM      8  C   UNL     1      40.770  10.362  11.462  1.00  0.00    -0.003 C 
ATOM      9  C   UNL     1      40.433   8.881  11.636  1.00  0.00     0.004 C 
ENDBRANCH   7   8
ENDBRANCH   6   7
ENDBRANCH   1   6
TORSDOF 5
ENDMDL
MODEL 6
REMARK VINA RESULT:    -2.661      2.884      4.933
REMARK INTER + INTRA:          -3.716
REMARK INTER:                  -3.545
REMARK INTRA:                  -0.171
REMARK UNBOUND:                -0.278
REMARK SMILES CCCCCCC(=O)[O-]
REMARK SMILES IDX 5 1 6 2 7 3 8 4 9 5 4 6 3 7 2 8 1 9
REMARK H PARENT
REMARK Flexibility Score: inf
ROOT
ATOM      1  C   UNL     1      40.226  12.564  13.440  1.00  0.00     0.006 C 
ENDROOT
BRANCH   1   2
ATOM      2  C   UNL     1      39.759  12.029  12.077  1.00  0.00     0.053 C 
BRANCH   2   3
ATOM      3  C   UNL     1      40.271  10.648  11.809  1.00  0.00     0.041 C 
ATOM      4  O   UNL     1      39.467   9.710  11.562  1.00  0.00    -0.550 OA
ATOM      5  O   UNL     1      41.639  10.401  11.801  1.00  0.00    -0.550 OA
ENDBRANCH   2   3
ENDBRANCH   1   2
BRANCH   1   6
ATOM      6  C   UNL     1      39.084  12.913  14.413  1.00  0.00     0.000 C 
BRANCH   6   7
ATOM      7  C   UNL     1      39.572  13.684  15.650  1.00  0.00    -0.000 C 
BRANCH   7   8
ATOM      8  C   UNL     1      40.710  14.663  15.322  1.00  0.00    -0.003 C 
ATOM      9  C   UNL     1      40.237  16.114  15.231  1.00  0.00     0.004 C 
ENDBRANCH   7   8
ENDBRANCH   6   7
ENDBRANCH   1   6
TORSDOF 5
ENDMDL
MODEL 7
REMARK VINA RESULT:    -2.652      2.716      3.446
REMARK INTER + INTRA:          -3.705
REMARK INTER:                  -3.590
REMARK INTRA:                  -0.114
REMARK UNBOUND:                -0.278
REMARK SMILES CCCCCCC(=O)[O-]
REMARK SMILES IDX 5 1 6 2 7 3 8 4 9 5 4 6 3 7 2 8 1 9
REMARK H PARENT
REMARK Flexibility Score: inf
ROOT
ATOM      1  C   UNL     1      40.824  13.863  14.361  1.00  0.00     0.006 C 
ENDROOT
BRANCH   1   2
ATOM      2  C   UNL     1      39.759  14.523  15.252  1.00  0.00     0.053 C 
BRANCH   2   3
ATOM      3  C   UNL     1      40.357  15.510  16.207  1.00  0.00     0.041 C 
ATOM      4  O   UNL     1      40.632  16.677  15.823  1.00  0.00    -0.550 OA
ATOM      5  O   UNL     1      40.581  15.150  17.530  1.00  0.00    -0.550 OA
ENDBRANCH   2   3
ENDBRANCH   1   2
BRANCH   1   6
ATOM      6  C   UNL     1      40.928  12.335  14.518  1.00  0.00     0.000 C 
BRANCH   6   7
ATOM      7  C   UNL     1      41.466  11.643  13.254  1.00  0.00    -0.000 C 
BRANCH   7   8
ATOM      8  C   UNL     1      40.351  11.293  12.256  1.00  0.00    -0.003 C 
ATOM      9  C   UNL     1      40.774  10.228  11.244  1.00  0.00     0.004 C 
ENDBRANCH   7   8
ENDBRANCH   6   7
ENDBRANCH   1   6
TORSDOF 5
ENDMDL
MODEL 8
REMARK VINA RESULT:    -2.558      2.284      4.162
REMARK INTER + INTRA:          -3.584
REMARK INTER:                  -3.201
REMARK INTRA:                  -0.384
REMARK UNBOUND:                -0.278
REMARK SMILES CCCCCCC(=O)[O-]
REMARK SMILES IDX 5 1 6 2 7 3 8 4 9 5 4 6 3 7 2 8 1 9
REMARK H PARENT
REMARK Flexibility Score: inf
ROOT
ATOM      1  C   UNL     1      39.206  10.724  14.156  1.00  0.00     0.006 C 
ENDROOT
BRANCH   1   2
ATOM      2  C   UNL     1      39.717  11.510  12.939  1.00  0.00     0.053 C 
BRANCH   2   3
ATOM      3  C   UNL     1      41.076  11.055  12.505  1.00  0.00     0.041 C 
ATOM      4  O   UNL     1      41.201  10.280  11.520  1.00  0.00    -0.550 OA
ATOM      5  O   UNL     1      42.209  11.513  13.167  1.00  0.00    -0.550 OA
ENDBRANCH   2   3
ENDBRANCH   1   2
BRANCH   1   6
ATOM      6  C   UNL     1      39.240  11.507  15.481  1.00  0.00     0.000 C 
BRANCH   6   7
ATOM      7  C   UNL     1      40.316  10.988  16.450  1.00  0.00    -0.000 C 
BRANCH   7   8
ATOM      8  C   UNL     1      41.561  11.889  16.484  1.00  0.00    -0.003 C 
ATOM      9  C   UNL     1      41.266  13.325  16.051  1.00  0.00     0.004 C 
ENDBRANCH   7   8
ENDBRANCH   6   7
ENDBRANCH   1   6
TORSDOF 5
ENDMDL
MODEL 9
REMARK VINA RESULT:    -2.545      2.506      4.204
REMARK INTER + INTRA:          -3.567
REMARK INTER:                  -3.376
REMARK INTRA:                  -0.192
REMARK UNBOUND:                -0.278
REMARK SMILES CCCCCCC(=O)[O-]
REMARK SMILES IDX 5 1 6 2 7 3 8 4 9 5 4 6 3 7 2 8 1 9
REMARK H PARENT
REMARK Flexibility Score: inf
ROOT
ATOM      1  C   UNL     1      41.062  12.160  14.489  1.00  0.00     0.006 C 
ENDROOT
BRANCH   1   2
ATOM      2  C   UNL     1      41.629  11.593  13.178  1.00  0.00     0.053 C 
BRANCH   2   3
ATOM      3  C   UNL     1      40.547  11.148  12.243  1.00  0.00     0.041 C 
ATOM      4  O   UNL     1      40.817  10.391  11.274  1.00  0.00    -0.550 OA
ATOM      5  O   UNL     1      39.232  11.544  12.460  1.00  0.00    -0.550 OA
ENDBRANCH   2   3
ENDBRANCH   1   2
BRANCH   1   6
ATOM      6  C   UNL     1      42.021  12.067  15.691  1.00  0.00     0.000 C 
BRANCH   6   7
ATOM      7  C   UNL     1      41.327  11.565  16.968  1.00  0.00    -0.000 C 
BRANCH   7   8
ATOM      8  C   UNL     1      39.998  10.851  16.673  1.00  0.00    -0.003 C 
ATOM      9  C   UNL     1      39.909   9.472  17.326  1.00  0.00     0.004 C 
ENDBRANCH   7   8
ENDBRANCH   6   7
ENDBRANCH   1   6
TORSDOF 5
ENDMDL
