MODEL 1
REMARK VINA RESULT:    -5.565      0.000      0.000
REMARK INTER + INTRA:          -5.565
REMARK INTER:                  -5.565
REMARK INTRA:                   0.000
REMARK UNBOUND:                 0.000
REMARK SMILES C=C1CCC[C@]2(C)CC(=O)C(=C(C)C)C[C@H]12
REMARK SMILES IDX 13 1 12 2 11 3 15 4 16 5 2 6 1 7 3 8 4 9 5 10 6 11 8 12 9 13
REMARK SMILES IDX 10 14 7 15 14 16
REMARK H PARENT
REMARK Flexibility Score: inf
ROOT
ATOM      1  C   UNL     1       1.758   8.036  30.231  1.00  0.00     0.039 C 
ATOM      2  C   UNL     1       1.712   6.541  30.463  1.00  0.00    -0.070 C 
ATOM      3  C   UNL     1       2.413   5.681  29.666  1.00  0.00    -0.006 C 
ATOM      4  C   UNL     1       3.216   6.165  28.467  1.00  0.00     0.047 C 
ATOM      5  C   UNL     1       4.471   5.284  28.193  1.00  0.00     0.025 C 
ATOM      6  C   UNL     1       5.275   5.728  26.959  1.00  0.00    -0.073 C 
ATOM      7  C   UNL     1       5.155   6.938  26.377  1.00  0.00     0.008 C 
ATOM      8  C   UNL     1       6.331   4.774  26.451  1.00  0.00     0.031 C 
ATOM      9  C   UNL     1       5.749   3.386  26.132  1.00  0.00     0.005 C 
ATOM     10  C   UNL     1       4.346   3.149  26.720  1.00  0.00     0.008 C 
ATOM     11  C   UNL     1       4.169   3.720  28.158  1.00  0.00    -0.018 C 
ATOM     12  C   UNL     1       2.716   3.390  28.603  1.00  0.00     0.088 C 
ATOM     13  C   UNL     1       2.327   4.206  29.791  1.00  0.00     0.159 C 
ATOM     14  O   UNL     1       1.996   3.631  30.863  1.00  0.00    -0.295 OA
ATOM     15  C   UNL     1       5.134   2.979  29.122  1.00  0.00     0.012 C 
ATOM     16  C   UNL     1       0.824   6.049  31.582  1.00  0.00     0.039 C 
ENDROOT
TORSDOF 0
ENDMDL
MODEL 2
REMARK VINA RESULT:    -5.514     18.821     20.349
REMARK INTER + INTRA:          -5.514
REMARK INTER:                  -5.514
REMARK INTRA:                   0.000
REMARK UNBOUND:                 0.000
REMARK SMILES C=C1CCC[C@]2(C)CC(=O)C(=C(C)C)C[C@H]12
REMARK SMILES IDX 13 1 12 2 11 3 15 4 16 5 2 6 1 7 3 8 4 9 5 10 6 11 8 12 9 13
REMARK SMILES IDX 10 14 7 15 14 16
REMARK H PARENT
REMARK Flexibility Score: inf
ROOT
ATOM      1  C   UNL     1      -8.726  -4.501  20.635  1.00  0.00     0.039 C 
ATOM      2  C   UNL     1      -9.191  -4.420  19.197  1.00  0.00    -0.070 C 
ATOM      3  C   UNL     1      -8.817  -5.361  18.280  1.00  0.00    -0.006 C 
ATOM      4  C   UNL     1      -7.863  -6.494  18.630  1.00  0.00     0.047 C 
ATOM      5  C   UNL     1      -8.153  -7.791  17.820  1.00  0.00     0.025 C 
ATOM      6  C   UNL     1      -7.173  -8.938  18.124  1.00  0.00    -0.073 C 
ATOM      7  C   UNL     1      -6.380  -8.981  19.213  1.00  0.00     0.008 C 
ATOM      8  C   UNL     1      -7.196 -10.125  17.189  1.00  0.00     0.031 C 
ATOM      9  C   UNL     1      -6.960  -9.710  15.726  1.00  0.00     0.005 C 
ATOM     10  C   UNL     1      -7.114  -8.199  15.475  1.00  0.00     0.008 C 
ATOM     11  C   UNL     1      -8.301  -7.556  16.250  1.00  0.00    -0.018 C 
ATOM     12  C   UNL     1      -8.321  -6.045  15.881  1.00  0.00     0.088 C 
ATOM     13  C   UNL     1      -9.166  -5.276  16.842  1.00  0.00     0.159 C 
ATOM     14  O   UNL     1     -10.164  -4.633  16.419  1.00  0.00    -0.295 OA
ATOM     15  C   UNL     1      -9.632  -8.179  15.751  1.00  0.00     0.012 C 
ATOM     16  C   UNL     1     -10.046  -3.232  18.819  1.00  0.00     0.039 C 
ENDROOT
TORSDOF 0
ENDMDL
MODEL 3
REMARK VINA RESULT:    -5.377      1.726      4.799
REMARK INTER + INTRA:          -5.377
REMARK INTER:                  -5.377
REMARK INTRA:                   0.000
REMARK UNBOUND:                 0.000
REMARK SMILES C=C1CCC[C@]2(C)CC(=O)C(=C(C)C)C[C@H]12
REMARK SMILES IDX 13 1 12 2 11 3 15 4 16 5 2 6 1 7 3 8 4 9 5 10 6 11 8 12 9 13
REMARK SMILES IDX 10 14 7 15 14 16
REMARK H PARENT
REMARK Flexibility Score: inf
ROOT
ATOM      1  C   UNL     1       5.853   6.998  25.538  1.00  0.00     0.039 C 
ATOM      2  C   UNL     1       5.691   5.508  25.748  1.00  0.00    -0.070 C 
ATOM      3  C   UNL     1       5.003   5.018  26.821  1.00  0.00    -0.006 C 
ATOM      4  C   UNL     1       4.426   5.929  27.894  1.00  0.00     0.047 C 
ATOM      5  C   UNL     1       3.122   5.357  28.526  1.00  0.00     0.025 C 
ATOM      6  C   UNL     1       2.543   6.240  29.645  1.00  0.00    -0.073 C 
ATOM      7  C   UNL     1       2.880   7.532  29.836  1.00  0.00     0.008 C 
ATOM      8  C   UNL     1       1.457   5.634  30.503  1.00  0.00     0.031 C 
ATOM      9  C   UNL     1       1.907   4.317  31.158  1.00  0.00     0.005 C 
ATOM     10  C   UNL     1       3.183   3.719  30.539  1.00  0.00     0.008 C 
ATOM     11  C   UNL     1       3.238   3.837  28.988  1.00  0.00    -0.018 C 
ATOM     12  C   UNL     1       4.572   3.182  28.528  1.00  0.00     0.088 C 
ATOM     13  C   UNL     1       4.897   3.570  27.124  1.00  0.00     0.159 C 
ATOM     14  O   UNL     1       5.015   2.678  26.241  1.00  0.00    -0.295 OA
ATOM     15  C   UNL     1       2.075   3.013  28.374  1.00  0.00     0.012 C 
ATOM     16  C   UNL     1       6.362   4.598  24.745  1.00  0.00     0.039 C 
ENDROOT
TORSDOF 0
ENDMDL
MODEL 4
REMARK VINA RESULT:    -5.359     19.631     21.261
REMARK INTER + INTRA:          -5.359
REMARK INTER:                  -5.359
REMARK INTRA:                   0.000
REMARK UNBOUND:                 0.000
REMARK SMILES C=C1CCC[C@]2(C)CC(=O)C(=C(C)C)C[C@H]12
REMARK SMILES IDX 13 1 12 2 11 3 15 4 16 5 2 6 1 7 3 8 4 9 5 10 6 11 8 12 9 13
REMARK SMILES IDX 10 14 7 15 14 16
REMARK H PARENT
REMARK Flexibility Score: inf
ROOT
ATOM      1  C   UNL     1     -12.018  -6.969  15.663  1.00  0.00     0.039 C 
ATOM      2  C   UNL     1     -10.946  -7.980  15.318  1.00  0.00    -0.070 C 
ATOM      3  C   UNL     1      -9.709  -7.922  15.894  1.00  0.00    -0.006 C 
ATOM      4  C   UNL     1      -9.318  -6.806  16.852  1.00  0.00     0.047 C 
ATOM      5  C   UNL     1      -8.299  -7.276  17.932  1.00  0.00     0.025 C 
ATOM      6  C   UNL     1      -7.854  -6.154  18.886  1.00  0.00    -0.073 C 
ATOM      7  C   UNL     1      -8.514  -4.988  19.037  1.00  0.00     0.008 C 
ATOM      8  C   UNL     1      -6.664  -6.441  19.773  1.00  0.00     0.031 C 
ATOM      9  C   UNL     1      -5.426  -6.855  18.960  1.00  0.00     0.005 C 
ATOM     10  C   UNL     1      -5.738  -7.239  17.502  1.00  0.00     0.008 C 
ATOM     11  C   UNL     1      -7.047  -8.066  17.342  1.00  0.00    -0.018 C 
ATOM     12  C   UNL     1      -7.207  -8.375  15.826  1.00  0.00     0.088 C 
ATOM     13  C   UNL     1      -8.596  -8.828  15.522  1.00  0.00     0.159 C 
ATOM     14  O   UNL     1      -8.785  -9.968  15.017  1.00  0.00    -0.295 OA
ATOM     15  C   UNL     1      -6.887  -9.420  18.082  1.00  0.00     0.012 C 
ATOM     16  C   UNL     1     -11.295  -9.022  14.280  1.00  0.00     0.039 C 
ENDROOT
TORSDOF 0
ENDMDL
MODEL 5
REMARK VINA RESULT:    -5.354     18.769     20.561
REMARK INTER + INTRA:          -5.354
REMARK INTER:                  -5.354
REMARK INTRA:                   0.000
REMARK UNBOUND:                 0.000
REMARK SMILES C=C1CCC[C@]2(C)CC(=O)C(=C(C)C)C[C@H]12
REMARK SMILES IDX 13 1 12 2 11 3 15 4 16 5 2 6 1 7 3 8 4 9 5 10 6 11 8 12 9 13
REMARK SMILES IDX 10 14 7 15 14 16
REMARK H PARENT
REMARK Flexibility Score: inf
ROOT
ATOM      1  C   UNL     1      -7.445  -9.739  17.419  1.00  0.00     0.039 C 
ATOM      2  C   UNL     1      -7.089  -8.544  18.276  1.00  0.00    -0.070 C 
ATOM      3  C   UNL     1      -7.820  -7.392  18.220  1.00  0.00    -0.006 C 
ATOM      4  C   UNL     1      -8.981  -7.220  17.251  1.00  0.00     0.047 C 
ATOM      5  C   UNL     1     -10.097  -6.290  17.813  1.00  0.00     0.025 C 
ATOM      6  C   UNL     1     -11.261  -6.065  16.833  1.00  0.00    -0.073 C 
ATOM      7  C   UNL     1     -11.504  -6.845  15.761  1.00  0.00     0.008 C 
ATOM      8  C   UNL     1     -12.238  -4.963  17.171  1.00  0.00     0.031 C 
ATOM      9  C   UNL     1     -11.536  -3.606  17.353  1.00  0.00     0.005 C 
ATOM     10  C   UNL     1     -10.009  -3.712  17.514  1.00  0.00     0.008 C 
ATOM     11  C   UNL     1      -9.557  -4.910  18.400  1.00  0.00    -0.018 C 
ATOM     12  C   UNL     1      -8.004  -4.867  18.467  1.00  0.00     0.088 C 
ATOM     13  C   UNL     1      -7.459  -6.163  18.967  1.00  0.00     0.159 C 
ATOM     14  O   UNL     1      -6.765  -6.185  20.019  1.00  0.00    -0.295 OA
ATOM     15  C   UNL     1     -10.095  -4.708  19.841  1.00  0.00     0.012 C 
ATOM     16  C   UNL     1      -5.868  -8.672  19.157  1.00  0.00     0.039 C 
ENDROOT
TORSDOF 0
ENDMDL
MODEL 6
REMARK VINA RESULT:    -5.281     19.724     21.195
REMARK INTER + INTRA:          -5.281
REMARK INTER:                  -5.281
REMARK INTRA:                   0.000
REMARK UNBOUND:                 0.000
REMARK SMILES C=C1CCC[C@]2(C)CC(=O)C(=C(C)C)C[C@H]12
REMARK SMILES IDX 13 1 12 2 11 3 15 4 16 5 2 6 1 7 3 8 4 9 5 10 6 11 8 12 9 13
REMARK SMILES IDX 10 14 7 15 14 16
REMARK H PARENT
REMARK Flexibility Score: inf
ROOT
ATOM      1  C   UNL     1     -11.986  -4.136  16.906  1.00  0.00     0.039 C 
ATOM      2  C   UNL     1     -10.628  -4.250  17.565  1.00  0.00    -0.070 C 
ATOM      3  C   UNL     1      -9.876  -5.384  17.440  1.00  0.00    -0.006 C 
ATOM      4  C   UNL     1     -10.385  -6.612  16.698  1.00  0.00     0.047 C 
ATOM      5  C   UNL     1      -9.240  -7.413  16.012  1.00  0.00     0.025 C 
ATOM      6  C   UNL     1      -9.725  -8.684  15.293  1.00  0.00    -0.073 C 
ATOM      7  C   UNL     1     -11.010  -8.916  14.959  1.00  0.00     0.008 C 
ATOM      8  C   UNL     1      -8.666  -9.667  14.850  1.00  0.00     0.031 C 
ATOM      9  C   UNL     1      -7.779 -10.124  16.021  1.00  0.00     0.005 C 
ATOM     10  C   UNL     1      -7.905  -9.246  17.278  1.00  0.00     0.008 C 
ATOM     11  C   UNL     1      -8.003  -7.724  16.968  1.00  0.00    -0.018 C 
ATOM     12  C   UNL     1      -8.114  -6.986  18.333  1.00  0.00     0.088 C 
ATOM     13  C   UNL     1      -8.585  -5.583  18.141  1.00  0.00     0.159 C 
ATOM     14  O   UNL     1      -7.861  -4.624  18.522  1.00  0.00    -0.295 OA
ATOM     15  C   UNL     1      -6.688  -7.257  16.289  1.00  0.00     0.012 C 
ATOM     16  C   UNL     1     -10.169  -3.076  18.397  1.00  0.00     0.039 C 
ENDROOT
TORSDOF 0
ENDMDL
MODEL 7
REMARK VINA RESULT:    -5.208     19.601     21.304
REMARK INTER + INTRA:          -5.208
REMARK INTER:                  -5.208
REMARK INTRA:                   0.000
REMARK UNBOUND:                 0.000
REMARK SMILES C=C1CCC[C@]2(C)CC(=O)C(=C(C)C)C[C@H]12
REMARK SMILES IDX 13 1 12 2 11 3 15 4 16 5 2 6 1 7 3 8 4 9 5 10 6 11 8 12 9 13
REMARK SMILES IDX 10 14 7 15 14 16
REMARK H PARENT
REMARK Flexibility Score: inf
ROOT
ATOM      1  C   UNL     1      -6.651  -8.144  18.794  1.00  0.00     0.039 C 
ATOM      2  C   UNL     1      -7.484  -8.384  17.553  1.00  0.00    -0.070 C 
ATOM      3  C   UNL     1      -8.529  -7.564  17.235  1.00  0.00    -0.006 C 
ATOM      4  C   UNL     1      -8.956  -6.414  18.137  1.00  0.00     0.047 C 
ATOM      5  C   UNL     1      -9.547  -5.215  17.338  1.00  0.00     0.025 C 
ATOM      6  C   UNL     1     -10.027  -4.059  18.232  1.00  0.00    -0.073 C 
ATOM      7  C   UNL     1      -9.665  -3.903  19.521  1.00  0.00     0.008 C 
ATOM      8  C   UNL     1     -10.868  -2.989  17.575  1.00  0.00     0.031 C 
ATOM      9  C   UNL     1     -12.115  -3.576  16.891  1.00  0.00     0.005 C 
ATOM     10  C   UNL     1     -12.062  -5.102  16.703  1.00  0.00     0.008 C 
ATOM     11  C   UNL     1     -10.661  -5.629  16.276  1.00  0.00    -0.018 C 
ATOM     12  C   UNL     1     -10.782  -7.172  16.122  1.00  0.00     0.088 C 
ATOM     13  C   UNL     1      -9.433  -7.809  16.086  1.00  0.00     0.159 C 
ATOM     14  O   UNL     1      -9.085  -8.479  15.076  1.00  0.00    -0.295 OA
ATOM     15  C   UNL     1     -10.300  -5.045  14.885  1.00  0.00     0.012 C 
ATOM     16  C   UNL     1      -7.134  -9.592  16.716  1.00  0.00     0.039 C 
ENDROOT
TORSDOF 0
ENDMDL
MODEL 8
REMARK VINA RESULT:    -5.093     20.174     21.761
REMARK INTER + INTRA:          -5.093
REMARK INTER:                  -5.093
REMARK INTRA:                   0.000
REMARK UNBOUND:                 0.000
REMARK SMILES C=C1CCC[C@]2(C)CC(=O)C(=C(C)C)C[C@H]12
REMARK SMILES IDX 13 1 12 2 11 3 15 4 16 5 2 6 1 7 3 8 4 9 5 10 6 11 8 12 9 13
REMARK SMILES IDX 10 14 7 15 14 16
REMARK H PARENT
REMARK Flexibility Score: inf
ROOT
ATOM      1  C   UNL     1      -8.242  -5.279  20.093  1.00  0.00     0.039 C 
ATOM      2  C   UNL     1      -7.639  -6.141  19.005  1.00  0.00    -0.070 C 
ATOM      3  C   UNL     1      -8.419  -6.699  18.032  1.00  0.00    -0.006 C 
ATOM      4  C   UNL     1      -9.934  -6.545  18.026  1.00  0.00     0.047 C 
ATOM      5  C   UNL     1     -10.527  -6.530  16.587  1.00  0.00     0.025 C 
ATOM      6  C   UNL     1     -12.061  -6.420  16.556  1.00  0.00    -0.073 C 
ATOM      7  C   UNL     1     -12.809  -6.015  17.603  1.00  0.00     0.008 C 
ATOM      8  C   UNL     1     -12.741  -6.686  15.233  1.00  0.00     0.031 C 
ATOM      9  C   UNL     1     -12.379  -8.070  14.666  1.00  0.00     0.005 C 
ATOM     10  C   UNL     1     -11.162  -8.722  15.347  1.00  0.00     0.008 C 
ATOM     11  C   UNL     1     -10.012  -7.720  15.660  1.00  0.00    -0.018 C 
ATOM     12  C   UNL     1      -8.868  -8.534  16.330  1.00  0.00     0.088 C 
ATOM     13  C   UNL     1      -7.893  -7.625  17.001  1.00  0.00     0.159 C 
ATOM     14  O   UNL     1      -6.685  -7.632  16.643  1.00  0.00    -0.295 OA
ATOM     15  C   UNL     1      -9.461  -7.145  14.328  1.00  0.00     0.012 C 
ATOM     16  C   UNL     1      -6.150  -6.390  19.074  1.00  0.00     0.039 C 
ENDROOT
TORSDOF 0
ENDMDL
