MODEL 1
REMARK VINA RESULT:    -1.928      0.000      0.000
REMARK INTER + INTRA:          -1.928
REMARK INTER:                  -1.928
REMARK INTRA:                   0.000
REMARK UNBOUND:                 0.000
REMARK SMILES CC(=O)[O-]
REMARK SMILES IDX 1 1 2 2 3 3 4 4
REMARK H PARENT
REMARK Flexibility Score: inf
ROOT
ATOM      1  C   UNL     1      13.444  -9.828 -24.150  1.00  0.00     0.063 C 
ATOM      2  C   UNL     1      13.071 -11.248 -23.893  1.00  0.00     0.038 C 
ATOM      3  O   UNL     1      12.070 -11.753 -24.466  1.00  0.00    -0.550 OA
ATOM      4  O   UNL     1      13.859 -12.035 -23.062  1.00  0.00    -0.550 OA
ENDROOT
TORSDOF 0
ENDMDL
MODEL 2
REMARK VINA RESULT:    -1.914      7.994      8.382
REMARK INTER + INTRA:          -1.914
REMARK INTER:                  -1.914
REMARK INTRA:                   0.000
REMARK UNBOUND:                 0.000
REMARK SMILES CC(=O)[O-]
REMARK SMILES IDX 1 1 2 2 3 3 4 4
REMARK H PARENT
REMARK Flexibility Score: inf
ROOT
ATOM      1  C   UNL     1      13.754  -2.498 -23.483  1.00  0.00     0.063 C 
ATOM      2  C   UNL     1      12.988  -3.168 -22.394  1.00  0.00     0.038 C 
ATOM      3  O   UNL     1      13.336  -4.306 -21.983  1.00  0.00    -0.550 OA
ATOM      4  O   UNL     1      11.920  -2.515 -21.791  1.00  0.00    -0.550 OA
ENDROOT
TORSDOF 0
ENDMDL
MODEL 3
REMARK VINA RESULT:    -1.902      1.358      1.997
REMARK INTER + INTRA:          -1.902
REMARK INTER:                  -1.902
REMARK INTRA:                   0.000
REMARK UNBOUND:                 0.000
REMARK SMILES CC(=O)[O-]
REMARK SMILES IDX 1 1 2 2 3 3 4 4
REMARK H PARENT
REMARK Flexibility Score: inf
ROOT
ATOM      1  C   UNL     1      11.945 -11.555 -24.514  1.00  0.00     0.063 C 
ATOM      2  C   UNL     1      13.200 -11.149 -23.819  1.00  0.00     0.038 C 
ATOM      3  O   UNL     1      13.848 -11.991 -23.141  1.00  0.00    -0.550 OA
ATOM      4  O   UNL     1      13.688  -9.857 -23.961  1.00  0.00    -0.550 OA
ENDROOT
TORSDOF 0
ENDMDL
MODEL 4
REMARK VINA RESULT:    -1.902      5.995      6.453
REMARK INTER + INTRA:          -1.902
REMARK INTER:                  -1.902
REMARK INTRA:                   0.000
REMARK UNBOUND:                 0.000
REMARK SMILES CC(=O)[O-]
REMARK SMILES IDX 1 1 2 2 3 3 4 4
REMARK H PARENT
REMARK Flexibility Score: inf
ROOT
ATOM      1  C   UNL     1      14.125 -13.383 -17.495  1.00  0.00     0.063 C 
ATOM      2  C   UNL     1      12.843 -13.745 -18.165  1.00  0.00     0.038 C 
ATOM      3  O   UNL     1      12.633 -13.401 -19.358  1.00  0.00    -0.550 OA
ATOM      4  O   UNL     1      11.899 -14.512 -17.493  1.00  0.00    -0.550 OA
ENDROOT
TORSDOF 0
ENDMDL
MODEL 5
REMARK VINA RESULT:    -1.892      8.205      8.564
REMARK INTER + INTRA:          -1.892
REMARK INTER:                  -1.892
REMARK INTRA:                   0.000
REMARK UNBOUND:                 0.000
REMARK SMILES CC(=O)[O-]
REMARK SMILES IDX 1 1 2 2 3 3 4 4
REMARK H PARENT
REMARK Flexibility Score: inf
ROOT
ATOM      1  C   UNL     1      13.409  -4.442 -22.673  1.00  0.00     0.063 C 
ATOM      2  C   UNL     1      13.156  -2.973 -22.642  1.00  0.00     0.038 C 
ATOM      3  O   UNL     1      13.895  -2.190 -23.296  1.00  0.00    -0.550 OA
ATOM      4  O   UNL     1      12.073  -2.468 -21.935  1.00  0.00    -0.550 OA
ENDROOT
TORSDOF 0
ENDMDL
MODEL 6
REMARK VINA RESULT:    -1.883      5.829      6.267
REMARK INTER + INTRA:          -1.883
REMARK INTER:                  -1.883
REMARK INTRA:                   0.000
REMARK UNBOUND:                 0.000
REMARK SMILES CC(=O)[O-]
REMARK SMILES IDX 1 1 2 2 3 3 4 4
REMARK H PARENT
REMARK Flexibility Score: inf
ROOT
ATOM      1  C   UNL     1      12.253 -13.389 -19.603  1.00  0.00     0.063 C 
ATOM      2  C   UNL     1      12.812 -13.733 -18.263  1.00  0.00     0.038 C 
ATOM      3  O   UNL     1      12.121 -14.388 -17.439  1.00  0.00    -0.550 OA
ATOM      4  O   UNL     1      14.116 -13.378 -17.942  1.00  0.00    -0.550 OA
ENDROOT
TORSDOF 0
ENDMDL
MODEL 7
REMARK VINA RESULT:    -1.808     11.504     12.036
REMARK INTER + INTRA:          -1.808
REMARK INTER:                  -1.808
REMARK INTRA:                   0.000
REMARK UNBOUND:                 0.000
REMARK SMILES CC(=O)[O-]
REMARK SMILES IDX 1 1 2 2 3 3 4 4
REMARK H PARENT
REMARK Flexibility Score: inf
ROOT
ATOM      1  C   UNL     1      12.586  -0.635 -26.894  1.00  0.00     0.063 C 
ATOM      2  C   UNL     1      12.981  -0.194 -28.263  1.00  0.00     0.038 C 
ATOM      3  O   UNL     1      14.119  -0.484 -28.717  1.00  0.00    -0.550 OA
ATOM      4  O   UNL     1      12.075   0.492 -29.061  1.00  0.00    -0.550 OA
ENDROOT
TORSDOF 0
ENDMDL
MODEL 8
REMARK VINA RESULT:    -1.767      7.223      7.812
REMARK INTER + INTRA:          -1.767
REMARK INTER:                  -1.767
REMARK INTRA:                   0.000
REMARK UNBOUND:                 0.000
REMARK SMILES CC(=O)[O-]
REMARK SMILES IDX 1 1 2 2 3 3 4 4
REMARK H PARENT
REMARK Flexibility Score: inf
ROOT
ATOM      1  C   UNL     1      14.125 -13.343 -17.435  1.00  0.00     0.063 C 
ATOM      2  C   UNL     1      13.007 -14.080 -16.779  1.00  0.00     0.038 C 
ATOM      3  O   UNL     1      13.032 -14.294 -15.538  1.00  0.00    -0.550 OA
ATOM      4  O   UNL     1      11.908 -14.486 -17.525  1.00  0.00    -0.550 OA
ENDROOT
TORSDOF 0
ENDMDL
MODEL 9
REMARK VINA RESULT:    -1.755     18.761     19.085
REMARK INTER + INTRA:          -1.755
REMARK INTER:                  -1.755
REMARK INTRA:                   0.000
REMARK UNBOUND:                 0.000
REMARK SMILES CC(=O)[O-]
REMARK SMILES IDX 1 1 2 2 3 3 4 4
REMARK H PARENT
REMARK Flexibility Score: inf
ROOT
ATOM      1  C   UNL     1      -2.068 -13.823 -14.130  1.00  0.00     0.063 C 
ATOM      2  C   UNL     1      -2.148 -14.934 -13.139  1.00  0.00     0.038 C 
ATOM      3  O   UNL     1      -1.318 -15.879 -13.180  1.00  0.00    -0.550 OA
ATOM      4  O   UNL     1      -3.105 -14.901 -12.133  1.00  0.00    -0.550 OA
ENDROOT
TORSDOF 0
ENDMDL
