MODEL 1
REMARK VINA RESULT:    -7.047      0.000      0.000
REMARK INTER + INTRA:         -12.832
REMARK INTER:                 -10.548
REMARK INTRA:                  -2.284
REMARK UNBOUND:                -2.284
REMARK SMILES C=C(CC[C@@H](C(=O)[O-])[C@H]1[C@H](O)C[C@]2(C)C3=C(CC[C@]12C)[C@@]1(C)CC[C@H](OC(C)=O)C(C)(C)[C@H]1CC3)C(C)C
REMARK SMILES IDX 4 1 5 2 6 3 7 4 8 5 9 6 10 7 19 8 12 9 13 10 18 11 20 12
REMARK SMILES IDX 14 13 15 14 17 15 16 16 35 17 21 18 34 19 33 20 23 21 22 22
REMARK SMILES IDX 30 23 24 24 25 25 31 26 32 27 11 28 26 30 27 31 29 32 28 33
REMARK SMILES IDX 3 34 2 35 1 36 36 37 37 38 38 39
REMARK H PARENT 11 29
REMARK Flexibility Score: inf
ROOT
ATOM      1  C   UNL     1      21.555  14.127  25.391  1.00  0.00     0.014 C 
ENDROOT
BRANCH   1   2
ATOM      2  C   UNL     1      21.419  13.140  24.198  1.00  0.00     0.042 C 
BRANCH   2   3
ATOM      3  C   UNL     1      21.130  11.771  24.774  1.00  0.00     0.045 C 
ATOM      4  O   UNL     1      21.528  11.482  25.936  1.00  0.00    -0.550 OA
ATOM      5  O   UNL     1      20.384  10.840  24.057  1.00  0.00    -0.550 OA
ENDBRANCH   2   3
BRANCH   2   6
ATOM      6  C   UNL     1      20.324  13.579  23.156  1.00  0.00     0.033 C 
ATOM      7  C   UNL     1      19.608  14.875  23.606  1.00  0.00     0.119 C 
ATOM      8  C   UNL     1      20.795  13.838  21.654  1.00  0.00    -0.017 C 
ATOM      9  C   UNL     1      19.229  15.649  22.358  1.00  0.00     0.043 C 
ATOM     10  C   UNL     1      20.298  15.320  21.306  1.00  0.00    -0.003 C 
ATOM     11  C   UNL     1      20.139  12.764  20.720  1.00  0.00     0.012 C 
ATOM     12  C   UNL     1      22.330  13.671  21.421  1.00  0.00     0.013 C 
ATOM     13  C   UNL     1      21.452  16.362  21.489  1.00  0.00     0.017 C 
ATOM     14  C   UNL     1      19.636  15.455  19.907  1.00  0.00    -0.064 C 
ATOM     15  C   UNL     1      18.765  13.177  20.229  1.00  0.00     0.032 C 
ATOM     16  C   UNL     1      18.905  14.429  19.380  1.00  0.00    -0.064 C 
ATOM     17  C   UNL     1      19.697  16.783  19.189  1.00  0.00     0.032 C 
ATOM     18  C   UNL     1      18.219  14.485  17.980  1.00  0.00    -0.008 C 
ATOM     19  C   UNL     1      18.512  17.003  18.269  1.00  0.00     0.009 C 
ATOM     20  C   UNL     1      18.432  15.870  17.221  1.00  0.00     0.009 C 
ATOM     21  C   UNL     1      16.704  14.232  18.232  1.00  0.00     0.015 C 
ATOM     22  C   UNL     1      18.850  13.334  17.147  1.00  0.00     0.016 C 
ATOM     23  C   UNL     1      17.396  16.198  16.039  1.00  0.00     0.005 C 
ATOM     24  C   UNL     1      15.826  14.423  17.004  1.00  0.00     0.047 C 
ATOM     25  C   UNL     1      15.939  15.849  16.467  1.00  0.00     0.182 C 
ATOM     26  C   UNL     1      17.771  15.448  14.724  1.00  0.00     0.015 C 
ATOM     27  C   UNL     1      17.439  17.707  15.664  1.00  0.00     0.015 C 
BRANCH   7  28
ATOM     28  O   UNL     1      18.476  14.625  24.407  1.00  0.00    -0.393 OA
ATOM     29  H   UNL     1      17.687  15.046  23.967  1.00  0.00     0.210 HD
ENDBRANCH   7  28
BRANCH  25  30
ATOM     30  O   UNL     1      15.030  15.986  15.370  1.00  0.00    -0.462 OA
BRANCH  30  31
ATOM     31  C   UNL     1      13.854  16.743  15.413  1.00  0.00     0.302 C 
ATOM     32  O   UNL     1      12.834  16.396  14.757  1.00  0.00    -0.253 OA
ATOM     33  C   UNL     1      13.795  17.957  16.275  1.00  0.00     0.139 C 
ENDBRANCH  30  31
ENDBRANCH  25  30
ENDBRANCH   2   6
ENDBRANCH   1   2
BRANCH   1  34
ATOM     34  C   UNL     1      23.026  14.510  25.678  1.00  0.00     0.031 C 
BRANCH  34  35
ATOM     35  C   UNL     1      23.556  15.536  24.696  1.00  0.00    -0.075 C 
ATOM     36  C   UNL     1      22.824  16.632  24.428  1.00  0.00     0.008 C 
BRANCH  35  37
ATOM     37  C   UNL     1      24.863  15.263  23.970  1.00  0.00     0.008 C 
ATOM     38  C   UNL     1      24.912  15.936  22.591  1.00  0.00     0.012 C 
ATOM     39  C   UNL     1      25.118  13.754  23.861  1.00  0.00     0.012 C 
ENDBRANCH  35  37
ENDBRANCH  34  35
ENDBRANCH   1  34
TORSDOF 9
ENDMDL
MODEL 2
REMARK VINA RESULT:    -6.823      2.107      3.096
REMARK INTER + INTRA:         -12.498
REMARK INTER:                 -10.131
REMARK INTRA:                  -2.366
REMARK UNBOUND:                -2.284
REMARK SMILES C=C(CC[C@@H](C(=O)[O-])[C@H]1[C@H](O)C[C@]2(C)C3=C(CC[C@]12C)[C@@]1(C)CC[C@H](OC(C)=O)C(C)(C)[C@H]1CC3)C(C)C
REMARK SMILES IDX 4 1 5 2 6 3 7 4 8 5 9 6 10 7 19 8 12 9 13 10 18 11 20 12
REMARK SMILES IDX 14 13 15 14 17 15 16 16 35 17 21 18 34 19 33 20 23 21 22 22
REMARK SMILES IDX 30 23 24 24 25 25 31 26 32 27 11 28 26 30 27 31 29 32 28 33
REMARK SMILES IDX 3 34 2 35 1 36 36 37 37 38 38 39
REMARK H PARENT 11 29
REMARK Flexibility Score: inf
ROOT
ATOM      1  C   UNL     1      21.997  10.441  22.609  1.00  0.00     0.014 C 
ENDROOT
BRANCH   1   2
ATOM      2  C   UNL     1      21.387  10.171  21.206  1.00  0.00     0.042 C 
BRANCH   2   3
ATOM      3  C   UNL     1      20.859   8.754  21.206  1.00  0.00     0.045 C 
ATOM      4  O   UNL     1      20.002   8.403  22.064  1.00  0.00    -0.550 OA
ATOM      5  O   UNL     1      21.270   7.841  20.240  1.00  0.00    -0.550 OA
ENDBRANCH   2   3
BRANCH   2   6
ATOM      6  C   UNL     1      20.271  11.210  20.809  1.00  0.00     0.033 C 
ATOM      7  C   UNL     1      19.694  11.919  22.058  1.00  0.00     0.119 C 
ATOM      8  C   UNL     1      20.673  12.371  19.792  1.00  0.00    -0.017 C 
ATOM      9  C   UNL     1      19.307  13.327  21.650  1.00  0.00     0.043 C 
ATOM     10  C   UNL     1      20.281  13.736  20.534  1.00  0.00    -0.003 C 
ATOM     11  C   UNL     1      19.875  12.179  18.457  1.00  0.00     0.012 C 
ATOM     12  C   UNL     1      22.171  12.358  19.355  1.00  0.00     0.013 C 
ATOM     13  C   UNL     1      21.527  14.378  21.230  1.00  0.00     0.017 C 
ATOM     14  C   UNL     1      19.551  14.764  19.627  1.00  0.00    -0.064 C 
ATOM     15  C   UNL     1      18.513  12.846  18.487  1.00  0.00     0.032 C 
ATOM     16  C   UNL     1      18.707  14.346  18.638  1.00  0.00    -0.064 C 
ATOM     17  C   UNL     1      19.679  16.238  19.934  1.00  0.00     0.032 C 
ATOM     18  C   UNL     1      17.945  15.315  17.683  1.00  0.00    -0.008 C 
ATOM     19  C   UNL     1      18.464  17.032  19.497  1.00  0.00     0.009 C 
ATOM     20  C   UNL     1      18.228  16.855  17.981  1.00  0.00     0.009 C 
ATOM     21  C   UNL     1      16.433  14.997  17.861  1.00  0.00     0.015 C 
ATOM     22  C   UNL     1      18.427  14.968  16.246  1.00  0.00     0.016 C 
ATOM     23  C   UNL     1      17.154  17.899  17.400  1.00  0.00     0.005 C 
ATOM     24  C   UNL     1      15.502  15.963  17.141  1.00  0.00     0.047 C 
ATOM     25  C   UNL     1      15.701  17.392  17.644  1.00  0.00     0.182 C 
ATOM     26  C   UNL     1      17.387  18.175  15.883  1.00  0.00     0.015 C 
ATOM     27  C   UNL     1      17.301  19.288  18.086  1.00  0.00     0.015 C 
BRANCH   7  28
ATOM     28  O   UNL     1      18.595  11.236  22.615  1.00  0.00    -0.393 OA
ATOM     29  H   UNL     1      18.936  10.413  23.062  1.00  0.00     0.210 HD
ENDBRANCH   7  28
BRANCH  25  30
ATOM     30  O   UNL     1      14.744  18.232  16.992  1.00  0.00    -0.462 OA
BRANCH  30  31
ATOM     31  C   UNL     1      13.746  18.951  17.658  1.00  0.00     0.302 C 
ATOM     32  O   UNL     1      12.786  19.469  17.024  1.00  0.00    -0.253 OA
ATOM     33  C   UNL     1      13.798  19.074  19.142  1.00  0.00     0.139 C 
ENDBRANCH  30  31
ENDBRANCH  25  30
ENDBRANCH   2   6
ENDBRANCH   1   2
BRANCH   1  34
ATOM     34  C   UNL     1      23.190  11.425  22.557  1.00  0.00     0.031 C 
BRANCH  34  35
ATOM     35  C   UNL     1      23.263  12.307  23.787  1.00  0.00    -0.075 C 
ATOM     36  C   UNL     1      24.406  12.957  24.066  1.00  0.00     0.008 C 
BRANCH  35  37
ATOM     37  C   UNL     1      22.070  12.370  24.727  1.00  0.00     0.008 C 
ATOM     38  C   UNL     1      21.500  13.791  24.847  1.00  0.00     0.012 C 
ATOM     39  C   UNL     1      22.434  11.801  26.105  1.00  0.00     0.012 C 
ENDBRANCH  35  37
ENDBRANCH  34  35
ENDBRANCH   1  34
TORSDOF 9
ENDMDL
MODEL 3
REMARK VINA RESULT:    -6.691      1.668      2.480
REMARK INTER + INTRA:         -12.299
REMARK INTER:                  -9.857
REMARK INTRA:                  -2.442
REMARK UNBOUND:                -2.284
REMARK SMILES C=C(CC[C@@H](C(=O)[O-])[C@H]1[C@H](O)C[C@]2(C)C3=C(CC[C@]12C)[C@@]1(C)CC[C@H](OC(C)=O)C(C)(C)[C@H]1CC3)C(C)C
REMARK SMILES IDX 4 1 5 2 6 3 7 4 8 5 9 6 10 7 19 8 12 9 13 10 18 11 20 12
REMARK SMILES IDX 14 13 15 14 17 15 16 16 35 17 21 18 34 19 33 20 23 21 22 22
REMARK SMILES IDX 30 23 24 24 25 25 31 26 32 27 11 28 26 30 27 31 29 32 28 33
REMARK SMILES IDX 3 34 2 35 1 36 36 37 37 38 38 39
REMARK H PARENT 11 29
REMARK Flexibility Score: inf
ROOT
ATOM      1  C   UNL     1      21.345  14.238  25.077  1.00  0.00     0.014 C 
ENDROOT
BRANCH   1   2
ATOM      2  C   UNL     1      21.805  13.359  23.881  1.00  0.00     0.042 C 
BRANCH   2   3
ATOM      3  C   UNL     1      21.916  11.936  24.382  1.00  0.00     0.045 C 
ATOM      4  O   UNL     1      23.047  11.464  24.687  1.00  0.00    -0.550 OA
ATOM      5  O   UNL     1      20.780  11.152  24.560  1.00  0.00    -0.550 OA
ENDBRANCH   2   3
BRANCH   2   6
ATOM      6  C   UNL     1      20.848  13.467  22.635  1.00  0.00     0.033 C 
ATOM      7  C   UNL     1      19.461  14.022  23.037  1.00  0.00     0.119 C 
ATOM      8  C   UNL     1      21.337  14.356  21.404  1.00  0.00    -0.017 C 
ATOM      9  C   UNL     1      18.929  14.824  21.865  1.00  0.00     0.043 C 
ATOM     10  C   UNL     1      20.157  15.409  21.150  1.00  0.00    -0.003 C 
ATOM     11  C   UNL     1      21.573  13.428  20.164  1.00  0.00     0.012 C 
ATOM     12  C   UNL     1      22.709  15.067  21.626  1.00  0.00     0.013 C 
ATOM     13  C   UNL     1      20.468  16.783  21.831  1.00  0.00     0.017 C 
ATOM     14  C   UNL     1      19.783  15.593  19.653  1.00  0.00    -0.064 C 
ATOM     15  C   UNL     1      20.315  13.211  19.347  1.00  0.00     0.032 C 
ATOM     16  C   UNL     1      19.863  14.546  18.780  1.00  0.00    -0.064 C 
ATOM     17  C   UNL     1      19.203  16.912  19.197  1.00  0.00     0.032 C 
ATOM     18  C   UNL     1      19.515  14.655  17.264  1.00  0.00    -0.008 C 
ATOM     19  C   UNL     1      18.278  16.760  18.005  1.00  0.00     0.009 C 
ATOM     20  C   UNL     1      19.032  16.110  16.824  1.00  0.00     0.009 C 
ATOM     21  C   UNL     1      18.393  13.610  17.002  1.00  0.00     0.015 C 
ATOM     22  C   UNL     1      20.817  14.287  16.497  1.00  0.00     0.016 C 
ATOM     23  C   UNL     1      18.211  16.198  15.447  1.00  0.00     0.005 C 
ATOM     24  C   UNL     1      17.785  13.681  15.609  1.00  0.00     0.047 C 
ATOM     25  C   UNL     1      17.160  15.052  15.354  1.00  0.00     0.182 C 
ATOM     26  C   UNL     1      19.161  16.166  14.211  1.00  0.00     0.015 C 
ATOM     27  C   UNL     1      17.456  17.554  15.336  1.00  0.00     0.015 C 
BRANCH   7  28
ATOM     28  O   UNL     1      18.554  13.011  23.408  1.00  0.00    -0.393 OA
ATOM     29  H   UNL     1      18.880  12.598  24.255  1.00  0.00     0.210 HD
ENDBRANCH   7  28
BRANCH  25  30
ATOM     30  O   UNL     1      16.535  15.025  14.067  1.00  0.00    -0.462 OA
BRANCH  30  31
ATOM     31  C   UNL     1      15.163  14.846  13.863  1.00  0.00     0.302 C 
ATOM     32  O   UNL     1      14.730  13.897  13.153  1.00  0.00    -0.253 OA
ATOM     33  C   UNL     1      14.197  15.769  14.523  1.00  0.00     0.139 C 
ENDBRANCH  30  31
ENDBRANCH  25  30
ENDBRANCH   2   6
ENDBRANCH   1   2
BRANCH   1  34
ATOM     34  C   UNL     1      21.984  15.648  25.056  1.00  0.00     0.031 C 
BRANCH  34  35
ATOM     35  C   UNL     1      21.078  16.699  25.662  1.00  0.00    -0.075 C 
ATOM     36  C   UNL     1      21.586  17.900  25.990  1.00  0.00     0.008 C 
BRANCH  35  37
ATOM     37  C   UNL     1      19.631  16.346  25.967  1.00  0.00     0.008 C 
ATOM     38  C   UNL     1      18.647  17.081  25.044  1.00  0.00     0.012 C 
ATOM     39  C   UNL     1      19.308  16.610  27.444  1.00  0.00     0.012 C 
ENDBRANCH  35  37
ENDBRANCH  34  35
ENDBRANCH   1  34
TORSDOF 9
ENDMDL
MODEL 4
REMARK VINA RESULT:    -6.641      3.004      4.602
REMARK INTER + INTRA:         -12.225
REMARK INTER:                 -10.292
REMARK INTRA:                  -1.932
REMARK UNBOUND:                -2.284
REMARK SMILES C=C(CC[C@@H](C(=O)[O-])[C@H]1[C@H](O)C[C@]2(C)C3=C(CC[C@]12C)[C@@]1(C)CC[C@H](OC(C)=O)C(C)(C)[C@H]1CC3)C(C)C
REMARK SMILES IDX 4 1 5 2 6 3 7 4 8 5 9 6 10 7 19 8 12 9 13 10 18 11 20 12
REMARK SMILES IDX 14 13 15 14 17 15 16 16 35 17 21 18 34 19 33 20 23 21 22 22
REMARK SMILES IDX 30 23 24 24 25 25 31 26 32 27 11 28 26 30 27 31 29 32 28 33
REMARK SMILES IDX 3 34 2 35 1 36 36 37 37 38 38 39
REMARK H PARENT 11 29
REMARK Flexibility Score: inf
ROOT
ATOM      1  C   UNL     1      20.237  15.641  25.546  1.00  0.00     0.014 C 
ENDROOT
BRANCH   1   2
ATOM      2  C   UNL     1      21.394  14.886  24.834  1.00  0.00     0.042 C 
BRANCH   2   3
ATOM      3  C   UNL     1      21.893  13.822  25.786  1.00  0.00     0.045 C 
ATOM      4  O   UNL     1      21.654  12.605  25.550  1.00  0.00    -0.550 OA
ATOM      5  O   UNL     1      22.659  14.163  26.897  1.00  0.00    -0.550 OA
ENDBRANCH   2   3
BRANCH   2   6
ATOM      6  C   UNL     1      20.968  14.275  23.446  1.00  0.00     0.033 C 
ATOM      7  C   UNL     1      19.428  14.244  23.295  1.00  0.00     0.119 C 
ATOM      8  C   UNL     1      21.525  14.980  22.128  1.00  0.00    -0.017 C 
ATOM      9  C   UNL     1      19.106  14.440  21.826  1.00  0.00     0.043 C 
ATOM     10  C   UNL     1      20.227  15.321  21.253  1.00  0.00    -0.003 C 
ATOM     11  C   UNL     1      22.489  13.992  21.388  1.00  0.00     0.012 C 
ATOM     12  C   UNL     1      22.395  16.249  22.392  1.00  0.00     0.013 C 
ATOM     13  C   UNL     1      19.784  16.808  21.453  1.00  0.00     0.017 C 
ATOM     14  C   UNL     1      20.371  14.975  19.745  1.00  0.00    -0.064 C 
ATOM     15  C   UNL     1      21.760  13.065  20.435  1.00  0.00     0.032 C 
ATOM     16  C   UNL     1      21.110  13.899  19.344  1.00  0.00    -0.064 C 
ATOM     17  C   UNL     1      19.575  15.763  18.730  1.00  0.00     0.032 C 
ATOM     18  C   UNL     1      21.309  13.493  17.851  1.00  0.00    -0.008 C 
ATOM     19  C   UNL     1      19.247  14.953  17.491  1.00  0.00     0.009 C 
ATOM     20  C   UNL     1      20.546  14.446  16.825  1.00  0.00     0.009 C 
ATOM     21  C   UNL     1      20.785  12.033  17.727  1.00  0.00     0.015 C 
ATOM     22  C   UNL     1      22.839  13.566  17.586  1.00  0.00     0.016 C 
ATOM     23  C   UNL     1      20.291  13.847  15.357  1.00  0.00     0.005 C 
ATOM     24  C   UNL     1      20.727  11.509  16.299  1.00  0.00     0.047 C 
ATOM     25  C   UNL     1      19.803  12.370  15.438  1.00  0.00     0.182 C 
ATOM     26  C   UNL     1      21.567  13.952  14.467  1.00  0.00     0.015 C 
ATOM     27  C   UNL     1      19.208  14.671  14.601  1.00  0.00     0.015 C 
BRANCH   7  28
ATOM     28  O   UNL     1      18.855  13.053  23.781  1.00  0.00    -0.393 OA
ATOM     29  H   UNL     1      19.426  12.716  24.525  1.00  0.00     0.210 HD
ENDBRANCH   7  28
BRANCH  25  30
ATOM     30  O   UNL     1      19.727  11.778  14.137  1.00  0.00    -0.462 OA
BRANCH  30  31
ATOM     31  C   UNL     1      19.015  10.609  13.846  1.00  0.00     0.302 C 
ATOM     32  O   UNL     1      19.494   9.732  13.076  1.00  0.00    -0.253 OA
ATOM     33  C   UNL     1      17.688  10.382  14.484  1.00  0.00     0.139 C 
ENDBRANCH  30  31
ENDBRANCH  25  30
ENDBRANCH   2   6
ENDBRANCH   1   2
BRANCH   1  34
ATOM     34  C   UNL     1      20.293  17.169  25.310  1.00  0.00     0.031 C 
BRANCH  34  35
ATOM     35  C   UNL     1      19.126  17.893  25.948  1.00  0.00    -0.075 C 
ATOM     36  C   UNL     1      19.363  18.887  26.822  1.00  0.00     0.008 C 
BRANCH  35  37
ATOM     37  C   UNL     1      17.710  17.425  25.652  1.00  0.00     0.008 C 
ATOM     38  C   UNL     1      17.426  17.350  24.145  1.00  0.00     0.012 C 
ATOM     39  C   UNL     1      16.684  18.315  26.367  1.00  0.00     0.012 C 
ENDBRANCH  35  37
ENDBRANCH  34  35
ENDBRANCH   1  34
TORSDOF 9
ENDMDL
MODEL 5
REMARK VINA RESULT:    -6.582      3.892     10.337
REMARK INTER + INTRA:         -12.137
REMARK INTER:                 -10.203
REMARK INTRA:                  -1.934
REMARK UNBOUND:                -2.284
REMARK SMILES C=C(CC[C@@H](C(=O)[O-])[C@H]1[C@H](O)C[C@]2(C)C3=C(CC[C@]12C)[C@@]1(C)CC[C@H](OC(C)=O)C(C)(C)[C@H]1CC3)C(C)C
REMARK SMILES IDX 4 1 5 2 6 3 7 4 8 5 9 6 10 7 19 8 12 9 13 10 18 11 20 12
REMARK SMILES IDX 14 13 15 14 17 15 16 16 35 17 21 18 34 19 33 20 23 21 22 22
REMARK SMILES IDX 30 23 24 24 25 25 31 26 32 27 11 28 26 30 27 31 29 32 28 33
REMARK SMILES IDX 3 34 2 35 1 36 36 37 37 38 38 39
REMARK H PARENT 11 29
REMARK Flexibility Score: inf
ROOT
ATOM      1  C   UNL     1      20.086  15.224  19.684  1.00  0.00     0.014 C 
ENDROOT
BRANCH   1   2
ATOM      2  C   UNL     1      20.778  14.141  20.558  1.00  0.00     0.042 C 
BRANCH   2   3
ATOM      3  C   UNL     1      21.882  13.526  19.726  1.00  0.00     0.045 C 
ATOM      4  O   UNL     1      21.595  12.708  18.808  1.00  0.00    -0.550 OA
ATOM      5  O   UNL     1      23.211  13.889  19.925  1.00  0.00    -0.550 OA
ENDBRANCH   2   3
BRANCH   2   6
ATOM      6  C   UNL     1      21.321  14.706  21.924  1.00  0.00     0.033 C 
ATOM      7  C   UNL     1      21.395  16.251  21.902  1.00  0.00     0.119 C 
ATOM      8  C   UNL     1      20.523  14.323  23.250  1.00  0.00    -0.017 C 
ATOM      9  C   UNL     1      21.126  16.745  23.311  1.00  0.00     0.043 C 
ATOM     10  C   UNL     1      20.176  15.721  23.951  1.00  0.00    -0.003 C 
ATOM     11  C   UNL     1      21.434  13.423  24.154  1.00  0.00     0.012 C 
ATOM     12  C   UNL     1      19.243  13.463  23.008  1.00  0.00     0.013 C 
ATOM     13  C   UNL     1      18.718  16.178  23.611  1.00  0.00     0.017 C 
ATOM     14  C   UNL     1      20.429  15.742  25.484  1.00  0.00    -0.064 C 
ATOM     15  C   UNL     1      22.328  14.232  25.074  1.00  0.00     0.032 C 
ATOM     16  C   UNL     1      21.454  15.025  26.031  1.00  0.00    -0.064 C 
ATOM     17  C   UNL     1      19.610  16.669  26.353  1.00  0.00     0.032 C 
ATOM     18  C   UNL     1      21.766  14.987  27.559  1.00  0.00    -0.008 C 
ATOM     19  C   UNL     1      20.358  17.115  27.594  1.00  0.00     0.009 C 
ATOM     20  C   UNL     1      20.781  15.888  28.432  1.00  0.00     0.009 C 
ATOM     21  C   UNL     1      23.232  15.482  27.713  1.00  0.00     0.015 C 
ATOM     22  C   UNL     1      21.626  13.500  27.990  1.00  0.00     0.016 C 
ATOM     23  C   UNL     1      21.302  16.293  29.896  1.00  0.00     0.005 C 
ATOM     24  C   UNL     1      23.675  15.689  29.155  1.00  0.00     0.047 C 
ATOM     25  C   UNL     1      22.797  16.728  29.851  1.00  0.00     0.182 C 
ATOM     26  C   UNL     1      21.103  15.131  30.916  1.00  0.00     0.015 C 
ATOM     27  C   UNL     1      20.473  17.477  30.473  1.00  0.00     0.015 C 
BRANCH   7  28
ATOM     28  O   UNL     1      22.631  16.733  21.428  1.00  0.00    -0.393 OA
ATOM     29  H   UNL     1      23.094  17.194  22.182  1.00  0.00     0.210 HD
ENDBRANCH   7  28
BRANCH  25  30
ATOM     30  O   UNL     1      23.315  16.937  31.169  1.00  0.00    -0.462 OA
BRANCH  30  31
ATOM     31  C   UNL     1      24.013  18.082  31.567  1.00  0.00     0.302 C 
ATOM     32  O   UNL     1      24.287  18.287  32.782  1.00  0.00    -0.253 OA
ATOM     33  C   UNL     1      24.474  19.055  30.536  1.00  0.00     0.139 C 
ENDBRANCH  30  31
ENDBRANCH  25  30
ENDBRANCH   2   6
ENDBRANCH   1   2
BRANCH   1  34
ATOM     34  C   UNL     1      18.551  15.248  19.878  1.00  0.00     0.031 C 
BRANCH  34  35
ATOM     35  C   UNL     1      17.878  16.295  19.015  1.00  0.00    -0.075 C 
ATOM     36  C   UNL     1      16.913  15.923  18.155  1.00  0.00     0.008 C 
BRANCH  35  37
ATOM     37  C   UNL     1      18.368  17.733  19.075  1.00  0.00     0.008 C 
ATOM     38  C   UNL     1      18.564  18.220  20.518  1.00  0.00     0.012 C 
ATOM     39  C   UNL     1      17.422  18.661  18.300  1.00  0.00     0.012 C 
ENDBRANCH  35  37
ENDBRANCH  34  35
ENDBRANCH   1  34
TORSDOF 9
ENDMDL
MODEL 6
REMARK VINA RESULT:    -6.582      2.195      9.450
REMARK INTER + INTRA:         -12.136
REMARK INTER:                  -9.869
REMARK INTRA:                  -2.267
REMARK UNBOUND:                -2.284
REMARK SMILES C=C(CC[C@@H](C(=O)[O-])[C@H]1[C@H](O)C[C@]2(C)C3=C(CC[C@]12C)[C@@]1(C)CC[C@H](OC(C)=O)C(C)(C)[C@H]1CC3)C(C)C
REMARK SMILES IDX 4 1 5 2 6 3 7 4 8 5 9 6 10 7 19 8 12 9 13 10 18 11 20 12
REMARK SMILES IDX 14 13 15 14 17 15 16 16 35 17 21 18 34 19 33 20 23 21 22 22
REMARK SMILES IDX 30 23 24 24 25 25 31 26 32 27 11 28 26 30 27 31 29 32 28 33
REMARK SMILES IDX 3 34 2 35 1 36 36 37 37 38 38 39
REMARK H PARENT 11 29
REMARK Flexibility Score: inf
ROOT
ATOM      1  C   UNL     1      17.581  14.608  14.158  1.00  0.00     0.014 C 
ENDROOT
BRANCH   1   2
ATOM      2  C   UNL     1      17.262  13.754  15.417  1.00  0.00     0.042 C 
BRANCH   2   3
ATOM      3  C   UNL     1      17.059  12.327  14.957  1.00  0.00     0.045 C 
ATOM      4  O   UNL     1      16.460  11.505  15.704  1.00  0.00    -0.550 OA
ATOM      5  O   UNL     1      17.482  11.919  13.695  1.00  0.00    -0.550 OA
ENDBRANCH   2   3
BRANCH   2   6
ATOM      6  C   UNL     1      18.372  13.857  16.529  1.00  0.00     0.033 C 
ATOM      7  C   UNL     1      19.464  14.882  16.139  1.00  0.00     0.119 C 
ATOM      8  C   UNL     1      17.907  14.252  18.002  1.00  0.00    -0.017 C 
ATOM      9  C   UNL     1      19.977  15.517  17.417  1.00  0.00     0.043 C 
ATOM     10  C   UNL     1      18.795  15.524  18.398  1.00  0.00    -0.003 C 
ATOM     11  C   UNL     1      18.159  13.038  18.961  1.00  0.00     0.012 C 
ATOM     12  C   UNL     1      16.380  14.546  18.140  1.00  0.00     0.013 C 
ATOM     13  C   UNL     1      18.013  16.858  18.159  1.00  0.00     0.017 C 
ATOM     14  C   UNL     1      19.381  15.466  19.836  1.00  0.00    -0.064 C 
ATOM     15  C   UNL     1      19.561  13.031  19.540  1.00  0.00     0.032 C 
ATOM     16  C   UNL     1      19.743  14.274  20.394  1.00  0.00    -0.064 C 
ATOM     17  C   UNL     1      19.669  16.758  20.566  1.00  0.00     0.032 C 
ATOM     18  C   UNL     1      20.328  14.133  21.833  1.00  0.00    -0.008 C 
ATOM     19  C   UNL     1      20.808  16.624  21.558  1.00  0.00     0.009 C 
ATOM     20  C   UNL     1      20.486  15.524  22.595  1.00  0.00     0.009 C 
ATOM     21  C   UNL     1      21.714  13.444  21.670  1.00  0.00     0.015 C 
ATOM     22  C   UNL     1      19.336  13.224  22.613  1.00  0.00     0.016 C 
ATOM     23  C   UNL     1      21.498  15.539  23.842  1.00  0.00     0.005 C 
ATOM     24  C   UNL     1      22.532  13.375  22.952  1.00  0.00     0.047 C 
ATOM     25  C   UNL     1      22.811  14.774  23.499  1.00  0.00     0.182 C 
ATOM     26  C   UNL     1      20.838  14.941  25.122  1.00  0.00     0.015 C 
ATOM     27  C   UNL     1      21.878  16.997  24.232  1.00  0.00     0.015 C 
BRANCH   7  28
ATOM     28  O   UNL     1      20.519  14.305  15.405  1.00  0.00    -0.393 OA
ATOM     29  H   UNL     1      20.484  13.317  15.537  1.00  0.00     0.210 HD
ENDBRANCH   7  28
BRANCH  25  30
ATOM     30  O   UNL     1      23.650  14.644  24.650  1.00  0.00    -0.462 OA
BRANCH  30  31
ATOM     31  C   UNL     1      24.983  15.068  24.704  1.00  0.00     0.302 C 
ATOM     32  O   UNL     1      25.566  15.239  25.810  1.00  0.00    -0.253 OA
ATOM     33  C   UNL     1      25.735  15.284  23.436  1.00  0.00     0.139 C 
ENDBRANCH  30  31
ENDBRANCH  25  30
ENDBRANCH   2   6
ENDBRANCH   1   2
BRANCH   1  34
ATOM     34  C   UNL     1      16.403  15.524  13.750  1.00  0.00     0.031 C 
BRANCH  34  35
ATOM     35  C   UNL     1      16.188  16.656  14.734  1.00  0.00    -0.075 C 
ATOM     36  C   UNL     1      17.121  17.618  14.848  1.00  0.00     0.008 C 
BRANCH  35  37
ATOM     37  C   UNL     1      14.962  16.636  15.633  1.00  0.00     0.008 C 
ATOM     38  C   UNL     1      13.668  16.393  14.845  1.00  0.00     0.012 C 
ATOM     39  C   UNL     1      14.875  17.926  16.459  1.00  0.00     0.012 C 
ENDBRANCH  35  37
ENDBRANCH  34  35
ENDBRANCH   1  34
TORSDOF 9
ENDMDL
MODEL 7
REMARK VINA RESULT:    -6.579      3.651      9.432
REMARK INTER + INTRA:         -12.131
REMARK INTER:                  -9.843
REMARK INTRA:                  -2.289
REMARK UNBOUND:                -2.284
REMARK SMILES C=C(CC[C@@H](C(=O)[O-])[C@H]1[C@H](O)C[C@]2(C)C3=C(CC[C@]12C)[C@@]1(C)CC[C@H](OC(C)=O)C(C)(C)[C@H]1CC3)C(C)C
REMARK SMILES IDX 4 1 5 2 6 3 7 4 8 5 9 6 10 7 19 8 12 9 13 10 18 11 20 12
REMARK SMILES IDX 14 13 15 14 17 15 16 16 35 17 21 18 34 19 33 20 23 21 22 22
REMARK SMILES IDX 30 23 24 24 25 25 31 26 32 27 11 28 26 30 27 31 29 32 28 33
REMARK SMILES IDX 3 34 2 35 1 36 36 37 37 38 38 39
REMARK H PARENT 11 29
REMARK Flexibility Score: inf
ROOT
ATOM      1  C   UNL     1      19.851  11.904  19.564  1.00  0.00     0.014 C 
ENDROOT
BRANCH   1   2
ATOM      2  C   UNL     1      19.638  13.425  19.809  1.00  0.00     0.042 C 
BRANCH   2   3
ATOM      3  C   UNL     1      18.450  13.855  18.978  1.00  0.00     0.045 C 
ATOM      4  O   UNL     1      17.951  15.002  19.142  1.00  0.00    -0.550 OA
ATOM      5  O   UNL     1      17.927  13.018  17.996  1.00  0.00    -0.550 OA
ENDBRANCH   2   3
BRANCH   2   6
ATOM      6  C   UNL     1      19.449  13.783  21.330  1.00  0.00     0.033 C 
ATOM      7  C   UNL     1      19.127  12.522  22.168  1.00  0.00     0.119 C 
ATOM      8  C   UNL     1      20.660  14.506  22.074  1.00  0.00    -0.017 C 
ATOM      9  C   UNL     1      19.726  12.721  23.547  1.00  0.00     0.043 C 
ATOM     10  C   UNL     1      20.974  13.594  23.353  1.00  0.00    -0.003 C 
ATOM     11  C   UNL     1      20.218  15.954  22.481  1.00  0.00     0.012 C 
ATOM     12  C   UNL     1      21.927  14.720  21.189  1.00  0.00     0.013 C 
ATOM     13  C   UNL     1      22.170  12.623  23.075  1.00  0.00     0.017 C 
ATOM     14  C   UNL     1      21.194  14.396  24.665  1.00  0.00    -0.064 C 
ATOM     15  C   UNL     1      19.526  15.998  23.829  1.00  0.00     0.032 C 
ATOM     16  C   UNL     1      20.509  15.554  24.898  1.00  0.00    -0.064 C 
ATOM     17  C   UNL     1      22.078  13.813  25.745  1.00  0.00     0.032 C 
ATOM     18  C   UNL     1      20.682  16.418  26.185  1.00  0.00    -0.008 C 
ATOM     19  C   UNL     1      21.677  14.269  27.134  1.00  0.00     0.009 C 
ATOM     20  C   UNL     1      21.727  15.810  27.225  1.00  0.00     0.009 C 
ATOM     21  C   UNL     1      19.270  16.518  26.831  1.00  0.00     0.015 C 
ATOM     22  C   UNL     1      21.180  17.810  25.704  1.00  0.00     0.016 C 
ATOM     23  C   UNL     1      21.613  16.341  28.737  1.00  0.00     0.005 C 
ATOM     24  C   UNL     1      19.255  17.177  28.203  1.00  0.00     0.047 C 
ATOM     25  C   UNL     1      20.125  16.402  29.192  1.00  0.00     0.182 C 
ATOM     26  C   UNL     1      22.292  17.735  28.906  1.00  0.00     0.015 C 
ATOM     27  C   UNL     1      22.378  15.403  29.714  1.00  0.00     0.015 C 
BRANCH   7  28
ATOM     28  O   UNL     1      17.745  12.259  22.253  1.00  0.00    -0.393 OA
ATOM     29  H   UNL     1      17.617  11.466  22.843  1.00  0.00     0.210 HD
ENDBRANCH   7  28
BRANCH  25  30
ATOM     30  O   UNL     1      20.001  17.022  30.475  1.00  0.00    -0.462 OA
BRANCH  30  31
ATOM     31  C   UNL     1      19.239  16.505  31.529  1.00  0.00     0.302 C 
ATOM     32  O   UNL     1      19.783  15.868  32.472  1.00  0.00    -0.253 OA
ATOM     33  C   UNL     1      17.769  16.743  31.554  1.00  0.00     0.139 C 
ENDBRANCH  30  31
ENDBRANCH  25  30
ENDBRANCH   2   6
ENDBRANCH   1   2
BRANCH   1  34
ATOM     34  C   UNL     1      21.348  11.517  19.509  1.00  0.00     0.031 C 
BRANCH  34  35
ATOM     35  C   UNL     1      21.648  10.266  20.307  1.00  0.00    -0.075 C 
ATOM     36  C   UNL     1      22.927   9.941  20.571  1.00  0.00     0.008 C 
BRANCH  35  37
ATOM     37  C   UNL     1      20.503   9.355  20.720  1.00  0.00     0.008 C 
ATOM     38  C   UNL     1      20.371   9.244  22.245  1.00  0.00     0.012 C 
ATOM     39  C   UNL     1      20.651   7.971  20.074  1.00  0.00     0.012 C 
ENDBRANCH  35  37
ENDBRANCH  34  35
ENDBRANCH   1  34
TORSDOF 9
ENDMDL
MODEL 8
REMARK VINA RESULT:    -6.503      4.239      9.932
REMARK INTER + INTRA:         -12.018
REMARK INTER:                  -9.897
REMARK INTRA:                  -2.121
REMARK UNBOUND:                -2.284
REMARK SMILES C=C(CC[C@@H](C(=O)[O-])[C@H]1[C@H](O)C[C@]2(C)C3=C(CC[C@]12C)[C@@]1(C)CC[C@H](OC(C)=O)C(C)(C)[C@H]1CC3)C(C)C
REMARK SMILES IDX 4 1 5 2 6 3 7 4 8 5 9 6 10 7 19 8 12 9 13 10 18 11 20 12
REMARK SMILES IDX 14 13 15 14 17 15 16 16 35 17 21 18 34 19 33 20 23 21 22 22
REMARK SMILES IDX 30 23 24 24 25 25 31 26 32 27 11 28 26 30 27 31 29 32 28 33
REMARK SMILES IDX 3 34 2 35 1 36 36 37 37 38 38 39
REMARK H PARENT 11 29
REMARK Flexibility Score: inf
ROOT
ATOM      1  C   UNL     1      20.740  14.252  19.860  1.00  0.00     0.014 C 
ENDROOT
BRANCH   1   2
ATOM      2  C   UNL     1      21.551  13.639  21.036  1.00  0.00     0.042 C 
BRANCH   2   3
ATOM      3  C   UNL     1      22.912  13.259  20.496  1.00  0.00     0.045 C 
ATOM      4  O   UNL     1      23.284  12.053  20.524  1.00  0.00    -0.550 OA
ATOM      5  O   UNL     1      23.743  14.216  19.922  1.00  0.00    -0.550 OA
ENDBRANCH   2   3
BRANCH   2   6
ATOM      6  C   UNL     1      21.661  14.602  22.276  1.00  0.00     0.033 C 
ATOM      7  C   UNL     1      21.375  16.069  21.876  1.00  0.00     0.119 C 
ATOM      8  C   UNL     1      20.725  14.300  23.531  1.00  0.00    -0.017 C 
ATOM      9  C   UNL     1      20.721  16.751  23.062  1.00  0.00     0.043 C 
ATOM     10  C   UNL     1      19.927  15.663  23.800  1.00  0.00    -0.003 C 
ATOM     11  C   UNL     1      21.619  13.892  24.751  1.00  0.00     0.012 C 
ATOM     12  C   UNL     1      19.756  13.091  23.338  1.00  0.00     0.013 C 
ATOM     13  C   UNL     1      18.502  15.622  23.155  1.00  0.00     0.017 C 
ATOM     14  C   UNL     1      19.856  16.070  25.298  1.00  0.00    -0.064 C 
ATOM     15  C   UNL     1      22.097  15.088  25.553  1.00  0.00     0.032 C 
ATOM     16  C   UNL     1      20.888  15.792  26.147  1.00  0.00    -0.064 C 
ATOM     17  C   UNL     1      18.686  16.897  25.780  1.00  0.00     0.032 C 
ATOM     18  C   UNL     1      20.887  16.159  27.663  1.00  0.00    -0.008 C 
ATOM     19  C   UNL     1      19.044  17.779  26.961  1.00  0.00     0.009 C 
ATOM     20  C   UNL     1      19.565  16.917  28.132  1.00  0.00     0.009 C 
ATOM     21  C   UNL     1      22.136  17.058  27.890  1.00  0.00     0.015 C 
ATOM     22  C   UNL     1      21.015  14.814  28.431  1.00  0.00     0.016 C 
ATOM     23  C   UNL     1      19.672  17.744  29.505  1.00  0.00     0.005 C 
ATOM     24  C   UNL     1      22.219  17.674  29.280  1.00  0.00     0.047 C 
ATOM     25  C   UNL     1      21.002  18.553  29.561  1.00  0.00     0.182 C 
ATOM     26  C   UNL     1      19.549  16.810  30.747  1.00  0.00     0.015 C 
ATOM     27  C   UNL     1      18.491  18.749  29.641  1.00  0.00     0.015 C 
BRANCH   7  28
ATOM     28  O   UNL     1      22.534  16.762  21.473  1.00  0.00    -0.393 OA
ATOM     29  H   UNL     1      23.316  16.156  21.598  1.00  0.00     0.210 HD
ENDBRANCH   7  28
BRANCH  25  30
ATOM     30  O   UNL     1      21.181  19.165  30.842  1.00  0.00    -0.462 OA
BRANCH  30  31
ATOM     31  C   UNL     1      21.634  20.475  31.032  1.00  0.00     0.302 C 
ATOM     32  O   UNL     1      22.666  20.713  31.718  1.00  0.00    -0.253 OA
ATOM     33  C   UNL     1      20.909  21.603  30.381  1.00  0.00     0.139 C 
ENDBRANCH  30  31
ENDBRANCH  25  30
ENDBRANCH   2   6
ENDBRANCH   1   2
BRANCH   1  34
ATOM     34  C   UNL     1      19.350  13.592  19.692  1.00  0.00     0.031 C 
BRANCH  34  35
ATOM     35  C   UNL     1      18.298  14.578  19.227  1.00  0.00    -0.075 C 
ATOM     36  C   UNL     1      18.421  15.877  19.550  1.00  0.00     0.008 C 
BRANCH  35  37
ATOM     37  C   UNL     1      17.078  14.064  18.478  1.00  0.00     0.008 C 
ATOM     38  C   UNL     1      17.453  13.065  17.374  1.00  0.00     0.012 C 
ATOM     39  C   UNL     1      16.257  15.232  17.915  1.00  0.00     0.012 C 
ENDBRANCH  35  37
ENDBRANCH  34  35
ENDBRANCH   1  34
TORSDOF 9
ENDMDL
MODEL 9
REMARK VINA RESULT:    -6.501      3.325      9.764
REMARK INTER + INTRA:         -12.015
REMARK INTER:                  -9.951
REMARK INTRA:                  -2.064
REMARK UNBOUND:                -2.284
REMARK SMILES C=C(CC[C@@H](C(=O)[O-])[C@H]1[C@H](O)C[C@]2(C)C3=C(CC[C@]12C)[C@@]1(C)CC[C@H](OC(C)=O)C(C)(C)[C@H]1CC3)C(C)C
REMARK SMILES IDX 4 1 5 2 6 3 7 4 8 5 9 6 10 7 19 8 12 9 13 10 18 11 20 12
REMARK SMILES IDX 14 13 15 14 17 15 16 16 35 17 21 18 34 19 33 20 23 21 22 22
REMARK SMILES IDX 30 23 24 24 25 25 31 26 32 27 11 28 26 30 27 31 29 32 28 33
REMARK SMILES IDX 3 34 2 35 1 36 36 37 37 38 38 39
REMARK H PARENT 11 29
REMARK Flexibility Score: inf
ROOT
ATOM      1  C   UNL     1      19.560  13.047  18.982  1.00  0.00     0.014 C 
ENDROOT
BRANCH   1   2
ATOM      2  C   UNL     1      20.164  12.180  20.122  1.00  0.00     0.042 C 
BRANCH   2   3
ATOM      3  C   UNL     1      20.998  11.097  19.473  1.00  0.00     0.045 C 
ATOM      4  O   UNL     1      21.946  11.413  18.702  1.00  0.00    -0.550 OA
ATOM      5  O   UNL     1      20.765   9.754  19.755  1.00  0.00    -0.550 OA
ENDBRANCH   2   3
BRANCH   2   6
ATOM      6  C   UNL     1      21.000  13.020  21.159  1.00  0.00     0.033 C 
ATOM      7  C   UNL     1      21.394  14.399  20.576  1.00  0.00     0.119 C 
ATOM      8  C   UNL     1      20.333  13.317  22.577  1.00  0.00    -0.017 C 
ATOM      9  C   UNL     1      21.434  15.389  21.725  1.00  0.00     0.043 C 
ATOM     10  C   UNL     1      20.390  14.909  22.744  1.00  0.00    -0.003 C 
ATOM     11  C   UNL     1      21.152  12.580  23.691  1.00  0.00     0.012 C 
ATOM     12  C   UNL     1      18.880  12.770  22.735  1.00  0.00     0.013 C 
ATOM     13  C   UNL     1      19.028  15.569  22.345  1.00  0.00     0.017 C 
ATOM     14  C   UNL     1      20.854  15.383  24.149  1.00  0.00    -0.064 C 
ATOM     15  C   UNL     1      22.316  13.405  24.205  1.00  0.00     0.032 C 
ATOM     16  C   UNL     1      21.772  14.663  24.859  1.00  0.00    -0.064 C 
ATOM     17  C   UNL     1      20.380  16.720  24.669  1.00  0.00     0.032 C 
ATOM     18  C   UNL     1      22.280  15.068  26.277  1.00  0.00    -0.008 C 
ATOM     19  C   UNL     1      21.371  17.360  25.621  1.00  0.00     0.009 C 
ATOM     20  C   UNL     1      21.640  16.424  26.820  1.00  0.00     0.009 C 
ATOM     21  C   UNL     1      23.825  15.208  26.159  1.00  0.00     0.015 C 
ATOM     22  C   UNL     1      21.893  13.896  27.223  1.00  0.00     0.016 C 
ATOM     23  C   UNL     1      22.435  17.158  28.007  1.00  0.00     0.005 C 
ATOM     24  C   UNL     1      24.499  15.773  27.401  1.00  0.00     0.047 C 
ATOM     25  C   UNL     1      23.967  17.169  27.724  1.00  0.00     0.182 C 
ATOM     26  C   UNL     1      22.141  16.495  29.388  1.00  0.00     0.015 C 
ATOM     27  C   UNL     1      21.963  18.632  28.163  1.00  0.00     0.015 C 
BRANCH   7  28
ATOM     28  O   UNL     1      22.624  14.372  19.891  1.00  0.00    -0.393 OA
ATOM     29  H   UNL     1      23.282  13.881  20.457  1.00  0.00     0.210 HD
ENDBRANCH   7  28
BRANCH  25  30
ATOM     30  O   UNL     1      24.697  17.676  28.845  1.00  0.00    -0.462 OA
BRANCH  30  31
ATOM     31  C   UNL     1      25.802  17.038  29.418  1.00  0.00     0.302 C 
ATOM     32  O   UNL     1      26.949  17.135  28.900  1.00  0.00    -0.253 OA
ATOM     33  C   UNL     1      25.630  16.263  30.679  1.00  0.00     0.139 C 
ENDBRANCH  30  31
ENDBRANCH  25  30
ENDBRANCH   2   6
ENDBRANCH   1   2
BRANCH   1  34
ATOM     34  C   UNL     1      18.094  13.457  19.264  1.00  0.00     0.031 C 
BRANCH  34  35
ATOM     35  C   UNL     1      17.712  14.743  18.560  1.00  0.00    -0.075 C 
ATOM     36  C   UNL     1      16.447  14.913  18.136  1.00  0.00     0.008 C 
BRANCH  35  37
ATOM     37  C   UNL     1      18.786  15.780  18.271  1.00  0.00     0.008 C 
ATOM     38  C   UNL     1      18.566  17.079  19.059  1.00  0.00     0.012 C 
ATOM     39  C   UNL     1      18.883  16.055  16.765  1.00  0.00     0.012 C 
ENDBRANCH  35  37
ENDBRANCH  34  35
ENDBRANCH   1  34
TORSDOF 9
ENDMDL
