MODEL 1
REMARK VINA RESULT:    -5.407      0.000      0.000
REMARK INTER + INTRA:          -8.871
REMARK INTER:                  -7.462
REMARK INTRA:                  -1.409
REMARK UNBOUND:                -1.409
REMARK SMILES O=C([O-])[C@@H]1O[C@H](Oc2cc3oc(-c4ccccc4)cc(=O)c3c(O)c2O)[C@@H](O)[C@H](O)[C@H]1O
REMARK SMILES IDX 7 1 6 2 4 3 31 4 5 5 29 6 27 7 2 8 1 9 3 10 32 11 30 13
REMARK SMILES IDX 28 15 8 17 25 18 9 19 23 20 10 21 22 22 11 23 20 24 12 25
REMARK SMILES IDX 19 26 21 27 26 28 24 30 13 32 14 33 18 34 15 35 17 36 16 37
REMARK H PARENT 32 12 30 14 28 16 26 29 24 31
REMARK Flexibility Score: inf
ROOT
ATOM      1  O   UNL     1      27.518  16.999  14.056  1.00  0.00    -0.458 OA
ENDROOT
BRANCH   1   2
ATOM      2  C   UNL     1      26.192  16.714  13.595  1.00  0.00     0.339 C 
ATOM      3  C   UNL     1      25.851  18.088  11.648  1.00  0.00     0.199 C 
ATOM      4  C   UNL     1      27.108  17.367  11.092  1.00  0.00     0.180 C 
ATOM      5  O   UNL     1      25.638  17.904  13.045  1.00  0.00    -0.328 OA
ATOM      6  C   UNL     1      27.030  15.842  11.350  1.00  0.00     0.181 C 
ATOM      7  C   UNL     1      26.183  15.522  12.601  1.00  0.00     0.214 C 
BRANCH   3   8
ATOM      8  C   UNL     1      25.940  19.560  11.373  1.00  0.00     0.073 C 
ATOM      9  O   UNL     1      26.154  20.370  12.314  1.00  0.00    -0.547 OA
ATOM     10  O   UNL     1      25.823  20.034  10.073  1.00  0.00    -0.547 OA
ENDBRANCH   3   8
BRANCH   4  11
ATOM     11  O   UNL     1      27.284  17.625   9.720  1.00  0.00    -0.387 OA
ATOM     12  H   UNL     1      26.884  18.512   9.526  1.00  0.00     0.211 HD
ENDBRANCH   4  11
BRANCH   6  13
ATOM     13  O   UNL     1      28.327  15.325  11.518  1.00  0.00    -0.387 OA
ATOM     14  H   UNL     1      28.261  14.342  11.398  1.00  0.00     0.211 HD
ENDBRANCH   6  13
BRANCH   7  15
ATOM     15  O   UNL     1      24.861  15.245  12.214  1.00  0.00    -0.384 OA
ATOM     16  H   UNL     1      24.493  14.607  12.880  1.00  0.00     0.211 HD
ENDBRANCH   7  15
ENDBRANCH   1   2
BRANCH   1  17
ATOM     17  C   UNL     1      27.891  17.598  15.275  1.00  0.00     0.172 A 
ATOM     18  C   UNL     1      28.285  18.947  15.408  1.00  0.00     0.201 A 
ATOM     19  C   UNL     1      27.884  16.776  16.400  1.00  0.00     0.098 A 
ATOM     20  C   UNL     1      28.623  19.469  16.675  1.00  0.00     0.176 A 
ATOM     21  C   UNL     1      28.176  17.281  17.665  1.00  0.00     0.146 A 
ATOM     22  C   UNL     1      28.517  18.645  17.833  1.00  0.00     0.111 A 
ATOM     23  O   UNL     1      28.117  16.458  18.707  1.00  0.00    -0.456 OA
ATOM     24  C   UNL     1      28.694  19.099  19.162  1.00  0.00     0.197 A 
ATOM     25  C   UNL     1      28.344  16.845  19.958  1.00  0.00     0.138 A 
ATOM     26  C   UNL     1      28.626  18.192  20.220  1.00  0.00     0.100 A 
ATOM     27  O   UNL     1      28.875  20.315  19.431  1.00  0.00    -0.289 OA
BRANCH  18  28
ATOM     28  O   UNL     1      28.382  19.763  14.279  1.00  0.00    -0.502 OA
ATOM     29  H   UNL     1      29.077  19.623  13.557  1.00  0.00     0.293 HD
ENDBRANCH  18  28
BRANCH  20  30
ATOM     30  O   UNL     1      29.090  20.786  16.723  1.00  0.00    -0.504 OA
ATOM     31  H   UNL     1      29.801  21.118  17.357  1.00  0.00     0.293 HD
ENDBRANCH  20  30
BRANCH  25  32
ATOM     32  C   UNL     1      28.261  15.836  21.045  1.00  0.00     0.017 A 
ATOM     33  C   UNL     1      29.085  14.692  21.058  1.00  0.00     0.012 A 
ATOM     34  C   UNL     1      27.316  16.001  22.075  1.00  0.00     0.012 A 
ATOM     35  C   UNL     1      28.977  13.753  22.089  1.00  0.00     0.001 A 
ATOM     36  C   UNL     1      27.214  15.060  23.103  1.00  0.00     0.001 A 
ATOM     37  C   UNL     1      28.045  13.938  23.112  1.00  0.00     0.000 A 
ENDBRANCH  25  32
ENDBRANCH   1  17
TORSDOF 9
ENDMDL
MODEL 2
REMARK VINA RESULT:    -5.219      1.364      1.991
REMARK INTER + INTRA:          -8.611
REMARK INTER:                  -6.977
REMARK INTRA:                  -1.634
REMARK UNBOUND:                -1.409
REMARK SMILES O=C([O-])[C@@H]1O[C@H](Oc2cc3oc(-c4ccccc4)cc(=O)c3c(O)c2O)[C@@H](O)[C@H](O)[C@H]1O
REMARK SMILES IDX 7 1 6 2 4 3 31 4 5 5 29 6 27 7 2 8 1 9 3 10 32 11 30 13
REMARK SMILES IDX 28 15 8 17 25 18 9 19 23 20 10 21 22 22 11 23 20 24 12 25
REMARK SMILES IDX 19 26 21 27 26 28 24 30 13 32 14 33 18 34 15 35 17 36 16 37
REMARK H PARENT 32 12 30 14 28 16 26 29 24 31
REMARK Flexibility Score: inf
ROOT
ATOM      1  O   UNL     1      27.980  17.968  13.220  1.00  0.00    -0.458 OA
ENDROOT
BRANCH   1   2
ATOM      2  C   UNL     1      26.806  17.429  12.603  1.00  0.00     0.339 C 
ATOM      3  C   UNL     1      25.268  19.267  12.372  1.00  0.00     0.199 C 
ATOM      4  C   UNL     1      26.410  19.938  11.564  1.00  0.00     0.180 C 
ATOM      5  O   UNL     1      25.669  18.118  13.114  1.00  0.00    -0.328 OA
ATOM      6  C   UNL     1      27.038  18.938  10.561  1.00  0.00     0.181 C 
ATOM      7  C   UNL     1      26.904  17.481  11.055  1.00  0.00     0.214 C 
BRANCH   3   8
ATOM      8  C   UNL     1      24.664  20.256  13.325  1.00  0.00     0.073 C 
ATOM      9  O   UNL     1      25.397  21.078  13.937  1.00  0.00    -0.547 OA
ATOM     10  O   UNL     1      23.288  20.295  13.508  1.00  0.00    -0.547 OA
ENDBRANCH   3   8
BRANCH   4  11
ATOM     11  O   UNL     1      25.957  21.089  10.892  1.00  0.00    -0.387 OA
ATOM     12  H   UNL     1      24.966  21.054  10.868  1.00  0.00     0.211 HD
ENDBRANCH   4  11
BRANCH   6  13
ATOM     13  O   UNL     1      28.397  19.247  10.376  1.00  0.00    -0.387 OA
ATOM     14  H   UNL     1      28.433  20.030   9.767  1.00  0.00     0.211 HD
ENDBRANCH   6  13
BRANCH   7  15
ATOM     15  O   UNL     1      25.756  16.898  10.493  1.00  0.00    -0.384 OA
ATOM     16  H   UNL     1      25.020  17.019  11.148  1.00  0.00     0.211 HD
ENDBRANCH   7  15
ENDBRANCH   1   2
BRANCH   1  17
ATOM     17  C   UNL     1      28.167  18.281  14.580  1.00  0.00     0.172 A 
ATOM     18  C   UNL     1      28.344  19.592  15.076  1.00  0.00     0.201 A 
ATOM     19  C   UNL     1      28.200  17.207  15.467  1.00  0.00     0.098 A 
ATOM     20  C   UNL     1      28.504  19.814  16.460  1.00  0.00     0.176 A 
ATOM     21  C   UNL     1      28.318  17.408  16.841  1.00  0.00     0.146 A 
ATOM     22  C   UNL     1      28.436  18.717  17.368  1.00  0.00     0.111 A 
ATOM     23  O   UNL     1      28.305  16.348  17.642  1.00  0.00    -0.456 OA
ATOM     24  C   UNL     1      28.444  18.839  18.778  1.00  0.00     0.197 A 
ATOM     25  C   UNL     1      28.378  16.431  18.966  1.00  0.00     0.138 A 
ATOM     26  C   UNL     1      28.434  17.692  19.573  1.00  0.00     0.100 A 
ATOM     27  O   UNL     1      28.420  19.959  19.350  1.00  0.00    -0.289 OA
BRANCH  18  28
ATOM     28  O   UNL     1      28.400  20.672  14.194  1.00  0.00    -0.502 OA
ATOM     29  H   UNL     1      27.967  20.658  13.279  1.00  0.00     0.293 HD
ENDBRANCH  18  28
BRANCH  20  30
ATOM     30  O   UNL     1      28.763  21.125  16.874  1.00  0.00    -0.504 OA
ATOM     31  H   UNL     1      28.581  21.946  16.318  1.00  0.00     0.293 HD
ENDBRANCH  20  30
BRANCH  25  32
ATOM     32  C   UNL     1      28.367  15.177  19.763  1.00  0.00     0.017 A 
ATOM     33  C   UNL     1      28.657  13.927  19.181  1.00  0.00     0.012 A 
ATOM     34  C   UNL     1      28.027  15.227  21.128  1.00  0.00     0.012 A 
ATOM     35  C   UNL     1      28.628  12.762  19.954  1.00  0.00     0.001 A 
ATOM     36  C   UNL     1      28.001  14.059  21.896  1.00  0.00     0.001 A 
ATOM     37  C   UNL     1      28.304  12.828  21.310  1.00  0.00     0.000 A 
ENDBRANCH  25  32
ENDBRANCH   1  17
TORSDOF 9
ENDMDL
MODEL 3
REMARK VINA RESULT:    -4.708      1.405      2.887
REMARK INTER + INTRA:          -7.906
REMARK INTER:                  -6.730
REMARK INTRA:                  -1.176
REMARK UNBOUND:                -1.409
REMARK SMILES O=C([O-])[C@@H]1O[C@H](Oc2cc3oc(-c4ccccc4)cc(=O)c3c(O)c2O)[C@@H](O)[C@H](O)[C@H]1O
REMARK SMILES IDX 7 1 6 2 4 3 31 4 5 5 29 6 27 7 2 8 1 9 3 10 32 11 30 13
REMARK SMILES IDX 28 15 8 17 25 18 9 19 23 20 10 21 22 22 11 23 20 24 12 25
REMARK SMILES IDX 19 26 21 27 26 28 24 30 13 32 14 33 18 34 15 35 17 36 16 37
REMARK H PARENT 32 12 30 14 28 16 26 29 24 31
REMARK Flexibility Score: inf
ROOT
ATOM      1  O   UNL     1      27.512  18.624  14.049  1.00  0.00    -0.458 OA
ENDROOT
BRANCH   1   2
ATOM      2  C   UNL     1      28.328  18.373  12.900  1.00  0.00     0.339 C 
ATOM      3  C   UNL     1      26.923  17.221  11.320  1.00  0.00     0.199 C 
ATOM      4  C   UNL     1      26.005  18.465  11.443  1.00  0.00     0.180 C 
ATOM      5  O   UNL     1      27.931  17.133  12.325  1.00  0.00    -0.328 OA
ATOM      6  C   UNL     1      26.833  19.772  11.381  1.00  0.00     0.181 C 
ATOM      7  C   UNL     1      28.273  19.555  11.896  1.00  0.00     0.214 C 
BRANCH   3   8
ATOM      8  C   UNL     1      26.099  15.969  11.367  1.00  0.00     0.073 C 
ATOM      9  O   UNL     1      25.576  15.511  10.316  1.00  0.00    -0.547 OA
ATOM     10  O   UNL     1      25.938  15.286  12.566  1.00  0.00    -0.547 OA
ENDBRANCH   3   8
BRANCH   4  11
ATOM     11  O   UNL     1      25.007  18.469  10.451  1.00  0.00    -0.387 OA
ATOM     12  H   UNL     1      24.889  19.405  10.145  1.00  0.00     0.211 HD
ENDBRANCH   4  11
BRANCH   6  13
ATOM     13  O   UNL     1      26.206  20.767  12.152  1.00  0.00    -0.387 OA
ATOM     14  H   UNL     1      26.815  20.970  12.909  1.00  0.00     0.211 HD
ENDBRANCH   6  13
BRANCH   7  15
ATOM     15  O   UNL     1      29.125  19.289  10.811  1.00  0.00    -0.384 OA
ATOM     16  H   UNL     1      29.335  18.319  10.840  1.00  0.00     0.211 HD
ENDBRANCH   7  15
ENDBRANCH   1   2
BRANCH   1  17
ATOM     17  C   UNL     1      27.926  18.709  15.393  1.00  0.00     0.172 A 
ATOM     18  C   UNL     1      28.271  19.915  16.042  1.00  0.00     0.201 A 
ATOM     19  C   UNL     1      28.016  17.508  16.094  1.00  0.00     0.098 A 
ATOM     20  C   UNL     1      28.657  19.907  17.400  1.00  0.00     0.176 A 
ATOM     21  C   UNL     1      28.356  17.484  17.444  1.00  0.00     0.146 A 
ATOM     22  C   UNL     1      28.649  18.686  18.133  1.00  0.00     0.111 A 
ATOM     23  O   UNL     1      28.389  16.312  18.071  1.00  0.00    -0.456 OA
ATOM     24  C   UNL     1      28.880  18.583  19.526  1.00  0.00     0.197 A 
ATOM     25  C   UNL     1      28.668  16.181  19.363  1.00  0.00     0.138 A 
ATOM     26  C   UNL     1      28.908  17.327  20.133  1.00  0.00     0.100 A 
ATOM     27  O   UNL     1      29.025  19.599  20.254  1.00  0.00    -0.289 OA
BRANCH  18  28
ATOM     28  O   UNL     1      28.271  21.117  15.332  1.00  0.00    -0.502 OA
ATOM     29  H   UNL     1      27.829  21.222  14.428  1.00  0.00     0.293 HD
ENDBRANCH  18  28
BRANCH  20  30
ATOM     30  O   UNL     1      29.071  21.122  17.956  1.00  0.00    -0.504 OA
ATOM     31  H   UNL     1      29.174  21.293  18.945  1.00  0.00     0.293 HD
ENDBRANCH  20  30
BRANCH  25  32
ATOM     32  C   UNL     1      28.687  14.820  19.956  1.00  0.00     0.017 A 
ATOM     33  C   UNL     1      28.569  14.615  21.346  1.00  0.00     0.012 A 
ATOM     34  C   UNL     1      28.861  13.701  19.119  1.00  0.00     0.012 A 
ATOM     35  C   UNL     1      28.601  13.321  21.876  1.00  0.00     0.001 A 
ATOM     36  C   UNL     1      28.891  12.411  19.656  1.00  0.00     0.001 A 
ATOM     37  C   UNL     1      28.760  12.220  21.032  1.00  0.00     0.000 A 
ENDBRANCH  25  32
ENDBRANCH   1  17
TORSDOF 9
ENDMDL
MODEL 4
REMARK VINA RESULT:    -4.592      1.996      8.518
REMARK INTER + INTRA:          -7.746
REMARK INTER:                  -6.376
REMARK INTRA:                  -1.370
REMARK UNBOUND:                -1.409
REMARK SMILES O=C([O-])[C@@H]1O[C@H](Oc2cc3oc(-c4ccccc4)cc(=O)c3c(O)c2O)[C@@H](O)[C@H](O)[C@H]1O
REMARK SMILES IDX 7 1 6 2 4 3 31 4 5 5 29 6 27 7 2 8 1 9 3 10 32 11 30 13
REMARK SMILES IDX 28 15 8 17 25 18 9 19 23 20 10 21 22 22 11 23 20 24 12 25
REMARK SMILES IDX 19 26 21 27 26 28 24 30 13 32 14 33 18 34 15 35 17 36 16 37
REMARK H PARENT 32 12 30 14 28 16 26 29 24 31
REMARK Flexibility Score: inf
ROOT
ATOM      1  O   UNL     1      28.145  18.080  18.387  1.00  0.00    -0.458 OA
ENDROOT
BRANCH   1   2
ATOM      2  C   UNL     1      26.988  17.896  19.212  1.00  0.00     0.339 C 
ATOM      3  C   UNL     1      27.812  17.322  21.401  1.00  0.00     0.199 C 
ATOM      4  C   UNL     1      28.576  18.669  21.312  1.00  0.00     0.180 C 
ATOM      5  O   UNL     1      27.267  16.873  20.162  1.00  0.00    -0.328 OA
ATOM      6  C   UNL     1      27.654  19.794  20.779  1.00  0.00     0.181 C 
ATOM      7  C   UNL     1      26.542  19.230  19.867  1.00  0.00     0.214 C 
BRANCH   3   8
ATOM      8  C   UNL     1      28.718  16.252  21.934  1.00  0.00     0.073 C 
ATOM      9  O   UNL     1      29.125  16.299  23.125  1.00  0.00    -0.547 OA
ATOM     10  O   UNL     1      29.084  15.183  21.125  1.00  0.00    -0.547 OA
ENDBRANCH   3   8
BRANCH   4  11
ATOM     11  O   UNL     1      29.124  19.033  22.556  1.00  0.00    -0.387 OA
ATOM     12  H   UNL     1      28.575  19.773  22.923  1.00  0.00     0.211 HD
ENDBRANCH   4  11
BRANCH   6  13
ATOM     13  O   UNL     1      28.419  20.730  20.060  1.00  0.00    -0.387 OA
ATOM     14  H   UNL     1      28.309  21.603  20.520  1.00  0.00     0.211 HD
ENDBRANCH   6  13
BRANCH   7  15
ATOM     15  O   UNL     1      25.379  19.014  20.625  1.00  0.00    -0.384 OA
ATOM     16  H   UNL     1      24.671  19.593  20.238  1.00  0.00     0.211 HD
ENDBRANCH   7  15
ENDBRANCH   1   2
BRANCH   1  17
ATOM     17  C   UNL     1      28.177  18.379  17.012  1.00  0.00     0.172 A 
ATOM     18  C   UNL     1      28.594  19.619  16.479  1.00  0.00     0.201 A 
ATOM     19  C   UNL     1      27.741  17.377  16.146  1.00  0.00     0.098 A 
ATOM     20  C   UNL     1      28.614  19.823  15.083  1.00  0.00     0.176 A 
ATOM     21  C   UNL     1      27.790  17.546  14.764  1.00  0.00     0.146 A 
ATOM     22  C   UNL     1      28.260  18.758  14.204  1.00  0.00     0.111 A 
ATOM     23  O   UNL     1      27.397  16.542  13.987  1.00  0.00    -0.456 OA
ATOM     24  C   UNL     1      28.378  18.807  12.795  1.00  0.00     0.197 A 
ATOM     25  C   UNL     1      27.435  16.586  12.660  1.00  0.00     0.138 A 
ATOM     26  C   UNL     1      27.945  17.726  12.025  1.00  0.00     0.100 A 
ATOM     27  O   UNL     1      28.900  19.787  12.203  1.00  0.00    -0.289 OA
BRANCH  18  28
ATOM     28  O   UNL     1      28.951  20.663  17.333  1.00  0.00    -0.502 OA
ATOM     29  H   UNL     1      28.995  21.629  17.034  1.00  0.00     0.293 HD
ENDBRANCH  18  28
BRANCH  20  30
ATOM     30  O   UNL     1      28.951  21.101  14.626  1.00  0.00    -0.504 OA
ATOM     31  H   UNL     1      29.864  21.365  14.288  1.00  0.00     0.293 HD
ENDBRANCH  20  30
BRANCH  25  32
ATOM     32  C   UNL     1      26.958  15.408  11.891  1.00  0.00     0.017 A 
ATOM     33  C   UNL     1      25.588  15.094  11.790  1.00  0.00     0.012 A 
ATOM     34  C   UNL     1      27.896  14.559  11.272  1.00  0.00     0.012 A 
ATOM     35  C   UNL     1      25.170  13.971  11.068  1.00  0.00     0.001 A 
ATOM     36  C   UNL     1      27.471  13.439  10.551  1.00  0.00     0.001 A 
ATOM     37  C   UNL     1      26.110  13.146  10.447  1.00  0.00     0.000 A 
ENDBRANCH  25  32
ENDBRANCH   1  17
TORSDOF 9
ENDMDL
MODEL 5
REMARK VINA RESULT:    -2.926      1.561      3.303
REMARK INTER + INTRA:          -5.446
REMARK INTER:                  -4.510
REMARK INTRA:                  -0.937
REMARK UNBOUND:                -1.409
REMARK SMILES O=C([O-])[C@@H]1O[C@H](Oc2cc3oc(-c4ccccc4)cc(=O)c3c(O)c2O)[C@@H](O)[C@H](O)[C@H]1O
REMARK SMILES IDX 7 1 6 2 4 3 31 4 5 5 29 6 27 7 2 8 1 9 3 10 32 11 30 13
REMARK SMILES IDX 28 15 8 17 25 18 9 19 23 20 10 21 22 22 11 23 20 24 12 25
REMARK SMILES IDX 19 26 21 27 26 28 24 30 13 32 14 33 18 34 15 35 17 36 16 37
REMARK H PARENT 32 12 30 14 28 16 26 29 24 31
REMARK Flexibility Score: inf
ROOT
ATOM      1  O   UNL     1      27.995  16.442  12.765  1.00  0.00    -0.458 OA
ENDROOT
BRANCH   1   2
ATOM      2  C   UNL     1      27.394  16.689  11.488  1.00  0.00     0.339 C 
ATOM      3  C   UNL     1      26.802  14.533  10.597  1.00  0.00     0.199 C 
ATOM      4  C   UNL     1      25.974  14.378  11.901  1.00  0.00     0.180 C 
ATOM      5  O   UNL     1      27.728  15.616  10.614  1.00  0.00    -0.328 OA
ATOM      6  C   UNL     1      25.170  15.668  12.201  1.00  0.00     0.181 C 
ATOM      7  C   UNL     1      25.865  16.917  11.617  1.00  0.00     0.214 C 
BRANCH   3   8
ATOM      8  C   UNL     1      27.559  13.269  10.318  1.00  0.00     0.073 C 
ATOM      9  O   UNL     1      28.815  13.246  10.410  1.00  0.00    -0.547 OA
ATOM     10  O   UNL     1      26.875  12.105   9.992  1.00  0.00    -0.547 OA
ENDBRANCH   3   8
BRANCH   4  11
ATOM     11  O   UNL     1      25.113  13.267  11.835  1.00  0.00    -0.387 OA
ATOM     12  H   UNL     1      24.554  13.269  12.655  1.00  0.00     0.211 HD
ENDBRANCH   4  11
BRANCH   6  13
ATOM     13  O   UNL     1      25.024  15.820  13.591  1.00  0.00    -0.387 OA
ATOM     14  H   UNL     1      25.790  16.370  13.901  1.00  0.00     0.211 HD
ENDBRANCH   6  13
BRANCH   7  15
ATOM     15  O   UNL     1      25.326  17.206  10.352  1.00  0.00    -0.384 OA
ATOM     16  H   UNL     1      25.802  16.631   9.697  1.00  0.00     0.211 HD
ENDBRANCH   7  15
ENDBRANCH   1   2
BRANCH   1  17
ATOM     17  C   UNL     1      28.184  17.360  13.816  1.00  0.00     0.172 A 
ATOM     18  C   UNL     1      28.538  18.714  13.632  1.00  0.00     0.201 A 
ATOM     19  C   UNL     1      28.029  16.865  15.110  1.00  0.00     0.098 A 
ATOM     20  C   UNL     1      28.686  19.568  14.746  1.00  0.00     0.176 A 
ATOM     21  C   UNL     1      28.132  17.700  16.219  1.00  0.00     0.146 A 
ATOM     22  C   UNL     1      28.427  19.076  16.058  1.00  0.00     0.111 A 
ATOM     23  O   UNL     1      27.936  17.181  17.427  1.00  0.00    -0.456 OA
ATOM     24  C   UNL     1      28.409  19.874  17.227  1.00  0.00     0.197 A 
ATOM     25  C   UNL     1      27.979  17.896  18.546  1.00  0.00     0.138 A 
ATOM     26  C   UNL     1      28.203  19.277  18.471  1.00  0.00     0.100 A 
ATOM     27  O   UNL     1      28.534  21.125  17.181  1.00  0.00    -0.289 OA
BRANCH  18  28
ATOM     28  O   UNL     1      28.782  19.206  12.349  1.00  0.00    -0.502 OA
ATOM     29  H   UNL     1      28.203  18.975  11.552  1.00  0.00     0.293 HD
ENDBRANCH  18  28
BRANCH  20  30
ATOM     30  O   UNL     1      29.124  20.874  14.500  1.00  0.00    -0.504 OA
ATOM     31  H   UNL     1      30.056  21.210  14.692  1.00  0.00     0.293 HD
ENDBRANCH  20  30
BRANCH  25  32
ATOM     32  C   UNL     1      27.756  17.207  19.843  1.00  0.00     0.017 A 
ATOM     33  C   UNL     1      28.158  15.872  20.051  1.00  0.00     0.012 A 
ATOM     34  C   UNL     1      27.099  17.887  20.886  1.00  0.00     0.012 A 
ATOM     35  C   UNL     1      27.925  15.246  21.281  1.00  0.00     0.001 A 
ATOM     36  C   UNL     1      26.870  17.256  22.112  1.00  0.00     0.001 A 
ATOM     37  C   UNL     1      27.285  15.938  22.310  1.00  0.00     0.000 A 
ENDBRANCH  25  32
ENDBRANCH   1  17
TORSDOF 9
ENDMDL
MODEL 6
REMARK VINA RESULT:    -2.793      2.414      8.643
REMARK INTER + INTRA:          -5.264
REMARK INTER:                  -3.980
REMARK INTRA:                  -1.283
REMARK UNBOUND:                -1.409
REMARK SMILES O=C([O-])[C@@H]1O[C@H](Oc2cc3oc(-c4ccccc4)cc(=O)c3c(O)c2O)[C@@H](O)[C@H](O)[C@H]1O
REMARK SMILES IDX 7 1 6 2 4 3 31 4 5 5 29 6 27 7 2 8 1 9 3 10 32 11 30 13
REMARK SMILES IDX 28 15 8 17 25 18 9 19 23 20 10 21 22 22 11 23 20 24 12 25
REMARK SMILES IDX 19 26 21 27 26 28 24 30 13 32 14 33 18 34 15 35 17 36 16 37
REMARK H PARENT 32 12 30 14 28 16 26 29 24 31
REMARK Flexibility Score: inf
ROOT
ATOM      1  O   UNL     1      27.597  14.965  18.619  1.00  0.00    -0.458 OA
ENDROOT
BRANCH   1   2
ATOM      2  C   UNL     1      28.588  14.085  19.160  1.00  0.00     0.339 C 
ATOM      3  C   UNL     1      28.179  13.992  21.531  1.00  0.00     0.199 C 
ATOM      4  C   UNL     1      26.760  13.513  21.125  1.00  0.00     0.180 C 
ATOM      5  O   UNL     1      28.941  14.545  20.460  1.00  0.00    -0.328 OA
ATOM      6  C   UNL     1      26.838  12.439  20.011  1.00  0.00     0.181 C 
ATOM      7  C   UNL     1      28.105  12.610  19.146  1.00  0.00     0.214 C 
BRANCH   3   8
ATOM      8  C   UNL     1      28.081  15.020  22.619  1.00  0.00     0.073 C 
ATOM      9  O   UNL     1      29.124  15.517  23.120  1.00  0.00    -0.547 OA
ATOM     10  O   UNL     1      26.836  15.456  23.055  1.00  0.00    -0.547 OA
ENDBRANCH   3   8
BRANCH   4  11
ATOM     11  O   UNL     1      26.047  13.021  22.233  1.00  0.00    -0.387 OA
ATOM     12  H   UNL     1      25.080  13.057  22.010  1.00  0.00     0.211 HD
ENDBRANCH   4  11
BRANCH   6  13
ATOM     13  O   UNL     1      25.697  12.524  19.193  1.00  0.00    -0.387 OA
ATOM     14  H   UNL     1      24.910  12.519  19.798  1.00  0.00     0.211 HD
ENDBRANCH   6  13
BRANCH   7  15
ATOM     15  O   UNL     1      29.125  11.778  19.637  1.00  0.00    -0.384 OA
ATOM     16  H   UNL     1      28.693  11.119  20.242  1.00  0.00     0.211 HD
ENDBRANCH   7  15
ENDBRANCH   1   2
BRANCH   1  17
ATOM     17  C   UNL     1      27.805  16.210  17.994  1.00  0.00     0.172 A 
ATOM     18  C   UNL     1      28.248  17.370  18.665  1.00  0.00     0.201 A 
ATOM     19  C   UNL     1      27.524  16.276  16.630  1.00  0.00     0.098 A 
ATOM     20  C   UNL     1      28.450  18.572  17.952  1.00  0.00     0.176 A 
ATOM     21  C   UNL     1      27.754  17.441  15.902  1.00  0.00     0.146 A 
ATOM     22  C   UNL     1      28.255  18.601  16.541  1.00  0.00     0.111 A 
ATOM     23  O   UNL     1      27.504  17.435  14.597  1.00  0.00    -0.456 OA
ATOM     24  C   UNL     1      28.560  19.706  15.711  1.00  0.00     0.197 A 
ATOM     25  C   UNL     1      27.719  18.481  13.805  1.00  0.00     0.138 A 
ATOM     26  C   UNL     1      28.272  19.649  14.346  1.00  0.00     0.100 A 
ATOM     27  O   UNL     1      29.125  20.738  16.156  1.00  0.00    -0.289 OA
BRANCH  18  28
ATOM     28  O   UNL     1      28.451  17.346  20.046  1.00  0.00    -0.502 OA
ATOM     29  H   UNL     1      29.310  17.017  20.470  1.00  0.00     0.293 HD
ENDBRANCH  18  28
BRANCH  20  30
ATOM     30  O   UNL     1      28.803  19.705  18.692  1.00  0.00    -0.504 OA
ATOM     31  H   UNL     1      29.182  20.551  18.296  1.00  0.00     0.293 HD
ENDBRANCH  20  30
BRANCH  25  32
ATOM     32  C   UNL     1      27.392  18.364  12.362  1.00  0.00     0.017 A 
ATOM     33  C   UNL     1      27.715  19.384  11.444  1.00  0.00     0.012 A 
ATOM     34  C   UNL     1      26.712  17.223  11.895  1.00  0.00     0.012 A 
ATOM     35  C   UNL     1      27.383  19.251  10.091  1.00  0.00     0.001 A 
ATOM     36  C   UNL     1      26.385  17.095  10.541  1.00  0.00     0.001 A 
ATOM     37  C   UNL     1      26.722  18.107   9.640  1.00  0.00     0.000 A 
ENDBRANCH  25  32
ENDBRANCH   1  17
TORSDOF 9
ENDMDL
