MODEL 1
REMARK VINA RESULT:    -3.816      0.000      0.000
REMARK INTER + INTRA:          -4.143
REMARK INTER:                  -4.597
REMARK INTRA:                   0.454
REMARK UNBOUND:                 0.454
REMARK SMILES O=c1c(O)c(-c2ccc(O)c(O)c2)oc2cc(O)cc(O)c12
REMARK SMILES IDX 5 1 3 2 2 3 1 4 22 5 20 6 19 7 17 8 16 9 15 10 14 11 6 12
REMARK SMILES IDX 7 13 8 14 9 15 13 16 11 17 10 18 12 20 4 22 21 24 18 26
REMARK H PARENT 10 19 12 21 4 23 21 25 18 27
REMARK Flexibility Score: inf
ROOT
ATOM      1  C   UNL     1      56.274  28.866 -33.062  1.00  0.00     0.180 A 
ATOM      2  C   UNL     1      56.448  29.800 -34.098  1.00  0.00     0.208 A 
ATOM      3  C   UNL     1      56.211  29.398 -35.423  1.00  0.00     0.238 A 
ATOM      4  O   UNL     1      56.421  30.223 -36.351  1.00  0.00    -0.285 OA
ATOM      5  C   UNL     1      55.788  28.075 -35.694  1.00  0.00     0.111 A 
ATOM      6  C   UNL     1      55.480  27.573 -36.994  1.00  0.00     0.134 A 
ATOM      7  C   UNL     1      55.198  26.212 -37.160  1.00  0.00     0.093 A 
ATOM      8  C   UNL     1      55.147  25.348 -36.062  1.00  0.00     0.123 A 
ATOM      9  C   UNL     1      55.388  25.841 -34.782  1.00  0.00     0.094 A 
ATOM     10  C   UNL     1      55.707  27.187 -34.590  1.00  0.00     0.146 A 
ATOM     11  O   UNL     1      55.939  27.614 -33.354  1.00  0.00    -0.452 OA
ENDROOT
BRANCH   1  12
ATOM     12  C   UNL     1      56.480  29.220 -31.640  1.00  0.00     0.025 A 
ATOM     13  C   UNL     1      56.515  30.569 -31.262  1.00  0.00     0.016 A 
ATOM     14  C   UNL     1      56.728  30.924 -29.929  1.00  0.00     0.051 A 
ATOM     15  C   UNL     1      56.924  29.943 -28.950  1.00  0.00     0.157 A 
ATOM     16  C   UNL     1      56.699  28.232 -30.664  1.00  0.00     0.062 A 
ATOM     17  C   UNL     1      56.916  28.579 -29.324  1.00  0.00     0.158 A 
BRANCH  15  18
ATOM     18  O   UNL     1      57.124  30.365 -27.635  1.00  0.00    -0.504 OA
ATOM     19  H   UNL     1      57.466  31.281 -27.382  1.00  0.00     0.293 HD
ENDBRANCH  15  18
BRANCH  17  20
ATOM     20  O   UNL     1      57.125  27.546 -28.409  1.00  0.00    -0.504 OA
ATOM     21  H   UNL     1      58.034  27.172 -28.176  1.00  0.00     0.293 HD
ENDBRANCH  17  20
ENDBRANCH   1  12
BRANCH   2  22
ATOM     22  O   UNL     1      56.887  31.094 -33.810  1.00  0.00    -0.502 OA
ATOM     23  H   UNL     1      57.021  31.425 -32.862  1.00  0.00     0.293 HD
ENDBRANCH   2  22
BRANCH   6  24
ATOM     24  O   UNL     1      55.412  28.368 -38.142  1.00  0.00    -0.507 OA
ATOM     25  H   UNL     1      55.360  29.375 -38.141  1.00  0.00     0.293 HD
ENDBRANCH   6  24
BRANCH   8  26
ATOM     26  O   UNL     1      54.849  23.997 -36.234  1.00  0.00    -0.508 OA
ATOM     27  H   UNL     1      53.983  23.598 -35.894  1.00  0.00     0.293 HD
ENDBRANCH   8  26
TORSDOF 6
ENDMDL
