MODEL 1
REMARK VINA RESULT:    -3.705      0.000      0.000
REMARK INTER + INTRA:          -4.848
REMARK INTER:                  -4.571
REMARK INTRA:                  -0.277
REMARK UNBOUND:                -0.277
REMARK SMILES CCCCC=CC(C)=O
REMARK SMILES IDX 4 1 3 2 2 3 1 4 5 5 6 6 7 7 9 8 8 9
REMARK H PARENT
REMARK Flexibility Score: inf
ROOT
ATOM      1  C   UNL     1      11.795  82.546  20.493  1.00  0.00     0.027 C 
ENDROOT
BRANCH   1   2
ATOM      2  C   UNL     1      12.070  83.696  19.513  1.00  0.00     0.004 C 
BRANCH   2   3
ATOM      3  C   UNL     1      10.814  84.124  18.739  1.00  0.00    -0.003 C 
ATOM      4  C   UNL     1      10.862  83.723  17.265  1.00  0.00     0.004 C 
ENDBRANCH   2   3
ENDBRANCH   1   2
BRANCH   1   5
ATOM      5  C   UNL     1      11.987  81.212  19.831  1.00  0.00    -0.023 C 
ATOM      6  C   UNL     1      10.942  80.445  19.491  1.00  0.00     0.042 C 
BRANCH   6   7
ATOM      7  C   UNL     1      11.081  79.132  18.828  1.00  0.00     0.152 C 
ATOM      8  O   UNL     1      11.340  78.123  19.535  1.00  0.00    -0.295 OA
ATOM      9  C   UNL     1      10.924  78.959  17.346  1.00  0.00     0.093 C 
ENDBRANCH   6   7
ENDBRANCH   1   5
TORSDOF 4
ENDMDL
MODEL 2
REMARK VINA RESULT:    -3.671      1.174      1.970
REMARK INTER + INTRA:          -4.806
REMARK INTER:                  -4.543
REMARK INTRA:                  -0.264
REMARK UNBOUND:                -0.277
REMARK SMILES CCCCC=CC(C)=O
REMARK SMILES IDX 4 1 3 2 2 3 1 4 5 5 6 6 7 7 9 8 8 9
REMARK H PARENT
REMARK Flexibility Score: inf
ROOT
ATOM      1  C   UNL     1      12.026  82.196  17.430  1.00  0.00     0.027 C 
ENDROOT
BRANCH   1   2
ATOM      2  C   UNL     1      11.015  83.146  18.087  1.00  0.00     0.004 C 
BRANCH   2   3
ATOM      3  C   UNL     1      11.632  83.964  19.231  1.00  0.00    -0.003 C 
ATOM      4  C   UNL     1      11.679  83.194  20.551  1.00  0.00     0.004 C 
ENDBRANCH   2   3
ENDBRANCH   1   2
BRANCH   1   5
ATOM      5  C   UNL     1      11.533  80.777  17.455  1.00  0.00    -0.023 C 
ATOM      6  C   UNL     1      11.361  80.118  18.609  1.00  0.00     0.042 C 
BRANCH   6   7
ATOM      7  C   UNL     1      10.868  78.728  18.684  1.00  0.00     0.152 C 
ATOM      8  O   UNL     1      11.311  77.979  19.594  1.00  0.00    -0.295 OA
ATOM      9  C   UNL     1       9.860  78.179  17.719  1.00  0.00     0.093 C 
ENDBRANCH   6   7
ENDBRANCH   1   5
TORSDOF 4
ENDMDL
MODEL 3
REMARK VINA RESULT:    -3.340      4.743      6.086
REMARK INTER + INTRA:          -4.398
REMARK INTER:                  -4.306
REMARK INTRA:                  -0.091
REMARK UNBOUND:                -0.277
REMARK SMILES CCCCC=CC(C)=O
REMARK SMILES IDX 4 1 3 2 2 3 1 4 5 5 6 6 7 7 9 8 8 9
REMARK H PARENT
REMARK Flexibility Score: inf
ROOT
ATOM      1  C   UNL     1      12.125  76.741  20.605  1.00  0.00     0.027 C 
ENDROOT
BRANCH   1   2
ATOM      2  C   UNL     1      11.931  78.264  20.612  1.00  0.00     0.004 C 
BRANCH   2   3
ATOM      3  C   UNL     1      11.541  78.815  19.232  1.00  0.00    -0.003 C 
ATOM      4  C   UNL     1      10.995  80.241  19.297  1.00  0.00     0.004 C 
ENDBRANCH   2   3
ENDBRANCH   1   2
BRANCH   1   5
ATOM      5  C   UNL     1      11.639  76.126  21.886  1.00  0.00    -0.023 C 
ATOM      6  C   UNL     1      11.412  74.810  21.987  1.00  0.00     0.042 C 
BRANCH   6   7
ATOM      7  C   UNL     1      10.946  74.159  23.229  1.00  0.00     0.152 C 
ATOM      8  O   UNL     1       9.850  74.527  23.728  1.00  0.00    -0.295 OA
ATOM      9  C   UNL     1      11.730  73.079  23.914  1.00  0.00     0.093 C 
ENDBRANCH   6   7
ENDBRANCH   1   5
TORSDOF 4
ENDMDL
MODEL 4
REMARK VINA RESULT:    -3.282      4.695      7.332
REMARK INTER + INTRA:          -4.326
REMARK INTER:                  -4.231
REMARK INTRA:                  -0.095
REMARK UNBOUND:                -0.277
REMARK SMILES CCCCC=CC(C)=O
REMARK SMILES IDX 4 1 3 2 2 3 1 4 5 5 6 6 7 7 9 8 8 9
REMARK H PARENT
REMARK Flexibility Score: inf
ROOT
ATOM      1  C   UNL     1      12.058  75.419  21.815  1.00  0.00     0.027 C 
ENDROOT
BRANCH   1   2
ATOM      2  C   UNL     1      10.968  74.588  22.507  1.00  0.00     0.004 C 
BRANCH   2   3
ATOM      3  C   UNL     1      11.357  74.179  23.935  1.00  0.00    -0.003 C 
ATOM      4  C   UNL     1      12.040  72.813  23.995  1.00  0.00     0.004 C 
ENDBRANCH   2   3
ENDBRANCH   1   2
BRANCH   1   5
ATOM      5  C   UNL     1      11.488  76.677  21.224  1.00  0.00    -0.023 C 
ATOM      6  C   UNL     1      12.125  77.343  20.251  1.00  0.00     0.042 C 
BRANCH   6   7
ATOM      7  C   UNL     1      11.598  78.576  19.632  1.00  0.00     0.152 C 
ATOM      8  O   UNL     1      10.705  78.474  18.751  1.00  0.00    -0.295 OA
ATOM      9  C   UNL     1      12.086  79.941  20.016  1.00  0.00     0.093 C 
ENDBRANCH   6   7
ENDBRANCH   1   5
TORSDOF 4
ENDMDL
MODEL 5
REMARK VINA RESULT:    -3.246      3.714      6.251
REMARK INTER + INTRA:          -4.282
REMARK INTER:                  -4.130
REMARK INTRA:                  -0.151
REMARK UNBOUND:                -0.277
REMARK SMILES CCCCC=CC(C)=O
REMARK SMILES IDX 4 1 3 2 2 3 1 4 5 5 6 6 7 7 9 8 8 9
REMARK H PARENT
REMARK Flexibility Score: inf
ROOT
ATOM      1  C   UNL     1      12.125  76.857  21.559  1.00  0.00     0.027 C 
ENDROOT
BRANCH   1   2
ATOM      2  C   UNL     1      12.107  75.336  21.763  1.00  0.00     0.004 C 
BRANCH   2   3
ATOM      3  C   UNL     1      11.392  74.923  23.059  1.00  0.00    -0.003 C 
ATOM      4  C   UNL     1       9.885  74.745  22.872  1.00  0.00     0.004 C 
ENDBRANCH   2   3
ENDBRANCH   1   2
BRANCH   1   5
ATOM      5  C   UNL     1      11.626  77.228  20.192  1.00  0.00    -0.023 C 
ATOM      6  C   UNL     1      11.368  78.501  19.864  1.00  0.00     0.042 C 
BRANCH   6   7
ATOM      7  C   UNL     1      10.888  78.914  18.530  1.00  0.00     0.152 C 
ATOM      8  O   UNL     1       9.904  78.310  18.029  1.00  0.00    -0.295 OA
ATOM      9  C   UNL     1      11.531  80.025  17.753  1.00  0.00     0.093 C 
ENDBRANCH   6   7
ENDBRANCH   1   5
TORSDOF 4
ENDMDL
MODEL 6
REMARK VINA RESULT:    -3.213      3.656      4.899
REMARK INTER + INTRA:          -4.241
REMARK INTER:                  -4.140
REMARK INTRA:                  -0.101
REMARK UNBOUND:                -0.277
REMARK SMILES CCCCC=CC(C)=O
REMARK SMILES IDX 4 1 3 2 2 3 1 4 5 5 6 6 7 7 9 8 8 9
REMARK H PARENT
REMARK Flexibility Score: inf
ROOT
ATOM      1  C   UNL     1      12.097  78.213  20.118  1.00  0.00     0.027 C 
ENDROOT
BRANCH   1   2
ATOM      2  C   UNL     1      11.007  78.572  19.098  1.00  0.00     0.004 C 
BRANCH   2   3
ATOM      3  C   UNL     1      10.924  80.082  18.831  1.00  0.00    -0.003 C 
ATOM      4  C   UNL     1      11.639  80.496  17.545  1.00  0.00     0.004 C 
ENDBRANCH   2   3
ENDBRANCH   1   2
BRANCH   1   5
ATOM      5  C   UNL     1      11.995  76.774  20.537  1.00  0.00    -0.023 C 
ATOM      6  C   UNL     1      11.381  76.420  21.674  1.00  0.00     0.042 C 
BRANCH   6   7
ATOM      7  C   UNL     1      11.246  75.019  22.121  1.00  0.00     0.152 C 
ATOM      8  O   UNL     1      12.125  74.187  21.771  1.00  0.00    -0.295 OA
ATOM      9  C   UNL     1      10.104  74.553  22.974  1.00  0.00     0.093 C 
ENDBRANCH   6   7
ENDBRANCH   1   5
TORSDOF 4
ENDMDL
MODEL 7
REMARK VINA RESULT:    -3.162      2.733      5.210
REMARK INTER + INTRA:          -4.178
REMARK INTER:                  -4.082
REMARK INTRA:                  -0.096
REMARK UNBOUND:                -0.277
REMARK SMILES CCCCC=CC(C)=O
REMARK SMILES IDX 4 1 3 2 2 3 1 4 5 5 6 6 7 7 9 8 8 9
REMARK H PARENT
REMARK Flexibility Score: inf
ROOT
ATOM      1  C   UNL     1      11.292  79.551  18.818  1.00  0.00     0.027 C 
ENDROOT
BRANCH   1   2
ATOM      2  C   UNL     1      11.794  78.929  20.129  1.00  0.00     0.004 C 
BRANCH   2   3
ATOM      3  C   UNL     1      11.998  77.410  20.021  1.00  0.00    -0.003 C 
ATOM      4  C   UNL     1      11.763  76.685  21.346  1.00  0.00     0.004 C 
ENDBRANCH   2   3
ENDBRANCH   1   2
BRANCH   1   5
ATOM      5  C   UNL     1      11.474  81.041  18.820  1.00  0.00    -0.023 C 
ATOM      6  C   UNL     1      11.362  81.760  17.695  1.00  0.00     0.042 C 
BRANCH   6   7
ATOM      7  C   UNL     1      11.521  83.228  17.650  1.00  0.00     0.152 C 
ATOM      8  O   UNL     1      12.079  83.743  16.646  1.00  0.00    -0.295 OA
ATOM      9  C   UNL     1      11.041  84.123  18.754  1.00  0.00     0.093 C 
ENDBRANCH   6   7
ENDBRANCH   1   5
TORSDOF 4
ENDMDL
MODEL 8
REMARK VINA RESULT:    -3.093      3.398      5.978
REMARK INTER + INTRA:          -4.093
REMARK INTER:                  -4.005
REMARK INTRA:                  -0.088
REMARK UNBOUND:                -0.277
REMARK SMILES CCCCC=CC(C)=O
REMARK SMILES IDX 4 1 3 2 2 3 1 4 5 5 6 6 7 7 9 8 8 9
REMARK H PARENT
REMARK Flexibility Score: inf
ROOT
ATOM      1  C   UNL     1      12.049  77.021  20.309  1.00  0.00     0.027 C 
ENDROOT
BRANCH   1   2
ATOM      2  C   UNL     1      11.893  76.557  21.765  1.00  0.00     0.004 C 
BRANCH   2   3
ATOM      3  C   UNL     1      11.879  75.026  21.896  1.00  0.00    -0.003 C 
ATOM      4  C   UNL     1      10.559  74.492  22.453  1.00  0.00     0.004 C 
ENDBRANCH   2   3
ENDBRANCH   1   2
BRANCH   1   5
ATOM      5  C   UNL     1      12.100  78.519  20.221  1.00  0.00    -0.023 C 
ATOM      6  C   UNL     1      11.394  79.189  19.300  1.00  0.00     0.042 C 
BRANCH   6   7
ATOM      7  C   UNL     1      11.404  80.661  19.182  1.00  0.00     0.152 C 
ATOM      8  O   UNL     1      11.546  81.349  20.227  1.00  0.00    -0.295 OA
ATOM      9  C   UNL     1      11.251  81.364  17.866  1.00  0.00     0.093 C 
ENDBRANCH   6   7
ENDBRANCH   1   5
TORSDOF 4
ENDMDL
