MODEL 1
REMARK VINA RESULT:    -4.161      0.000      0.000
REMARK INTER + INTRA:          -4.161
REMARK INTER:                  -4.161
REMARK INTRA:                   0.000
REMARK UNBOUND:                 0.000
REMARK SMILES O=c1ccc2ccccc2o1
REMARK SMILES IDX 7 1 8 2 9 3 10 4 5 5 6 6 4 7 3 8 2 9 1 10 11 11
REMARK H PARENT
REMARK Flexibility Score: inf
ROOT
ATOM      1  C   UNL     1     113.728 104.993  94.828  1.00  0.00     0.001 A 
ATOM      2  C   UNL     1     113.044 104.286  95.824  1.00  0.00     0.004 A 
ATOM      3  C   UNL     1     111.702 103.937  95.643  1.00  0.00     0.048 A 
ATOM      4  C   UNL     1     111.038 104.293  94.464  1.00  0.00     0.138 A 
ATOM      5  C   UNL     1     111.728 105.007  93.459  1.00  0.00     0.018 A 
ATOM      6  C   UNL     1     113.074 105.354  93.646  1.00  0.00     0.012 A 
ATOM      7  C   UNL     1     111.038 105.349  92.291  1.00  0.00     0.019 A 
ATOM      8  C   UNL     1     109.701 104.980  92.154  1.00  0.00     0.094 A 
ATOM      9  C   UNL     1     109.082 104.274  93.191  1.00  0.00     0.336 A 
ATOM     10  O   UNL     1     107.875 103.932  93.085  1.00  0.00    -0.246 OA
ATOM     11  O   UNL     1     109.761 103.961  94.292  1.00  0.00    -0.423 OA
ENDROOT
TORSDOF 0
ENDMDL
MODEL 2
REMARK VINA RESULT:    -4.068      2.014      2.411
REMARK INTER + INTRA:          -4.068
REMARK INTER:                  -4.068
REMARK INTRA:                   0.000
REMARK UNBOUND:                 0.000
REMARK SMILES O=c1ccc2ccccc2o1
REMARK SMILES IDX 7 1 8 2 9 3 10 4 5 5 6 6 4 7 3 8 2 9 1 10 11 11
REMARK H PARENT
REMARK Flexibility Score: inf
ROOT
ATOM      1  C   UNL     1     111.759 104.392  96.371  1.00  0.00     0.001 A 
ATOM      2  C   UNL     1     111.578 105.751  96.656  1.00  0.00     0.004 A 
ATOM      3  C   UNL     1     111.008 106.600  95.702  1.00  0.00     0.048 A 
ATOM      4  C   UNL     1     110.616 106.093  94.458  1.00  0.00     0.138 A 
ATOM      5  C   UNL     1     110.798 104.722  94.170  1.00  0.00     0.018 A 
ATOM      6  C   UNL     1     111.370 103.875  95.131  1.00  0.00     0.012 A 
ATOM      7  C   UNL     1     110.396 104.245  92.919  1.00  0.00     0.019 A 
ATOM      8  C   UNL     1     109.832 105.127  91.999  1.00  0.00     0.094 A 
ATOM      9  C   UNL     1     109.682 106.472  92.353  1.00  0.00     0.336 A 
ATOM     10  O   UNL     1     109.175 107.284  91.535  1.00  0.00    -0.246 OA
ATOM     11  O   UNL     1     110.073 106.901  93.551  1.00  0.00    -0.423 OA
ENDROOT
TORSDOF 0
ENDMDL
MODEL 3
REMARK VINA RESULT:    -4.039      1.336      2.263
REMARK INTER + INTRA:          -4.039
REMARK INTER:                  -4.039
REMARK INTRA:                   0.000
REMARK UNBOUND:                 0.000
REMARK SMILES O=c1ccc2ccccc2o1
REMARK SMILES IDX 7 1 8 2 9 3 10 4 5 5 6 6 4 7 3 8 2 9 1 10 11 11
REMARK H PARENT
REMARK Flexibility Score: inf
ROOT
ATOM      1  C   UNL     1     114.207 104.808  95.555  1.00  0.00     0.001 A 
ATOM      2  C   UNL     1     114.595 105.373  94.334  1.00  0.00     0.004 A 
ATOM      3  C   UNL     1     113.689 105.439  93.271  1.00  0.00     0.048 A 
ATOM      4  C   UNL     1     112.390 104.939  93.424  1.00  0.00     0.138 A 
ATOM      5  C   UNL     1     111.999 104.369  94.657  1.00  0.00     0.018 A 
ATOM      6  C   UNL     1     112.912 104.307  95.720  1.00  0.00     0.012 A 
ATOM      7  C   UNL     1     110.695 103.880  94.780  1.00  0.00     0.019 A 
ATOM      8  C   UNL     1     109.826 103.966  93.694  1.00  0.00     0.094 A 
ATOM      9  C   UNL     1     110.283 104.544  92.504  1.00  0.00     0.336 A 
ATOM     10  O   UNL     1     109.512 104.630  91.512  1.00  0.00    -0.246 OA
ATOM     11  O   UNL     1     111.529 105.002  92.412  1.00  0.00    -0.423 OA
ENDROOT
TORSDOF 0
ENDMDL
MODEL 4
REMARK VINA RESULT:    -4.008     18.617     19.576
REMARK INTER + INTRA:          -4.008
REMARK INTER:                  -4.008
REMARK INTRA:                   0.000
REMARK UNBOUND:                 0.000
REMARK SMILES O=c1ccc2ccccc2o1
REMARK SMILES IDX 7 1 8 2 9 3 10 4 5 5 6 6 4 7 3 8 2 9 1 10 11 11
REMARK H PARENT
REMARK Flexibility Score: inf
ROOT
ATOM      1  C   UNL     1     117.454 123.337  96.218  1.00  0.00     0.001 A 
ATOM      2  C   UNL     1     117.247 121.959  96.094  1.00  0.00     0.004 A 
ATOM      3  C   UNL     1     117.548 121.308  94.893  1.00  0.00     0.048 A 
ATOM      4  C   UNL     1     118.058 122.033  93.811  1.00  0.00     0.138 A 
ATOM      5  C   UNL     1     118.267 123.425  93.936  1.00  0.00     0.018 A 
ATOM      6  C   UNL     1     117.964 124.072  95.143  1.00  0.00     0.012 A 
ATOM      7  C   UNL     1     118.779 124.123  92.838  1.00  0.00     0.019 A 
ATOM      8  C   UNL     1     119.064 123.433  91.661  1.00  0.00     0.094 A 
ATOM      9  C   UNL     1     118.832 122.054  91.609  1.00  0.00     0.336 A 
ATOM     10  O   UNL     1     119.083 121.414  90.555  1.00  0.00    -0.246 OA
ATOM     11  O   UNL     1     118.344 121.413  92.669  1.00  0.00    -0.423 OA
ENDROOT
TORSDOF 0
ENDMDL
MODEL 5
REMARK VINA RESULT:    -3.996      3.036      4.280
REMARK INTER + INTRA:          -3.996
REMARK INTER:                  -3.996
REMARK INTRA:                   0.000
REMARK UNBOUND:                 0.000
REMARK SMILES O=c1ccc2ccccc2o1
REMARK SMILES IDX 7 1 8 2 9 3 10 4 5 5 6 6 4 7 3 8 2 9 1 10 11 11
REMARK H PARENT
REMARK Flexibility Score: inf
ROOT
ATOM      1  C   UNL     1     109.772 106.433  98.594  1.00  0.00     0.001 A 
ATOM      2  C   UNL     1     109.670 107.579  97.796  1.00  0.00     0.004 A 
ATOM      3  C   UNL     1     110.249 107.602  96.523  1.00  0.00     0.048 A 
ATOM      4  C   UNL     1     110.932 106.479  96.043  1.00  0.00     0.138 A 
ATOM      5  C   UNL     1     111.034 105.323  96.848  1.00  0.00     0.018 A 
ATOM      6  C   UNL     1     110.451 105.305  98.124  1.00  0.00     0.012 A 
ATOM      7  C   UNL     1     111.722 104.216  96.341  1.00  0.00     0.019 A 
ATOM      8  C   UNL     1     112.283 104.284  95.067  1.00  0.00     0.094 A 
ATOM      9  C   UNL     1     112.142 105.463  94.326  1.00  0.00     0.336 A 
ATOM     10  O   UNL     1     112.642 105.543  93.173  1.00  0.00    -0.246 OA
ATOM     11  O   UNL     1     111.483 106.502  94.831  1.00  0.00    -0.423 OA
ENDROOT
TORSDOF 0
ENDMDL
MODEL 6
REMARK VINA RESULT:    -3.995     19.886     20.594
REMARK INTER + INTRA:          -3.995
REMARK INTER:                  -3.995
REMARK INTRA:                   0.000
REMARK UNBOUND:                 0.000
REMARK SMILES O=c1ccc2ccccc2o1
REMARK SMILES IDX 7 1 8 2 9 3 10 4 5 5 6 6 4 7 3 8 2 9 1 10 11 11
REMARK H PARENT
REMARK Flexibility Score: inf
ROOT
ATOM      1  C   UNL     1     116.517 123.990  95.988  1.00  0.00     0.001 A 
ATOM      2  C   UNL     1     115.401 123.797  95.164  1.00  0.00     0.004 A 
ATOM      3  C   UNL     1     115.558 123.714  93.777  1.00  0.00     0.048 A 
ATOM      4  C   UNL     1     116.831 123.824  93.207  1.00  0.00     0.138 A 
ATOM      5  C   UNL     1     117.957 124.019  94.038  1.00  0.00     0.018 A 
ATOM      6  C   UNL     1     117.794 124.101  95.429  1.00  0.00     0.012 A 
ATOM      7  C   UNL     1     119.216 124.125  93.440  1.00  0.00     0.019 A 
ATOM      8  C   UNL     1     119.325 124.037  92.053  1.00  0.00     0.094 A 
ATOM      9  C   UNL     1     118.166 123.842  91.293  1.00  0.00     0.336 A 
ATOM     10  O   UNL     1     118.244 123.760  90.039  1.00  0.00    -0.246 OA
ATOM     11  O   UNL     1     116.979 123.745  91.887  1.00  0.00    -0.423 OA
ENDROOT
TORSDOF 0
ENDMDL
MODEL 7
REMARK VINA RESULT:    -3.986      3.075      4.372
REMARK INTER + INTRA:          -3.986
REMARK INTER:                  -3.986
REMARK INTRA:                   0.000
REMARK UNBOUND:                 0.000
REMARK SMILES O=c1ccc2ccccc2o1
REMARK SMILES IDX 7 1 8 2 9 3 10 4 5 5 6 6 4 7 3 8 2 9 1 10 11 11
REMARK H PARENT
REMARK Flexibility Score: inf
ROOT
ATOM      1  C   UNL     1     112.327 104.553  94.420  1.00  0.00     0.001 A 
ATOM      2  C   UNL     1     111.919 105.801  93.934  1.00  0.00     0.004 A 
ATOM      3  C   UNL     1     111.185 106.668  94.750  1.00  0.00     0.048 A 
ATOM      4  C   UNL     1     110.855 106.290  96.056  1.00  0.00     0.138 A 
ATOM      5  C   UNL     1     111.266 105.031  96.548  1.00  0.00     0.018 A 
ATOM      6  C   UNL     1     112.003 104.166  95.724  1.00  0.00     0.012 A 
ATOM      7  C   UNL     1     110.923 104.682  97.857  1.00  0.00     0.019 A 
ATOM      8  C   UNL     1     110.190 105.578  98.634  1.00  0.00     0.094 A 
ATOM      9  C   UNL     1     109.817 106.808  98.081  1.00  0.00     0.336 A 
ATOM     10  O   UNL     1     109.155 107.630  98.768  1.00  0.00    -0.246 OA
ATOM     11  O   UNL     1     110.157 107.116  96.832  1.00  0.00    -0.423 OA
ENDROOT
TORSDOF 0
ENDMDL
MODEL 8
REMARK VINA RESULT:    -3.885      1.500      3.598
REMARK INTER + INTRA:          -3.885
REMARK INTER:                  -3.885
REMARK INTRA:                   0.000
REMARK UNBOUND:                 0.000
REMARK SMILES O=c1ccc2ccccc2o1
REMARK SMILES IDX 7 1 8 2 9 3 10 4 5 5 6 6 4 7 3 8 2 9 1 10 11 11
REMARK H PARENT
REMARK Flexibility Score: inf
ROOT
ATOM      1  C   UNL     1     110.980 104.396  91.372  1.00  0.00     0.001 A 
ATOM      2  C   UNL     1     109.661 104.615  91.786  1.00  0.00     0.004 A 
ATOM      3  C   UNL     1     109.377 104.838  93.138  1.00  0.00     0.048 A 
ATOM      4  C   UNL     1     110.411 104.841  94.080  1.00  0.00     0.138 A 
ATOM      5  C   UNL     1     111.742 104.619  93.662  1.00  0.00     0.018 A 
ATOM      6  C   UNL     1     112.021 104.398  92.305  1.00  0.00     0.012 A 
ATOM      7  C   UNL     1     112.754 104.629  94.627  1.00  0.00     0.019 A 
ATOM      8  C   UNL     1     112.424 104.855  95.962  1.00  0.00     0.094 A 
ATOM      9  C   UNL     1     111.084 105.067  96.303  1.00  0.00     0.336 A 
ATOM     10  O   UNL     1     110.766 105.273  97.504  1.00  0.00    -0.246 OA
ATOM     11  O   UNL     1     110.139 105.053  95.366  1.00  0.00    -0.423 OA
ENDROOT
TORSDOF 0
ENDMDL
MODEL 9
REMARK VINA RESULT:    -3.872      1.749      2.055
REMARK INTER + INTRA:          -3.872
REMARK INTER:                  -3.872
REMARK INTRA:                   0.000
REMARK UNBOUND:                 0.000
REMARK SMILES O=c1ccc2ccccc2o1
REMARK SMILES IDX 7 1 8 2 9 3 10 4 5 5 6 6 4 7 3 8 2 9 1 10 11 11
REMARK H PARENT
REMARK Flexibility Score: inf
ROOT
ATOM      1  C   UNL     1     111.400 105.770  96.659  1.00  0.00     0.001 A 
ATOM      2  C   UNL     1     111.694 104.426  96.403  1.00  0.00     0.004 A 
ATOM      3  C   UNL     1     111.431 103.876  95.144  1.00  0.00     0.048 A 
ATOM      4  C   UNL     1     110.872 104.669  94.135  1.00  0.00     0.138 A 
ATOM      5  C   UNL     1     110.575 106.026  94.394  1.00  0.00     0.018 A 
ATOM      6  C   UNL     1     110.842 106.572  95.659  1.00  0.00     0.012 A 
ATOM      7  C   UNL     1     110.018 106.794  93.367  1.00  0.00     0.019 A 
ATOM      8  C   UNL     1     109.773 106.204  92.128  1.00  0.00     0.094 A 
ATOM      9  C   UNL     1     110.093 104.855  91.944  1.00  0.00     0.336 A 
ATOM     10  O   UNL     1     109.879 104.305  90.831  1.00  0.00    -0.246 OA
ATOM     11  O   UNL     1     110.622 104.146  92.938  1.00  0.00    -0.423 OA
ENDROOT
TORSDOF 0
ENDMDL
