MODEL 1
REMARK VINA RESULT:    -3.705      0.000      0.000
REMARK INTER + INTRA:          -5.116
REMARK INTER:                  -4.896
REMARK INTRA:                  -0.220
REMARK UNBOUND:                -0.220
REMARK SMILES CCCCCCCO
REMARK SMILES IDX 5 1 4 2 3 3 2 4 1 5 6 6 7 7 8 8
REMARK H PARENT 8 9
REMARK Flexibility Score: inf
ROOT
ATOM      1  C   UNL     1     171.134 170.923 207.953  1.00  0.00     0.002 C 
ENDROOT
BRANCH   1   2
ATOM      2  C   UNL     1     171.050 172.342 207.373  1.00  0.00     0.000 C 
BRANCH   2   3
ATOM      3  C   UNL     1     170.964 172.352 205.839  1.00  0.00    -0.000 C 
BRANCH   3   4
ATOM      4  C   UNL     1     171.788 171.227 205.194  1.00  0.00    -0.003 C 
ATOM      5  C   UNL     1     170.956 170.454 204.173  1.00  0.00     0.004 C 
ENDBRANCH   3   4
ENDBRANCH   2   3
ENDBRANCH   1   2
BRANCH   1   6
ATOM      6  C   UNL     1     172.267 170.818 208.983  1.00  0.00     0.028 C 
BRANCH   6   7
ATOM      7  C   UNL     1     173.644 170.751 208.311  1.00  0.00     0.156 C 
BRANCH   7   8
ATOM      8  O   UNL     1     174.533 169.975 209.069  1.00  0.00    -0.396 OA
ATOM      9  H   UNL     1     174.936 170.583 209.743  1.00  0.00     0.210 HD
ENDBRANCH   7   8
ENDBRANCH   6   7
ENDBRANCH   1   6
TORSDOF 6
ENDMDL
MODEL 2
REMARK VINA RESULT:    -3.690      2.872      3.479
REMARK INTER + INTRA:          -5.096
REMARK INTER:                  -4.876
REMARK INTRA:                  -0.220
REMARK UNBOUND:                -0.220
REMARK SMILES CCCCCCCO
REMARK SMILES IDX 5 1 4 2 3 3 2 4 1 5 6 6 7 7 8 8
REMARK H PARENT 8 9
REMARK Flexibility Score: inf
ROOT
ATOM      1  C   UNL     1     172.165 172.655 208.293  1.00  0.00     0.002 C 
ENDROOT
BRANCH   1   2
ATOM      2  C   UNL     1     172.433 171.269 207.688  1.00  0.00     0.000 C 
BRANCH   2   3
ATOM      3  C   UNL     1     172.708 171.325 206.177  1.00  0.00    -0.000 C 
BRANCH   3   4
ATOM      4  C   UNL     1     171.797 172.324 205.447  1.00  0.00    -0.003 C 
ATOM      5  C   UNL     1     172.581 173.123 204.409  1.00  0.00     0.004 C 
ENDBRANCH   3   4
ENDBRANCH   2   3
ENDBRANCH   1   2
BRANCH   1   6
ATOM      6  C   UNL     1     170.905 172.637 209.169  1.00  0.00     0.028 C 
BRANCH   6   7
ATOM      7  C   UNL     1     169.677 173.157 208.414  1.00  0.00     0.156 C 
BRANCH   7   8
ATOM      8  O   UNL     1     168.717 173.658 209.306  1.00  0.00    -0.396 OA
ATOM      9  H   UNL     1     168.200 172.877 209.634  1.00  0.00     0.210 HD
ENDBRANCH   7   8
ENDBRANCH   6   7
ENDBRANCH   1   6
TORSDOF 6
ENDMDL
MODEL 3
REMARK VINA RESULT:    -3.644      2.699      3.173
REMARK INTER + INTRA:          -5.035
REMARK INTER:                  -4.827
REMARK INTRA:                  -0.208
REMARK UNBOUND:                -0.220
REMARK SMILES CCCCCCCO
REMARK SMILES IDX 5 1 4 2 3 3 2 4 1 5 6 6 7 7 8 8
REMARK H PARENT 8 9
REMARK Flexibility Score: inf
ROOT
ATOM      1  C   UNL     1     171.404 171.437 207.353  1.00  0.00     0.002 C 
ENDROOT
BRANCH   1   2
ATOM      2  C   UNL     1     172.044 171.415 205.958  1.00  0.00     0.000 C 
BRANCH   2   3
ATOM      3  C   UNL     1     171.295 172.299 204.948  1.00  0.00    -0.000 C 
BRANCH   3   4
ATOM      4  C   UNL     1     170.478 171.480 203.937  1.00  0.00    -0.003 C 
ATOM      5  C   UNL     1     171.085 170.093 203.737  1.00  0.00     0.004 C 
ENDBRANCH   3   4
ENDBRANCH   2   3
ENDBRANCH   1   2
BRANCH   1   6
ATOM      6  C   UNL     1     170.475 172.649 207.511  1.00  0.00     0.028 C 
BRANCH   6   7
ATOM      7  C   UNL     1     170.089 172.884 208.976  1.00  0.00     0.156 C 
BRANCH   7   8
ATOM      8  O   UNL     1     168.883 173.597 209.067  1.00  0.00    -0.396 OA
ATOM      9  H   UNL     1     169.057 174.371 209.663  1.00  0.00     0.210 HD
ENDBRANCH   7   8
ENDBRANCH   6   7
ENDBRANCH   1   6
TORSDOF 6
ENDMDL
MODEL 4
REMARK VINA RESULT:    -3.568      1.380      1.799
REMARK INTER + INTRA:          -4.935
REMARK INTER:                  -4.692
REMARK INTRA:                  -0.242
REMARK UNBOUND:                -0.220
REMARK SMILES CCCCCCCO
REMARK SMILES IDX 5 1 4 2 3 3 2 4 1 5 6 6 7 7 8 8
REMARK H PARENT 8 9
REMARK Flexibility Score: inf
ROOT
ATOM      1  C   UNL     1     171.323 171.914 207.467  1.00  0.00     0.002 C 
ENDROOT
BRANCH   1   2
ATOM      2  C   UNL     1     171.315 172.105 205.943  1.00  0.00     0.000 C 
BRANCH   2   3
ATOM      3  C   UNL     1     172.418 171.298 205.239  1.00  0.00    -0.000 C 
BRANCH   3   4
ATOM      4  C   UNL     1     173.174 172.125 204.187  1.00  0.00    -0.003 C 
ATOM      5  C   UNL     1     172.490 173.469 203.952  1.00  0.00     0.004 C 
ENDBRANCH   3   4
ENDBRANCH   2   3
ENDBRANCH   1   2
BRANCH   1   6
ATOM      6  C   UNL     1     172.745 172.049 208.029  1.00  0.00     0.028 C 
BRANCH   6   7
ATOM      7  C   UNL     1     173.166 170.806 208.820  1.00  0.00     0.156 C 
BRANCH   7   8
ATOM      8  O   UNL     1     174.516 170.501 208.591  1.00  0.00    -0.396 OA
ATOM      9  H   UNL     1     174.852 170.065 209.417  1.00  0.00     0.210 HD
ENDBRANCH   7   8
ENDBRANCH   6   7
ENDBRANCH   1   6
TORSDOF 6
ENDMDL
MODEL 5
REMARK VINA RESULT:    -3.561      2.183      2.609
REMARK INTER + INTRA:          -4.926
REMARK INTER:                  -4.681
REMARK INTRA:                  -0.245
REMARK UNBOUND:                -0.220
REMARK SMILES CCCCCCCO
REMARK SMILES IDX 5 1 4 2 3 3 2 4 1 5 6 6 7 7 8 8
REMARK H PARENT 8 9
REMARK Flexibility Score: inf
ROOT
ATOM      1  C   UNL     1     170.978 172.408 207.044  1.00  0.00     0.002 C 
ENDROOT
BRANCH   1   2
ATOM      2  C   UNL     1     171.026 172.159 205.529  1.00  0.00     0.000 C 
BRANCH   2   3
ATOM      3  C   UNL     1     172.298 171.418 205.090  1.00  0.00    -0.000 C 
BRANCH   3   4
ATOM      4  C   UNL     1     173.102 172.196 204.038  1.00  0.00    -0.003 C 
ATOM      5  C   UNL     1     172.478 173.564 203.772  1.00  0.00     0.004 C 
ENDBRANCH   3   4
ENDBRANCH   2   3
ENDBRANCH   1   2
BRANCH   1   6
ATOM      6  C   UNL     1     172.334 172.100 207.693  1.00  0.00     0.028 C 
BRANCH   6   7
ATOM      7  C   UNL     1     172.704 173.138 208.758  1.00  0.00     0.156 C 
BRANCH   7   8
ATOM      8  O   UNL     1     173.596 174.090 208.241  1.00  0.00    -0.396 OA
ATOM      9  H   UNL     1     173.482 174.079 207.255  1.00  0.00     0.210 HD
ENDBRANCH   7   8
ENDBRANCH   6   7
ENDBRANCH   1   6
TORSDOF 6
ENDMDL
MODEL 6
REMARK VINA RESULT:    -3.549      2.131      2.759
REMARK INTER + INTRA:          -4.910
REMARK INTER:                  -4.694
REMARK INTRA:                  -0.216
REMARK UNBOUND:                -0.220
REMARK SMILES CCCCCCCO
REMARK SMILES IDX 5 1 4 2 3 3 2 4 1 5 6 6 7 7 8 8
REMARK H PARENT 8 9
REMARK Flexibility Score: inf
ROOT
ATOM      1  C   UNL     1     170.843 172.364 207.020  1.00  0.00     0.002 C 
ENDROOT
BRANCH   1   2
ATOM      2  C   UNL     1     170.958 172.207 205.496  1.00  0.00     0.000 C 
BRANCH   2   3
ATOM      3  C   UNL     1     172.196 171.400 205.076  1.00  0.00    -0.000 C 
BRANCH   3   4
ATOM      4  C   UNL     1     173.084 172.159 204.077  1.00  0.00    -0.003 C 
ATOM      5  C   UNL     1     172.527 173.552 203.797  1.00  0.00     0.004 C 
ENDBRANCH   3   4
ENDBRANCH   2   3
ENDBRANCH   1   2
BRANCH   1   6
ATOM      6  C   UNL     1     171.457 171.158 207.743  1.00  0.00     0.028 C 
BRANCH   6   7
ATOM      7  C   UNL     1     170.468 170.515 208.721  1.00  0.00     0.156 C 
BRANCH   7   8
ATOM      8  O   UNL     1     169.897 169.359 208.168  1.00  0.00    -0.396 OA
ATOM      9  H   UNL     1     169.305 168.974 208.866  1.00  0.00     0.210 HD
ENDBRANCH   7   8
ENDBRANCH   6   7
ENDBRANCH   1   6
TORSDOF 6
ENDMDL
MODEL 7
REMARK VINA RESULT:    -3.454      2.375      3.866
REMARK INTER + INTRA:          -4.784
REMARK INTER:                  -4.443
REMARK INTRA:                  -0.341
REMARK UNBOUND:                -0.220
REMARK SMILES CCCCCCCO
REMARK SMILES IDX 5 1 4 2 3 3 2 4 1 5 6 6 7 7 8 8
REMARK H PARENT 8 9
REMARK Flexibility Score: inf
ROOT
ATOM      1  C   UNL     1     172.639 171.160 207.328  1.00  0.00     0.002 C 
ENDROOT
BRANCH   1   2
ATOM      2  C   UNL     1     173.056 172.085 208.481  1.00  0.00     0.000 C 
BRANCH   2   3
ATOM      3  C   UNL     1     171.945 173.067 208.885  1.00  0.00    -0.000 C 
BRANCH   3   4
ATOM      4  C   UNL     1     170.605 172.366 209.151  1.00  0.00    -0.003 C 
ATOM      5  C   UNL     1     169.437 173.197 208.624  1.00  0.00     0.004 C 
ENDBRANCH   3   4
ENDBRANCH   2   3
ENDBRANCH   1   2
BRANCH   1   6
ATOM      6  C   UNL     1     172.406 171.961 206.040  1.00  0.00     0.028 C 
BRANCH   6   7
ATOM      7  C   UNL     1     171.004 171.722 205.466  1.00  0.00     0.156 C 
BRANCH   7   8
ATOM      8  O   UNL     1     170.526 170.453 205.827  1.00  0.00    -0.396 OA
ATOM      9  H   UNL     1     169.536 170.495 205.762  1.00  0.00     0.210 HD
ENDBRANCH   7   8
ENDBRANCH   6   7
ENDBRANCH   1   6
TORSDOF 6
ENDMDL
MODEL 8
REMARK VINA RESULT:    -3.437      8.856      9.662
REMARK INTER + INTRA:          -4.762
REMARK INTER:                  -4.574
REMARK INTRA:                  -0.188
REMARK UNBOUND:                -0.220
REMARK SMILES CCCCCCCO
REMARK SMILES IDX 5 1 4 2 3 3 2 4 1 5 6 6 7 7 8 8
REMARK H PARENT 8 9
REMARK Flexibility Score: inf
ROOT
ATOM      1  C   UNL     1     173.661 178.304 213.065  1.00  0.00     0.002 C 
ENDROOT
BRANCH   1   2
ATOM      2  C   UNL     1     173.956 177.734 214.461  1.00  0.00     0.000 C 
BRANCH   2   3
ATOM      3  C   UNL     1     172.922 176.688 214.905  1.00  0.00    -0.000 C 
BRANCH   3   4
ATOM      4  C   UNL     1     173.352 175.252 214.569  1.00  0.00    -0.003 C 
ATOM      5  C   UNL     1     172.228 174.260 214.861  1.00  0.00     0.004 C 
ENDBRANCH   3   4
ENDBRANCH   2   3
ENDBRANCH   1   2
BRANCH   1   6
ATOM      6  C   UNL     1     174.916 178.269 212.182  1.00  0.00     0.028 C 
BRANCH   6   7
ATOM      7  C   UNL     1     176.111 177.650 212.915  1.00  0.00     0.156 C 
BRANCH   7   8
ATOM      8  O   UNL     1     177.319 178.012 212.299  1.00  0.00    -0.396 OA
ATOM      9  H   UNL     1     177.896 177.204 212.311  1.00  0.00     0.210 HD
ENDBRANCH   7   8
ENDBRANCH   6   7
ENDBRANCH   1   6
TORSDOF 6
ENDMDL
MODEL 9
REMARK VINA RESULT:    -3.345      2.022      3.032
REMARK INTER + INTRA:          -4.641
REMARK INTER:                  -4.239
REMARK INTRA:                  -0.401
REMARK UNBOUND:                -0.220
REMARK SMILES CCCCCCCO
REMARK SMILES IDX 5 1 4 2 3 3 2 4 1 5 6 6 7 7 8 8
REMARK H PARENT 8 9
REMARK Flexibility Score: inf
ROOT
ATOM      1  C   UNL     1     170.928 170.810 205.334  1.00  0.00     0.002 C 
ENDROOT
BRANCH   1   2
ATOM      2  C   UNL     1     170.843 171.302 203.882  1.00  0.00     0.000 C 
BRANCH   2   3
ATOM      3  C   UNL     1     172.144 171.064 203.099  1.00  0.00    -0.000 C 
BRANCH   3   4
ATOM      4  C   UNL     1     173.108 172.257 203.178  1.00  0.00    -0.003 C 
ATOM      5  C   UNL     1     172.344 173.579 203.194  1.00  0.00     0.004 C 
ENDBRANCH   3   4
ENDBRANCH   2   3
ENDBRANCH   1   2
BRANCH   1   6
ATOM      6  C   UNL     1     171.095 171.989 206.303  1.00  0.00     0.028 C 
BRANCH   6   7
ATOM      7  C   UNL     1     172.470 171.979 206.980  1.00  0.00     0.156 C 
BRANCH   7   8
ATOM      8  O   UNL     1     173.208 170.849 206.597  1.00  0.00    -0.396 OA
ATOM      9  H   UNL     1     174.051 171.185 206.194  1.00  0.00     0.210 HD
ENDBRANCH   7   8
ENDBRANCH   6   7
ENDBRANCH   1   6
TORSDOF 6
ENDMDL
