MODEL 1
REMARK VINA RESULT:     0.358      0.000      0.000
REMARK INTER + INTRA:           0.379
REMARK INTER:                   0.379
REMARK INTRA:                   0.000
REMARK UNBOUND:                 0.000
REMARK SMILES O=c1ccc2cc(O)c(O)cc2o1
REMARK SMILES IDX 4 1 3 2 2 3 1 4 13 5 12 6 11 7 9 8 7 9 6 10 5 11 8 12 10 14
REMARK H PARENT 8 13 10 15
REMARK Flexibility Score: inf
ROOT
ATOM      1  C   UNL     1      -5.458  -2.161   2.334  1.00  0.00     0.019 A 
ATOM      2  C   UNL     1      -5.852  -2.742   1.129  1.00  0.00     0.094 A 
ATOM      3  C   UNL     1      -5.113  -2.468  -0.028  1.00  0.00     0.336 A 
ATOM      4  O   UNL     1      -5.452  -2.982  -1.125  1.00  0.00    -0.246 OA
ATOM      5  O   UNL     1      -4.052  -1.667   0.026  1.00  0.00    -0.423 OA
ATOM      6  C   UNL     1      -3.643  -1.094   1.155  1.00  0.00     0.142 A 
ATOM      7  C   UNL     1      -2.520  -0.261   1.149  1.00  0.00     0.098 A 
ATOM      8  C   UNL     1      -2.084   0.347   2.336  1.00  0.00     0.161 A 
ATOM      9  C   UNL     1      -2.779   0.117   3.538  1.00  0.00     0.158 A 
ATOM     10  C   UNL     1      -3.903  -0.717   3.546  1.00  0.00     0.062 A 
ATOM     11  C   UNL     1      -4.340  -1.323   2.360  1.00  0.00     0.022 A 
ENDROOT
BRANCH   9  12
ATOM     12  O   UNL     1      -2.367   0.708   4.731  1.00  0.00    -0.504 OA
ATOM     13  H   UNL     1      -3.011   1.199   5.339  1.00  0.00     0.293 HD
ENDBRANCH   9  12
BRANCH   8  14
ATOM     14  O   UNL     1      -0.964   1.176   2.326  1.00  0.00    -0.504 OA
ATOM     15  H   UNL     1      -0.517   1.455   1.460  1.00  0.00     0.293 HD
ENDBRANCH   8  14
TORSDOF 2
ENDMDL
MODEL 2
REMARK VINA RESULT:     0.470      1.057      4.506
REMARK INTER + INTRA:           0.497
REMARK INTER:                   0.497
REMARK INTRA:                   0.000
REMARK UNBOUND:                 0.000
REMARK SMILES O=c1ccc2cc(O)c(O)cc2o1
REMARK SMILES IDX 4 1 3 2 2 3 1 4 13 5 12 6 11 7 9 8 7 9 6 10 5 11 8 12 10 14
REMARK H PARENT 8 13 10 15
REMARK Flexibility Score: inf
ROOT
ATOM      1  C   UNL     1      -3.806  -0.745   4.002  1.00  0.00     0.019 A 
ATOM      2  C   UNL     1      -2.643   0.012   4.138  1.00  0.00     0.094 A 
ATOM      3  C   UNL     1      -1.894   0.315   2.995  1.00  0.00     0.336 A 
ATOM      4  O   UNL     1      -0.842   0.997   3.097  1.00  0.00    -0.246 OA
ATOM      5  O   UNL     1      -2.290  -0.113   1.799  1.00  0.00    -0.423 OA
ATOM      6  C   UNL     1      -3.393  -0.838   1.626  1.00  0.00     0.142 A 
ATOM      7  C   UNL     1      -3.757  -1.260   0.344  1.00  0.00     0.098 A 
ATOM      8  C   UNL     1      -4.918  -2.024   0.155  1.00  0.00     0.161 A 
ATOM      9  C   UNL     1      -5.721  -2.367   1.259  1.00  0.00     0.158 A 
ATOM     10  C   UNL     1      -5.358  -1.945   2.544  1.00  0.00     0.062 A 
ATOM     11  C   UNL     1      -4.197  -1.182   2.733  1.00  0.00     0.022 A 
ENDROOT
BRANCH   9  12
ATOM     12  O   UNL     1      -6.880  -3.125   1.099  1.00  0.00    -0.504 OA
ATOM     13  H   UNL     1      -6.941  -3.879   0.426  1.00  0.00     0.293 HD
ENDBRANCH   9  12
BRANCH   8  14
ATOM     14  O   UNL     1      -5.279  -2.443  -1.125  1.00  0.00    -0.504 OA
ATOM     15  H   UNL     1      -5.616  -1.790  -1.822  1.00  0.00     0.293 HD
ENDBRANCH   8  14
TORSDOF 2
ENDMDL
MODEL 3
REMARK VINA RESULT:     2.094      0.771      0.866
REMARK INTER + INTRA:           2.217
REMARK INTER:                   2.217
REMARK INTRA:                   0.000
REMARK UNBOUND:                 0.000
REMARK SMILES O=c1ccc2cc(O)c(O)cc2o1
REMARK SMILES IDX 4 1 3 2 2 3 1 4 13 5 12 6 11 7 9 8 7 9 6 10 5 11 8 12 10 14
REMARK H PARENT 8 13 10 15
REMARK Flexibility Score: inf
ROOT
ATOM      1  C   UNL     1      -5.064  -1.737   3.249  1.00  0.00     0.019 A 
ATOM      2  C   UNL     1      -5.699  -2.464   2.242  1.00  0.00     0.094 A 
ATOM      3  C   UNL     1      -5.147  -2.464   0.956  1.00  0.00     0.336 A 
ATOM      4  O   UNL     1      -5.704  -3.114   0.034  1.00  0.00    -0.246 OA
ATOM      5  O   UNL     1      -4.033  -1.782   0.702  1.00  0.00    -0.423 OA
ATOM      6  C   UNL     1      -3.397  -1.076   1.634  1.00  0.00     0.142 A 
ATOM      7  C   UNL     1      -2.230  -0.378   1.307  1.00  0.00     0.098 A 
ATOM      8  C   UNL     1      -1.555   0.367   2.285  1.00  0.00     0.161 A 
ATOM      9  C   UNL     1      -2.052   0.413   3.601  1.00  0.00     0.158 A 
ATOM     10  C   UNL     1      -3.220  -0.285   3.930  1.00  0.00     0.062 A 
ATOM     11  C   UNL     1      -3.896  -1.029   2.953  1.00  0.00     0.022 A 
ENDROOT
BRANCH   9  12
ATOM     12  O   UNL     1      -1.401   1.146   4.591  1.00  0.00    -0.504 OA
ATOM     13  H   UNL     1      -1.893   1.526   5.391  1.00  0.00     0.293 HD
ENDBRANCH   9  12
BRANCH   8  14
ATOM     14  O   UNL     1      -0.392   1.061   1.956  1.00  0.00    -0.504 OA
ATOM     15  H   UNL     1       0.436   1.019   2.539  1.00  0.00     0.293 HD
ENDBRANCH   8  14
TORSDOF 2
ENDMDL
