MODEL 1
REMARK VINA RESULT:    -4.033      0.000      0.000
REMARK INTER + INTRA:          -5.396
REMARK INTER:                  -5.212
REMARK INTRA:                  -0.184
REMARK UNBOUND:                -0.184
REMARK SMILES C=CC(=O)CCCCC
REMARK SMILES IDX 6 1 7 2 8 3 9 4 5 5 3 6 4 7 2 8 1 9
REMARK H PARENT
REMARK Flexibility Score: inf
ROOT
ATOM      1  C   UNL     1      40.084 -40.729  -4.852  1.00  0.00     0.008 C 
ENDROOT
BRANCH   1   2
ATOM      2  C   UNL     1      39.328 -39.679  -5.678  1.00  0.00     0.000 C 
BRANCH   2   3
ATOM      3  C   UNL     1      37.849 -40.054  -5.824  1.00  0.00    -0.003 C 
ATOM      4  C   UNL     1      37.422 -41.044  -4.743  1.00  0.00     0.004 C 
ENDBRANCH   2   3
ENDBRANCH   1   2
BRANCH   1   5
ATOM      5  C   UNL     1      41.264 -41.338  -5.621  1.00  0.00     0.080 C 
BRANCH   5   6
ATOM      6  C   UNL     1      42.585 -40.884  -5.068  1.00  0.00     0.155 C 
ATOM      7  O   UNL     1      42.648 -39.788  -4.445  1.00  0.00    -0.295 OA
BRANCH   6   8
ATOM      8  C   UNL     1      43.786 -41.727  -5.225  1.00  0.00     0.039 C 
ATOM      9  C   UNL     1      44.004 -42.464  -6.313  1.00  0.00     0.012 C 
ENDBRANCH   6   8
ENDBRANCH   5   6
ENDBRANCH   1   5
TORSDOF 5
ENDMDL
MODEL 2
REMARK VINA RESULT:    -3.977      1.374      5.008
REMARK INTER + INTRA:          -5.323
REMARK INTER:                  -5.181
REMARK INTRA:                  -0.142
REMARK UNBOUND:                -0.184
REMARK SMILES C=CC(=O)CCCCC
REMARK SMILES IDX 6 1 7 2 8 3 9 4 5 5 3 6 4 7 2 8 1 9
REMARK H PARENT
REMARK Flexibility Score: inf
ROOT
ATOM      1  C   UNL     1      41.326 -41.375  -5.552  1.00  0.00     0.008 C 
ENDROOT
BRANCH   1   2
ATOM      2  C   UNL     1      42.571 -40.684  -4.977  1.00  0.00     0.000 C 
BRANCH   2   3
ATOM      3  C   UNL     1      43.780 -41.625  -4.997  1.00  0.00    -0.003 C 
ATOM      4  C   UNL     1      43.858 -42.395  -6.312  1.00  0.00     0.004 C 
ENDBRANCH   2   3
ENDBRANCH   1   2
BRANCH   1   5
ATOM      5  C   UNL     1      40.082 -40.479  -5.494  1.00  0.00     0.080 C 
BRANCH   5   6
ATOM      6  C   UNL     1      39.119 -40.926  -4.430  1.00  0.00     0.155 C 
ATOM      7  O   UNL     1      39.555 -41.180  -3.273  1.00  0.00    -0.295 OA
BRANCH   6   8
ATOM      8  C   UNL     1      37.678 -41.036  -4.730  1.00  0.00     0.039 C 
ATOM      9  C   UNL     1      36.776 -40.203  -4.211  1.00  0.00     0.012 C 
ENDBRANCH   6   8
ENDBRANCH   5   6
ENDBRANCH   1   5
TORSDOF 5
ENDMDL
MODEL 3
REMARK VINA RESULT:    -3.929      1.358      4.685
REMARK INTER + INTRA:          -5.261
REMARK INTER:                  -5.057
REMARK INTRA:                  -0.204
REMARK UNBOUND:                -0.184
REMARK SMILES C=CC(=O)CCCCC
REMARK SMILES IDX 6 1 7 2 8 3 9 4 5 5 3 6 4 7 2 8 1 9
REMARK H PARENT
REMARK Flexibility Score: inf
ROOT
ATOM      1  C   UNL     1      41.364 -41.258  -5.618  1.00  0.00     0.008 C 
ENDROOT
BRANCH   1   2
ATOM      2  C   UNL     1      42.587 -40.730  -4.853  1.00  0.00     0.000 C 
BRANCH   2   3
ATOM      3  C   UNL     1      43.801 -41.641  -5.062  1.00  0.00    -0.003 C 
ATOM      4  C   UNL     1      43.690 -42.416  -6.372  1.00  0.00     0.004 C 
ENDBRANCH   2   3
ENDBRANCH   1   2
BRANCH   1   5
ATOM      5  C   UNL     1      40.042 -40.879  -4.937  1.00  0.00     0.080 C 
BRANCH   5   6
ATOM      6  C   UNL     1      39.457 -39.621  -5.514  1.00  0.00     0.155 C 
ATOM      7  O   UNL     1      39.924 -38.504  -5.154  1.00  0.00    -0.295 OA
BRANCH   6   8
ATOM      8  C   UNL     1      38.373 -39.694  -6.512  1.00  0.00     0.039 C 
ATOM      9  C   UNL     1      38.543 -39.321  -7.780  1.00  0.00     0.012 C 
ENDBRANCH   6   8
ENDBRANCH   5   6
ENDBRANCH   1   5
TORSDOF 5
ENDMDL
MODEL 4
REMARK VINA RESULT:    -3.886      1.595      4.505
REMARK INTER + INTRA:          -5.206
REMARK INTER:                  -4.892
REMARK INTRA:                  -0.313
REMARK UNBOUND:                -0.184
REMARK SMILES C=CC(=O)CCCCC
REMARK SMILES IDX 6 1 7 2 8 3 9 4 5 5 3 6 4 7 2 8 1 9
REMARK H PARENT
REMARK Flexibility Score: inf
ROOT
ATOM      1  C   UNL     1      41.439 -41.462  -5.652  1.00  0.00     0.008 C 
ENDROOT
BRANCH   1   2
ATOM      2  C   UNL     1      42.673 -40.783  -5.041  1.00  0.00     0.000 C 
BRANCH   2   3
ATOM      3  C   UNL     1      43.886 -41.719  -5.066  1.00  0.00    -0.003 C 
ATOM      4  C   UNL     1      43.967 -42.480  -6.386  1.00  0.00     0.004 C 
ENDBRANCH   2   3
ENDBRANCH   1   2
BRANCH   1   5
ATOM      5  C   UNL     1      40.201 -40.556  -5.627  1.00  0.00     0.080 C 
BRANCH   5   6
ATOM      6  C   UNL     1      39.905 -40.053  -4.242  1.00  0.00     0.155 C 
ATOM      7  O   UNL     1      40.001 -38.818  -4.002  1.00  0.00    -0.295 OA
BRANCH   6   8
ATOM      8  C   UNL     1      39.477 -40.991  -3.186  1.00  0.00     0.039 C 
ATOM      9  C   UNL     1      39.960 -40.939  -1.945  1.00  0.00     0.012 C 
ENDBRANCH   6   8
ENDBRANCH   5   6
ENDBRANCH   1   5
TORSDOF 5
ENDMDL
MODEL 5
REMARK VINA RESULT:    -3.779      1.766      4.717
REMARK INTER + INTRA:          -5.068
REMARK INTER:                  -4.769
REMARK INTRA:                  -0.299
REMARK UNBOUND:                -0.184
REMARK SMILES C=CC(=O)CCCCC
REMARK SMILES IDX 6 1 7 2 8 3 9 4 5 5 3 6 4 7 2 8 1 9
REMARK H PARENT
REMARK Flexibility Score: inf
ROOT
ATOM      1  C   UNL     1      41.425 -41.359  -5.661  1.00  0.00     0.008 C 
ENDROOT
BRANCH   1   2
ATOM      2  C   UNL     1      42.621 -40.765  -4.902  1.00  0.00     0.000 C 
BRANCH   2   3
ATOM      3  C   UNL     1      43.850 -41.672  -5.018  1.00  0.00    -0.003 C 
ATOM      4  C   UNL     1      43.867 -42.411  -6.353  1.00  0.00     0.004 C 
ENDBRANCH   2   3
ENDBRANCH   1   2
BRANCH   1   5
ATOM      5  C   UNL     1      40.086 -41.030  -4.988  1.00  0.00     0.080 C 
BRANCH   5   6
ATOM      6  C   UNL     1      39.460 -39.791  -5.566  1.00  0.00     0.155 C 
ATOM      7  O   UNL     1      38.987 -39.829  -6.736  1.00  0.00    -0.295 OA
BRANCH   6   8
ATOM      8  C   UNL     1      39.373 -38.557  -4.761  1.00  0.00     0.039 C 
ATOM      9  C   UNL     1      40.424 -37.765  -4.552  1.00  0.00     0.012 C 
ENDBRANCH   6   8
ENDBRANCH   5   6
ENDBRANCH   1   5
TORSDOF 5
ENDMDL
MODEL 6
REMARK VINA RESULT:    -3.674      2.521      4.458
REMARK INTER + INTRA:          -4.931
REMARK INTER:                  -4.590
REMARK INTRA:                  -0.342
REMARK UNBOUND:                -0.184
REMARK SMILES C=CC(=O)CCCCC
REMARK SMILES IDX 6 1 7 2 8 3 9 4 5 5 3 6 4 7 2 8 1 9
REMARK H PARENT
REMARK Flexibility Score: inf
ROOT
ATOM      1  C   UNL     1      41.616 -40.090  -4.499  1.00  0.00     0.008 C 
ENDROOT
BRANCH   1   2
ATOM      2  C   UNL     1      42.068 -41.264  -5.379  1.00  0.00     0.000 C 
BRANCH   2   3
ATOM      3  C   UNL     1      43.583 -41.470  -5.286  1.00  0.00    -0.003 C 
ATOM      4  C   UNL     1      44.066 -42.490  -6.314  1.00  0.00     0.004 C 
ENDBRANCH   2   3
ENDBRANCH   1   2
BRANCH   1   5
ATOM      5  C   UNL     1      42.800 -39.282  -3.952  1.00  0.00     0.080 C 
BRANCH   5   6
ATOM      6  C   UNL     1      42.820 -39.265  -2.450  1.00  0.00     0.155 C 
ATOM      7  O   UNL     1      42.734 -38.160  -1.845  1.00  0.00    -0.295 OA
BRANCH   6   8
ATOM      8  C   UNL     1      42.905 -40.530  -1.693  1.00  0.00     0.039 C 
ATOM      9  C   UNL     1      42.201 -40.747  -0.583  1.00  0.00     0.012 C 
ENDBRANCH   6   8
ENDBRANCH   5   6
ENDBRANCH   1   5
TORSDOF 5
ENDMDL
MODEL 7
REMARK VINA RESULT:    -3.607      1.802      2.392
REMARK INTER + INTRA:          -4.845
REMARK INTER:                  -4.613
REMARK INTRA:                  -0.231
REMARK UNBOUND:                -0.184
REMARK SMILES C=CC(=O)CCCCC
REMARK SMILES IDX 6 1 7 2 8 3 9 4 5 5 3 6 4 7 2 8 1 9
REMARK H PARENT
REMARK Flexibility Score: inf
ROOT
ATOM      1  C   UNL     1      40.207 -40.231  -4.455  1.00  0.00     0.008 C 
ENDROOT
BRANCH   1   2
ATOM      2  C   UNL     1      39.613 -41.011  -3.273  1.00  0.00     0.000 C 
BRANCH   2   3
ATOM      3  C   UNL     1      40.302 -40.628  -1.960  1.00  0.00    -0.003 C 
ATOM      4  C   UNL     1      39.850 -41.531  -0.816  1.00  0.00     0.004 C 
ENDBRANCH   2   3
ENDBRANCH   1   2
BRANCH   1   5
ATOM      5  C   UNL     1      41.254 -41.047  -5.224  1.00  0.00     0.080 C 
BRANCH   5   6
ATOM      6  C   UNL     1      42.655 -40.649  -4.854  1.00  0.00     0.155 C 
ATOM      7  O   UNL     1      42.860 -39.506  -4.360  1.00  0.00    -0.295 OA
BRANCH   6   8
ATOM      8  C   UNL     1      43.771 -41.597  -5.038  1.00  0.00     0.039 C 
ATOM      9  C   UNL     1      43.924 -42.314  -6.150  1.00  0.00     0.012 C 
ENDBRANCH   6   8
ENDBRANCH   5   6
ENDBRANCH   1   5
TORSDOF 5
ENDMDL
MODEL 8
REMARK VINA RESULT:    -3.346      2.091      4.351
REMARK INTER + INTRA:          -4.507
REMARK INTER:                  -3.881
REMARK INTRA:                  -0.627
REMARK UNBOUND:                -0.184
REMARK SMILES C=CC(=O)CCCCC
REMARK SMILES IDX 6 1 7 2 8 3 9 4 5 5 3 6 4 7 2 8 1 9
REMARK H PARENT
REMARK Flexibility Score: inf
ROOT
ATOM      1  C   UNL     1      42.432 -40.902  -4.624  1.00  0.00     0.008 C 
ENDROOT
BRANCH   1   2
ATOM      2  C   UNL     1      42.624 -39.390  -4.434  1.00  0.00     0.000 C 
BRANCH   2   3
ATOM      3  C   UNL     1      42.797 -39.040  -2.953  1.00  0.00    -0.003 C 
ATOM      4  C   UNL     1      42.842 -40.297  -2.090  1.00  0.00     0.004 C 
ENDBRANCH   2   3
ENDBRANCH   1   2
BRANCH   1   5
ATOM      5  C   UNL     1      41.313 -41.228  -5.622  1.00  0.00     0.080 C 
BRANCH   5   6
ATOM      6  C   UNL     1      39.987 -40.681  -5.173  1.00  0.00     0.155 C 
ATOM      7  O   UNL     1      39.397 -39.828  -5.892  1.00  0.00    -0.295 OA
BRANCH   6   8
ATOM      8  C   UNL     1      39.370 -41.162  -3.921  1.00  0.00     0.039 C 
ATOM      9  C   UNL     1      39.048 -40.341  -2.922  1.00  0.00     0.012 C 
ENDBRANCH   6   8
ENDBRANCH   5   6
ENDBRANCH   1   5
TORSDOF 5
ENDMDL
