MODEL 1
REMARK VINA RESULT:    -5.606      0.000      0.000
REMARK INTER + INTRA:          -6.331
REMARK INTER:                  -6.261
REMARK INTRA:                  -0.070
REMARK UNBOUND:                -0.070
REMARK SMILES COc1cc2ccc(=O)oc2c(O)c1O
REMARK SMILES IDX 3 1 14 2 12 3 11 4 5 5 4 6 6 7 7 8 8 9 9 10 10 11 2 12 1 13
REMARK SMILES IDX 15 14 13 16
REMARK H PARENT 15 15 13 17
REMARK Flexibility Score: inf
ROOT
ATOM      1  C   UNL     1       8.593  -6.044  -5.360  1.00  0.00     0.165 A 
ATOM      2  C   UNL     1       9.743  -5.690  -6.082  1.00  0.00     0.204 A 
ATOM      3  C   UNL     1      10.157  -6.458  -7.185  1.00  0.00     0.205 A 
ATOM      4  C   UNL     1       9.414  -7.586  -7.569  1.00  0.00     0.184 A 
ATOM      5  C   UNL     1       8.258  -7.944  -6.844  1.00  0.00     0.025 A 
ATOM      6  C   UNL     1       7.850  -7.176  -5.747  1.00  0.00     0.062 A 
ATOM      7  C   UNL     1       7.538  -9.074  -7.249  1.00  0.00     0.020 A 
ATOM      8  C   UNL     1       7.978  -9.810  -8.347  1.00  0.00     0.094 A 
ATOM      9  C   UNL     1       9.133  -9.398  -9.018  1.00  0.00     0.336 A 
ATOM     10  O   UNL     1       9.548 -10.049 -10.012  1.00  0.00    -0.246 OA
ATOM     11  O   UNL     1       9.799  -8.320  -8.612  1.00  0.00    -0.419 OA
ENDROOT
BRANCH   1  12
ATOM     12  O   UNL     1       8.220  -5.247  -4.266  1.00  0.00    -0.493 OA
ATOM     13  C   UNL     1       8.409  -5.607  -2.902  1.00  0.00     0.278 C 
ENDBRANCH   1  12
BRANCH   2  14
ATOM     14  O   UNL     1      10.468  -4.565  -5.685  1.00  0.00    -0.502 OA
ATOM     15  H   UNL     1      10.271  -3.639  -6.048  1.00  0.00     0.293 HD
ENDBRANCH   2  14
BRANCH   3  16
ATOM     16  O   UNL     1      11.304  -6.088  -7.890  1.00  0.00    -0.502 OA
ATOM     17  H   UNL     1      11.538  -6.490  -8.790  1.00  0.00     0.293 HD
ENDBRANCH   3  16
TORSDOF 3
ENDMDL
MODEL 2
REMARK VINA RESULT:    -5.358      1.842      3.222
REMARK INTER + INTRA:          -6.054
REMARK INTER:                  -6.000
REMARK INTRA:                  -0.054
REMARK UNBOUND:                -0.070
REMARK SMILES COc1cc2ccc(=O)oc2c(O)c1O
REMARK SMILES IDX 3 1 14 2 12 3 11 4 5 5 4 6 6 7 7 8 8 9 9 10 10 11 2 12 1 13
REMARK SMILES IDX 15 14 13 16
REMARK H PARENT 15 15 13 17
REMARK Flexibility Score: inf
ROOT
ATOM      1  C   UNL     1       7.901  -7.701  -6.510  1.00  0.00     0.165 A 
ATOM      2  C   UNL     1       8.512  -6.564  -5.960  1.00  0.00     0.204 A 
ATOM      3  C   UNL     1       9.642  -5.993  -6.574  1.00  0.00     0.205 A 
ATOM      4  C   UNL     1      10.163  -6.564  -7.747  1.00  0.00     0.184 A 
ATOM      5  C   UNL     1       9.550  -7.709  -8.301  1.00  0.00     0.025 A 
ATOM      6  C   UNL     1       8.426  -8.272  -7.686  1.00  0.00     0.062 A 
ATOM      7  C   UNL     1      10.091  -8.256  -9.470  1.00  0.00     0.020 A 
ATOM      8  C   UNL     1      11.211  -7.664 -10.051  1.00  0.00     0.094 A 
ATOM      9  C   UNL     1      11.766  -6.532  -9.446  1.00  0.00     0.336 A 
ATOM     10  O   UNL     1      12.778  -5.981  -9.954  1.00  0.00    -0.246 OA
ATOM     11  O   UNL     1      11.232  -6.031  -8.335  1.00  0.00    -0.419 OA
ENDROOT
BRANCH   1  12
ATOM     12  O   UNL     1       6.776  -8.234  -5.861  1.00  0.00    -0.493 OA
ATOM     13  C   UNL     1       6.432  -9.615  -5.845  1.00  0.00     0.278 C 
ENDBRANCH   1  12
BRANCH   2  14
ATOM     14  O   UNL     1       7.980  -6.010  -4.794  1.00  0.00    -0.502 OA
ATOM     15  H   UNL     1       8.321  -6.259  -3.873  1.00  0.00     0.293 HD
ENDBRANCH   2  14
BRANCH   3  16
ATOM     16  O   UNL     1      10.235  -4.861  -6.011  1.00  0.00    -0.502 OA
ATOM     17  H   UNL     1       9.865  -4.415  -5.180  1.00  0.00     0.293 HD
ENDBRANCH   3  16
TORSDOF 3
ENDMDL
MODEL 3
REMARK VINA RESULT:    -5.268      1.076      1.140
REMARK INTER + INTRA:          -5.954
REMARK INTER:                  -5.955
REMARK INTRA:                   0.002
REMARK UNBOUND:                -0.070
REMARK SMILES COc1cc2ccc(=O)oc2c(O)c1O
REMARK SMILES IDX 3 1 14 2 12 3 11 4 5 5 4 6 6 7 7 8 8 9 9 10 10 11 2 12 1 13
REMARK SMILES IDX 15 14 13 16
REMARK H PARENT 15 15 13 17
REMARK Flexibility Score: inf
ROOT
ATOM      1  C   UNL     1       8.545  -6.118  -6.225  1.00  0.00     0.165 A 
ATOM      2  C   UNL     1       9.839  -5.791  -6.659  1.00  0.00     0.204 A 
ATOM      3  C   UNL     1      10.379  -6.394  -7.809  1.00  0.00     0.205 A 
ATOM      4  C   UNL     1       9.620  -7.330  -8.529  1.00  0.00     0.184 A 
ATOM      5  C   UNL     1       8.319  -7.661  -8.094  1.00  0.00     0.025 A 
ATOM      6  C   UNL     1       7.786  -7.057  -6.950  1.00  0.00     0.062 A 
ATOM      7  C   UNL     1       7.586  -8.597  -8.832  1.00  0.00     0.020 A 
ATOM      8  C   UNL     1       8.154  -9.175  -9.966  1.00  0.00     0.094 A 
ATOM      9  C   UNL     1       9.449  -8.800 -10.338  1.00  0.00     0.336 A 
ATOM     10  O   UNL     1       9.982  -9.309 -11.359  1.00  0.00    -0.246 OA
ATOM     11  O   UNL     1      10.124  -7.907  -9.619  1.00  0.00    -0.419 OA
ENDROOT
BRANCH   1  12
ATOM     12  O   UNL     1       8.048  -5.490  -5.072  1.00  0.00    -0.493 OA
ATOM     13  C   UNL     1       8.309  -5.922  -3.741  1.00  0.00     0.278 C 
ENDBRANCH   1  12
BRANCH   2  14
ATOM     14  O   UNL     1      10.578  -4.858  -5.929  1.00  0.00    -0.502 OA
ATOM     15  H   UNL     1      11.135  -5.120  -5.124  1.00  0.00     0.293 HD
ENDBRANCH   2  14
BRANCH   3  16
ATOM     16  O   UNL     1      11.669  -6.054  -8.223  1.00  0.00    -0.502 OA
ATOM     17  H   UNL     1      11.930  -6.016  -9.201  1.00  0.00     0.293 HD
ENDBRANCH   3  16
TORSDOF 3
ENDMDL
MODEL 4
REMARK VINA RESULT:    -5.113      2.169      4.587
REMARK INTER + INTRA:          -5.780
REMARK INTER:                  -5.718
REMARK INTRA:                  -0.063
REMARK UNBOUND:                -0.070
REMARK SMILES COc1cc2ccc(=O)oc2c(O)c1O
REMARK SMILES IDX 3 1 14 2 12 3 11 4 5 5 4 6 6 7 7 8 8 9 9 10 10 11 2 12 1 13
REMARK SMILES IDX 15 14 13 16
REMARK H PARENT 15 15 13 17
REMARK Flexibility Score: inf
ROOT
ATOM      1  C   UNL     1      11.342  -7.940  -9.785  1.00  0.00     0.165 A 
ATOM      2  C   UNL     1      11.422  -6.826  -8.935  1.00  0.00     0.204 A 
ATOM      3  C   UNL     1      10.543  -6.698  -7.844  1.00  0.00     0.205 A 
ATOM      4  C   UNL     1       9.580  -7.690  -7.602  1.00  0.00     0.184 A 
ATOM      5  C   UNL     1       9.498  -8.811  -8.456  1.00  0.00     0.025 A 
ATOM      6  C   UNL     1      10.375  -8.934  -9.540  1.00  0.00     0.062 A 
ATOM      7  C   UNL     1       8.528  -9.784  -8.191  1.00  0.00     0.020 A 
ATOM      8  C   UNL     1       7.675  -9.623  -7.101  1.00  0.00     0.094 A 
ATOM      9  C   UNL     1       7.812  -8.487  -6.297  1.00  0.00     0.336 A 
ATOM     10  O   UNL     1       7.052  -8.321  -5.308  1.00  0.00    -0.246 OA
ATOM     11  O   UNL     1       8.743  -7.577  -6.572  1.00  0.00    -0.419 OA
ENDROOT
BRANCH   1  12
ATOM     12  O   UNL     1      12.241  -8.024 -10.861  1.00  0.00    -0.493 OA
ATOM     13  C   UNL     1      11.859  -8.204 -12.220  1.00  0.00     0.278 C 
ENDBRANCH   1  12
BRANCH   2  14
ATOM     14  O   UNL     1      12.386  -5.850  -9.191  1.00  0.00    -0.502 OA
ATOM     15  H   UNL     1      12.193  -5.036  -9.764  1.00  0.00     0.293 HD
ENDBRANCH   2  14
BRANCH   3  16
ATOM     16  O   UNL     1      10.639  -5.581  -7.010  1.00  0.00    -0.502 OA
ATOM     17  H   UNL     1      10.803  -4.650  -7.371  1.00  0.00     0.293 HD
ENDBRANCH   3  16
TORSDOF 3
ENDMDL
MODEL 5
REMARK VINA RESULT:    -5.083      2.414      2.866
REMARK INTER + INTRA:          -5.746
REMARK INTER:                  -5.691
REMARK INTRA:                  -0.056
REMARK UNBOUND:                -0.070
REMARK SMILES COc1cc2ccc(=O)oc2c(O)c1O
REMARK SMILES IDX 3 1 14 2 12 3 11 4 5 5 4 6 6 7 7 8 8 9 9 10 10 11 2 12 1 13
REMARK SMILES IDX 15 14 13 16
REMARK H PARENT 15 15 13 17
REMARK Flexibility Score: inf
ROOT
ATOM      1  C   UNL     1       7.755  -7.524  -6.147  1.00  0.00     0.165 A 
ATOM      2  C   UNL     1       7.720  -6.160  -6.477  1.00  0.00     0.204 A 
ATOM      3  C   UNL     1       7.827  -5.748  -7.817  1.00  0.00     0.205 A 
ATOM      4  C   UNL     1       7.971  -6.706  -8.834  1.00  0.00     0.184 A 
ATOM      5  C   UNL     1       8.007  -8.078  -8.504  1.00  0.00     0.025 A 
ATOM      6  C   UNL     1       7.898  -8.482  -7.168  1.00  0.00     0.062 A 
ATOM      7  C   UNL     1       8.151  -9.010  -9.537  1.00  0.00     0.020 A 
ATOM      8  C   UNL     1       8.255  -8.564 -10.854  1.00  0.00     0.094 A 
ATOM      9  C   UNL     1       8.212  -7.190 -11.107  1.00  0.00     0.336 A 
ATOM     10  O   UNL     1       8.305  -6.766 -12.288  1.00  0.00    -0.246 OA
ATOM     11  O   UNL     1       8.075  -6.325 -10.106  1.00  0.00    -0.419 OA
ENDROOT
BRANCH   1  12
ATOM     12  O   UNL     1       7.643  -7.886  -4.795  1.00  0.00    -0.493 OA
ATOM     13  C   UNL     1       6.919  -9.016  -4.319  1.00  0.00     0.278 C 
ENDBRANCH   1  12
BRANCH   2  14
ATOM     14  O   UNL     1       7.576  -5.222  -5.453  1.00  0.00    -0.502 OA
ATOM     15  H   UNL     1       6.995  -5.393  -4.641  1.00  0.00     0.293 HD
ENDBRANCH   2  14
BRANCH   3  16
ATOM     16  O   UNL     1       7.790  -4.386  -8.124  1.00  0.00    -0.502 OA
ATOM     17  H   UNL     1       6.947  -3.927  -8.447  1.00  0.00     0.293 HD
ENDBRANCH   3  16
TORSDOF 3
ENDMDL
MODEL 6
REMARK VINA RESULT:    -5.003      2.114      2.714
REMARK INTER + INTRA:          -5.658
REMARK INTER:                  -5.590
REMARK INTRA:                  -0.067
REMARK UNBOUND:                -0.070
REMARK SMILES COc1cc2ccc(=O)oc2c(O)c1O
REMARK SMILES IDX 3 1 14 2 12 3 11 4 5 5 4 6 6 7 7 8 8 9 9 10 10 11 2 12 1 13
REMARK SMILES IDX 15 14 13 16
REMARK H PARENT 15 15 13 17
REMARK Flexibility Score: inf
ROOT
ATOM      1  C   UNL     1       8.791  -6.824  -7.462  1.00  0.00     0.165 A 
ATOM      2  C   UNL     1      10.071  -6.266  -7.606  1.00  0.00     0.204 A 
ATOM      3  C   UNL     1      10.837  -6.526  -8.757  1.00  0.00     0.205 A 
ATOM      4  C   UNL     1      10.318  -7.348  -9.771  1.00  0.00     0.184 A 
ATOM      5  C   UNL     1       9.031  -7.910  -9.627  1.00  0.00     0.025 A 
ATOM      6  C   UNL     1       8.274  -7.648  -8.480  1.00  0.00     0.062 A 
ATOM      7  C   UNL     1       8.540  -8.726 -10.653  1.00  0.00     0.020 A 
ATOM      8  C   UNL     1       9.327  -8.961 -11.779  1.00  0.00     0.094 A 
ATOM      9  C   UNL     1      10.593  -8.371 -11.853  1.00  0.00     0.336 A 
ATOM     10  O   UNL     1      11.320  -8.571 -12.861  1.00  0.00    -0.246 OA
ATOM     11  O   UNL     1      11.036  -7.600 -10.864  1.00  0.00    -0.419 OA
ENDROOT
BRANCH   1  12
ATOM     12  O   UNL     1       8.065  -6.536  -6.295  1.00  0.00    -0.493 OA
ATOM     13  C   UNL     1       7.701  -7.498  -5.312  1.00  0.00     0.278 C 
ENDBRANCH   1  12
BRANCH   2  14
ATOM     14  O   UNL     1      10.570  -5.451  -6.588  1.00  0.00    -0.502 OA
ATOM     15  H   UNL     1       9.963  -4.925  -5.971  1.00  0.00     0.293 HD
ENDBRANCH   2  14
BRANCH   3  16
ATOM     16  O   UNL     1      12.108  -5.961  -8.881  1.00  0.00    -0.502 OA
ATOM     17  H   UNL     1      12.953  -6.485  -8.688  1.00  0.00     0.293 HD
ENDBRANCH   3  16
TORSDOF 3
ENDMDL
MODEL 7
REMARK VINA RESULT:    -4.984      2.582      5.353
REMARK INTER + INTRA:          -5.636
REMARK INTER:                  -5.574
REMARK INTRA:                  -0.062
REMARK UNBOUND:                -0.070
REMARK SMILES COc1cc2ccc(=O)oc2c(O)c1O
REMARK SMILES IDX 3 1 14 2 12 3 11 4 5 5 4 6 6 7 7 8 8 9 9 10 10 11 2 12 1 13
REMARK SMILES IDX 15 14 13 16
REMARK H PARENT 15 15 13 17
REMARK Flexibility Score: inf
ROOT
ATOM      1  C   UNL     1       9.686  -7.131 -11.220  1.00  0.00     0.165 A 
ATOM      2  C   UNL     1      10.959  -6.807 -10.727  1.00  0.00     0.204 A 
ATOM      3  C   UNL     1      11.118  -6.356  -9.404  1.00  0.00     0.205 A 
ATOM      4  C   UNL     1       9.996  -6.228  -8.570  1.00  0.00     0.184 A 
ATOM      5  C   UNL     1       8.714  -6.553  -9.064  1.00  0.00     0.025 A 
ATOM      6  C   UNL     1       8.562  -7.003 -10.381  1.00  0.00     0.062 A 
ATOM      7  C   UNL     1       7.614  -6.416  -8.210  1.00  0.00     0.020 A 
ATOM      8  C   UNL     1       7.810  -5.965  -6.906  1.00  0.00     0.094 A 
ATOM      9  C   UNL     1       9.108  -5.661  -6.484  1.00  0.00     0.336 A 
ATOM     10  O   UNL     1       9.307  -5.253  -5.311  1.00  0.00    -0.246 OA
ATOM     11  O   UNL     1      10.136  -5.800  -7.316  1.00  0.00    -0.419 OA
ENDROOT
BRANCH   1  12
ATOM     12  O   UNL     1       9.578  -7.578 -12.547  1.00  0.00    -0.493 OA
ATOM     13  C   UNL     1       8.937  -8.786 -12.942  1.00  0.00     0.278 C 
ENDBRANCH   1  12
BRANCH   2  14
ATOM     14  O   UNL     1      12.063  -6.941 -11.571  1.00  0.00    -0.502 OA
ATOM     15  H   UNL     1      12.859  -6.316 -11.523  1.00  0.00     0.293 HD
ENDBRANCH   2  14
BRANCH   3  16
ATOM     16  O   UNL     1      12.394  -6.039  -8.933  1.00  0.00    -0.502 OA
ATOM     17  H   UNL     1      12.859  -5.172  -9.174  1.00  0.00     0.293 HD
ENDBRANCH   3  16
TORSDOF 3
ENDMDL
MODEL 8
REMARK VINA RESULT:    -4.951      2.787      3.571
REMARK INTER + INTRA:          -5.599
REMARK INTER:                  -5.546
REMARK INTRA:                  -0.054
REMARK UNBOUND:                -0.070
REMARK SMILES COc1cc2ccc(=O)oc2c(O)c1O
REMARK SMILES IDX 3 1 14 2 12 3 11 4 5 5 4 6 6 7 7 8 8 9 9 10 10 11 2 12 1 13
REMARK SMILES IDX 15 14 13 16
REMARK H PARENT 15 15 13 17
REMARK Flexibility Score: inf
ROOT
ATOM      1  C   UNL     1       8.069  -6.718  -6.738  1.00  0.00     0.165 A 
ATOM      2  C   UNL     1       8.273  -8.032  -7.187  1.00  0.00     0.204 A 
ATOM      3  C   UNL     1       8.354  -8.311  -8.563  1.00  0.00     0.205 A 
ATOM      4  C   UNL     1       8.229  -7.269  -9.496  1.00  0.00     0.184 A 
ATOM      5  C   UNL     1       8.024  -5.947  -9.047  1.00  0.00     0.025 A 
ATOM      6  C   UNL     1       7.945  -5.675  -7.677  1.00  0.00     0.062 A 
ATOM      7  C   UNL     1       7.903  -4.929 -10.000  1.00  0.00     0.020 A 
ATOM      8  C   UNL     1       7.988  -5.244 -11.355  1.00  0.00     0.094 A 
ATOM      9  C   UNL     1       8.193  -6.576 -11.728  1.00  0.00     0.336 A 
ATOM     10  O   UNL     1       8.272  -6.882 -12.946  1.00  0.00    -0.246 OA
ATOM     11  O   UNL     1       8.303  -7.524 -10.802  1.00  0.00    -0.419 OA
ENDROOT
BRANCH   1  12
ATOM     12  O   UNL     1       7.996  -6.488  -5.355  1.00  0.00    -0.493 OA
ATOM     13  C   UNL     1       8.408  -5.287  -4.713  1.00  0.00     0.278 C 
ENDBRANCH   1  12
BRANCH   2  14
ATOM     14  O   UNL     1       8.394  -9.055  -6.244  1.00  0.00    -0.502 OA
ATOM     15  H   UNL     1       7.719  -9.187  -5.501  1.00  0.00     0.293 HD
ENDBRANCH   2  14
BRANCH   3  16
ATOM     16  O   UNL     1       8.557  -9.626  -8.989  1.00  0.00    -0.502 OA
ATOM     17  H   UNL     1       9.394  -9.911  -9.482  1.00  0.00     0.293 HD
ENDBRANCH   3  16
TORSDOF 3
ENDMDL
MODEL 9
REMARK VINA RESULT:    -4.913      2.167      4.696
REMARK INTER + INTRA:          -5.557
REMARK INTER:                  -5.489
REMARK INTRA:                  -0.068
REMARK UNBOUND:                -0.070
REMARK SMILES COc1cc2ccc(=O)oc2c(O)c1O
REMARK SMILES IDX 3 1 14 2 12 3 11 4 5 5 4 6 6 7 7 8 8 9 9 10 10 11 2 12 1 13
REMARK SMILES IDX 15 14 13 16
REMARK H PARENT 15 15 13 17
REMARK Flexibility Score: inf
ROOT
ATOM      1  C   UNL     1      11.291  -6.715  -9.093  1.00  0.00     0.165 A 
ATOM      2  C   UNL     1      11.057  -8.085  -9.290  1.00  0.00     0.204 A 
ATOM      3  C   UNL     1      10.092  -8.762  -8.523  1.00  0.00     0.205 A 
ATOM      4  C   UNL     1       9.355  -8.063  -7.553  1.00  0.00     0.184 A 
ATOM      5  C   UNL     1       9.589  -6.686  -7.352  1.00  0.00     0.025 A 
ATOM      6  C   UNL     1      10.550  -6.017  -8.119  1.00  0.00     0.062 A 
ATOM      7  C   UNL     1       8.841  -6.016  -6.378  1.00  0.00     0.020 A 
ATOM      8  C   UNL     1       7.893  -6.719  -5.637  1.00  0.00     0.094 A 
ATOM      9  C   UNL     1       7.714  -8.083  -5.889  1.00  0.00     0.336 A 
ATOM     10  O   UNL     1       6.864  -8.737  -5.231  1.00  0.00    -0.246 OA
ATOM     11  O   UNL     1       8.439  -8.696  -6.821  1.00  0.00    -0.419 OA
ENDROOT
BRANCH   1  12
ATOM     12  O   UNL     1      12.264  -6.083  -9.883  1.00  0.00    -0.493 OA
ATOM     13  C   UNL     1      11.982  -5.291 -11.032  1.00  0.00     0.278 C 
ENDBRANCH   1  12
BRANCH   2  14
ATOM     14  O   UNL     1      11.799  -8.762 -10.260  1.00  0.00    -0.502 OA
ATOM     15  H   UNL     1      12.428  -9.522 -10.026  1.00  0.00     0.293 HD
ENDBRANCH   2  14
BRANCH   3  16
ATOM     16  O   UNL     1       9.875 -10.125  -8.736  1.00  0.00    -0.502 OA
ATOM     17  H   UNL     1      10.160 -10.828  -8.065  1.00  0.00     0.293 HD
ENDBRANCH   3  16
TORSDOF 3
ENDMDL
