MODEL 1
REMARK VINA RESULT:    -3.407      0.000      0.000
REMARK INTER + INTRA:          -5.181
REMARK INTER:                  -4.603
REMARK INTRA:                  -0.578
REMARK UNBOUND:                -0.578
REMARK SMILES CCCCCCCC(=O)[O-]
REMARK SMILES IDX 5 1 6 2 7 3 8 4 9 5 10 6 4 7 3 8 2 9 1 10
REMARK H PARENT
REMARK Flexibility Score: inf
ROOT
ATOM      1  C   UNL     1     162.458 177.717 188.067  1.00  0.00     0.000 C 
ENDROOT
BRANCH   1   2
ATOM      2  C   UNL     1     160.980 177.476 187.721  1.00  0.00     0.006 C 
BRANCH   2   3
ATOM      3  C   UNL     1     160.478 178.393 186.597  1.00  0.00     0.053 C 
BRANCH   3   4
ATOM      4  C   UNL     1     160.421 177.648 185.302  1.00  0.00     0.041 C 
ATOM      5  O   UNL     1     160.516 178.266 184.210  1.00  0.00    -0.550 OA
ATOM      6  O   UNL     1     160.310 176.263 185.302  1.00  0.00    -0.550 OA
ENDBRANCH   3   4
ENDBRANCH   2   3
ENDBRANCH   1   2
BRANCH   1   7
ATOM      7  C   UNL     1     163.369 176.570 187.603  1.00  0.00     0.000 C 
BRANCH   7   8
ATOM      8  C   UNL     1     164.633 177.116 186.921  1.00  0.00    -0.000 C 
BRANCH   8   9
ATOM      9  C   UNL     1     164.352 178.365 186.071  1.00  0.00    -0.003 C 
ATOM     10  C   UNL     1     164.020 178.030 184.618  1.00  0.00     0.004 C 
ENDBRANCH   8   9
ENDBRANCH   7   8
ENDBRANCH   1   7
TORSDOF 6
ENDMDL
MODEL 2
REMARK VINA RESULT:    -3.373      2.077      3.710
REMARK INTER + INTRA:          -5.134
REMARK INTER:                  -4.574
REMARK INTRA:                  -0.560
REMARK UNBOUND:                -0.578
REMARK SMILES CCCCCCCC(=O)[O-]
REMARK SMILES IDX 5 1 6 2 7 3 8 4 9 5 10 6 4 7 3 8 2 9 1 10
REMARK H PARENT
REMARK Flexibility Score: inf
ROOT
ATOM      1  C   UNL     1     161.247 177.089 187.655  1.00  0.00     0.000 C 
ENDROOT
BRANCH   1   2
ATOM      2  C   UNL     1     162.639 177.414 188.220  1.00  0.00     0.006 C 
BRANCH   2   3
ATOM      3  C   UNL     1     163.767 177.112 187.225  1.00  0.00     0.053 C 
BRANCH   3   4
ATOM      4  C   UNL     1     164.063 178.317 186.390  1.00  0.00     0.041 C 
ATOM      5  O   UNL     1     164.491 179.372 186.927  1.00  0.00    -0.550 OA
ATOM      6  O   UNL     1     163.912 178.260 185.010  1.00  0.00    -0.550 OA
ENDBRANCH   3   4
ENDBRANCH   2   3
ENDBRANCH   1   2
BRANCH   1   7
ATOM      7  C   UNL     1     160.515 178.334 187.132  1.00  0.00     0.000 C 
BRANCH   7   8
ATOM      8  C   UNL     1     160.273 178.232 185.619  1.00  0.00    -0.000 C 
BRANCH   8   9
ATOM      9  C   UNL     1     160.669 176.862 185.048  1.00  0.00    -0.003 C 
ATOM     10  C   UNL     1     160.776 176.863 183.524  1.00  0.00     0.004 C 
ENDBRANCH   8   9
ENDBRANCH   7   8
ENDBRANCH   1   7
TORSDOF 6
ENDMDL
MODEL 3
REMARK VINA RESULT:    -3.370      1.818      3.387
REMARK INTER + INTRA:          -5.131
REMARK INTER:                  -4.509
REMARK INTRA:                  -0.622
REMARK UNBOUND:                -0.578
REMARK SMILES CCCCCCCC(=O)[O-]
REMARK SMILES IDX 5 1 6 2 7 3 8 4 9 5 10 6 4 7 3 8 2 9 1 10
REMARK H PARENT
REMARK Flexibility Score: inf
ROOT
ATOM      1  C   UNL     1     163.590 176.182 187.048  1.00  0.00     0.000 C 
ENDROOT
BRANCH   1   2
ATOM      2  C   UNL     1     162.825 175.088 187.811  1.00  0.00     0.006 C 
BRANCH   2   3
ATOM      3  C   UNL     1     162.071 174.133 186.876  1.00  0.00     0.053 C 
BRANCH   3   4
ATOM      4  C   UNL     1     160.656 174.582 186.701  1.00  0.00     0.041 C 
ATOM      5  O   UNL     1     159.908 174.729 187.704  1.00  0.00    -0.550 OA
ATOM      6  O   UNL     1     160.174 174.885 185.433  1.00  0.00    -0.550 OA
ENDBRANCH   3   4
ENDBRANCH   2   3
ENDBRANCH   1   2
BRANCH   1   7
ATOM      7  C   UNL     1     163.120 177.598 187.413  1.00  0.00     0.000 C 
BRANCH   7   8
ATOM      8  C   UNL     1     161.930 177.548 188.384  1.00  0.00    -0.000 C 
BRANCH   8   9
ATOM      9  C   UNL     1     160.683 178.251 187.826  1.00  0.00    -0.003 C 
ATOM     10  C   UNL     1     160.627 178.235 186.299  1.00  0.00     0.004 C 
ENDBRANCH   8   9
ENDBRANCH   7   8
ENDBRANCH   1   7
TORSDOF 6
ENDMDL
MODEL 4
REMARK VINA RESULT:    -3.341      1.946      3.071
REMARK INTER + INTRA:          -5.091
REMARK INTER:                  -4.425
REMARK INTRA:                  -0.666
REMARK UNBOUND:                -0.578
REMARK SMILES CCCCCCCC(=O)[O-]
REMARK SMILES IDX 5 1 6 2 7 3 8 4 9 5 10 6 4 7 3 8 2 9 1 10
REMARK H PARENT
REMARK Flexibility Score: inf
ROOT
ATOM      1  C   UNL     1     160.698 174.638 186.201  1.00  0.00     0.000 C 
ENDROOT
BRANCH   1   2
ATOM      2  C   UNL     1     161.474 175.289 185.045  1.00  0.00     0.006 C 
BRANCH   2   3
ATOM      3  C   UNL     1     160.593 176.199 184.179  1.00  0.00     0.053 C 
BRANCH   3   4
ATOM      4  C   UNL     1     160.895 177.637 184.458  1.00  0.00     0.041 C 
ATOM      5  O   UNL     1     159.957 178.463 184.612  1.00  0.00    -0.550 OA
ATOM      6  O   UNL     1     162.212 178.056 184.597  1.00  0.00    -0.550 OA
ENDBRANCH   3   4
ENDBRANCH   2   3
ENDBRANCH   1   2
BRANCH   1   7
ATOM      7  C   UNL     1     160.851 175.406 187.523  1.00  0.00     0.000 C 
BRANCH   7   8
ATOM      8  C   UNL     1     162.267 175.983 187.661  1.00  0.00    -0.000 C 
BRANCH   8   9
ATOM      9  C   UNL     1     162.264 177.460 188.082  1.00  0.00    -0.003 C 
ATOM     10  C   UNL     1     160.861 178.063 188.118  1.00  0.00     0.004 C 
ENDBRANCH   8   9
ENDBRANCH   7   8
ENDBRANCH   1   7
TORSDOF 6
ENDMDL
MODEL 5
REMARK VINA RESULT:    -3.308      2.360      3.743
REMARK INTER + INTRA:          -5.047
REMARK INTER:                  -4.699
REMARK INTRA:                  -0.347
REMARK UNBOUND:                -0.578
REMARK SMILES CCCCCCCC(=O)[O-]
REMARK SMILES IDX 5 1 6 2 7 3 8 4 9 5 10 6 4 7 3 8 2 9 1 10
REMARK H PARENT
REMARK Flexibility Score: inf
ROOT
ATOM      1  C   UNL     1     160.890 177.334 187.721  1.00  0.00     0.000 C 
ENDROOT
BRANCH   1   2
ATOM      2  C   UNL     1     161.253 178.198 186.502  1.00  0.00     0.006 C 
BRANCH   2   3
ATOM      3  C   UNL     1     160.097 178.326 185.502  1.00  0.00     0.053 C 
BRANCH   3   4
ATOM      4  C   UNL     1     160.374 177.514 184.277  1.00  0.00     0.041 C 
ATOM      5  O   UNL     1     160.034 176.303 184.229  1.00  0.00    -0.550 OA
ATOM      6  O   UNL     1     160.966 178.107 183.169  1.00  0.00    -0.550 OA
ENDBRANCH   3   4
ENDBRANCH   2   3
ENDBRANCH   1   2
BRANCH   1   7
ATOM      7  C   UNL     1     161.384 175.886 187.588  1.00  0.00     0.000 C 
BRANCH   7   8
ATOM      8  C   UNL     1     160.211 174.896 187.667  1.00  0.00    -0.000 C 
BRANCH   8   9
ATOM      9  C   UNL     1     160.448 173.631 186.829  1.00  0.00    -0.003 C 
ATOM     10  C   UNL     1     160.643 172.381 187.687  1.00  0.00     0.004 C 
ENDBRANCH   8   9
ENDBRANCH   7   8
ENDBRANCH   1   7
TORSDOF 6
ENDMDL
MODEL 6
REMARK VINA RESULT:    -3.301      1.265      1.885
REMARK INTER + INTRA:          -5.037
REMARK INTER:                  -4.390
REMARK INTRA:                  -0.648
REMARK UNBOUND:                -0.578
REMARK SMILES CCCCCCCC(=O)[O-]
REMARK SMILES IDX 5 1 6 2 7 3 8 4 9 5 10 6 4 7 3 8 2 9 1 10
REMARK H PARENT
REMARK Flexibility Score: inf
ROOT
ATOM      1  C   UNL     1     160.734 177.386 187.481  1.00  0.00     0.000 C 
ENDROOT
BRANCH   1   2
ATOM      2  C   UNL     1     160.607 178.296 186.248  1.00  0.00     0.006 C 
BRANCH   2   3
ATOM      3  C   UNL     1     160.369 177.507 184.953  1.00  0.00     0.053 C 
BRANCH   3   4
ATOM      4  C   UNL     1     161.672 177.155 184.310  1.00  0.00     0.041 C 
ATOM      5  O   UNL     1     162.367 178.047 183.756  1.00  0.00    -0.550 OA
ATOM      6  O   UNL     1     162.143 175.849 184.363  1.00  0.00    -0.550 OA
ENDBRANCH   3   4
ENDBRANCH   2   3
ENDBRANCH   1   2
BRANCH   1   7
ATOM      7  C   UNL     1     162.041 177.618 188.255  1.00  0.00     0.000 C 
BRANCH   7   8
ATOM      8  C   UNL     1     163.131 176.637 187.797  1.00  0.00    -0.000 C 
BRANCH   8   9
ATOM      9  C   UNL     1     164.196 177.306 186.915  1.00  0.00    -0.003 C 
ATOM     10  C   UNL     1     164.164 178.831 187.004  1.00  0.00     0.004 C 
ENDBRANCH   8   9
ENDBRANCH   7   8
ENDBRANCH   1   7
TORSDOF 6
ENDMDL
MODEL 7
REMARK VINA RESULT:    -3.274      1.910      3.016
REMARK INTER + INTRA:          -5.001
REMARK INTER:                  -4.464
REMARK INTRA:                  -0.537
REMARK UNBOUND:                -0.578
REMARK SMILES CCCCCCCC(=O)[O-]
REMARK SMILES IDX 5 1 6 2 7 3 8 4 9 5 10 6 4 7 3 8 2 9 1 10
REMARK H PARENT
REMARK Flexibility Score: inf
ROOT
ATOM      1  C   UNL     1     161.338 178.072 185.875  1.00  0.00     0.000 C 
ENDROOT
BRANCH   1   2
ATOM      2  C   UNL     1     160.229 177.840 184.836  1.00  0.00     0.006 C 
BRANCH   2   3
ATOM      3  C   UNL     1     160.550 176.688 183.875  1.00  0.00     0.053 C 
BRANCH   3   4
ATOM      4  C   UNL     1     160.980 175.476 184.639  1.00  0.00     0.041 C 
ATOM      5  O   UNL     1     162.125 174.985 184.456  1.00  0.00    -0.550 OA
ATOM      6  O   UNL     1     160.134 174.917 185.588  1.00  0.00    -0.550 OA
ENDBRANCH   3   4
ENDBRANCH   2   3
ENDBRANCH   1   2
BRANCH   1   7
ATOM      7  C   UNL     1     160.792 178.207 187.304  1.00  0.00     0.000 C 
BRANCH   7   8
ATOM      8  C   UNL     1     161.699 177.482 188.309  1.00  0.00    -0.000 C 
BRANCH   8   9
ATOM      9  C   UNL     1     162.968 176.914 187.655  1.00  0.00    -0.003 C 
ATOM     10  C   UNL     1     163.090 175.399 187.817  1.00  0.00     0.004 C 
ENDBRANCH   8   9
ENDBRANCH   7   8
ENDBRANCH   1   7
TORSDOF 6
ENDMDL
MODEL 8
REMARK VINA RESULT:    -3.240      2.965      4.400
REMARK INTER + INTRA:          -4.955
REMARK INTER:                  -4.574
REMARK INTRA:                  -0.381
REMARK UNBOUND:                -0.578
REMARK SMILES CCCCCCCC(=O)[O-]
REMARK SMILES IDX 5 1 6 2 7 3 8 4 9 5 10 6 4 7 3 8 2 9 1 10
REMARK H PARENT
REMARK Flexibility Score: inf
ROOT
ATOM      1  C   UNL     1     161.310 177.194 187.885  1.00  0.00     0.000 C 
ENDROOT
BRANCH   1   2
ATOM      2  C   UNL     1     162.685 177.862 188.046  1.00  0.00     0.006 C 
BRANCH   2   3
ATOM      3  C   UNL     1     163.677 177.445 186.952  1.00  0.00     0.053 C 
BRANCH   3   4
ATOM      4  C   UNL     1     164.608 178.571 186.635  1.00  0.00     0.041 C 
ATOM      5  O   UNL     1     164.409 179.715 187.122  1.00  0.00    -0.550 OA
ATOM      6  O   UNL     1     165.724 178.346 185.838  1.00  0.00    -0.550 OA
ENDBRANCH   3   4
ENDBRANCH   2   3
ENDBRANCH   1   2
BRANCH   1   7
ATOM      7  C   UNL     1     160.911 177.006 186.414  1.00  0.00     0.000 C 
BRANCH   7   8
ATOM      8  C   UNL     1     160.551 175.540 186.127  1.00  0.00    -0.000 C 
BRANCH   8   9
ATOM      9  C   UNL     1     160.242 174.747 187.405  1.00  0.00    -0.003 C 
ATOM     10  C   UNL     1     161.004 173.424 187.479  1.00  0.00     0.004 C 
ENDBRANCH   8   9
ENDBRANCH   7   8
ENDBRANCH   1   7
TORSDOF 6
ENDMDL
MODEL 9
REMARK VINA RESULT:    -3.209      9.679     11.145
REMARK INTER + INTRA:          -4.913
REMARK INTER:                  -4.644
REMARK INTRA:                  -0.269
REMARK UNBOUND:                -0.578
REMARK SMILES CCCCCCCC(=O)[O-]
REMARK SMILES IDX 5 1 6 2 7 3 8 4 9 5 10 6 4 7 3 8 2 9 1 10
REMARK H PARENT
REMARK Flexibility Score: inf
ROOT
ATOM      1  C   UNL     1     173.410 178.874 187.841  1.00  0.00     0.000 C 
ENDROOT
BRANCH   1   2
ATOM      2  C   UNL     1     172.252 179.820 187.485  1.00  0.00     0.006 C 
BRANCH   2   3
ATOM      3  C   UNL     1     170.939 179.073 187.219  1.00  0.00     0.053 C 
BRANCH   3   4
ATOM      4  C   UNL     1     170.420 179.399 185.855  1.00  0.00     0.041 C 
ATOM      5  O   UNL     1     169.181 179.395 185.630  1.00  0.00    -0.550 OA
ATOM      6  O   UNL     1     171.303 179.756 184.843  1.00  0.00    -0.550 OA
ENDBRANCH   3   4
ENDBRANCH   2   3
ENDBRANCH   1   2
BRANCH   1   7
ATOM      7  C   UNL     1     174.717 179.624 188.141  1.00  0.00     0.000 C 
BRANCH   7   8
ATOM      8  C   UNL     1     175.510 179.882 186.852  1.00  0.00    -0.000 C 
BRANCH   8   9
ATOM      9  C   UNL     1     175.771 178.597 186.051  1.00  0.00    -0.003 C 
ATOM     10  C   UNL     1     176.807 177.688 186.712  1.00  0.00     0.004 C 
ENDBRANCH   8   9
ENDBRANCH   7   8
ENDBRANCH   1   7
TORSDOF 6
ENDMDL
