MODEL 1
REMARK VINA RESULT:    -7.284      0.000      0.000
REMARK INTER + INTRA:         -13.321
REMARK INTER:                 -11.968
REMARK INTRA:                  -1.353
REMARK UNBOUND:                -1.353
REMARK SMILES C[C@H]1O[C@H](OC[C@H]2O[C@H](Oc3c(-c4ccc(O)c(O)c4)oc4cc(O)cc(O)c4c3=O)[C@@H](O)[C@@H](O)[C@@H]2O)[C@@H](O)[C@H](O)[C@@H]1O
REMARK SMILES IDX 7 1 36 2 34 3 32 4 9 5 8 6 6 7 5 8 4 9 1 10 2 11 42 12 3 13
REMARK SMILES IDX 40 14 38 15 43 16 41 18 39 20 37 22 35 24 10 26 11 27 12 28
REMARK SMILES IDX 30 29 21 30 29 31 31 32 22 33 27 34 23 35 26 36 24 37 13 38
REMARK SMILES IDX 20 39 14 40 18 41 15 42 16 43 19 44 17 46 28 48 25 50 33 52
REMARK H PARENT 43 17 41 19 39 21 37 23 35 25 19 45 17 47 28 49 25 51 33 53
REMARK Flexibility Score: inf
ROOT
ATOM      1  C   UNL     1     -37.955   7.892  81.859  1.00  0.00     0.180 C 
ATOM      2  C   UNL     1     -38.143   7.703  83.377  1.00  0.00     0.177 C 
ATOM      3  C   UNL     1     -36.785   7.672  84.099  1.00  0.00     0.180 C 
ATOM      4  C   UNL     1     -35.972   6.460  83.540  1.00  0.00     0.214 C 
ATOM      5  C   UNL     1     -36.407   6.060  82.083  1.00  0.00     0.339 C 
ATOM      6  O   UNL     1     -36.793   7.203  81.330  1.00  0.00    -0.332 OA
ENDROOT
BRANCH   1   7
ATOM      7  C   UNL     1     -38.082   9.350  81.355  1.00  0.00     0.198 C 
BRANCH   7   8
ATOM      8  O   UNL     1     -39.333   9.473  80.611  1.00  0.00    -0.347 OA
BRANCH   8   9
ATOM      9  C   UNL     1     -39.310   9.168  79.210  1.00  0.00     0.281 C 
ATOM     10  C   UNL     1     -37.131  10.125  76.691  1.00  0.00     0.041 C 
ATOM     11  C   UNL     1     -37.824   8.886  77.316  1.00  0.00     0.150 C 
ATOM     12  C   UNL     1     -39.078   8.531  76.515  1.00  0.00     0.174 C 
ATOM     13  O   UNL     1     -37.980   9.050  78.722  1.00  0.00    -0.344 OA
ATOM     14  C   UNL     1     -39.863   7.490  77.290  1.00  0.00     0.179 C 
ATOM     15  C   UNL     1     -40.117   7.867  78.767  1.00  0.00     0.202 C 
BRANCH  12  16
ATOM     16  O   UNL     1     -38.820   8.060  75.212  1.00  0.00    -0.388 OA
ATOM     17  H   UNL     1     -37.889   7.708  75.188  1.00  0.00     0.211 HD
ENDBRANCH  12  16
BRANCH  14  18
ATOM     18  O   UNL     1     -39.197   6.245  77.187  1.00  0.00    -0.387 OA
ATOM     19  H   UNL     1     -38.244   6.341  77.492  1.00  0.00     0.211 HD
ENDBRANCH  14  18
BRANCH  15  20
ATOM     20  O   UNL     1     -41.490   7.982  78.947  1.00  0.00    -0.385 OA
ATOM     21  H   UNL     1     -41.884   8.437  78.150  1.00  0.00     0.211 HD
ENDBRANCH  15  20
ENDBRANCH   8   9
ENDBRANCH   7   8
ENDBRANCH   1   7
BRANCH   2  22
ATOM     22  O   UNL     1     -38.915   6.570  83.621  1.00  0.00    -0.387 OA
ATOM     23  H   UNL     1     -39.825   6.781  83.254  1.00  0.00     0.211 HD
ENDBRANCH   2  22
BRANCH   3  24
ATOM     24  O   UNL     1     -36.068   8.866  83.888  1.00  0.00    -0.387 OA
ATOM     25  H   UNL     1     -36.495   9.333  83.096  1.00  0.00     0.211 HD
ENDBRANCH   3  24
BRANCH   5  26
ATOM     26  O   UNL     1     -37.407   5.006  82.086  1.00  0.00    -0.454 OA
BRANCH  26  27
ATOM     27  C   UNL     1     -38.287   4.665  81.008  1.00  0.00     0.214 A 
ATOM     28  C   UNL     1     -37.763   4.496  79.703  1.00  0.00     0.180 A 
ATOM     29  C   UNL     1     -39.680   4.454  81.120  1.00  0.00     0.239 A 
ATOM     30  O   UNL     1     -38.445   3.927  78.744  1.00  0.00    -0.452 OA
ATOM     31  C   UNL     1     -40.403   3.857  80.047  1.00  0.00     0.111 A 
ATOM     32  O   UNL     1     -40.300   4.827  82.178  1.00  0.00    -0.285 OA
ATOM     33  C   UNL     1     -39.693   3.566  78.829  1.00  0.00     0.146 A 
ATOM     34  C   UNL     1     -41.740   3.464  80.166  1.00  0.00     0.134 A 
ATOM     35  C   UNL     1     -40.295   2.893  77.737  1.00  0.00     0.094 A 
ATOM     36  C   UNL     1     -42.345   2.884  79.048  1.00  0.00     0.093 A 
ATOM     37  C   UNL     1     -41.648   2.619  77.860  1.00  0.00     0.123 A 
BRANCH  28  38
ATOM     38  C   UNL     1     -36.431   4.911  79.366  1.00  0.00     0.025 A 
ATOM     39  C   UNL     1     -36.270   6.012  78.499  1.00  0.00     0.062 A 
ATOM     40  C   UNL     1     -35.307   4.168  79.785  1.00  0.00     0.016 A 
ATOM     41  C   UNL     1     -34.977   6.428  78.169  1.00  0.00     0.158 A 
ATOM     42  C   UNL     1     -34.020   4.671  79.531  1.00  0.00     0.051 A 
ATOM     43  C   UNL     1     -33.849   5.777  78.690  1.00  0.00     0.157 A 
BRANCH  41  44
ATOM     44  O   UNL     1     -34.747   7.538  77.345  1.00  0.00    -0.504 OA
ATOM     45  H   UNL     1     -33.837   8.046  77.329  1.00  0.00     0.293 HD
ENDBRANCH  41  44
BRANCH  43  46
ATOM     46  O   UNL     1     -32.558   6.281  78.445  1.00  0.00    -0.504 OA
ATOM     47  H   UNL     1     -31.841   5.685  78.046  1.00  0.00     0.293 HD
ENDBRANCH  43  46
ENDBRANCH  28  38
BRANCH  34  48
ATOM     48  O   UNL     1     -42.478   3.614  81.364  1.00  0.00    -0.507 OA
ATOM     49  H   UNL     1     -42.455   4.502  81.898  1.00  0.00     0.293 HD
ENDBRANCH  34  48
BRANCH  37  50
ATOM     50  O   UNL     1     -42.274   1.960  76.811  1.00  0.00    -0.508 OA
ATOM     51  H   UNL     1     -42.790   2.478  76.074  1.00  0.00     0.293 HD
ENDBRANCH  37  50
ENDBRANCH  26  27
ENDBRANCH   5  26
BRANCH   4  52
ATOM     52  O   UNL     1     -34.629   6.753  83.480  1.00  0.00    -0.384 OA
ATOM     53  H   UNL     1     -34.410   7.444  84.173  1.00  0.00     0.211 HD
ENDBRANCH   4  52
TORSDOF 16
ENDMDL
MODEL 2
REMARK VINA RESULT:    -7.028      1.553      6.645
REMARK INTER + INTRA:         -12.900
REMARK INTER:                 -10.919
REMARK INTRA:                  -1.982
REMARK UNBOUND:                -1.353
REMARK SMILES C[C@H]1O[C@H](OC[C@H]2O[C@H](Oc3c(-c4ccc(O)c(O)c4)oc4cc(O)cc(O)c4c3=O)[C@@H](O)[C@@H](O)[C@@H]2O)[C@@H](O)[C@H](O)[C@@H]1O
REMARK SMILES IDX 7 1 36 2 34 3 32 4 9 5 8 6 6 7 5 8 4 9 1 10 2 11 42 12 3 13
REMARK SMILES IDX 40 14 38 15 43 16 41 18 39 20 37 22 35 24 10 26 11 27 12 28
REMARK SMILES IDX 30 29 21 30 29 31 31 32 22 33 27 34 23 35 26 36 24 37 13 38
REMARK SMILES IDX 20 39 14 40 18 41 15 42 16 43 19 44 17 46 28 48 25 50 33 52
REMARK H PARENT 43 17 41 19 39 21 37 23 35 25 19 45 17 47 28 49 25 51 33 53
REMARK Flexibility Score: inf
ROOT
ATOM      1  C   UNL     1     -37.625   8.613  77.080  1.00  0.00     0.180 C 
ATOM      2  C   UNL     1     -38.612   8.010  76.061  1.00  0.00     0.177 C 
ATOM      3  C   UNL     1     -39.953   8.761  76.083  1.00  0.00     0.180 C 
ATOM      4  C   UNL     1     -40.562   8.616  77.516  1.00  0.00     0.214 C 
ATOM      5  C   UNL     1     -39.466   8.371  78.616  1.00  0.00     0.339 C 
ATOM      6  O   UNL     1     -38.262   9.061  78.305  1.00  0.00    -0.332 OA
ENDROOT
BRANCH   1   7
ATOM      7  C   UNL     1     -36.625   9.642  76.501  1.00  0.00     0.198 C 
BRANCH   7   8
ATOM      8  O   UNL     1     -35.551   9.837  77.472  1.00  0.00    -0.347 OA
BRANCH   8   9
ATOM      9  C   UNL     1     -35.107   8.694  78.216  1.00  0.00     0.281 C 
ATOM     10  C   UNL     1     -35.718   5.309  77.801  1.00  0.00     0.041 C 
ATOM     11  C   UNL     1     -34.577   6.338  78.010  1.00  0.00     0.150 C 
ATOM     12  C   UNL     1     -34.195   6.399  79.490  1.00  0.00     0.174 C 
ATOM     13  O   UNL     1     -34.887   7.573  77.371  1.00  0.00    -0.344 OA
ATOM     14  C   UNL     1     -33.269   7.583  79.698  1.00  0.00     0.179 C 
ATOM     15  C   UNL     1     -33.802   8.907  79.105  1.00  0.00     0.202 C 
BRANCH  12  16
ATOM     16  O   UNL     1     -33.587   5.227  79.980  1.00  0.00    -0.388 OA
ATOM     17  H   UNL     1     -32.669   5.171  79.600  1.00  0.00     0.211 HD
ENDBRANCH  12  16
BRANCH  14  18
ATOM     18  O   UNL     1     -31.994   7.263  79.172  1.00  0.00    -0.387 OA
ATOM     19  H   UNL     1     -31.653   8.027  78.615  1.00  0.00     0.211 HD
ENDBRANCH  14  18
BRANCH  15  20
ATOM     20  O   UNL     1     -33.990   9.797  80.156  1.00  0.00    -0.385 OA
ATOM     21  H   UNL     1     -33.994   9.288  81.015  1.00  0.00     0.211 HD
ENDBRANCH  15  20
ENDBRANCH   8   9
ENDBRANCH   7   8
ENDBRANCH   1   7
BRANCH   2  22
ATOM     22  O   UNL     1     -38.750   6.642  76.289  1.00  0.00    -0.387 OA
ATOM     23  H   UNL     1     -38.174   6.195  75.600  1.00  0.00     0.211 HD
ENDBRANCH   2  22
BRANCH   3  24
ATOM     24  O   UNL     1     -39.779  10.125  75.775  1.00  0.00    -0.387 OA
ATOM     25  H   UNL     1     -40.373  10.650  76.406  1.00  0.00     0.211 HD
ENDBRANCH   3  24
BRANCH   5  26
ATOM     26  O   UNL     1     -39.268   6.955  78.880  1.00  0.00    -0.454 OA
BRANCH  26  27
ATOM     27  C   UNL     1     -38.532   6.387  79.969  1.00  0.00     0.214 A 
ATOM     28  C   UNL     1     -38.576   4.988  80.189  1.00  0.00     0.180 A 
ATOM     29  C   UNL     1     -37.717   7.104  80.873  1.00  0.00     0.239 A 
ATOM     30  O   UNL     1     -37.729   4.377  80.976  1.00  0.00    -0.452 OA
ATOM     31  C   UNL     1     -36.824   6.410  81.739  1.00  0.00     0.111 A 
ATOM     32  O   UNL     1     -37.803   8.382  80.935  1.00  0.00    -0.285 OA
ATOM     33  C   UNL     1     -36.845   4.971  81.725  1.00  0.00     0.146 A 
ATOM     34  C   UNL     1     -35.872   7.069  82.524  1.00  0.00     0.134 A 
ATOM     35  C   UNL     1     -35.939   4.186  82.479  1.00  0.00     0.094 A 
ATOM     36  C   UNL     1     -35.045   6.283  83.332  1.00  0.00     0.093 A 
ATOM     37  C   UNL     1     -35.086   4.880  83.323  1.00  0.00     0.123 A 
BRANCH  28  38
ATOM     38  C   UNL     1     -39.538   4.151  79.529  1.00  0.00     0.025 A 
ATOM     39  C   UNL     1     -40.819   4.021  80.102  1.00  0.00     0.062 A 
ATOM     40  C   UNL     1     -39.181   3.375  78.406  1.00  0.00     0.016 A 
ATOM     41  C   UNL     1     -41.766   3.214  79.465  1.00  0.00     0.158 A 
ATOM     42  C   UNL     1     -40.179   2.660  77.723  1.00  0.00     0.051 A 
ATOM     43  C   UNL     1     -41.462   2.543  78.271  1.00  0.00     0.157 A 
BRANCH  41  44
ATOM     44  O   UNL     1     -43.069   3.073  79.961  1.00  0.00    -0.504 OA
ATOM     45  H   UNL     1     -43.910   3.361  79.416  1.00  0.00     0.293 HD
ENDBRANCH  41  44
BRANCH  43  46
ATOM     46  O   UNL     1     -42.459   1.832  77.579  1.00  0.00    -0.504 OA
ATOM     47  H   UNL     1     -43.278   1.486  78.069  1.00  0.00     0.293 HD
ENDBRANCH  43  46
ENDBRANCH  28  38
BRANCH  34  48
ATOM     48  O   UNL     1     -35.711   8.474  82.513  1.00  0.00    -0.507 OA
ATOM     49  H   UNL     1     -34.835   8.910  82.174  1.00  0.00     0.293 HD
ENDBRANCH  34  48
BRANCH  37  50
ATOM     50  O   UNL     1     -34.181   4.148  84.078  1.00  0.00    -0.508 OA
ATOM     51  H   UNL     1     -33.995   3.145  83.882  1.00  0.00     0.293 HD
ENDBRANCH  37  50
ENDBRANCH  26  27
ENDBRANCH   5  26
BRANCH   4  52
ATOM     52  O   UNL     1     -41.236   9.757  77.883  1.00  0.00    -0.384 OA
ATOM     53  H   UNL     1     -41.468   9.706  78.857  1.00  0.00     0.211 HD
ENDBRANCH   4  52
TORSDOF 16
ENDMDL
MODEL 3
REMARK VINA RESULT:    -6.606      9.914     14.038
REMARK INTER + INTRA:         -12.208
REMARK INTER:                 -11.446
REMARK INTRA:                  -0.762
REMARK UNBOUND:                -1.353
REMARK SMILES C[C@H]1O[C@H](OC[C@H]2O[C@H](Oc3c(-c4ccc(O)c(O)c4)oc4cc(O)cc(O)c4c3=O)[C@@H](O)[C@@H](O)[C@@H]2O)[C@@H](O)[C@H](O)[C@@H]1O
REMARK SMILES IDX 7 1 36 2 34 3 32 4 9 5 8 6 6 7 5 8 4 9 1 10 2 11 42 12 3 13
REMARK SMILES IDX 40 14 38 15 43 16 41 18 39 20 37 22 35 24 10 26 11 27 12 28
REMARK SMILES IDX 30 29 21 30 29 31 31 32 22 33 27 34 23 35 26 36 24 37 13 38
REMARK SMILES IDX 20 39 14 40 18 41 15 42 16 43 19 44 17 46 28 48 25 50 33 52
REMARK H PARENT 43 17 41 19 39 21 37 23 35 25 19 45 17 47 28 49 25 51 33 53
REMARK Flexibility Score: inf
ROOT
ATOM      1  C   UNL     1     -44.226  -6.364  80.130  1.00  0.00     0.180 C 
ATOM      2  C   UNL     1     -43.601  -7.671  79.605  1.00  0.00     0.177 C 
ATOM      3  C   UNL     1     -43.577  -8.748  80.702  1.00  0.00     0.180 C 
ATOM      4  C   UNL     1     -42.701  -8.212  81.882  1.00  0.00     0.214 C 
ATOM      5  C   UNL     1     -42.657  -6.642  81.937  1.00  0.00     0.339 C 
ATOM      6  O   UNL     1     -43.891  -6.078  81.513  1.00  0.00    -0.332 OA
ENDROOT
BRANCH   1   7
ATOM      7  C   UNL     1     -45.730  -6.179  79.816  1.00  0.00     0.198 C 
BRANCH   7   8
ATOM      8  O   UNL     1     -45.882  -4.994  78.973  1.00  0.00    -0.347 OA
BRANCH   8   9
ATOM      9  C   UNL     1     -45.724  -5.158  77.557  1.00  0.00     0.281 C 
ATOM     10  C   UNL     1     -48.045  -5.653  75.033  1.00  0.00     0.041 C 
ATOM     11  C   UNL     1     -46.825  -4.782  75.432  1.00  0.00     0.150 C 
ATOM     12  C   UNL     1     -45.554  -5.340  74.789  1.00  0.00     0.174 C 
ATOM     13  O   UNL     1     -46.798  -4.566  76.839  1.00  0.00    -0.344 OA
ATOM     14  C   UNL     1     -44.359  -4.629  75.397  1.00  0.00     0.179 C 
ATOM     15  C   UNL     1     -44.358  -4.613  76.943  1.00  0.00     0.202 C 
BRANCH  12  16
ATOM     16  O   UNL     1     -45.514  -5.223  73.386  1.00  0.00    -0.388 OA
ATOM     17  H   UNL     1     -44.740  -5.753  73.052  1.00  0.00     0.211 HD
ENDBRANCH  12  16
BRANCH  14  18
ATOM     18  O   UNL     1     -44.293  -3.316  74.872  1.00  0.00    -0.387 OA
ATOM     19  H   UNL     1     -43.537  -2.813  75.303  1.00  0.00     0.211 HD
ENDBRANCH  14  18
BRANCH  15  20
ATOM     20  O   UNL     1     -43.240  -5.317  77.374  1.00  0.00    -0.385 OA
ATOM     21  H   UNL     1     -43.373  -6.288  77.179  1.00  0.00     0.211 HD
ENDBRANCH  15  20
ENDBRANCH   8   9
ENDBRANCH   7   8
ENDBRANCH   1   7
BRANCH   2  22
ATOM     22  O   UNL     1     -42.341  -7.411  79.069  1.00  0.00    -0.387 OA
ATOM     23  H   UNL     1     -42.510  -7.076  78.138  1.00  0.00     0.211 HD
ENDBRANCH   2  22
BRANCH   3  24
ATOM     24  O   UNL     1     -44.876  -9.035  81.164  1.00  0.00    -0.387 OA
ATOM     25  H   UNL     1     -44.938  -8.683  82.113  1.00  0.00     0.211 HD
ENDBRANCH   3  24
BRANCH   5  26
ATOM     26  O   UNL     1     -41.505  -6.106  81.231  1.00  0.00    -0.454 OA
BRANCH  26  27
ATOM     27  C   UNL     1     -40.130  -6.407  81.496  1.00  0.00     0.214 A 
ATOM     28  C   UNL     1     -39.350  -5.502  82.258  1.00  0.00     0.180 A 
ATOM     29  C   UNL     1     -39.446  -7.568  81.073  1.00  0.00     0.239 A 
ATOM     30  O   UNL     1     -38.191  -5.833  82.765  1.00  0.00    -0.452 OA
ATOM     31  C   UNL     1     -38.170  -7.889  81.621  1.00  0.00     0.111 A 
ATOM     32  O   UNL     1     -39.962  -8.321  80.173  1.00  0.00    -0.285 OA
ATOM     33  C   UNL     1     -37.570  -6.955  82.538  1.00  0.00     0.146 A 
ATOM     34  C   UNL     1     -37.529  -9.108  81.375  1.00  0.00     0.134 A 
ATOM     35  C   UNL     1     -36.349  -7.218  83.206  1.00  0.00     0.094 A 
ATOM     36  C   UNL     1     -36.282  -9.313  81.970  1.00  0.00     0.093 A 
ATOM     37  C   UNL     1     -35.699  -8.389  82.850  1.00  0.00     0.123 A 
BRANCH  28  38
ATOM     38  C   UNL     1     -39.808  -4.173  82.551  1.00  0.00     0.025 A 
ATOM     39  C   UNL     1     -38.903  -3.266  83.139  1.00  0.00     0.062 A 
ATOM     40  C   UNL     1     -41.161  -3.812  82.376  1.00  0.00     0.016 A 
ATOM     41  C   UNL     1     -39.336  -1.968  83.424  1.00  0.00     0.158 A 
ATOM     42  C   UNL     1     -41.542  -2.473  82.565  1.00  0.00     0.051 A 
ATOM     43  C   UNL     1     -40.644  -1.558  83.127  1.00  0.00     0.157 A 
BRANCH  41  44
ATOM     44  O   UNL     1     -38.476  -1.006  83.972  1.00  0.00    -0.504 OA
ATOM     45  H   UNL     1     -38.623  -0.598  84.920  1.00  0.00     0.293 HD
ENDBRANCH  41  44
BRANCH  43  46
ATOM     46  O   UNL     1     -41.030  -0.217  83.308  1.00  0.00    -0.504 OA
ATOM     47  H   UNL     1     -41.976   0.080  83.094  1.00  0.00     0.293 HD
ENDBRANCH  43  46
ENDBRANCH  28  38
BRANCH  34  48
ATOM     48  O   UNL     1     -38.101 -10.124  80.574  1.00  0.00    -0.507 OA
ATOM     49  H   UNL     1     -38.378  -9.939  79.594  1.00  0.00     0.293 HD
ENDBRANCH  34  48
BRANCH  37  50
ATOM     50  O   UNL     1     -34.499  -8.683  83.483  1.00  0.00    -0.508 OA
ATOM     51  H   UNL     1     -34.464  -9.289  84.325  1.00  0.00     0.293 HD
ENDBRANCH  37  50
ENDBRANCH  26  27
ENDBRANCH   5  26
BRANCH   4  52
ATOM     52  O   UNL     1     -43.197  -8.633  83.094  1.00  0.00    -0.384 OA
ATOM     53  H   UNL     1     -43.796  -9.423  82.950  1.00  0.00     0.211 HD
ENDBRANCH   4  52
TORSDOF 16
ENDMDL
MODEL 4
REMARK VINA RESULT:    -6.453      2.801      5.065
REMARK INTER + INTRA:         -11.956
REMARK INTER:                  -9.902
REMARK INTRA:                  -2.054
REMARK UNBOUND:                -1.353
REMARK SMILES C[C@H]1O[C@H](OC[C@H]2O[C@H](Oc3c(-c4ccc(O)c(O)c4)oc4cc(O)cc(O)c4c3=O)[C@@H](O)[C@@H](O)[C@@H]2O)[C@@H](O)[C@H](O)[C@@H]1O
REMARK SMILES IDX 7 1 36 2 34 3 32 4 9 5 8 6 6 7 5 8 4 9 1 10 2 11 42 12 3 13
REMARK SMILES IDX 40 14 38 15 43 16 41 18 39 20 37 22 35 24 10 26 11 27 12 28
REMARK SMILES IDX 30 29 21 30 29 31 31 32 22 33 27 34 23 35 26 36 24 37 13 38
REMARK SMILES IDX 20 39 14 40 18 41 15 42 16 43 19 44 17 46 28 48 25 50 33 52
REMARK H PARENT 43 17 41 19 39 21 37 23 35 25 19 45 17 47 28 49 25 51 33 53
REMARK Flexibility Score: inf
ROOT
ATOM      1  C   UNL     1     -35.238   6.930  83.280  1.00  0.00     0.180 C 
ATOM      2  C   UNL     1     -36.074   5.948  84.124  1.00  0.00     0.177 C 
ATOM      3  C   UNL     1     -35.672   4.493  83.832  1.00  0.00     0.180 C 
ATOM      4  C   UNL     1     -35.949   4.214  82.318  1.00  0.00     0.214 C 
ATOM      5  C   UNL     1     -35.909   5.521  81.445  1.00  0.00     0.339 C 
ATOM      6  O   UNL     1     -34.948   6.442  81.944  1.00  0.00    -0.332 OA
ENDROOT
BRANCH   1   7
ATOM      7  C   UNL     1     -34.001   7.527  83.994  1.00  0.00     0.198 C 
BRANCH   7   8
ATOM      8  O   UNL     1     -33.860   8.922  83.582  1.00  0.00    -0.347 OA
BRANCH   8   9
ATOM      9  C   UNL     1     -32.657   9.299  82.899  1.00  0.00     0.281 C 
ATOM     10  C   UNL     1     -29.436   9.836  84.056  1.00  0.00     0.041 C 
ATOM     11  C   UNL     1     -30.245   9.082  82.968  1.00  0.00     0.150 C 
ATOM     12  C   UNL     1     -30.237   9.883  81.665  1.00  0.00     0.174 C 
ATOM     13  O   UNL     1     -31.514   8.679  83.472  1.00  0.00    -0.344 OA
ATOM     14  C   UNL     1     -31.236   9.256  80.711  1.00  0.00     0.179 C 
ATOM     15  C   UNL     1     -32.634   9.026  81.329  1.00  0.00     0.202 C 
BRANCH  12  16
ATOM     16  O   UNL     1     -28.975   9.969  81.044  1.00  0.00    -0.388 OA
ATOM     17  H   UNL     1     -28.960   9.329  80.282  1.00  0.00     0.211 HD
ENDBRANCH  12  16
BRANCH  14  18
ATOM     18  O   UNL     1     -30.694   8.048  80.210  1.00  0.00    -0.387 OA
ATOM     19  H   UNL     1     -31.028   7.883  79.277  1.00  0.00     0.211 HD
ENDBRANCH  14  18
BRANCH  15  20
ATOM     20  O   UNL     1     -33.544   9.802  80.621  1.00  0.00    -0.385 OA
ATOM     21  H   UNL     1     -34.404   9.836  81.127  1.00  0.00     0.211 HD
ENDBRANCH  15  20
ENDBRANCH   8   9
ENDBRANCH   7   8
ENDBRANCH   1   7
BRANCH   2  22
ATOM     22  O   UNL     1     -37.431   6.189  83.925  1.00  0.00    -0.387 OA
ATOM     23  H   UNL     1     -37.508   6.532  82.985  1.00  0.00     0.211 HD
ENDBRANCH   2  22
BRANCH   3  24
ATOM     24  O   UNL     1     -34.311   4.272  84.116  1.00  0.00    -0.387 OA
ATOM     25  H   UNL     1     -34.093   3.330  83.813  1.00  0.00     0.211 HD
ENDBRANCH   3  24
BRANCH   5  26
ATOM     26  O   UNL     1     -37.230   6.100  81.274  1.00  0.00    -0.454 OA
BRANCH  26  27
ATOM     27  C   UNL     1     -38.267   5.615  80.413  1.00  0.00     0.214 A 
ATOM     28  C   UNL     1     -38.138   5.763  79.010  1.00  0.00     0.180 A 
ATOM     29  C   UNL     1     -39.446   4.961  80.833  1.00  0.00     0.239 A 
ATOM     30  O   UNL     1     -38.895   5.113  78.165  1.00  0.00    -0.452 OA
ATOM     31  C   UNL     1     -40.268   4.284  79.886  1.00  0.00     0.111 A 
ATOM     32  O   UNL     1     -39.794   5.001  82.067  1.00  0.00    -0.285 OA
ATOM     33  C   UNL     1     -39.909   4.367  78.494  1.00  0.00     0.146 A 
ATOM     34  C   UNL     1     -41.344   3.475  80.264  1.00  0.00     0.134 A 
ATOM     35  C   UNL     1     -40.605   3.660  77.483  1.00  0.00     0.094 A 
ATOM     36  C   UNL     1     -42.076   2.857  79.247  1.00  0.00     0.093 A 
ATOM     37  C   UNL     1     -41.728   2.957  77.892  1.00  0.00     0.123 A 
BRANCH  28  38
ATOM     38  C   UNL     1     -37.137   6.615  78.431  1.00  0.00     0.025 A 
ATOM     39  C   UNL     1     -37.509   7.917  78.038  1.00  0.00     0.062 A 
ATOM     40  C   UNL     1     -35.843   6.129  78.141  1.00  0.00     0.016 A 
ATOM     41  C   UNL     1     -36.542   8.756  77.479  1.00  0.00     0.158 A 
ATOM     42  C   UNL     1     -34.863   7.025  77.683  1.00  0.00     0.051 A 
ATOM     43  C   UNL     1     -35.217   8.327  77.312  1.00  0.00     0.157 A 
BRANCH  41  44
ATOM     44  O   UNL     1     -36.836  10.075  77.104  1.00  0.00    -0.504 OA
ATOM     45  H   UNL     1     -36.166  10.861  77.244  1.00  0.00     0.293 HD
ENDBRANCH  41  44
BRANCH  43  46
ATOM     46  O   UNL     1     -34.229   9.221  76.859  1.00  0.00    -0.504 OA
ATOM     47  H   UNL     1     -33.499   8.906  76.229  1.00  0.00     0.293 HD
ENDBRANCH  43  46
ENDBRANCH  28  38
BRANCH  34  48
ATOM     48  O   UNL     1     -41.696   3.253  81.617  1.00  0.00    -0.507 OA
ATOM     49  H   UNL     1     -41.339   2.431  82.134  1.00  0.00     0.293 HD
ENDBRANCH  34  48
BRANCH  37  50
ATOM     50  O   UNL     1     -42.436   2.250  76.931  1.00  0.00    -0.508 OA
ATOM     51  H   UNL     1     -41.965   1.834  76.105  1.00  0.00     0.293 HD
ENDBRANCH  37  50
ENDBRANCH  26  27
ENDBRANCH   5  26
BRANCH   4  52
ATOM     52  O   UNL     1     -35.004   3.363  81.793  1.00  0.00    -0.384 OA
ATOM     53  H   UNL     1     -35.043   3.403  80.793  1.00  0.00     0.211 HD
ENDBRANCH   4  52
TORSDOF 16
ENDMDL
MODEL 5
REMARK VINA RESULT:    -6.428      1.817      4.113
REMARK INTER + INTRA:         -11.916
REMARK INTER:                  -9.797
REMARK INTRA:                  -2.118
REMARK UNBOUND:                -1.353
REMARK SMILES C[C@H]1O[C@H](OC[C@H]2O[C@H](Oc3c(-c4ccc(O)c(O)c4)oc4cc(O)cc(O)c4c3=O)[C@@H](O)[C@@H](O)[C@@H]2O)[C@@H](O)[C@H](O)[C@@H]1O
REMARK SMILES IDX 7 1 36 2 34 3 32 4 9 5 8 6 6 7 5 8 4 9 1 10 2 11 42 12 3 13
REMARK SMILES IDX 40 14 38 15 43 16 41 18 39 20 37 22 35 24 10 26 11 27 12 28
REMARK SMILES IDX 30 29 21 30 29 31 31 32 22 33 27 34 23 35 26 36 24 37 13 38
REMARK SMILES IDX 20 39 14 40 18 41 15 42 16 43 19 44 17 46 28 48 25 50 33 52
REMARK H PARENT 43 17 41 19 39 21 37 23 35 25 19 45 17 47 28 49 25 51 33 53
REMARK Flexibility Score: inf
ROOT
ATOM      1  C   UNL     1     -35.620   8.277  78.152  1.00  0.00     0.180 C 
ATOM      2  C   UNL     1     -34.656   8.511  79.331  1.00  0.00     0.177 C 
ATOM      3  C   UNL     1     -33.538   7.455  79.346  1.00  0.00     0.180 C 
ATOM      4  C   UNL     1     -34.205   6.052  79.515  1.00  0.00     0.214 C 
ATOM      5  C   UNL     1     -35.687   6.019  78.990  1.00  0.00     0.339 C 
ATOM      6  O   UNL     1     -35.852   6.873  77.866  1.00  0.00    -0.332 OA
ENDROOT
BRANCH   1   7
ATOM      7  C   UNL     1     -35.329   9.118  76.885  1.00  0.00     0.198 C 
BRANCH   7   8
ATOM      8  O   UNL     1     -36.571   9.767  76.469  1.00  0.00    -0.347 OA
BRANCH   8   9
ATOM      9  C   UNL     1     -37.801   9.264  77.007  1.00  0.00     0.281 C 
ATOM     10  C   UNL     1     -39.128   9.394  80.205  1.00  0.00     0.041 C 
ATOM     11  C   UNL     1     -39.471   9.663  78.717  1.00  0.00     0.150 C 
ATOM     12  C   UNL     1     -40.214   8.463  78.128  1.00  0.00     0.174 C 
ATOM     13  O   UNL     1     -38.324  10.125  78.009  1.00  0.00    -0.344 OA
ATOM     14  C   UNL     1     -40.307   8.647  76.625  1.00  0.00     0.179 C 
ATOM     15  C   UNL     1     -38.957   8.976  75.949  1.00  0.00     0.202 C 
BRANCH  12  16
ATOM     16  O   UNL     1     -41.501   8.258  78.663  1.00  0.00    -0.388 OA
ATOM     17  H   UNL     1     -41.441   7.543  79.354  1.00  0.00     0.211 HD
ENDBRANCH  12  16
BRANCH  14  18
ATOM     18  O   UNL     1     -41.275   9.642  76.346  1.00  0.00    -0.387 OA
ATOM     19  H   UNL     1     -41.457   9.674  75.358  1.00  0.00     0.211 HD
ENDBRANCH  14  18
BRANCH  15  20
ATOM     20  O   UNL     1     -38.657   7.939  75.073  1.00  0.00    -0.385 OA
ATOM     21  H   UNL     1     -37.689   7.987  74.832  1.00  0.00     0.211 HD
ENDBRANCH  15  20
ENDBRANCH   8   9
ENDBRANCH   7   8
ENDBRANCH   1   7
BRANCH   2  22
ATOM     22  O   UNL     1     -35.373   8.561  80.525  1.00  0.00    -0.387 OA
ATOM     23  H   UNL     1     -35.320   9.516  80.830  1.00  0.00     0.211 HD
ENDBRANCH   2  22
BRANCH   3  24
ATOM     24  O   UNL     1     -32.790   7.488  78.152  1.00  0.00    -0.387 OA
ATOM     25  H   UNL     1     -32.051   8.168  78.284  1.00  0.00     0.211 HD
ENDBRANCH   3  24
BRANCH   5  26
ATOM     26  O   UNL     1     -36.644   6.272  80.053  1.00  0.00    -0.454 OA
BRANCH  26  27
ATOM     27  C   UNL     1     -37.541   5.319  80.636  1.00  0.00     0.214 A 
ATOM     28  C   UNL     1     -37.195   4.687  81.856  1.00  0.00     0.180 A 
ATOM     29  C   UNL     1     -38.795   4.941  80.108  1.00  0.00     0.239 A 
ATOM     30  O   UNL     1     -38.066   4.029  82.574  1.00  0.00    -0.452 OA
ATOM     31  C   UNL     1     -39.714   4.199  80.903  1.00  0.00     0.111 A 
ATOM     32  O   UNL     1     -39.096   5.242  78.898  1.00  0.00    -0.285 OA
ATOM     33  C   UNL     1     -39.291   3.774  82.212  1.00  0.00     0.146 A 
ATOM     34  C   UNL     1     -41.031   3.950  80.501  1.00  0.00     0.134 A 
ATOM     35  C   UNL     1     -40.156   3.110  83.117  1.00  0.00     0.094 A 
ATOM     36  C   UNL     1     -41.843   3.215  81.367  1.00  0.00     0.093 A 
ATOM     37  C   UNL     1     -41.415   2.791  82.635  1.00  0.00     0.123 A 
BRANCH  28  38
ATOM     38  C   UNL     1     -35.866   4.765  82.394  1.00  0.00     0.025 A 
ATOM     39  C   UNL     1     -35.446   5.981  82.970  1.00  0.00     0.062 A 
ATOM     40  C   UNL     1     -34.954   3.699  82.243  1.00  0.00     0.016 A 
ATOM     41  C   UNL     1     -34.157   6.067  83.503  1.00  0.00     0.158 A 
ATOM     42  C   UNL     1     -33.705   3.771  82.884  1.00  0.00     0.051 A 
ATOM     43  C   UNL     1     -33.287   4.967  83.479  1.00  0.00     0.157 A 
BRANCH  41  44
ATOM     44  O   UNL     1     -33.691   7.234  84.125  1.00  0.00    -0.504 OA
ATOM     45  H   UNL     1     -34.200   7.692  84.911  1.00  0.00     0.293 HD
ENDBRANCH  41  44
BRANCH  43  46
ATOM     46  O   UNL     1     -32.038   5.030  84.125  1.00  0.00    -0.504 OA
ATOM     47  H   UNL     1     -31.772   4.323  84.801  1.00  0.00     0.293 HD
ENDBRANCH  43  46
ENDBRANCH  28  38
BRANCH  34  48
ATOM     48  O   UNL     1     -41.559   4.427  79.278  1.00  0.00    -0.507 OA
ATOM     49  H   UNL     1     -42.579   4.541  79.145  1.00  0.00     0.293 HD
ENDBRANCH  34  48
BRANCH  37  50
ATOM     50  O   UNL     1     -42.293   2.141  83.490  1.00  0.00    -0.508 OA
ATOM     51  H   UNL     1     -43.212   2.553  83.742  1.00  0.00     0.293 HD
ENDBRANCH  37  50
ENDBRANCH  26  27
ENDBRANCH   5  26
BRANCH   4  52
ATOM     52  O   UNL     1     -33.518   5.091  78.808  1.00  0.00    -0.384 OA
ATOM     53  H   UNL     1     -33.825   5.101  77.854  1.00  0.00     0.211 HD
ENDBRANCH   4  52
TORSDOF 16
ENDMDL
MODEL 6
REMARK VINA RESULT:    -5.811      1.799      5.254
REMARK INTER + INTRA:         -10.901
REMARK INTER:                  -9.240
REMARK INTRA:                  -1.661
REMARK UNBOUND:                -1.353
REMARK SMILES C[C@H]1O[C@H](OC[C@H]2O[C@H](Oc3c(-c4ccc(O)c(O)c4)oc4cc(O)cc(O)c4c3=O)[C@@H](O)[C@@H](O)[C@@H]2O)[C@@H](O)[C@H](O)[C@@H]1O
REMARK SMILES IDX 7 1 36 2 34 3 32 4 9 5 8 6 6 7 5 8 4 9 1 10 2 11 42 12 3 13
REMARK SMILES IDX 40 14 38 15 43 16 41 18 39 20 37 22 35 24 10 26 11 27 12 28
REMARK SMILES IDX 30 29 21 30 29 31 31 32 22 33 27 34 23 35 26 36 24 37 13 38
REMARK SMILES IDX 20 39 14 40 18 41 15 42 16 43 19 44 17 46 28 48 25 50 33 52
REMARK H PARENT 43 17 41 19 39 21 37 23 35 25 19 45 17 47 28 49 25 51 33 53
REMARK Flexibility Score: inf
ROOT
ATOM      1  C   UNL     1     -36.706   5.318  81.217  1.00  0.00     0.180 C 
ATOM      2  C   UNL     1     -35.762   5.926  82.272  1.00  0.00     0.177 C 
ATOM      3  C   UNL     1     -36.502   6.171  83.597  1.00  0.00     0.180 C 
ATOM      4  C   UNL     1     -37.662   7.182  83.320  1.00  0.00     0.214 C 
ATOM      5  C   UNL     1     -38.147   7.151  81.825  1.00  0.00     0.339 C 
ATOM      6  O   UNL     1     -38.059   5.839  81.284  1.00  0.00    -0.332 OA
ENDROOT
BRANCH   1   7
ATOM      7  C   UNL     1     -36.652   3.776  81.093  1.00  0.00     0.198 C 
BRANCH   7   8
ATOM      8  O   UNL     1     -37.055   3.408  79.738  1.00  0.00    -0.347 OA
BRANCH   8   9
ATOM      9  C   UNL     1     -38.425   3.043  79.523  1.00  0.00     0.281 C 
ATOM     10  C   UNL     1     -41.300   3.777  81.312  1.00  0.00     0.041 C 
ATOM     11  C   UNL     1     -40.703   3.786  79.881  1.00  0.00     0.150 C 
ATOM     12  C   UNL     1     -41.126   2.521  79.132  1.00  0.00     0.174 C 
ATOM     13  O   UNL     1     -39.311   4.083  79.916  1.00  0.00    -0.344 OA
ATOM     14  C   UNL     1     -40.328   2.438  77.844  1.00  0.00     0.179 C 
ATOM     15  C   UNL     1     -38.804   2.604  78.039  1.00  0.00     0.202 C 
BRANCH  12  16
ATOM     16  O   UNL     1     -42.503   2.451  78.844  1.00  0.00    -0.388 OA
ATOM     17  H   UNL     1     -42.951   3.229  79.274  1.00  0.00     0.211 HD
ENDBRANCH  12  16
BRANCH  14  18
ATOM     18  O   UNL     1     -40.834   3.394  76.930  1.00  0.00    -0.387 OA
ATOM     19  H   UNL     1     -41.818   3.245  76.790  1.00  0.00     0.211 HD
ENDBRANCH  14  18
BRANCH  15  20
ATOM     20  O   UNL     1     -38.193   1.420  77.641  1.00  0.00    -0.385 OA
ATOM     21  H   UNL     1     -38.863   0.855  77.163  1.00  0.00     0.211 HD
ENDBRANCH  15  20
ENDBRANCH   8   9
ENDBRANCH   7   8
ENDBRANCH   1   7
BRANCH   2  22
ATOM     22  O   UNL     1     -35.162   7.077  81.763  1.00  0.00    -0.387 OA
ATOM     23  H   UNL     1     -35.512   7.832  82.323  1.00  0.00     0.211 HD
ENDBRANCH   2  22
BRANCH   3  24
ATOM     24  O   UNL     1     -37.029   4.971  84.116  1.00  0.00    -0.387 OA
ATOM     25  H   UNL     1     -36.649   4.215  83.558  1.00  0.00     0.211 HD
ENDBRANCH   3  24
BRANCH   5  26
ATOM     26  O   UNL     1     -37.477   8.155  81.016  1.00  0.00    -0.454 OA
BRANCH  26  27
ATOM     27  C   UNL     1     -37.942   8.698  79.775  1.00  0.00     0.214 A 
ATOM     28  C   UNL     1     -37.097   8.673  78.639  1.00  0.00     0.180 A 
ATOM     29  C   UNL     1     -39.218   9.262  79.552  1.00  0.00     0.239 A 
ATOM     30  O   UNL     1     -37.543   8.892  77.429  1.00  0.00    -0.452 OA
ATOM     31  C   UNL     1     -39.667   9.518  78.224  1.00  0.00     0.111 A 
ATOM     32  O   UNL     1     -39.962   9.574  80.549  1.00  0.00    -0.285 OA
ATOM     33  C   UNL     1     -38.755   9.269  77.139  1.00  0.00     0.146 A 
ATOM     34  C   UNL     1     -40.979   9.908  77.934  1.00  0.00     0.134 A 
ATOM     35  C   UNL     1     -39.130   9.405  75.780  1.00  0.00     0.094 A 
ATOM     36  C   UNL     1     -41.307  10.125  76.594  1.00  0.00     0.093 A 
ATOM     37  C   UNL     1     -40.405   9.895  75.544  1.00  0.00     0.123 A 
BRANCH  28  38
ATOM     38  C   UNL     1     -35.698   8.367  78.747  1.00  0.00     0.025 A 
ATOM     39  C   UNL     1     -34.817   9.392  79.148  1.00  0.00     0.062 A 
ATOM     40  C   UNL     1     -35.191   7.113  78.343  1.00  0.00     0.016 A 
ATOM     41  C   UNL     1     -33.454   9.105  79.263  1.00  0.00     0.158 A 
ATOM     42  C   UNL     1     -33.837   6.817  78.572  1.00  0.00     0.051 A 
ATOM     43  C   UNL     1     -32.957   7.821  78.993  1.00  0.00     0.157 A 
BRANCH  41  44
ATOM     44  O   UNL     1     -32.530  10.067  79.694  1.00  0.00    -0.504 OA
ATOM     45  H   UNL     1     -32.781  11.072  79.811  1.00  0.00     0.293 HD
ENDBRANCH  41  44
BRANCH  43  46
ATOM     46  O   UNL     1     -31.604   7.516  79.227  1.00  0.00    -0.504 OA
ATOM     47  H   UNL     1     -31.019   7.160  78.478  1.00  0.00     0.293 HD
ENDBRANCH  43  46
ENDBRANCH  28  38
BRANCH  34  48
ATOM     48  O   UNL     1     -41.968  10.068  78.934  1.00  0.00    -0.507 OA
ATOM     49  H   UNL     1     -41.754   9.886  79.930  1.00  0.00     0.293 HD
ENDBRANCH  34  48
BRANCH  37  50
ATOM     50  O   UNL     1     -40.811  10.041  74.225  1.00  0.00    -0.508 OA
ATOM     51  H   UNL     1     -40.238   9.682  73.437  1.00  0.00     0.293 HD
ENDBRANCH  37  50
ENDBRANCH  26  27
ENDBRANCH   5  26
BRANCH   4  52
ATOM     52  O   UNL     1     -38.762   6.895  84.094  1.00  0.00    -0.384 OA
ATOM     53  H   UNL     1     -38.805   5.907  84.255  1.00  0.00     0.211 HD
ENDBRANCH   4  52
TORSDOF 16
ENDMDL
MODEL 7
REMARK VINA RESULT:    -5.482      1.444      2.162
REMARK INTER + INTRA:         -10.361
REMARK INTER:                 -11.604
REMARK INTRA:                   1.243
REMARK UNBOUND:                -1.353
REMARK SMILES C[C@H]1O[C@H](OC[C@H]2O[C@H](Oc3c(-c4ccc(O)c(O)c4)oc4cc(O)cc(O)c4c3=O)[C@@H](O)[C@@H](O)[C@@H]2O)[C@@H](O)[C@H](O)[C@@H]1O
REMARK SMILES IDX 7 1 36 2 34 3 32 4 9 5 8 6 6 7 5 8 4 9 1 10 2 11 42 12 3 13
REMARK SMILES IDX 40 14 38 15 43 16 41 18 39 20 37 22 35 24 10 26 11 27 12 28
REMARK SMILES IDX 30 29 21 30 29 31 31 32 22 33 27 34 23 35 26 36 24 37 13 38
REMARK SMILES IDX 20 39 14 40 18 41 15 42 16 43 19 44 17 46 28 48 25 50 33 52
REMARK H PARENT 43 17 41 19 39 21 37 23 35 25 19 45 17 47 28 49 25 51 33 53
REMARK Flexibility Score: inf
ROOT
ATOM      1  C   UNL     1     -35.850   7.221  82.479  1.00  0.00     0.180 C 
ATOM      2  C   UNL     1     -35.941   6.591  83.882  1.00  0.00     0.177 C 
ATOM      3  C   UNL     1     -34.901   5.471  84.050  1.00  0.00     0.180 C 
ATOM      4  C   UNL     1     -35.206   4.368  82.985  1.00  0.00     0.214 C 
ATOM      5  C   UNL     1     -35.959   4.935  81.726  1.00  0.00     0.339 C 
ATOM      6  O   UNL     1     -35.542   6.262  81.433  1.00  0.00    -0.332 OA
ENDROOT
BRANCH   1   7
ATOM      7  C   UNL     1     -35.003   8.513  82.390  1.00  0.00     0.198 C 
BRANCH   7   8
ATOM      8  O   UNL     1     -35.903   9.661  82.480  1.00  0.00    -0.347 OA
BRANCH   8   9
ATOM      9  C   UNL     1     -36.923   9.791  81.481  1.00  0.00     0.281 C 
ATOM     10  C   UNL     1     -36.731  10.123  78.037  1.00  0.00     0.041 C 
ATOM     11  C   UNL     1     -37.429   9.312  79.160  1.00  0.00     0.150 C 
ATOM     12  C   UNL     1     -38.812   9.901  79.445  1.00  0.00     0.174 C 
ATOM     13  O   UNL     1     -36.558   9.137  80.273  1.00  0.00    -0.344 OA
ATOM     14  C   UNL     1     -39.357   9.256  80.705  1.00  0.00     0.179 C 
ATOM     15  C   UNL     1     -38.375   9.283  81.899  1.00  0.00     0.202 C 
BRANCH  12  16
ATOM     16  O   UNL     1     -39.737   9.747  78.393  1.00  0.00    -0.388 OA
ATOM     17  H   UNL     1     -39.235   9.760  77.534  1.00  0.00     0.211 HD
ENDBRANCH  12  16
BRANCH  14  18
ATOM     18  O   UNL     1     -39.758   7.932  80.404  1.00  0.00    -0.387 OA
ATOM     19  H   UNL     1     -38.985   7.421  80.014  1.00  0.00     0.211 HD
ENDBRANCH  14  18
BRANCH  15  20
ATOM     20  O   UNL     1     -38.955  10.042  82.908  1.00  0.00    -0.385 OA
ATOM     21  H   UNL     1     -38.315  10.758  83.184  1.00  0.00     0.211 HD
ENDBRANCH  15  20
ENDBRANCH   8   9
ENDBRANCH   7   8
ENDBRANCH   1   7
BRANCH   2  22
ATOM     22  O   UNL     1     -37.245   6.164  84.125  1.00  0.00    -0.387 OA
ATOM     23  H   UNL     1     -37.405   5.412  83.480  1.00  0.00     0.211 HD
ENDBRANCH   2  22
BRANCH   3  24
ATOM     24  O   UNL     1     -33.592   5.960  83.870  1.00  0.00    -0.387 OA
ATOM     25  H   UNL     1     -32.970   5.161  83.905  1.00  0.00     0.211 HD
ENDBRANCH   3  24
BRANCH   5  26
ATOM     26  O   UNL     1     -37.400   4.796  81.848  1.00  0.00    -0.454 OA
BRANCH  26  27
ATOM     27  C   UNL     1     -38.323   4.535  80.785  1.00  0.00     0.214 A 
ATOM     28  C   UNL     1     -37.849   4.448  79.452  1.00  0.00     0.180 A 
ATOM     29  C   UNL     1     -39.713   4.330  80.934  1.00  0.00     0.239 A 
ATOM     30  O   UNL     1     -38.572   3.950  78.484  1.00  0.00    -0.452 OA
ATOM     31  C   UNL     1     -40.482   3.812  79.852  1.00  0.00     0.111 A 
ATOM     32  O   UNL     1     -40.289   4.638  82.037  1.00  0.00    -0.285 OA
ATOM     33  C   UNL     1     -39.820   3.595  78.591  1.00  0.00     0.146 A 
ATOM     34  C   UNL     1     -41.818   3.424  79.995  1.00  0.00     0.134 A 
ATOM     35  C   UNL     1     -40.469   3.002  77.481  1.00  0.00     0.094 A 
ATOM     36  C   UNL     1     -42.470   2.925  78.864  1.00  0.00     0.093 A 
ATOM     37  C   UNL     1     -41.820   2.733  77.635  1.00  0.00     0.123 A 
BRANCH  28  38
ATOM     38  C   UNL     1     -36.525   4.872  79.094  1.00  0.00     0.025 A 
ATOM     39  C   UNL     1     -36.378   6.070  78.365  1.00  0.00     0.062 A 
ATOM     40  C   UNL     1     -35.402   4.056  79.351  1.00  0.00     0.016 A 
ATOM     41  C   UNL     1     -35.094   6.495  78.016  1.00  0.00     0.158 A 
ATOM     42  C   UNL     1     -34.117   4.559  79.089  1.00  0.00     0.051 A 
ATOM     43  C   UNL     1     -33.959   5.758  78.385  1.00  0.00     0.157 A 
BRANCH  41  44
ATOM     44  O   UNL     1     -34.876   7.696  77.325  1.00  0.00    -0.504 OA
ATOM     45  H   UNL     1     -34.061   8.316  77.522  1.00  0.00     0.293 HD
ENDBRANCH  41  44
BRANCH  43  46
ATOM     46  O   UNL     1     -32.669   6.259  78.131  1.00  0.00    -0.504 OA
ATOM     47  H   UNL     1     -32.245   6.932  78.761  1.00  0.00     0.293 HD
ENDBRANCH  43  46
ENDBRANCH  28  38
BRANCH  34  48
ATOM     48  O   UNL     1     -42.509   3.502  81.226  1.00  0.00    -0.507 OA
ATOM     49  H   UNL     1     -42.955   2.666  81.643  1.00  0.00     0.293 HD
ENDBRANCH  34  48
BRANCH  37  50
ATOM     50  O   UNL     1     -42.492   2.150  76.570  1.00  0.00    -0.508 OA
ATOM     51  H   UNL     1     -43.510   1.953  76.612  1.00  0.00     0.293 HD
ENDBRANCH  37  50
ENDBRANCH  26  27
ENDBRANCH   5  26
BRANCH   4  52
ATOM     52  O   UNL     1     -34.043   3.797  82.521  1.00  0.00    -0.384 OA
ATOM     53  H   UNL     1     -34.250   2.897  82.131  1.00  0.00     0.211 HD
ENDBRANCH   4  52
TORSDOF 16
ENDMDL
MODEL 8
REMARK VINA RESULT:    -5.435     11.933     14.920
REMARK INTER + INTRA:         -10.283
REMARK INTER:                  -9.801
REMARK INTRA:                  -0.483
REMARK UNBOUND:                -1.353
REMARK SMILES C[C@H]1O[C@H](OC[C@H]2O[C@H](Oc3c(-c4ccc(O)c(O)c4)oc4cc(O)cc(O)c4c3=O)[C@@H](O)[C@@H](O)[C@@H]2O)[C@@H](O)[C@H](O)[C@@H]1O
REMARK SMILES IDX 7 1 36 2 34 3 32 4 9 5 8 6 6 7 5 8 4 9 1 10 2 11 42 12 3 13
REMARK SMILES IDX 40 14 38 15 43 16 41 18 39 20 37 22 35 24 10 26 11 27 12 28
REMARK SMILES IDX 30 29 21 30 29 31 31 32 22 33 27 34 23 35 26 36 24 37 13 38
REMARK SMILES IDX 20 39 14 40 18 41 15 42 16 43 19 44 17 46 28 48 25 50 33 52
REMARK H PARENT 43 17 41 19 39 21 37 23 35 25 19 45 17 47 28 49 25 51 33 53
REMARK Flexibility Score: inf
ROOT
ATOM      1  C   UNL     1     -44.278  -7.993  80.458  1.00  0.00     0.180 C 
ATOM      2  C   UNL     1     -44.274  -9.532  80.528  1.00  0.00     0.177 C 
ATOM      3  C   UNL     1     -44.530 -10.019  81.964  1.00  0.00     0.180 C 
ATOM      4  C   UNL     1     -43.377  -9.473  82.868  1.00  0.00     0.214 C 
ATOM      5  C   UNL     1     -42.726  -8.162  82.294  1.00  0.00     0.339 C 
ATOM      6  O   UNL     1     -43.691  -7.360  81.625  1.00  0.00    -0.332 OA
ENDROOT
BRANCH   1   7
ATOM      7  C   UNL     1     -45.622  -7.355  80.030  1.00  0.00     0.198 C 
BRANCH   7   8
ATOM      8  O   UNL     1     -45.358  -5.997  79.558  1.00  0.00    -0.347 OA
BRANCH   8   9
ATOM      9  C   UNL     1     -45.168  -5.804  78.150  1.00  0.00     0.281 C 
ATOM     10  C   UNL     1     -47.420  -5.139  75.603  1.00  0.00     0.041 C 
ATOM     11  C   UNL     1     -46.076  -4.664  76.214  1.00  0.00     0.150 C 
ATOM     12  C   UNL     1     -44.907  -5.269  75.436  1.00  0.00     0.174 C 
ATOM     13  O   UNL     1     -46.073  -4.842  77.627  1.00  0.00    -0.344 OA
ATOM     14  C   UNL     1     -43.627  -4.997  76.205  1.00  0.00     0.179 C 
ATOM     15  C   UNL     1     -43.695  -5.396  77.697  1.00  0.00     0.202 C 
BRANCH  12  16
ATOM     16  O   UNL     1     -44.779  -4.792  74.116  1.00  0.00    -0.388 OA
ATOM     17  H   UNL     1     -44.131  -5.376  73.636  1.00  0.00     0.211 HD
ENDBRANCH  12  16
BRANCH  14  18
ATOM     18  O   UNL     1     -43.286  -3.632  76.055  1.00  0.00    -0.387 OA
ATOM     19  H   UNL     1     -42.538  -3.395  76.684  1.00  0.00     0.211 HD
ENDBRANCH  14  18
BRANCH  15  20
ATOM     20  O   UNL     1     -42.754  -6.396  77.913  1.00  0.00    -0.385 OA
ATOM     21  H   UNL     1     -43.192  -7.155  78.391  1.00  0.00     0.211 HD
ENDBRANCH  15  20
ENDBRANCH   8   9
ENDBRANCH   7   8
ENDBRANCH   1   7
BRANCH   2  22
ATOM     22  O   UNL     1     -43.088 -10.027  79.989  1.00  0.00    -0.387 OA
ATOM     23  H   UNL     1     -42.396  -9.324  80.174  1.00  0.00     0.211 HD
ENDBRANCH   2  22
BRANCH   3  24
ATOM     24  O   UNL     1     -45.772  -9.558  82.444  1.00  0.00    -0.387 OA
ATOM     25  H   UNL     1     -45.808  -9.779  83.432  1.00  0.00     0.211 HD
ENDBRANCH   3  24
BRANCH   5  26
ATOM     26  O   UNL     1     -41.554  -8.449  81.484  1.00  0.00    -0.454 OA
BRANCH  26  27
ATOM     27  C   UNL     1     -40.242  -7.904  81.664  1.00  0.00     0.214 A 
ATOM     28  C   UNL     1     -40.084  -6.664  82.330  1.00  0.00     0.180 A 
ATOM     29  C   UNL     1     -39.036  -8.508  81.244  1.00  0.00     0.239 A 
ATOM     30  O   UNL     1     -38.925  -6.247  82.767  1.00  0.00    -0.452 OA
ATOM     31  C   UNL     1     -37.785  -8.015  81.714  1.00  0.00     0.111 A 
ATOM     32  O   UNL     1     -39.066  -9.486  80.415  1.00  0.00    -0.285 OA
ATOM     33  C   UNL     1     -37.787  -6.839  82.545  1.00  0.00     0.146 A 
ATOM     34  C   UNL     1     -36.576  -8.677  81.476  1.00  0.00     0.134 A 
ATOM     35  C   UNL     1     -36.609  -6.320  83.136  1.00  0.00     0.094 A 
ATOM     36  C   UNL     1     -35.411  -8.101  81.990  1.00  0.00     0.093 A 
ATOM     37  C   UNL     1     -35.423  -6.945  82.786  1.00  0.00     0.123 A 
BRANCH  28  38
ATOM     38  C   UNL     1     -41.203  -5.805  82.598  1.00  0.00     0.025 A 
ATOM     39  C   UNL     1     -41.774  -5.092  81.523  1.00  0.00     0.062 A 
ATOM     40  C   UNL     1     -41.648  -5.574  83.917  1.00  0.00     0.016 A 
ATOM     41  C   UNL     1     -42.867  -4.257  81.770  1.00  0.00     0.158 A 
ATOM     42  C   UNL     1     -42.815  -4.820  84.124  1.00  0.00     0.051 A 
ATOM     43  C   UNL     1     -43.403  -4.126  83.060  1.00  0.00     0.157 A 
BRANCH  41  44
ATOM     44  O   UNL     1     -43.505  -3.552  80.741  1.00  0.00    -0.504 OA
ATOM     45  H   UNL     1     -43.726  -2.536  80.811  1.00  0.00     0.293 HD
ENDBRANCH  41  44
BRANCH  43  46
ATOM     46  O   UNL     1     -44.575  -3.377  83.272  1.00  0.00    -0.504 OA
ATOM     47  H   UNL     1     -45.403  -3.546  82.710  1.00  0.00     0.293 HD
ENDBRANCH  43  46
ENDBRANCH  28  38
BRANCH  34  48
ATOM     48  O   UNL     1     -36.499  -9.896  80.761  1.00  0.00    -0.507 OA
ATOM     49  H   UNL     1     -36.700 -10.800  81.223  1.00  0.00     0.293 HD
ENDBRANCH  34  48
BRANCH  37  50
ATOM     50  O   UNL     1     -34.247  -6.466  83.345  1.00  0.00    -0.508 OA
ATOM     51  H   UNL     1     -33.386  -6.345  82.778  1.00  0.00     0.293 HD
ENDBRANCH  37  50
ENDBRANCH  26  27
ENDBRANCH   5  26
BRANCH   4  52
ATOM     52  O   UNL     1     -43.843  -9.159  84.125  1.00  0.00    -0.384 OA
ATOM     53  H   UNL     1     -43.903  -8.163  84.216  1.00  0.00     0.211 HD
ENDBRANCH   4  52
TORSDOF 16
ENDMDL
