MODEL 1
REMARK VINA RESULT:    -6.596      0.000      0.000
REMARK INTER + INTRA:          -8.266
REMARK INTER:                  -7.945
REMARK INTRA:                  -0.321
REMARK UNBOUND:                -0.321
REMARK SMILES O=c1c(O)c(-c2ccc(O)c(O)c2)oc2cc(O)cc(O)c12
REMARK SMILES IDX 5 1 3 2 2 3 1 4 22 5 20 6 19 7 17 8 16 9 15 10 14 11 6 12
REMARK SMILES IDX 7 13 8 14 9 15 13 16 11 17 10 18 12 20 4 22 21 24 18 26
REMARK H PARENT 10 19 12 21 4 23 21 25 18 27
REMARK Flexibility Score: inf
ROOT
ATOM      1  C   UNL     1      40.292  22.922  52.934  1.00  0.00     0.180 A 
ATOM      2  C   UNL     1      41.577  22.730  52.397  1.00  0.00     0.208 A 
ATOM      3  C   UNL     1      42.509  23.778  52.467  1.00  0.00     0.238 A 
ATOM      4  O   UNL     1      43.673  23.581  52.033  1.00  0.00    -0.285 OA
ATOM      5  C   UNL     1      42.139  25.010  53.058  1.00  0.00     0.111 A 
ATOM      6  C   UNL     1      42.989  26.153  53.147  1.00  0.00     0.134 A 
ATOM      7  C   UNL     1      42.564  27.275  53.869  1.00  0.00     0.093 A 
ATOM      8  C   UNL     1      41.295  27.320  54.449  1.00  0.00     0.123 A 
ATOM      9  C   UNL     1      40.434  26.232  54.317  1.00  0.00     0.094 A 
ATOM     10  C   UNL     1      40.844  25.085  53.634  1.00  0.00     0.146 A 
ATOM     11  O   UNL     1      39.997  24.066  53.541  1.00  0.00    -0.452 OA
ENDROOT
BRANCH   1  12
ATOM     12  C   UNL     1      39.249  21.874  52.876  1.00  0.00     0.025 A 
ATOM     13  C   UNL     1      38.435  21.772  51.739  1.00  0.00     0.016 A 
ATOM     14  C   UNL     1      37.459  20.777  51.656  1.00  0.00     0.051 A 
ATOM     15  C   UNL     1      37.286  19.857  52.695  1.00  0.00     0.157 A 
ATOM     16  C   UNL     1      39.094  20.936  53.912  1.00  0.00     0.062 A 
ATOM     17  C   UNL     1      38.119  19.933  53.836  1.00  0.00     0.158 A 
BRANCH  15  18
ATOM     18  O   UNL     1      36.287  18.891  52.552  1.00  0.00    -0.504 OA
ATOM     19  H   UNL     1      36.083  18.183  53.243  1.00  0.00     0.293 HD
ENDBRANCH  15  18
BRANCH  17  20
ATOM     20  O   UNL     1      38.020  19.038  54.903  1.00  0.00    -0.504 OA
ATOM     21  H   UNL     1      38.225  19.277  55.862  1.00  0.00     0.293 HD
ENDBRANCH  17  20
ENDBRANCH   1  12
BRANCH   2  22
ATOM     22  O   UNL     1      41.927  21.498  51.838  1.00  0.00    -0.502 OA
ATOM     23  H   UNL     1      41.243  20.780  51.633  1.00  0.00     0.293 HD
ENDBRANCH   2  22
BRANCH   6  24
ATOM     24  O   UNL     1      44.239  26.247  52.526  1.00  0.00    -0.507 OA
ATOM     25  H   UNL     1      44.999  26.826  52.849  1.00  0.00     0.293 HD
ENDBRANCH   6  24
BRANCH   8  26
ATOM     26  O   UNL     1      40.874  28.447  55.153  1.00  0.00    -0.508 OA
ATOM     27  H   UNL     1      41.127  28.591  56.123  1.00  0.00     0.293 HD
ENDBRANCH   8  26
TORSDOF 6
ENDMDL
MODEL 2
REMARK VINA RESULT:    -6.592      1.101      1.752
REMARK INTER + INTRA:          -8.261
REMARK INTER:                  -7.931
REMARK INTRA:                  -0.331
REMARK UNBOUND:                -0.321
REMARK SMILES O=c1c(O)c(-c2ccc(O)c(O)c2)oc2cc(O)cc(O)c12
REMARK SMILES IDX 5 1 3 2 2 3 1 4 22 5 20 6 19 7 17 8 16 9 15 10 14 11 6 12
REMARK SMILES IDX 7 13 8 14 9 15 13 16 11 17 10 18 12 20 4 22 21 24 18 26
REMARK H PARENT 10 19 12 21 4 23 21 25 18 27
REMARK Flexibility Score: inf
ROOT
ATOM      1  C   UNL     1      40.270  22.062  52.785  1.00  0.00     0.180 A 
ATOM      2  C   UNL     1      41.499  21.681  52.217  1.00  0.00     0.208 A 
ATOM      3  C   UNL     1      42.520  22.638  52.097  1.00  0.00     0.238 A 
ATOM      4  O   UNL     1      43.635  22.278  51.638  1.00  0.00    -0.285 OA
ATOM      5  C   UNL     1      42.293  23.967  52.530  1.00  0.00     0.111 A 
ATOM      6  C   UNL     1      43.242  25.027  52.420  1.00  0.00     0.134 A 
ATOM      7  C   UNL     1      42.960  26.270  53.001  1.00  0.00     0.093 A 
ATOM      8  C   UNL     1      41.736  26.510  53.631  1.00  0.00     0.123 A 
ATOM      9  C   UNL     1      40.780  25.499  53.691  1.00  0.00     0.094 A 
ATOM     10  C   UNL     1      41.047  24.237  53.153  1.00  0.00     0.146 A 
ATOM     11  O   UNL     1      40.112  23.299  53.242  1.00  0.00    -0.452 OA
ENDROOT
BRANCH   1  12
ATOM     12  C   UNL     1      39.139  21.117  52.922  1.00  0.00     0.025 A 
ATOM     13  C   UNL     1      38.935  20.457  54.142  1.00  0.00     0.016 A 
ATOM     14  C   UNL     1      37.863  19.576  54.298  1.00  0.00     0.051 A 
ATOM     15  C   UNL     1      36.966  19.350  53.249  1.00  0.00     0.157 A 
ATOM     16  C   UNL     1      38.226  20.909  51.873  1.00  0.00     0.062 A 
ATOM     17  C   UNL     1      37.146  20.031  52.022  1.00  0.00     0.158 A 
BRANCH  15  18
ATOM     18  O   UNL     1      35.918  18.451  53.468  1.00  0.00    -0.504 OA
ATOM     19  H   UNL     1      35.568  17.811  52.770  1.00  0.00     0.293 HD
ENDBRANCH  15  18
BRANCH  17  20
ATOM     20  O   UNL     1      36.281  19.871  50.938  1.00  0.00    -0.504 OA
ATOM     21  H   UNL     1      35.354  20.270  50.891  1.00  0.00     0.293 HD
ENDBRANCH  17  20
ENDBRANCH   1  12
BRANCH   2  22
ATOM     22  O   UNL     1      41.707  20.359  51.816  1.00  0.00    -0.502 OA
ATOM     23  H   UNL     1      41.379  20.002  50.927  1.00  0.00     0.293 HD
ENDBRANCH   2  22
BRANCH   6  24
ATOM     24  O   UNL     1      44.455  24.921  51.732  1.00  0.00    -0.507 OA
ATOM     25  H   UNL     1      44.598  24.366  50.902  1.00  0.00     0.293 HD
ENDBRANCH   6  24
BRANCH   8  26
ATOM     26  O   UNL     1      41.457  27.754  54.192  1.00  0.00    -0.508 OA
ATOM     27  H   UNL     1      40.577  28.226  54.023  1.00  0.00     0.293 HD
ENDBRANCH   8  26
TORSDOF 6
ENDMDL
MODEL 3
REMARK VINA RESULT:    -6.483      2.341      7.523
REMARK INTER + INTRA:          -8.131
REMARK INTER:                  -8.117
REMARK INTRA:                  -0.014
REMARK UNBOUND:                -0.321
REMARK SMILES O=c1c(O)c(-c2ccc(O)c(O)c2)oc2cc(O)cc(O)c12
REMARK SMILES IDX 5 1 3 2 2 3 1 4 22 5 20 6 19 7 17 8 16 9 15 10 14 11 6 12
REMARK SMILES IDX 7 13 8 14 9 15 13 16 11 17 10 18 12 20 4 22 21 24 18 26
REMARK H PARENT 10 19 12 21 4 23 21 25 18 27
REMARK Flexibility Score: inf
ROOT
ATOM      1  C   UNL     1      40.647  21.609  52.853  1.00  0.00     0.180 A 
ATOM      2  C   UNL     1      39.579  21.742  53.759  1.00  0.00     0.208 A 
ATOM      3  C   UNL     1      38.881  20.592  54.164  1.00  0.00     0.238 A 
ATOM      4  O   UNL     1      37.963  20.711  55.016  1.00  0.00    -0.285 OA
ATOM      5  C   UNL     1      39.248  19.327  53.645  1.00  0.00     0.111 A 
ATOM      6  C   UNL     1      38.586  18.101  53.955  1.00  0.00     0.134 A 
ATOM      7  C   UNL     1      39.116  16.892  53.488  1.00  0.00     0.093 A 
ATOM      8  C   UNL     1      40.246  16.870  52.668  1.00  0.00     0.123 A 
ATOM      9  C   UNL     1      40.866  18.066  52.311  1.00  0.00     0.094 A 
ATOM     10  C   UNL     1      40.382  19.286  52.792  1.00  0.00     0.146 A 
ATOM     11  O   UNL     1      41.009  20.401  52.437  1.00  0.00    -0.452 OA
ENDROOT
BRANCH   1  12
ATOM     12  C   UNL     1      41.413  22.776  52.362  1.00  0.00     0.025 A 
ATOM     13  C   UNL     1      42.813  22.725  52.347  1.00  0.00     0.016 A 
ATOM     14  C   UNL     1      43.554  23.808  51.869  1.00  0.00     0.051 A 
ATOM     15  C   UNL     1      42.915  24.953  51.383  1.00  0.00     0.157 A 
ATOM     16  C   UNL     1      40.766  23.915  51.853  1.00  0.00     0.062 A 
ATOM     17  C   UNL     1      41.501  25.005  51.369  1.00  0.00     0.158 A 
BRANCH  15  18
ATOM     18  O   UNL     1      43.714  26.003  50.926  1.00  0.00    -0.504 OA
ATOM     19  H   UNL     1      43.805  26.262  49.954  1.00  0.00     0.293 HD
ENDBRANCH  15  18
BRANCH  17  20
ATOM     20  O   UNL     1      40.792  26.104  50.881  1.00  0.00    -0.504 OA
ATOM     21  H   UNL     1      40.298  26.763  51.466  1.00  0.00     0.293 HD
ENDBRANCH  17  20
ENDBRANCH   1  12
BRANCH   2  22
ATOM     22  O   UNL     1      39.248  22.998  54.275  1.00  0.00    -0.502 OA
ATOM     23  H   UNL     1      38.407  23.160  54.814  1.00  0.00     0.293 HD
ENDBRANCH   2  22
BRANCH   6  24
ATOM     24  O   UNL     1      37.398  18.020  54.689  1.00  0.00    -0.507 OA
ATOM     25  H   UNL     1      37.334  17.705  55.645  1.00  0.00     0.293 HD
ENDBRANCH   6  24
BRANCH   8  26
ATOM     26  O   UNL     1      40.758  15.664  52.195  1.00  0.00    -0.508 OA
ATOM     27  H   UNL     1      41.482  15.637  51.487  1.00  0.00     0.293 HD
ENDBRANCH   8  26
TORSDOF 6
ENDMDL
MODEL 4
REMARK VINA RESULT:    -6.285      2.446      7.493
REMARK INTER + INTRA:          -7.892
REMARK INTER:                  -7.598
REMARK INTRA:                  -0.294
REMARK UNBOUND:                -0.321
REMARK SMILES O=c1c(O)c(-c2ccc(O)c(O)c2)oc2cc(O)cc(O)c12
REMARK SMILES IDX 5 1 3 2 2 3 1 4 22 5 20 6 19 7 17 8 16 9 15 10 14 11 6 12
REMARK SMILES IDX 7 13 8 14 9 15 13 16 11 17 10 18 12 20 4 22 21 24 18 26
REMARK H PARENT 10 19 12 21 4 23 21 25 18 27
REMARK Flexibility Score: inf
ROOT
ATOM      1  C   UNL     1      40.649  21.547  52.854  1.00  0.00     0.180 A 
ATOM      2  C   UNL     1      39.572  21.697  53.747  1.00  0.00     0.208 A 
ATOM      3  C   UNL     1      38.858  20.558  54.151  1.00  0.00     0.238 A 
ATOM      4  O   UNL     1      37.931  20.692  54.992  1.00  0.00    -0.285 OA
ATOM      5  C   UNL     1      39.218  19.286  53.645  1.00  0.00     0.111 A 
ATOM      6  C   UNL     1      38.539  18.069  53.955  1.00  0.00     0.134 A 
ATOM      7  C   UNL     1      39.061  16.852  53.502  1.00  0.00     0.093 A 
ATOM      8  C   UNL     1      40.200  16.812  52.695  1.00  0.00     0.123 A 
ATOM      9  C   UNL     1      40.837  17.999  52.338  1.00  0.00     0.094 A 
ATOM     10  C   UNL     1      40.360  19.227  52.805  1.00  0.00     0.146 A 
ATOM     11  O   UNL     1      41.003  20.333  52.450  1.00  0.00    -0.452 OA
ENDROOT
BRANCH   1  12
ATOM     12  C   UNL     1      41.432  22.703  52.364  1.00  0.00     0.025 A 
ATOM     13  C   UNL     1      40.913  23.504  51.338  1.00  0.00     0.016 A 
ATOM     14  C   UNL     1      41.627  24.610  50.875  1.00  0.00     0.051 A 
ATOM     15  C   UNL     1      42.863  24.949  51.435  1.00  0.00     0.157 A 
ATOM     16  C   UNL     1      42.663  23.053  52.946  1.00  0.00     0.062 A 
ATOM     17  C   UNL     1      43.386  24.164  52.491  1.00  0.00     0.158 A 
BRANCH  15  18
ATOM     18  O   UNL     1      43.530  26.064  50.922  1.00  0.00    -0.504 OA
ATOM     19  H   UNL     1      43.560  26.302  49.941  1.00  0.00     0.293 HD
ENDBRANCH  15  18
BRANCH  17  20
ATOM     20  O   UNL     1      44.602  24.451  53.113  1.00  0.00    -0.504 OA
ATOM     21  H   UNL     1      44.796  25.312  53.603  1.00  0.00     0.293 HD
ENDBRANCH  17  20
ENDBRANCH   1  12
BRANCH   2  22
ATOM     22  O   UNL     1      39.249  22.960  54.251  1.00  0.00    -0.502 OA
ATOM     23  H   UNL     1      39.757  23.387  55.016  1.00  0.00     0.293 HD
ENDBRANCH   2  22
BRANCH   6  24
ATOM     24  O   UNL     1      37.342  18.005  54.676  1.00  0.00    -0.507 OA
ATOM     25  H   UNL     1      36.729  18.790  54.844  1.00  0.00     0.293 HD
ENDBRANCH   6  24
BRANCH   8  26
ATOM     26  O   UNL     1      40.704  15.597  52.235  1.00  0.00    -0.508 OA
ATOM     27  H   UNL     1      41.701  15.430  52.165  1.00  0.00     0.293 HD
ENDBRANCH   8  26
TORSDOF 6
ENDMDL
MODEL 5
REMARK VINA RESULT:    -6.078      1.565      6.942
REMARK INTER + INTRA:          -7.643
REMARK INTER:                  -7.510
REMARK INTRA:                  -0.133
REMARK UNBOUND:                -0.321
REMARK SMILES O=c1c(O)c(-c2ccc(O)c(O)c2)oc2cc(O)cc(O)c12
REMARK SMILES IDX 5 1 3 2 2 3 1 4 22 5 20 6 19 7 17 8 16 9 15 10 14 11 6 12
REMARK SMILES IDX 7 13 8 14 9 15 13 16 11 17 10 18 12 20 4 22 21 24 18 26
REMARK H PARENT 10 19 12 21 4 23 21 25 18 27
REMARK Flexibility Score: inf
ROOT
ATOM      1  C   UNL     1      39.655  22.955  53.302  1.00  0.00     0.180 A 
ATOM      2  C   UNL     1      39.217  22.471  52.056  1.00  0.00     0.208 A 
ATOM      3  C   UNL     1      38.325  21.388  52.022  1.00  0.00     0.238 A 
ATOM      4  O   UNL     1      37.895  20.994  50.907  1.00  0.00    -0.285 OA
ATOM      5  C   UNL     1      37.894  20.791  53.232  1.00  0.00     0.111 A 
ATOM      6  C   UNL     1      37.023  19.664  53.314  1.00  0.00     0.134 A 
ATOM      7  C   UNL     1      36.559  19.239  54.565  1.00  0.00     0.093 A 
ATOM      8  C   UNL     1      36.986  19.860  55.741  1.00  0.00     0.123 A 
ATOM      9  C   UNL     1      37.884  20.924  55.675  1.00  0.00     0.094 A 
ATOM     10  C   UNL     1      38.336  21.394  54.438  1.00  0.00     0.146 A 
ATOM     11  O   UNL     1      39.182  22.417  54.420  1.00  0.00    -0.452 OA
ENDROOT
BRANCH   1  12
ATOM     12  C   UNL     1      40.614  24.077  53.418  1.00  0.00     0.025 A 
ATOM     13  C   UNL     1      41.898  23.946  52.872  1.00  0.00     0.016 A 
ATOM     14  C   UNL     1      42.811  24.999  52.954  1.00  0.00     0.051 A 
ATOM     15  C   UNL     1      42.457  26.206  53.565  1.00  0.00     0.157 A 
ATOM     16  C   UNL     1      40.246  25.296  54.013  1.00  0.00     0.062 A 
ATOM     17  C   UNL     1      41.154  26.360  54.096  1.00  0.00     0.158 A 
BRANCH  15  18
ATOM     18  O   UNL     1      43.419  27.218  53.619  1.00  0.00    -0.504 OA
ATOM     19  H   UNL     1      44.309  27.126  54.088  1.00  0.00     0.293 HD
ENDBRANCH  15  18
BRANCH  17  20
ATOM     20  O   UNL     1      40.722  27.541  54.702  1.00  0.00    -0.504 OA
ATOM     21  H   UNL     1      40.436  27.608  55.668  1.00  0.00     0.293 HD
ENDBRANCH  17  20
ENDBRANCH   1  12
BRANCH   2  22
ATOM     22  O   UNL     1      39.638  23.089  50.876  1.00  0.00    -0.502 OA
ATOM     23  H   UNL     1      39.490  24.075  50.695  1.00  0.00     0.293 HD
ENDBRANCH   2  22
BRANCH   6  24
ATOM     24  O   UNL     1      36.609  18.915  52.208  1.00  0.00    -0.507 OA
ATOM     25  H   UNL     1      36.179  18.004  52.259  1.00  0.00     0.293 HD
ENDBRANCH   6  24
BRANCH   8  26
ATOM     26  O   UNL     1      36.532  19.421  56.983  1.00  0.00    -0.508 OA
ATOM     27  H   UNL     1      35.627  19.699  57.344  1.00  0.00     0.293 HD
ENDBRANCH   8  26
TORSDOF 6
ENDMDL
MODEL 6
REMARK VINA RESULT:    -6.056      2.055      3.333
REMARK INTER + INTRA:          -7.616
REMARK INTER:                  -7.587
REMARK INTRA:                  -0.029
REMARK UNBOUND:                -0.321
REMARK SMILES O=c1c(O)c(-c2ccc(O)c(O)c2)oc2cc(O)cc(O)c12
REMARK SMILES IDX 5 1 3 2 2 3 1 4 22 5 20 6 19 7 17 8 16 9 15 10 14 11 6 12
REMARK SMILES IDX 7 13 8 14 9 15 13 16 11 17 10 18 12 20 4 22 21 24 18 26
REMARK H PARENT 10 19 12 21 4 23 21 25 18 27
REMARK Flexibility Score: inf
ROOT
ATOM      1  C   UNL     1      41.540  23.004  52.415  1.00  0.00     0.180 A 
ATOM      2  C   UNL     1      40.664  23.983  52.917  1.00  0.00     0.208 A 
ATOM      3  C   UNL     1      41.105  25.313  53.001  1.00  0.00     0.238 A 
ATOM      4  O   UNL     1      40.298  26.193  53.400  1.00  0.00    -0.285 OA
ATOM      5  C   UNL     1      42.420  25.646  52.597  1.00  0.00     0.111 A 
ATOM      6  C   UNL     1      42.985  26.954  52.676  1.00  0.00     0.134 A 
ATOM      7  C   UNL     1      44.250  27.195  52.126  1.00  0.00     0.093 A 
ATOM      8  C   UNL     1      44.998  26.159  51.559  1.00  0.00     0.123 A 
ATOM      9  C   UNL     1      44.480  24.866  51.531  1.00  0.00     0.094 A 
ATOM     10  C   UNL     1      43.205  24.604  52.039  1.00  0.00     0.146 A 
ATOM     11  O   UNL     1      42.744  23.359  51.982  1.00  0.00    -0.452 OA
ENDROOT
BRANCH   1  12
ATOM     12  C   UNL     1      41.156  21.578  52.319  1.00  0.00     0.025 A 
ATOM     13  C   UNL     1      41.396  20.876  51.130  1.00  0.00     0.016 A 
ATOM     14  C   UNL     1      41.060  19.525  51.026  1.00  0.00     0.051 A 
ATOM     15  C   UNL     1      40.494  18.845  52.109  1.00  0.00     0.157 A 
ATOM     16  C   UNL     1      40.609  20.892  53.417  1.00  0.00     0.062 A 
ATOM     17  C   UNL     1      40.271  19.535  53.324  1.00  0.00     0.158 A 
BRANCH  15  18
ATOM     18  O   UNL     1      40.174  17.495  51.938  1.00  0.00    -0.504 OA
ATOM     19  H   UNL     1      40.740  16.733  52.281  1.00  0.00     0.293 HD
ENDBRANCH  15  18
BRANCH  17  20
ATOM     20  O   UNL     1      39.729  18.919  54.453  1.00  0.00    -0.504 OA
ATOM     21  H   UNL     1      39.073  18.152  54.418  1.00  0.00     0.293 HD
ENDBRANCH  17  20
ENDBRANCH   1  12
BRANCH   2  22
ATOM     22  O   UNL     1      39.363  23.635  53.290  1.00  0.00    -0.502 OA
ATOM     23  H   UNL     1      39.029  23.720  54.242  1.00  0.00     0.293 HD
ENDBRANCH   2  22
BRANCH   6  24
ATOM     24  O   UNL     1      42.361  28.038  53.303  1.00  0.00    -0.507 OA
ATOM     25  H   UNL     1      41.783  27.969  54.127  1.00  0.00     0.293 HD
ENDBRANCH   6  24
BRANCH   8  26
ATOM     26  O   UNL     1      46.263  26.404  51.029  1.00  0.00    -0.508 OA
ATOM     27  H   UNL     1      46.908  25.649  50.828  1.00  0.00     0.293 HD
ENDBRANCH   8  26
TORSDOF 6
ENDMDL
MODEL 7
REMARK VINA RESULT:    -5.929      2.260      7.096
REMARK INTER + INTRA:          -7.463
REMARK INTER:                  -7.350
REMARK INTRA:                  -0.113
REMARK UNBOUND:                -0.321
REMARK SMILES O=c1c(O)c(-c2ccc(O)c(O)c2)oc2cc(O)cc(O)c12
REMARK SMILES IDX 5 1 3 2 2 3 1 4 22 5 20 6 19 7 17 8 16 9 15 10 14 11 6 12
REMARK SMILES IDX 7 13 8 14 9 15 13 16 11 17 10 18 12 20 4 22 21 24 18 26
REMARK H PARENT 10 19 12 21 4 23 21 25 18 27
REMARK Flexibility Score: inf
ROOT
ATOM      1  C   UNL     1      40.843  21.172  52.622  1.00  0.00     0.180 A 
ATOM      2  C   UNL     1      41.218  20.065  51.838  1.00  0.00     0.208 A 
ATOM      3  C   UNL     1      40.542  18.847  52.012  1.00  0.00     0.238 A 
ATOM      4  O   UNL     1      40.844  17.876  51.271  1.00  0.00    -0.285 OA
ATOM      5  C   UNL     1      39.512  18.745  52.979  1.00  0.00     0.111 A 
ATOM      6  C   UNL     1      38.788  17.550  53.268  1.00  0.00     0.134 A 
ATOM      7  C   UNL     1      37.702  17.597  54.150  1.00  0.00     0.093 A 
ATOM      8  C   UNL     1      37.355  18.781  54.804  1.00  0.00     0.123 A 
ATOM      9  C   UNL     1      38.093  19.940  54.574  1.00  0.00     0.094 A 
ATOM     10  C   UNL     1      39.160  19.933  53.671  1.00  0.00     0.146 A 
ATOM     11  O   UNL     1      39.830  21.062  53.472  1.00  0.00    -0.452 OA
ENDROOT
BRANCH   1  12
ATOM     12  C   UNL     1      41.525  22.481  52.512  1.00  0.00     0.025 A 
ATOM     13  C   UNL     1      42.900  22.567  52.770  1.00  0.00     0.016 A 
ATOM     14  C   UNL     1      43.566  23.788  52.654  1.00  0.00     0.051 A 
ATOM     15  C   UNL     1      42.879  24.942  52.262  1.00  0.00     0.157 A 
ATOM     16  C   UNL     1      40.836  23.633  52.096  1.00  0.00     0.062 A 
ATOM     17  C   UNL     1      41.497  24.862  51.973  1.00  0.00     0.158 A 
BRANCH  15  18
ATOM     18  O   UNL     1      43.603  26.134  52.171  1.00  0.00    -0.504 OA
ATOM     19  H   UNL     1      44.409  26.260  51.576  1.00  0.00     0.293 HD
ENDBRANCH  15  18
BRANCH  17  20
ATOM     20  O   UNL     1      40.749  25.966  51.557  1.00  0.00    -0.504 OA
ATOM     21  H   UNL     1      40.245  26.576  52.185  1.00  0.00     0.293 HD
ENDBRANCH  17  20
ENDBRANCH   1  12
BRANCH   2  22
ATOM     22  O   UNL     1      42.222  20.195  50.875  1.00  0.00    -0.502 OA
ATOM     23  H   UNL     1      42.894  20.952  50.889  1.00  0.00     0.293 HD
ENDBRANCH   2  22
BRANCH   6  24
ATOM     24  O   UNL     1      39.110  16.295  52.740  1.00  0.00    -0.507 OA
ATOM     25  H   UNL     1      39.795  15.666  53.130  1.00  0.00     0.293 HD
ENDBRANCH   6  24
BRANCH   8  26
ATOM     26  O   UNL     1      36.283  18.815  55.694  1.00  0.00    -0.508 OA
ATOM     27  H   UNL     1      35.325  18.745  55.371  1.00  0.00     0.293 HD
ENDBRANCH   8  26
TORSDOF 6
ENDMDL
MODEL 8
REMARK VINA RESULT:    -5.754      2.040      6.705
REMARK INTER + INTRA:          -7.252
REMARK INTER:                  -6.930
REMARK INTRA:                  -0.322
REMARK UNBOUND:                -0.321
REMARK SMILES O=c1c(O)c(-c2ccc(O)c(O)c2)oc2cc(O)cc(O)c12
REMARK SMILES IDX 5 1 3 2 2 3 1 4 22 5 20 6 19 7 17 8 16 9 15 10 14 11 6 12
REMARK SMILES IDX 7 13 8 14 9 15 13 16 11 17 10 18 12 20 4 22 21 24 18 26
REMARK H PARENT 10 19 12 21 4 23 21 25 18 27
REMARK Flexibility Score: inf
ROOT
ATOM      1  C   UNL     1      40.926  22.202  52.472  1.00  0.00     0.180 A 
ATOM      2  C   UNL     1      41.500  21.099  51.815  1.00  0.00     0.208 A 
ATOM      3  C   UNL     1      41.011  19.812  52.091  1.00  0.00     0.238 A 
ATOM      4  O   UNL     1      41.492  18.835  51.460  1.00  0.00    -0.285 OA
ATOM      5  C   UNL     1      39.966  19.642  53.031  1.00  0.00     0.111 A 
ATOM      6  C   UNL     1      39.421  18.381  53.418  1.00  0.00     0.134 A 
ATOM      7  C   UNL     1      38.301  18.341  54.257  1.00  0.00     0.093 A 
ATOM      8  C   UNL     1      37.749  19.513  54.778  1.00  0.00     0.123 A 
ATOM      9  C   UNL     1      38.311  20.746  54.454  1.00  0.00     0.094 A 
ATOM     10  C   UNL     1      39.406  20.820  53.589  1.00  0.00     0.146 A 
ATOM     11  O   UNL     1      39.904  22.017  53.298  1.00  0.00    -0.452 OA
ENDROOT
BRANCH   1  12
ATOM     12  C   UNL     1      41.404  23.586  52.252  1.00  0.00     0.025 A 
ATOM     13  C   UNL     1      40.856  24.348  51.212  1.00  0.00     0.016 A 
ATOM     14  C   UNL     1      41.279  25.662  51.000  1.00  0.00     0.051 A 
ATOM     15  C   UNL     1      42.243  26.245  51.829  1.00  0.00     0.157 A 
ATOM     16  C   UNL     1      42.357  24.176  53.102  1.00  0.00     0.062 A 
ATOM     17  C   UNL     1      42.784  25.494  52.899  1.00  0.00     0.158 A 
BRANCH  15  18
ATOM     18  O   UNL     1      42.627  27.561  51.559  1.00  0.00    -0.504 OA
ATOM     19  H   UNL     1      42.640  27.966  50.634  1.00  0.00     0.293 HD
ENDBRANCH  15  18
BRANCH  17  20
ATOM     20  O   UNL     1      43.734  26.014  53.780  1.00  0.00    -0.504 OA
ATOM     21  H   UNL     1      43.761  26.979  54.077  1.00  0.00     0.293 HD
ENDBRANCH  17  20
ENDBRANCH   1  12
BRANCH   2  22
ATOM     22  O   UNL     1      42.516  21.292  50.875  1.00  0.00    -0.502 OA
ATOM     23  H   UNL     1      42.498  20.861  49.959  1.00  0.00     0.293 HD
ENDBRANCH   2  22
BRANCH   6  24
ATOM     24  O   UNL     1      39.954  17.148  53.028  1.00  0.00    -0.507 OA
ATOM     25  H   UNL     1      39.513  16.255  53.189  1.00  0.00     0.293 HD
ENDBRANCH   6  24
BRANCH   8  26
ATOM     26  O   UNL     1      36.644  19.463  55.626  1.00  0.00    -0.508 OA
ATOM     27  H   UNL     1      36.473  18.664  56.225  1.00  0.00     0.293 HD
ENDBRANCH   8  26
TORSDOF 6
ENDMDL
MODEL 9
REMARK VINA RESULT:    -5.729      2.135      7.675
REMARK INTER + INTRA:          -7.223
REMARK INTER:                  -7.601
REMARK INTRA:                   0.378
REMARK UNBOUND:                -0.321
REMARK SMILES O=c1c(O)c(-c2ccc(O)c(O)c2)oc2cc(O)cc(O)c12
REMARK SMILES IDX 5 1 3 2 2 3 1 4 22 5 20 6 19 7 17 8 16 9 15 10 14 11 6 12
REMARK SMILES IDX 7 13 8 14 9 15 13 16 11 17 10 18 12 20 4 22 21 24 18 26
REMARK H PARENT 10 19 12 21 4 23 21 25 18 27
REMARK Flexibility Score: inf
ROOT
ATOM      1  C   UNL     1      40.009  21.158  52.563  1.00  0.00     0.180 A 
ATOM      2  C   UNL     1      38.645  21.301  52.249  1.00  0.00     0.208 A 
ATOM      3  C   UNL     1      37.826  20.161  52.234  1.00  0.00     0.238 A 
ATOM      4  O   UNL     1      36.597  20.303  52.005  1.00  0.00    -0.285 OA
ATOM      5  C   UNL     1      38.383  18.890  52.516  1.00  0.00     0.111 A 
ATOM      6  C   UNL     1      37.655  17.663  52.490  1.00  0.00     0.134 A 
ATOM      7  C   UNL     1      38.276  16.482  52.915  1.00  0.00     0.093 A 
ATOM      8  C   UNL     1      39.618  16.473  53.301  1.00  0.00     0.123 A 
ATOM      9  C   UNL     1      40.354  17.655  53.274  1.00  0.00     0.094 A 
ATOM     10  C   UNL     1      39.751  18.856  52.890  1.00  0.00     0.146 A 
ATOM     11  O   UNL     1      40.486  19.962  52.889  1.00  0.00    -0.452 OA
ENDROOT
BRANCH   1  12
ATOM     12  C   UNL     1      40.939  22.309  52.575  1.00  0.00     0.025 A 
ATOM     13  C   UNL     1      42.311  22.089  52.389  1.00  0.00     0.016 A 
ATOM     14  C   UNL     1      43.203  23.163  52.378  1.00  0.00     0.051 A 
ATOM     15  C   UNL     1      42.744  24.475  52.535  1.00  0.00     0.157 A 
ATOM     16  C   UNL     1      40.471  23.627  52.710  1.00  0.00     0.062 A 
ATOM     17  C   UNL     1      41.359  24.711  52.696  1.00  0.00     0.158 A 
BRANCH  15  18
ATOM     18  O   UNL     1      43.690  25.503  52.520  1.00  0.00    -0.504 OA
ATOM     19  H   UNL     1      44.591  25.449  52.973  1.00  0.00     0.293 HD
ENDBRANCH  15  18
BRANCH  17  20
ATOM     20  O   UNL     1      40.824  25.993  52.838  1.00  0.00    -0.504 OA
ATOM     21  H   UNL     1      41.273  26.833  52.500  1.00  0.00     0.293 HD
ENDBRANCH  17  20
ENDBRANCH   1  12
BRANCH   2  22
ATOM     22  O   UNL     1      38.113  22.568  51.995  1.00  0.00    -0.502 OA
ATOM     23  H   UNL     1      38.694  23.390  51.888  1.00  0.00     0.293 HD
ENDBRANCH   2  22
BRANCH   6  24
ATOM     24  O   UNL     1      36.338  17.546  52.033  1.00  0.00    -0.507 OA
ATOM     25  H   UNL     1      36.071  17.459  51.064  1.00  0.00     0.293 HD
ENDBRANCH   6  24
BRANCH   8  26
ATOM     26  O   UNL     1      40.233  15.290  53.707  1.00  0.00    -0.508 OA
ATOM     27  H   UNL     1      39.816  14.386  53.522  1.00  0.00     0.293 HD
ENDBRANCH   8  26
TORSDOF 6
ENDMDL
