MODEL 1
REMARK VINA RESULT:    -3.473      0.000      0.000
REMARK INTER + INTRA:          -4.711
REMARK INTER:                  -4.488
REMARK INTRA:                  -0.224
REMARK UNBOUND:                -0.224
REMARK SMILES CCCCCCC(=O)[O-]
REMARK SMILES IDX 5 1 6 2 7 3 8 4 9 5 4 6 3 7 2 8 1 9
REMARK H PARENT
REMARK Flexibility Score: inf
ROOT
ATOM      1  C   UNL     1       8.504  -7.172 -22.752  1.00  0.00     0.006 C 
ENDROOT
BRANCH   1   2
ATOM      2  C   UNL     1       7.652  -5.896 -22.724  1.00  0.00     0.053 C 
BRANCH   2   3
ATOM      3  C   UNL     1       6.567  -5.927 -23.755  1.00  0.00     0.041 C 
ATOM      4  O   UNL     1       5.757  -6.891 -23.794  1.00  0.00    -0.550 OA
ATOM      5  O   UNL     1       6.471  -4.910 -24.697  1.00  0.00    -0.550 OA
ENDBRANCH   2   3
ENDBRANCH   1   2
BRANCH   1   6
ATOM      6  C   UNL     1       8.618  -7.826 -21.368  1.00  0.00     0.000 C 
BRANCH   6   7
ATOM      7  C   UNL     1       7.273  -8.418 -20.927  1.00  0.00    -0.000 C 
BRANCH   7   8
ATOM      8  C   UNL     1       7.478  -9.687 -20.092  1.00  0.00    -0.003 C 
ATOM      9  C   UNL     1       8.906  -9.775 -19.564  1.00  0.00     0.004 C 
ENDBRANCH   7   8
ENDBRANCH   6   7
ENDBRANCH   1   6
TORSDOF 5
ENDMDL
MODEL 2
REMARK VINA RESULT:    -3.282      3.079      5.001
REMARK INTER + INTRA:          -4.465
REMARK INTER:                  -4.290
REMARK INTRA:                  -0.176
REMARK UNBOUND:                -0.224
REMARK SMILES CCCCCCC(=O)[O-]
REMARK SMILES IDX 5 1 6 2 7 3 8 4 9 5 4 6 3 7 2 8 1 9
REMARK H PARENT
REMARK Flexibility Score: inf
ROOT
ATOM      1  C   UNL     1       8.281  -7.569 -21.616  1.00  0.00     0.006 C 
ENDROOT
BRANCH   1   2
ATOM      2  C   UNL     1       7.332  -8.491 -20.840  1.00  0.00     0.053 C 
BRANCH   2   3
ATOM      3  C   UNL     1       8.052  -9.665 -20.252  1.00  0.00     0.041 C 
ATOM      4  O   UNL     1       8.308  -9.699 -19.020  1.00  0.00    -0.550 OA
ATOM      5  O   UNL     1       8.474 -10.705 -21.071  1.00  0.00    -0.550 OA
ENDBRANCH   2   3
ENDBRANCH   1   2
BRANCH   1   6
ATOM      6  C   UNL     1       7.525  -6.593 -22.530  1.00  0.00     0.000 C 
BRANCH   6   7
ATOM      7  C   UNL     1       7.987  -6.733 -23.985  1.00  0.00    -0.000 C 
BRANCH   7   8
ATOM      8  C   UNL     1       6.850  -6.399 -24.958  1.00  0.00    -0.003 C 
ATOM      9  C   UNL     1       5.508  -6.337 -24.236  1.00  0.00     0.004 C 
ENDBRANCH   7   8
ENDBRANCH   6   7
ENDBRANCH   1   6
TORSDOF 5
ENDMDL
MODEL 3
REMARK VINA RESULT:    -3.098     19.456     20.528
REMARK INTER + INTRA:          -4.228
REMARK INTER:                  -4.097
REMARK INTRA:                  -0.131
REMARK UNBOUND:                -0.224
REMARK SMILES CCCCCCC(=O)[O-]
REMARK SMILES IDX 5 1 6 2 7 3 8 4 9 5 4 6 3 7 2 8 1 9
REMARK H PARENT
REMARK Flexibility Score: inf
ROOT
ATOM      1  C   UNL     1      -3.577  -8.982  -5.929  1.00  0.00     0.006 C 
ENDROOT
BRANCH   1   2
ATOM      2  C   UNL     1      -2.532  -8.589  -4.876  1.00  0.00     0.053 C 
BRANCH   2   3
ATOM      3  C   UNL     1      -1.954  -7.234  -5.143  1.00  0.00     0.041 C 
ATOM      4  O   UNL     1      -0.757  -7.118  -5.516  1.00  0.00    -0.550 OA
ATOM      5  O   UNL     1      -2.726  -6.096  -4.944  1.00  0.00    -0.550 OA
ENDBRANCH   2   3
ENDBRANCH   1   2
BRANCH   1   6
ATOM      6  C   UNL     1      -4.638  -9.939  -5.367  1.00  0.00     0.000 C 
BRANCH   6   7
ATOM      7  C   UNL     1      -4.630 -11.273  -6.123  1.00  0.00    -0.000 C 
BRANCH   7   8
ATOM      8  C   UNL     1      -5.937 -12.042  -5.896  1.00  0.00    -0.003 C 
ATOM      9  C   UNL     1      -6.847 -11.305  -4.917  1.00  0.00     0.004 C 
ENDBRANCH   7   8
ENDBRANCH   6   7
ENDBRANCH   1   6
TORSDOF 5
ENDMDL
MODEL 4
REMARK VINA RESULT:    -3.024     18.512     19.922
REMARK INTER + INTRA:          -4.132
REMARK INTER:                  -4.047
REMARK INTRA:                  -0.085
REMARK UNBOUND:                -0.224
REMARK SMILES CCCCCCC(=O)[O-]
REMARK SMILES IDX 5 1 6 2 7 3 8 4 9 5 4 6 3 7 2 8 1 9
REMARK H PARENT
REMARK Flexibility Score: inf
ROOT
ATOM      1  C   UNL     1      -3.449  -8.895  -5.758  1.00  0.00     0.006 C 
ENDROOT
BRANCH   1   2
ATOM      2  C   UNL     1      -4.146 -10.045  -5.019  1.00  0.00     0.053 C 
BRANCH   2   3
ATOM      3  C   UNL     1      -4.606 -11.115  -5.961  1.00  0.00     0.041 C 
ATOM      4  O   UNL     1      -4.661 -12.314  -5.580  1.00  0.00    -0.550 OA
ATOM      5  O   UNL     1      -4.941 -10.793  -7.270  1.00  0.00    -0.550 OA
ENDBRANCH   2   3
ENDBRANCH   1   2
BRANCH   1   6
ATOM      6  C   UNL     1      -2.416  -8.179  -4.876  1.00  0.00     0.000 C 
BRANCH   6   7
ATOM      7  C   UNL     1      -1.336  -7.506  -5.731  1.00  0.00    -0.000 C 
BRANCH   7   8
ATOM      8  C   UNL     1      -0.131  -7.098  -4.875  1.00  0.00    -0.003 C 
ATOM      9  C   UNL     1       1.156  -7.727  -5.399  1.00  0.00     0.004 C 
ENDBRANCH   7   8
ENDBRANCH   6   7
ENDBRANCH   1   6
TORSDOF 5
ENDMDL
MODEL 5
REMARK VINA RESULT:    -2.530      1.001      1.584
REMARK INTER + INTRA:          -3.493
REMARK INTER:                  -3.329
REMARK INTRA:                  -0.164
REMARK UNBOUND:                -0.224
REMARK SMILES CCCCCCC(=O)[O-]
REMARK SMILES IDX 5 1 6 2 7 3 8 4 9 5 4 6 3 7 2 8 1 9
REMARK H PARENT
REMARK Flexibility Score: inf
ROOT
ATOM      1  C   UNL     1       7.732  -7.299 -22.670  1.00  0.00     0.006 C 
ENDROOT
BRANCH   1   2
ATOM      2  C   UNL     1       7.793  -6.575 -24.021  1.00  0.00     0.053 C 
BRANCH   2   3
ATOM      3  C   UNL     1       6.480  -5.950 -24.379  1.00  0.00     0.041 C 
ATOM      4  O   UNL     1       6.445  -4.914 -25.094  1.00  0.00    -0.550 OA
ATOM      5  O   UNL     1       5.296  -6.490 -23.892  1.00  0.00    -0.550 OA
ENDBRANCH   2   3
ENDBRANCH   1   2
BRANCH   1   6
ATOM      6  C   UNL     1       9.015  -7.108 -21.850  1.00  0.00     0.000 C 
BRANCH   6   7
ATOM      7  C   UNL     1       9.125  -8.168 -20.746  1.00  0.00    -0.000 C 
BRANCH   7   8
ATOM      8  C   UNL     1       8.213  -9.365 -21.041  1.00  0.00    -0.003 C 
ATOM      9  C   UNL     1       7.260  -9.631 -19.880  1.00  0.00     0.004 C 
ENDBRANCH   7   8
ENDBRANCH   6   7
ENDBRANCH   1   6
TORSDOF 5
ENDMDL
MODEL 6
REMARK VINA RESULT:    -1.592     18.743     19.782
REMARK INTER + INTRA:          -2.281
REMARK INTER:                  -2.177
REMARK INTRA:                  -0.103
REMARK UNBOUND:                -0.224
REMARK SMILES CCCCCCC(=O)[O-]
REMARK SMILES IDX 5 1 6 2 7 3 8 4 9 5 4 6 3 7 2 8 1 9
REMARK H PARENT
REMARK Flexibility Score: inf
ROOT
ATOM      1  C   UNL     1      -2.149  -8.307  -5.568  1.00  0.00     0.006 C 
ENDROOT
BRANCH   1   2
ATOM      2  C   UNL     1      -1.438  -7.084  -4.975  1.00  0.00     0.053 C 
BRANCH   2   3
ATOM      3  C   UNL     1       0.052  -7.218  -5.042  1.00  0.00     0.041 C 
ATOM      4  O   UNL     1       0.770  -6.208  -5.264  1.00  0.00    -0.550 OA
ATOM      5  O   UNL     1       0.646  -8.465  -4.896  1.00  0.00    -0.550 OA
ENDBRANCH   2   3
ENDBRANCH   1   2
BRANCH   1   6
ATOM      6  C   UNL     1      -3.489  -8.594  -4.876  1.00  0.00     0.000 C 
BRANCH   6   7
ATOM      7  C   UNL     1      -3.851 -10.081  -4.973  1.00  0.00    -0.000 C 
BRANCH   7   8
ATOM      8  C   UNL     1      -4.421 -10.419  -6.355  1.00  0.00    -0.003 C 
ATOM      9  C   UNL     1      -5.256 -11.695  -6.310  1.00  0.00     0.004 C 
ENDBRANCH   7   8
ENDBRANCH   6   7
ENDBRANCH   1   6
TORSDOF 5
ENDMDL
MODEL 7
REMARK VINA RESULT:    -1.469     18.099     19.119
REMARK INTER + INTRA:          -2.122
REMARK INTER:                  -2.005
REMARK INTRA:                  -0.117
REMARK UNBOUND:                -0.224
REMARK SMILES CCCCCCC(=O)[O-]
REMARK SMILES IDX 5 1 6 2 7 3 8 4 9 5 4 6 3 7 2 8 1 9
REMARK H PARENT
REMARK Flexibility Score: inf
ROOT
ATOM      1  C   UNL     1      -8.485 -16.924 -23.657  1.00  0.00     0.006 C 
ENDROOT
BRANCH   1   2
ATOM      2  C   UNL     1      -7.797 -18.014 -22.824  1.00  0.00     0.053 C 
BRANCH   2   3
ATOM      3  C   UNL     1      -8.558 -18.321 -21.571  1.00  0.00     0.041 C 
ATOM      4  O   UNL     1      -7.959 -18.378 -20.465  1.00  0.00    -0.550 OA
ATOM      5  O   UNL     1      -9.921 -18.580 -21.630  1.00  0.00    -0.550 OA
ENDBRANCH   2   3
ENDBRANCH   1   2
BRANCH   1   6
ATOM      6  C   UNL     1      -8.773 -15.659 -22.835  1.00  0.00     0.000 C 
BRANCH   6   7
ATOM      7  C   UNL     1      -8.457 -14.394 -23.643  1.00  0.00    -0.000 C 
BRANCH   7   8
ATOM      8  C   UNL     1      -8.902 -13.135 -22.891  1.00  0.00    -0.003 C 
ATOM      9  C   UNL     1     -10.370 -13.225 -22.486  1.00  0.00     0.004 C 
ENDBRANCH   7   8
ENDBRANCH   6   7
ENDBRANCH   1   6
TORSDOF 5
ENDMDL
MODEL 8
REMARK VINA RESULT:    -1.467     11.921     12.864
REMARK INTER + INTRA:          -2.119
REMARK INTER:                  -1.989
REMARK INTRA:                  -0.130
REMARK UNBOUND:                -0.224
REMARK SMILES CCCCCCC(=O)[O-]
REMARK SMILES IDX 5 1 6 2 7 3 8 4 9 5 4 6 3 7 2 8 1 9
REMARK H PARENT
REMARK Flexibility Score: inf
ROOT
ATOM      1  C   UNL     1       0.363 -16.469 -24.389  1.00  0.00     0.006 C 
ENDROOT
BRANCH   1   2
ATOM      2  C   UNL     1       1.693 -16.892 -25.026  1.00  0.00     0.053 C 
BRANCH   2   3
ATOM      3  C   UNL     1       2.186 -18.195 -24.477  1.00  0.00     0.041 C 
ATOM      4  O   UNL     1       2.912 -18.215 -23.449  1.00  0.00    -0.550 OA
ATOM      5  O   UNL     1       1.873 -19.385 -25.121  1.00  0.00    -0.550 OA
ENDBRANCH   2   3
ENDBRANCH   1   2
BRANCH   1   6
ATOM      6  C   UNL     1      -0.848 -17.062 -25.124  1.00  0.00     0.000 C 
BRANCH   6   7
ATOM      7  C   UNL     1      -2.026 -16.080 -25.122  1.00  0.00    -0.000 C 
BRANCH   7   8
ATOM      8  C   UNL     1      -1.538 -14.636 -24.954  1.00  0.00    -0.003 C 
ATOM      9  C   UNL     1      -1.997 -14.051 -23.621  1.00  0.00     0.004 C 
ENDBRANCH   7   8
ENDBRANCH   6   7
ENDBRANCH   1   6
TORSDOF 5
ENDMDL
