MODEL 1
REMARK VINA RESULT:    -5.611      0.000      0.000
REMARK INTER + INTRA:          -6.292
REMARK INTER:                  -6.924
REMARK INTRA:                   0.632
REMARK UNBOUND:                 0.632
REMARK SMILES C=C1[C@@H]2CC[C@H]3[C@@H]2C(C)(C)CCC[C@@]13C
REMARK SMILES IDX 14 1 6 2 7 3 3 4 2 5 1 6 4 7 5 8 15 9 8 10 9 11 10 12 11 13
REMARK SMILES IDX 13 15 12 16
REMARK H PARENT
REMARK Flexibility Score: 80.00
ROOT
ATOM      1  C   UNL     1     111.296 110.474 110.163  1.00  0.00    -0.008 C 
ATOM      2  C   UNL     1     112.225 110.860 111.380  1.00  0.00     0.003 C 
ATOM      3  C   UNL     1     111.504 112.040 112.063  1.00  0.00     0.006 C 
ATOM      4  C   UNL     1     111.373 112.839 110.765  1.00  0.00     0.019 C 
ATOM      5  C   UNL     1     110.737 111.837 109.842  1.00  0.00    -0.068 C 
ATOM      6  C   UNL     1     109.892 112.134 108.847  1.00  0.00     0.009 C 
ATOM      7  C   UNL     1     112.856 112.952 110.339  1.00  0.00     0.008 C 
ATOM      8  C   UNL     1     113.471 111.628 110.858  1.00  0.00     0.005 C 
ATOM      9  C   UNL     1     112.074 109.899 108.947  1.00  0.00     0.016 C 
ENDROOT
BRANCH   3  10
ATOM     10  C   UNL     1     110.220 111.772 112.960  1.00  0.00    -0.032 C 
ATOM     11  C   UNL     1     109.125 112.843 112.720  1.00  0.00     0.011 C 
ATOM     12  C   UNL     1     110.642 111.912 114.448  1.00  0.00     0.011 C 
BRANCH  10  13
ATOM     13  C   UNL     1     109.620 110.342 112.836  1.00  0.00     0.007 CG0
ATOM     14  G   UNL     1     109.099 109.955 111.455  1.00  0.00     0.000 G0
ENDBRANCH  10  13
ENDBRANCH   3  10
BRANCH   1  15
ATOM     15  C   UNL     1     110.205 109.438 110.546  1.00  0.00     0.011 C 
BRANCH  15  16
ATOM     16  C   UNL     1     109.096 109.944 111.463  1.00  0.00     0.001 CG0
ATOM     17  G   UNL     1     109.616 110.340 112.842  1.00  0.00     0.000 G0
ENDBRANCH  15  16
ENDBRANCH   1  15
TORSDOF 0
ENDMDL
MODEL 2
REMARK VINA RESULT:    -5.586      1.763      3.543
REMARK INTER + INTRA:          -6.261
REMARK INTER:                  -6.895
REMARK INTRA:                   0.635
REMARK UNBOUND:                 0.632
REMARK SMILES C=C1[C@@H]2CC[C@H]3[C@@H]2C(C)(C)CCC[C@@]13C
REMARK SMILES IDX 14 1 6 2 7 3 3 4 2 5 1 6 4 7 5 8 15 9 8 10 9 11 10 12 11 13
REMARK SMILES IDX 13 15 12 16
REMARK H PARENT
REMARK Flexibility Score: 80.00
ROOT
ATOM      1  C   UNL     1     111.016 111.753 110.082  1.00  0.00    -0.008 C 
ATOM      2  C   UNL     1     110.101 111.429 111.327  1.00  0.00     0.003 C 
ATOM      3  C   UNL     1     110.831 110.285 112.061  1.00  0.00     0.006 C 
ATOM      4  C   UNL     1     110.948 109.421 110.805  1.00  0.00     0.019 C 
ATOM      5  C   UNL     1     111.572 110.375 109.824  1.00  0.00    -0.068 C 
ATOM      6  C   UNL     1     112.406 110.027 108.836  1.00  0.00     0.009 C 
ATOM      7  C   UNL     1     109.460 109.286 110.402  1.00  0.00     0.008 C 
ATOM      8  C   UNL     1     108.850 110.635 110.859  1.00  0.00     0.005 C 
ATOM      9  C   UNL     1     110.224 112.264 108.846  1.00  0.00     0.016 C 
ENDROOT
BRANCH   3  10
ATOM     10  C   UNL     1     112.125 110.599 112.928  1.00  0.00    -0.032 C 
ATOM     11  C   UNL     1     113.223 109.524 112.721  1.00  0.00     0.011 C 
ATOM     12  C   UNL     1     111.724 110.524 114.427  1.00  0.00     0.011 C 
BRANCH  10  13
ATOM     13  C   UNL     1     112.716 112.026 112.733  1.00  0.00     0.007 CG0
ATOM     14  G   UNL     1     113.230 112.348 111.333  1.00  0.00     0.000 G0
ENDBRANCH  10  13
ENDBRANCH   3  10
BRANCH   1  15
ATOM     15  C   UNL     1     112.110 112.807 110.398  1.00  0.00     0.011 C 
BRANCH  15  16
ATOM     16  C   UNL     1     113.227 112.350 111.331  1.00  0.00     0.001 CG0
ATOM     17  G   UNL     1     112.717 112.015 112.730  1.00  0.00     0.000 G0
ENDBRANCH  15  16
ENDBRANCH   1  15
TORSDOF 0
ENDMDL
MODEL 3
REMARK VINA RESULT:    -5.568      3.461      4.871
REMARK INTER + INTRA:          -6.238
REMARK INTER:                  -6.870
REMARK INTRA:                   0.632
REMARK UNBOUND:                 0.632
REMARK SMILES C=C1[C@@H]2CC[C@H]3[C@@H]2C(C)(C)CCC[C@@]13C
REMARK SMILES IDX 14 1 6 2 7 3 3 4 2 5 1 6 4 7 5 8 15 9 8 10 9 11 10 12 11 13
REMARK SMILES IDX 13 15 12 16
REMARK H PARENT
REMARK Flexibility Score: 80.00
ROOT
ATOM      1  C   UNL     1     111.277 110.471 115.019  1.00  0.00    -0.008 C 
ATOM      2  C   UNL     1     112.217 110.811 116.242  1.00  0.00     0.003 C 
ATOM      3  C   UNL     1     111.528 111.998 116.945  1.00  0.00     0.006 C 
ATOM      4  C   UNL     1     111.417 112.822 115.662  1.00  0.00     0.019 C 
ATOM      5  C   UNL     1     110.755 111.854 114.722  1.00  0.00    -0.068 C 
ATOM      6  C   UNL     1     109.917 112.191 113.733  1.00  0.00     0.009 C 
ATOM      7  C   UNL     1     112.903 112.904 115.236  1.00  0.00     0.008 C 
ATOM      8  C   UNL     1     113.482 111.555 115.731  1.00  0.00     0.005 C 
ATOM      9  C   UNL     1     112.038 109.896 113.792  1.00  0.00     0.016 C 
ENDROOT
BRANCH   3  10
ATOM     10  C   UNL     1     110.237 111.749 117.839  1.00  0.00    -0.032 C 
ATOM     11  C   UNL     1     109.168 112.849 117.612  1.00  0.00     0.011 C 
ATOM     12  C   UNL     1     110.662 111.860 119.329  1.00  0.00     0.011 C 
BRANCH  10  13
ATOM     13  C   UNL     1     109.604 110.335 117.696  1.00  0.00     0.007 CG0
ATOM     14  G   UNL     1     109.072 109.980 116.311  1.00  0.00     0.000 G0
ENDBRANCH  10  13
ENDBRANCH   3  10
BRANCH   1  15
ATOM     15  C   UNL     1     110.159 109.458 115.385  1.00  0.00     0.011 C 
BRANCH  15  16
ATOM     16  C   UNL     1     109.066 109.977 116.313  1.00  0.00     0.001 CG0
ATOM     17  G   UNL     1     109.598 110.338 117.697  1.00  0.00     0.000 G0
ENDBRANCH  15  16
ENDBRANCH   1  15
TORSDOF 0
ENDMDL
MODEL 4
REMARK VINA RESULT:    -5.515      3.532      4.950
REMARK INTER + INTRA:          -6.173
REMARK INTER:                  -6.812
REMARK INTRA:                   0.640
REMARK UNBOUND:                 0.632
REMARK SMILES C=C1[C@@H]2CC[C@H]3[C@@H]2C(C)(C)CCC[C@@]13C
REMARK SMILES IDX 14 1 6 2 7 3 3 4 2 5 1 6 4 7 5 8 15 9 8 10 9 11 10 12 11 13
REMARK SMILES IDX 13 15 12 16
REMARK H PARENT
REMARK Flexibility Score: 80.00
ROOT
ATOM      1  C   UNL     1     111.277 110.447 105.191  1.00  0.00    -0.008 C 
ATOM      2  C   UNL     1     112.239 110.815 106.387  1.00  0.00     0.003 C 
ATOM      3  C   UNL     1     111.542 111.991 107.101  1.00  0.00     0.006 C 
ATOM      4  C   UNL     1     111.382 112.805 105.816  1.00  0.00     0.019 C 
ATOM      5  C   UNL     1     110.718 111.817 104.899  1.00  0.00    -0.068 C 
ATOM      6  C   UNL     1     109.849 112.129 103.929  1.00  0.00     0.009 C 
ATOM      7  C   UNL     1     112.854 112.916 105.354  1.00  0.00     0.008 C 
ATOM      8  C   UNL     1     113.475 111.582 105.842  1.00  0.00     0.005 C 
ATOM      9  C   UNL     1     112.020 109.882 103.948  1.00  0.00     0.016 C 
ENDROOT
BRANCH   3  10
ATOM     10  C   UNL     1     110.280 111.720 108.028  1.00  0.00    -0.032 C 
ATOM     11  C   UNL     1     109.180 112.792 107.819  1.00  0.00     0.011 C 
ATOM     12  C   UNL     1     110.737 111.854 109.506  1.00  0.00     0.011 C 
BRANCH  10  13
ATOM     13  C   UNL     1     109.677 110.290 107.913  1.00  0.00     0.007 CG0
ATOM     14  G   UNL     1     109.113 109.913 106.546  1.00  0.00     0.000 G0
ENDBRANCH  10  13
ENDBRANCH   3  10
BRANCH   1  15
ATOM     15  C   UNL     1     110.191 109.413 105.590  1.00  0.00     0.011 C 
BRANCH  15  16
ATOM     16  C   UNL     1     109.115 109.911 106.549  1.00  0.00     0.001 CG0
ATOM     17  G   UNL     1     109.681 110.280 107.918  1.00  0.00     0.000 G0
ENDBRANCH  15  16
ENDBRANCH   1  15
TORSDOF 0
ENDMDL
MODEL 5
REMARK VINA RESULT:    -5.452      1.669      3.085
REMARK INTER + INTRA:          -6.095
REMARK INTER:                  -6.730
REMARK INTRA:                   0.635
REMARK UNBOUND:                 0.632
REMARK SMILES C=C1[C@@H]2CC[C@H]3[C@@H]2C(C)(C)CCC[C@@]13C
REMARK SMILES IDX 14 1 6 2 7 3 3 4 2 5 1 6 4 7 5 8 15 9 8 10 9 11 10 12 11 13
REMARK SMILES IDX 13 15 12 16
REMARK H PARENT
REMARK Flexibility Score: 80.00
ROOT
ATOM      1  C   UNL     1     112.062 111.734 110.486  1.00  0.00    -0.008 C 
ATOM      2  C   UNL     1     110.774 112.586 110.813  1.00  0.00     0.003 C 
ATOM      3  C   UNL     1     109.990 111.733 111.832  1.00  0.00     0.006 C 
ATOM      4  C   UNL     1     110.021 110.480 110.956  1.00  0.00     0.019 C 
ATOM      5  C   UNL     1     111.485 110.350 110.643  1.00  0.00    -0.068 C 
ATOM      6  C   UNL     1     112.131 109.193 110.448  1.00  0.00     0.009 C 
ATOM      7  C   UNL     1     109.340 111.006 109.669  1.00  0.00     0.008 C 
ATOM      8  C   UNL     1     109.776 112.492 109.625  1.00  0.00     0.005 C 
ATOM      9  C   UNL     1     112.596 111.945 109.042  1.00  0.00     0.016 C 
ENDROOT
BRANCH   3  10
ATOM     10  C   UNL     1     110.481 111.654 113.342  1.00  0.00    -0.032 C 
ATOM     11  C   UNL     1     110.376 110.211 113.899  1.00  0.00     0.011 C 
ATOM     12  C   UNL     1     109.518 112.519 114.200  1.00  0.00     0.011 C 
BRANCH  10  13
ATOM     13  C   UNL     1     111.899 112.238 113.602  1.00  0.00     0.007 CG0
ATOM     14  G   UNL     1     113.052 111.525 112.901  1.00  0.00     0.000 G0
ENDBRANCH  10  13
ENDBRANCH   3  10
BRANCH   1  15
ATOM     15  C   UNL     1     113.237 112.024 111.459  1.00  0.00     0.011 C 
BRANCH  15  16
ATOM     16  C   UNL     1     113.051 111.536 112.893  1.00  0.00     0.001 CG0
ATOM     17  G   UNL     1     111.891 112.231 113.599  1.00  0.00     0.000 G0
ENDBRANCH  15  16
ENDBRANCH   1  15
TORSDOF 0
ENDMDL
MODEL 6
REMARK VINA RESULT:    -5.413      2.361      4.482
REMARK INTER + INTRA:          -6.047
REMARK INTER:                  -6.676
REMARK INTRA:                   0.629
REMARK UNBOUND:                 0.632
REMARK SMILES C=C1[C@@H]2CC[C@H]3[C@@H]2C(C)(C)CCC[C@@]13C
REMARK SMILES IDX 14 1 6 2 7 3 3 4 2 5 1 6 4 7 5 8 15 9 8 10 9 11 10 12 11 13
REMARK SMILES IDX 13 15 12 16
REMARK H PARENT
REMARK Flexibility Score: 80.00
ROOT
ATOM      1  C   UNL     1     111.868 110.392 110.250  1.00  0.00    -0.008 C 
ATOM      2  C   UNL     1     110.428 109.832 109.921  1.00  0.00     0.003 C 
ATOM      3  C   UNL     1     109.790 110.904 109.013  1.00  0.00     0.006 C 
ATOM      4  C   UNL     1     110.092 112.047 109.983  1.00  0.00     0.019 C 
ATOM      5  C   UNL     1     111.564 111.869 110.232  1.00  0.00    -0.068 C 
ATOM      6  C   UNL     1     112.427 112.861 110.485  1.00  0.00     0.009 C 
ATOM      7  C   UNL     1     109.367 111.550 111.257  1.00  0.00     0.008 C 
ATOM      8  C   UNL     1     109.508 110.010 111.161  1.00  0.00     0.005 C 
ATOM      9  C   UNL     1     112.399 109.959 111.645  1.00  0.00     0.016 C 
ENDROOT
BRANCH   3  10
ATOM     10  C   UNL     1     110.236 111.020 107.492  1.00  0.00    -0.032 C 
ATOM     11  C   UNL     1     110.380 112.500 107.053  1.00  0.00     0.011 C 
ATOM     12  C   UNL     1     109.102 110.419 106.617  1.00  0.00     0.011 C 
BRANCH  10  13
ATOM     13  C   UNL     1     111.513 110.214 107.119  1.00  0.00     0.007 CG0
ATOM     14  G   UNL     1     112.796 110.631 107.831  1.00  0.00     0.000 G0
ENDBRANCH  10  13
ENDBRANCH   3  10
BRANCH   1  15
ATOM     15  C   UNL     1     112.930 109.971 109.200  1.00  0.00     0.011 C 
BRANCH  15  16
ATOM     16  C   UNL     1     112.799 110.615 107.823  1.00  0.00     0.001 CG0
ATOM     17  G   UNL     1     111.511 110.212 107.112  1.00  0.00     0.000 G0
ENDBRANCH  15  16
ENDBRANCH   1  15
TORSDOF 0
ENDMDL
MODEL 7
REMARK VINA RESULT:    -5.411      2.192      4.508
REMARK INTER + INTRA:          -6.045
REMARK INTER:                  -6.669
REMARK INTRA:                   0.624
REMARK UNBOUND:                 0.632
REMARK SMILES C=C1[C@@H]2CC[C@H]3[C@@H]2C(C)(C)CCC[C@@]13C
REMARK SMILES IDX 14 1 6 2 7 3 3 4 2 5 1 6 4 7 5 8 15 9 8 10 9 11 10 12 11 13
REMARK SMILES IDX 13 15 12 16
REMARK H PARENT
REMARK Flexibility Score: 80.00
ROOT
ATOM      1  C   UNL     1     110.443 112.019 110.091  1.00  0.00    -0.008 C 
ATOM      2  C   UNL     1     111.914 112.500 109.782  1.00  0.00     0.003 C 
ATOM      3  C   UNL     1     112.507 111.393 108.885  1.00  0.00     0.006 C 
ATOM      4  C   UNL     1     112.130 110.271 109.853  1.00  0.00     0.019 C 
ATOM      5  C   UNL     1     110.667 110.528 110.080  1.00  0.00    -0.068 C 
ATOM      6  C   UNL     1     109.748 109.585 110.323  1.00  0.00     0.009 C 
ATOM      7  C   UNL     1     112.863 110.731 111.136  1.00  0.00     0.008 C 
ATOM      8  C   UNL     1     112.807 112.277 111.035  1.00  0.00     0.005 C 
ATOM      9  C   UNL     1     109.916 112.485 111.477  1.00  0.00     0.016 C 
ENDROOT
BRANCH   3  10
ATOM     10  C   UNL     1     112.078 111.297 107.358  1.00  0.00    -0.032 C 
ATOM     11  C   UNL     1     111.861 109.826 106.920  1.00  0.00     0.011 C 
ATOM     12  C   UNL     1     113.255 111.835 106.499  1.00  0.00     0.011 C 
BRANCH  10  13
ATOM     13  C   UNL     1     110.851 112.169 106.965  1.00  0.00     0.007 CG0
ATOM     14  G   UNL     1     109.536 111.821 107.657  1.00  0.00     0.000 G0
ENDBRANCH  10  13
ENDBRANCH   3  10
BRANCH   1  15
ATOM     15  C   UNL     1     109.420 112.494 109.025  1.00  0.00     0.011 C 
BRANCH  15  16
ATOM     16  C   UNL     1     109.532 111.836 107.653  1.00  0.00     0.001 CG0
ATOM     17  G   UNL     1     110.849 112.163 106.956  1.00  0.00     0.000 G0
ENDBRANCH  15  16
ENDBRANCH   1  15
TORSDOF 0
ENDMDL
MODEL 8
REMARK VINA RESULT:    -5.409      1.763      4.526
REMARK INTER + INTRA:          -6.043
REMARK INTER:                  -6.682
REMARK INTRA:                   0.640
REMARK UNBOUND:                 0.632
REMARK SMILES C=C1[C@@H]2CC[C@H]3[C@@H]2C(C)(C)CCC[C@@]13C
REMARK SMILES IDX 14 1 6 2 7 3 3 4 2 5 1 6 4 7 5 8 15 9 8 10 9 11 10 12 11 13
REMARK SMILES IDX 13 15 12 16
REMARK H PARENT
REMARK Flexibility Score: 80.00
ROOT
ATOM      1  C   UNL     1     110.412 111.967 114.938  1.00  0.00    -0.008 C 
ATOM      2  C   UNL     1     111.867 112.506 114.644  1.00  0.00     0.003 C 
ATOM      3  C   UNL     1     112.502 111.437 113.730  1.00  0.00     0.006 C 
ATOM      4  C   UNL     1     112.163 110.284 114.676  1.00  0.00     0.019 C 
ATOM      5  C   UNL     1     110.690 110.485 114.901  1.00  0.00    -0.068 C 
ATOM      6  C   UNL     1     109.804 109.505 115.123  1.00  0.00     0.009 C 
ATOM      7  C   UNL     1     112.874 110.748 115.970  1.00  0.00     0.008 C 
ATOM      8  C   UNL     1     112.762 112.292 115.896  1.00  0.00     0.005 C 
ATOM      9  C   UNL     1     109.864 112.388 116.329  1.00  0.00     0.016 C 
ENDROOT
BRANCH   3  10
ATOM     10  C   UNL     1     112.083 111.353 112.200  1.00  0.00    -0.032 C 
ATOM     11  C   UNL     1     111.905 109.883 111.738  1.00  0.00     0.011 C 
ATOM     12  C   UNL     1     113.250 111.932 111.354  1.00  0.00     0.011 C 
BRANCH  10  13
ATOM     13  C   UNL     1     110.836 112.200 111.813  1.00  0.00     0.007 CG0
ATOM     14  G   UNL     1     109.527 111.807 112.492  1.00  0.00     0.000 G0
ENDBRANCH  10  13
ENDBRANCH   3  10
BRANCH   1  15
ATOM     15  C   UNL     1     109.377 112.423 113.875  1.00  0.00     0.011 C 
BRANCH  15  16
ATOM     16  C   UNL     1     109.529 111.809 112.487  1.00  0.00     0.001 CG0
ATOM     17  G   UNL     1     110.838 112.212 111.813  1.00  0.00     0.000 G0
ENDBRANCH  15  16
ENDBRANCH   1  15
TORSDOF 0
ENDMDL
MODEL 9
REMARK VINA RESULT:    -5.379      1.978      4.644
REMARK INTER + INTRA:          -6.006
REMARK INTER:                  -6.635
REMARK INTRA:                   0.630
REMARK UNBOUND:                 0.632
REMARK SMILES C=C1[C@@H]2CC[C@H]3[C@@H]2C(C)(C)CCC[C@@]13C
REMARK SMILES IDX 14 1 6 2 7 3 3 4 2 5 1 6 4 7 5 8 15 9 8 10 9 11 10 12 11 13
REMARK SMILES IDX 13 15 12 16
REMARK H PARENT
REMARK Flexibility Score: 80.00
ROOT
ATOM      1  C   UNL     1     111.774 110.375 115.038  1.00  0.00    -0.008 C 
ATOM      2  C   UNL     1     110.375 109.751 114.657  1.00  0.00     0.003 C 
ATOM      3  C   UNL     1     109.717 110.799 113.736  1.00  0.00     0.006 C 
ATOM      4  C   UNL     1     109.932 111.947 114.724  1.00  0.00     0.019 C 
ATOM      5  C   UNL     1     111.402 111.836 115.020  1.00  0.00    -0.068 C 
ATOM      6  C   UNL     1     112.208 112.865 115.309  1.00  0.00     0.009 C 
ATOM      7  C   UNL     1     109.190 111.405 115.969  1.00  0.00     0.008 C 
ATOM      8  C   UNL     1     109.407 109.874 115.867  1.00  0.00     0.005 C 
ATOM      9  C   UNL     1     112.280 109.955 116.446  1.00  0.00     0.016 C 
ENDROOT
BRANCH   3  10
ATOM     10  C   UNL     1     110.205 110.949 112.232  1.00  0.00    -0.032 C 
ATOM     11  C   UNL     1     110.304 112.438 111.812  1.00  0.00     0.011 C 
ATOM     12  C   UNL     1     109.125 110.313 111.315  1.00  0.00     0.011 C 
BRANCH  10  13
ATOM     13  C   UNL     1     111.525 110.198 111.892  1.00  0.00     0.007 CG0
ATOM     14  G   UNL     1     112.769 110.666 112.642  1.00  0.00     0.000 G0
ENDBRANCH  10  13
ENDBRANCH   3  10
BRANCH   1  15
ATOM     15  C   UNL     1     112.889 110.014 114.020  1.00  0.00     0.011 C 
BRANCH  15  16
ATOM     16  C   UNL     1     112.771 110.659 112.643  1.00  0.00     0.001 CG0
ATOM     17  G   UNL     1     111.523 110.204 111.891  1.00  0.00     0.000 G0
ENDBRANCH  15  16
ENDBRANCH   1  15
TORSDOF 0
ENDMDL
