MODEL 1
REMARK VINA RESULT:    -5.004      0.000      0.000
REMARK INTER + INTRA:          -9.214
REMARK INTER:                  -7.783
REMARK INTRA:                  -1.431
REMARK UNBOUND:                -1.431
REMARK SMILES COc1cc(CNC(=O)CCCCC=CC(C)C)ccc1O
REMARK SMILES IDX 11 1 12 2 13 3 14 4 15 5 16 6 17 7 18 8 10 9 8 10 9 11 7 12
REMARK SMILES IDX 6 14 5 15 4 16 19 17 3 18 20 19 21 20 2 21 1 22 22 23
REMARK H PARENT 7 13 22 24
REMARK Flexibility Score: inf
ROOT
ATOM      1  C   UNL     1      -0.979  50.133  83.396  1.00  0.00     0.010 C 
ENDROOT
BRANCH   1   2
ATOM      2  C   UNL     1       0.176  49.355  84.050  1.00  0.00     0.005 C 
BRANCH   2   3
ATOM      3  C   UNL     1      -0.290  48.021  84.648  1.00  0.00     0.027 C 
BRANCH   3   4
ATOM      4  C   UNL     1       0.395  46.855  83.987  1.00  0.00    -0.031 C 
ATOM      5  C   UNL     1       0.455  46.740  82.650  1.00  0.00    -0.028 C 
BRANCH   5   6
ATOM      6  C   UNL     1       1.035  45.514  81.989  1.00  0.00     0.005 C 
ATOM      7  C   UNL     1       0.371  45.288  80.627  1.00  0.00     0.012 C 
ATOM      8  C   UNL     1       0.839  44.297  82.896  1.00  0.00     0.012 C 
ENDBRANCH   5   6
ENDBRANCH   3   4
ENDBRANCH   2   3
ENDBRANCH   1   2
BRANCH   1   9
ATOM      9  C   UNL     1      -2.351  49.659  83.891  1.00  0.00     0.100 C 
BRANCH   9  10
ATOM     10  C   UNL     1      -3.193  49.127  82.768  1.00  0.00     0.220 C 
ATOM     11  O   UNL     1      -4.111  49.846  82.288  1.00  0.00    -0.275 OA
ATOM     12  N   UNL     1      -2.928  47.828  82.218  1.00  0.00    -0.352 N 
ATOM     13  H   UNL     1      -2.138  47.263  82.606  1.00  0.00     0.163 HD
BRANCH  12  14
ATOM     14  C   UNL     1      -3.697  47.277  81.105  1.00  0.00     0.151 C 
BRANCH  14  15
ATOM     15  C   UNL     1      -2.863  47.258  79.852  1.00  0.00    -0.025 A 
ATOM     16  C   UNL     1      -2.769  46.083  79.088  1.00  0.00     0.056 A 
ATOM     17  C   UNL     1      -2.194  48.415  79.425  1.00  0.00     0.009 A 
ATOM     18  C   UNL     1      -2.008  46.059  77.902  1.00  0.00     0.160 A 
ATOM     19  C   UNL     1      -1.436  48.396  78.253  1.00  0.00     0.050 A 
ATOM     20  C   UNL     1      -1.339  47.227  77.491  1.00  0.00     0.157 A 
BRANCH  18  21
ATOM     21  O   UNL     1      -1.899  44.902  77.113  1.00  0.00    -0.493 OA
ATOM     22  C   UNL     1      -2.721  44.610  75.989  1.00  0.00     0.278 C 
ENDBRANCH  18  21
BRANCH  20  23
ATOM     23  O   UNL     1      -0.576  47.247  76.324  1.00  0.00    -0.504 OA
ATOM     24  H   UNL     1      -0.125  48.090  75.987  1.00  0.00     0.293 HD
ENDBRANCH  20  23
ENDBRANCH  14  15
ENDBRANCH  12  14
ENDBRANCH   9  10
ENDBRANCH   1   9
TORSDOF 10
ENDMDL
MODEL 2
REMARK VINA RESULT:    -4.979      2.302      3.381
REMARK INTER + INTRA:          -9.175
REMARK INTER:                  -8.151
REMARK INTRA:                  -1.024
REMARK UNBOUND:                -1.431
REMARK SMILES COc1cc(CNC(=O)CCCCC=CC(C)C)ccc1O
REMARK SMILES IDX 11 1 12 2 13 3 14 4 15 5 16 6 17 7 18 8 10 9 8 10 9 11 7 12
REMARK SMILES IDX 6 14 5 15 4 16 19 17 3 18 20 19 21 20 2 21 1 22 22 23
REMARK H PARENT 7 13 22 24
REMARK Flexibility Score: inf
ROOT
ATOM      1  C   UNL     1       0.549  45.698  83.872  1.00  0.00     0.010 C 
ENDROOT
BRANCH   1   2
ATOM      2  C   UNL     1       1.084  45.553  82.437  1.00  0.00     0.005 C 
BRANCH   2   3
ATOM      3  C   UNL     1       1.229  44.083  82.021  1.00  0.00     0.027 C 
BRANCH   3   4
ATOM      4  C   UNL     1       2.133  43.333  82.963  1.00  0.00    -0.031 C 
ATOM      5  C   UNL     1       3.459  43.540  82.979  1.00  0.00    -0.028 C 
BRANCH   5   6
ATOM      6  C   UNL     1       4.377  42.705  83.837  1.00  0.00     0.005 C 
ATOM      7  C   UNL     1       5.833  43.124  83.610  1.00  0.00     0.012 C 
ATOM      8  C   UNL     1       4.182  41.223  83.510  1.00  0.00     0.012 C 
ENDBRANCH   5   6
ENDBRANCH   3   4
ENDBRANCH   2   3
ENDBRANCH   1   2
BRANCH   1   9
ATOM      9  C   UNL     1       0.388  47.166  84.287  1.00  0.00     0.100 C 
BRANCH   9  10
ATOM     10  C   UNL     1      -0.411  47.942  83.281  1.00  0.00     0.220 C 
ATOM     11  O   UNL     1       0.069  49.002  82.793  1.00  0.00    -0.275 OA
ATOM     12  N   UNL     1      -1.691  47.461  82.848  1.00  0.00    -0.352 N 
ATOM     13  H   UNL     1      -2.055  46.561  83.237  1.00  0.00     0.163 HD
BRANCH  12  14
ATOM     14  C   UNL     1      -2.495  48.162  81.849  1.00  0.00     0.151 C 
BRANCH  14  15
ATOM     15  C   UNL     1      -2.069  47.763  80.461  1.00  0.00    -0.025 A 
ATOM     16  C   UNL     1      -1.667  46.443  80.201  1.00  0.00     0.056 A 
ATOM     17  C   UNL     1      -2.091  48.696  79.415  1.00  0.00     0.009 A 
ATOM     18  C   UNL     1      -1.286  46.052  78.902  1.00  0.00     0.160 A 
ATOM     19  C   UNL     1      -1.711  48.317  78.126  1.00  0.00     0.050 A 
ATOM     20  C   UNL     1      -1.310  47.003  77.864  1.00  0.00     0.157 A 
BRANCH  18  21
ATOM     21  O   UNL     1      -0.886  44.738  78.608  1.00  0.00    -0.493 OA
ATOM     22  C   UNL     1      -1.775  43.640  78.443  1.00  0.00     0.278 C 
ENDBRANCH  18  21
BRANCH  20  23
ATOM     23  O   UNL     1      -0.940  46.660  76.564  1.00  0.00    -0.504 OA
ATOM     24  H   UNL     1      -1.618  46.559  75.817  1.00  0.00     0.293 HD
ENDBRANCH  20  23
ENDBRANCH  14  15
ENDBRANCH  12  14
ENDBRANCH   9  10
ENDBRANCH   1   9
TORSDOF 10
ENDMDL
MODEL 3
REMARK VINA RESULT:    -4.957      4.840      8.097
REMARK INTER + INTRA:          -9.141
REMARK INTER:                  -7.967
REMARK INTRA:                  -1.175
REMARK UNBOUND:                -1.431
REMARK SMILES COc1cc(CNC(=O)CCCCC=CC(C)C)ccc1O
REMARK SMILES IDX 11 1 12 2 13 3 14 4 15 5 16 6 17 7 18 8 10 9 8 10 9 11 7 12
REMARK SMILES IDX 6 14 5 15 4 16 19 17 3 18 20 19 21 20 2 21 1 22 22 23
REMARK H PARENT 7 13 22 24
REMARK Flexibility Score: inf
ROOT
ATOM      1  C   UNL     1      -0.340  43.814  79.398  1.00  0.00     0.010 C 
ENDROOT
BRANCH   1   2
ATOM      2  C   UNL     1      -0.364  45.180  80.106  1.00  0.00     0.005 C 
BRANCH   2   3
ATOM      3  C   UNL     1       0.918  45.438  80.908  1.00  0.00     0.027 C 
BRANCH   3   4
ATOM      4  C   UNL     1       0.618  46.117  82.218  1.00  0.00    -0.031 C 
ATOM      5  C   UNL     1      -0.087  47.258  82.273  1.00  0.00    -0.028 C 
BRANCH   5   6
ATOM      6  C   UNL     1      -0.285  48.002  83.571  1.00  0.00     0.005 C 
ATOM      7  C   UNL     1       0.029  49.488  83.377  1.00  0.00     0.012 C 
ATOM      8  C   UNL     1       0.610  47.395  84.654  1.00  0.00     0.012 C 
ENDBRANCH   5   6
ENDBRANCH   3   4
ENDBRANCH   2   3
ENDBRANCH   1   2
BRANCH   1   9
ATOM      9  C   UNL     1      -1.147  42.753  80.156  1.00  0.00     0.100 C 
BRANCH   9  10
ATOM     10  C   UNL     1      -0.254  41.827  80.931  1.00  0.00     0.220 C 
ATOM     11  O   UNL     1      -0.751  41.104  81.838  1.00  0.00    -0.275 OA
ATOM     12  N   UNL     1       1.142  41.735  80.615  1.00  0.00    -0.352 N 
ATOM     13  H   UNL     1       1.526  42.316  79.834  1.00  0.00     0.163 HD
BRANCH  12  14
ATOM     14  C   UNL     1       2.045  40.828  81.317  1.00  0.00     0.151 C 
BRANCH  14  15
ATOM     15  C   UNL     1       2.837  41.577  82.355  1.00  0.00    -0.025 A 
ATOM     16  C   UNL     1       3.837  40.917  83.088  1.00  0.00     0.056 A 
ATOM     17  C   UNL     1       2.600  42.940  82.584  1.00  0.00     0.009 A 
ATOM     18  C   UNL     1       4.599  41.613  84.048  1.00  0.00     0.160 A 
ATOM     19  C   UNL     1       3.348  43.634  83.537  1.00  0.00     0.050 A 
ATOM     20  C   UNL     1       4.344  42.979  84.269  1.00  0.00     0.157 A 
BRANCH  18  21
ATOM     21  O   UNL     1       5.610  40.983  84.793  1.00  0.00    -0.493 OA
ATOM     22  C   UNL     1       5.398  40.282  86.013  1.00  0.00     0.278 C 
ENDBRANCH  18  21
BRANCH  20  23
ATOM     23  O   UNL     1       5.073  43.706  85.209  1.00  0.00    -0.504 OA
ATOM     24  H   UNL     1       5.001  43.528  86.205  1.00  0.00     0.293 HD
ENDBRANCH  20  23
ENDBRANCH  14  15
ENDBRANCH  12  14
ENDBRANCH   9  10
ENDBRANCH   1   9
TORSDOF 10
ENDMDL
MODEL 4
REMARK VINA RESULT:    -4.899      2.781      6.139
REMARK INTER + INTRA:          -9.051
REMARK INTER:                  -7.649
REMARK INTRA:                  -1.402
REMARK UNBOUND:                -1.431
REMARK SMILES COc1cc(CNC(=O)CCCCC=CC(C)C)ccc1O
REMARK SMILES IDX 11 1 12 2 13 3 14 4 15 5 16 6 17 7 18 8 10 9 8 10 9 11 7 12
REMARK SMILES IDX 6 14 5 15 4 16 19 17 3 18 20 19 21 20 2 21 1 22 22 23
REMARK H PARENT 7 13 22 24
REMARK Flexibility Score: inf
ROOT
ATOM      1  C   UNL     1      -2.848  47.805  79.176  1.00  0.00     0.010 C 
ENDROOT
BRANCH   1   2
ATOM      2  C   UNL     1      -1.770  48.371  78.235  1.00  0.00     0.005 C 
BRANCH   2   3
ATOM      3  C   UNL     1      -0.946  47.264  77.568  1.00  0.00     0.027 C 
BRANCH   3   4
ATOM      4  C   UNL     1      -1.658  45.939  77.624  1.00  0.00    -0.031 C 
ATOM      5  C   UNL     1      -2.056  45.306  76.508  1.00  0.00    -0.028 C 
BRANCH   5   6
ATOM      6  C   UNL     1      -2.874  44.040  76.568  1.00  0.00     0.005 C 
ATOM      7  C   UNL     1      -2.517  43.244  77.827  1.00  0.00     0.012 C 
ATOM      8  C   UNL     1      -2.626  43.205  75.310  1.00  0.00     0.012 C 
ENDBRANCH   5   6
ENDBRANCH   3   4
ENDBRANCH   2   3
ENDBRANCH   1   2
BRANCH   1   9
ATOM      9  C   UNL     1      -2.753  48.394  80.589  1.00  0.00     0.100 C 
BRANCH   9  10
ATOM     10  C   UNL     1      -1.450  48.047  81.249  1.00  0.00     0.220 C 
ATOM     11  O   UNL     1      -0.732  48.970  81.723  1.00  0.00    -0.275 OA
ATOM     12  N   UNL     1      -1.046  46.677  81.377  1.00  0.00    -0.352 N 
ATOM     13  H   UNL     1      -1.674  45.925  81.010  1.00  0.00     0.163 HD
BRANCH  12  14
ATOM     14  C   UNL     1       0.195  46.284  82.038  1.00  0.00     0.151 C 
BRANCH  14  15
ATOM     15  C   UNL     1       0.574  44.880  81.649  1.00  0.00    -0.025 A 
ATOM     16  C   UNL     1       1.560  44.192  82.375  1.00  0.00     0.056 A 
ATOM     17  C   UNL     1      -0.068  44.240  80.579  1.00  0.00     0.009 A 
ATOM     18  C   UNL     1       1.909  42.870  82.034  1.00  0.00     0.160 A 
ATOM     19  C   UNL     1       0.276  42.932  80.233  1.00  0.00     0.050 A 
ATOM     20  C   UNL     1       1.259  42.244  80.954  1.00  0.00     0.157 A 
BRANCH  18  21
ATOM     21  O   UNL     1       2.886  42.152  82.744  1.00  0.00    -0.493 OA
ATOM     22  C   UNL     1       3.925  42.747  83.514  1.00  0.00     0.278 C 
ENDBRANCH  18  21
BRANCH  20  23
ATOM     23  O   UNL     1       1.573  40.938  80.582  1.00  0.00    -0.504 OA
ATOM     24  H   UNL     1       2.339  40.424  81.003  1.00  0.00     0.293 HD
ENDBRANCH  20  23
ENDBRANCH  14  15
ENDBRANCH  12  14
ENDBRANCH   9  10
ENDBRANCH   1   9
TORSDOF 10
ENDMDL
MODEL 5
REMARK VINA RESULT:    -4.843      5.874      9.374
REMARK INTER + INTRA:          -8.964
REMARK INTER:                  -6.793
REMARK INTRA:                  -2.171
REMARK UNBOUND:                -1.431
REMARK SMILES COc1cc(CNC(=O)CCCCC=CC(C)C)ccc1O
REMARK SMILES IDX 11 1 12 2 13 3 14 4 15 5 16 6 17 7 18 8 10 9 8 10 9 11 7 12
REMARK SMILES IDX 6 14 5 15 4 16 19 17 3 18 20 19 21 20 2 21 1 22 22 23
REMARK H PARENT 7 13 22 24
REMARK Flexibility Score: inf
ROOT
ATOM      1  C   UNL     1       0.173  43.420  81.621  1.00  0.00     0.010 C 
ENDROOT
BRANCH   1   2
ATOM      2  C   UNL     1       1.141  44.597  81.828  1.00  0.00     0.005 C 
BRANCH   2   3
ATOM      3  C   UNL     1       1.459  44.831  83.310  1.00  0.00     0.027 C 
BRANCH   3   4
ATOM      4  C   UNL     1       0.726  43.853  84.190  1.00  0.00    -0.031 C 
ATOM      5  C   UNL     1       1.378  42.902  84.877  1.00  0.00    -0.028 C 
BRANCH   5   6
ATOM      6  C   UNL     1       0.636  41.849  85.663  1.00  0.00     0.005 C 
ATOM      7  C   UNL     1       1.372  41.556  86.974  1.00  0.00     0.012 C 
ATOM      8  C   UNL     1       0.501  40.577  84.822  1.00  0.00     0.012 C 
ENDBRANCH   5   6
ENDBRANCH   3   4
ENDBRANCH   2   3
ENDBRANCH   1   2
BRANCH   1   9
ATOM      9  C   UNL     1       0.692  42.414  80.587  1.00  0.00     0.100 C 
BRANCH   9  10
ATOM     10  C   UNL     1       1.371  41.245  81.241  1.00  0.00     0.220 C 
ATOM     11  O   UNL     1       0.799  40.121  81.244  1.00  0.00    -0.275 OA
ATOM     12  N   UNL     1       2.675  41.397  81.819  1.00  0.00    -0.352 N 
ATOM     13  H   UNL     1       3.147  42.329  81.773  1.00  0.00     0.163 HD
BRANCH  12  14
ATOM     14  C   UNL     1       3.391  40.285  82.439  1.00  0.00     0.151 C 
BRANCH  14  15
ATOM     15  C   UNL     1       4.096  40.747  83.686  1.00  0.00    -0.025 A 
ATOM     16  C   UNL     1       4.720  42.005  83.716  1.00  0.00     0.056 A 
ATOM     17  C   UNL     1       4.118  39.938  84.832  1.00  0.00     0.009 A 
ATOM     18  C   UNL     1       5.366  42.457  84.885  1.00  0.00     0.160 A 
ATOM     19  C   UNL     1       4.759  40.378  85.991  1.00  0.00     0.050 A 
ATOM     20  C   UNL     1       5.382  41.631  86.024  1.00  0.00     0.157 A 
BRANCH  18  21
ATOM     21  O   UNL     1       5.993  43.712  84.949  1.00  0.00    -0.493 OA
ATOM     22  C   UNL     1       7.356  43.953  84.618  1.00  0.00     0.278 C 
ENDBRANCH  18  21
BRANCH  20  23
ATOM     23  O   UNL     1       6.010  42.037  87.200  1.00  0.00    -0.504 OA
ATOM     24  H   UNL     1       6.437  42.952  87.298  1.00  0.00     0.293 HD
ENDBRANCH  20  23
ENDBRANCH  14  15
ENDBRANCH  12  14
ENDBRANCH   9  10
ENDBRANCH   1   9
TORSDOF 10
ENDMDL
MODEL 6
REMARK VINA RESULT:    -4.842      3.861      7.361
REMARK INTER + INTRA:          -8.962
REMARK INTER:                  -7.940
REMARK INTRA:                  -1.022
REMARK UNBOUND:                -1.431
REMARK SMILES COc1cc(CNC(=O)CCCCC=CC(C)C)ccc1O
REMARK SMILES IDX 11 1 12 2 13 3 14 4 15 5 16 6 17 7 18 8 10 9 8 10 9 11 7 12
REMARK SMILES IDX 6 14 5 15 4 16 19 17 3 18 20 19 21 20 2 21 1 22 22 23
REMARK H PARENT 7 13 22 24
REMARK Flexibility Score: inf
ROOT
ATOM      1  C   UNL     1       1.078  41.119  81.212  1.00  0.00     0.010 C 
ENDROOT
BRANCH   1   2
ATOM      2  C   UNL     1       2.590  40.832  81.215  1.00  0.00     0.005 C 
BRANCH   2   3
ATOM      3  C   UNL     1       3.000  39.911  82.372  1.00  0.00     0.027 C 
BRANCH   3   4
ATOM      4  C   UNL     1       3.722  40.674  83.451  1.00  0.00    -0.031 C 
ATOM      5  C   UNL     1       4.152  41.931  83.256  1.00  0.00    -0.028 C 
BRANCH   5   6
ATOM      6  C   UNL     1       4.978  42.651  84.292  1.00  0.00     0.005 C 
ATOM      7  C   UNL     1       4.130  43.717  84.992  1.00  0.00     0.012 C 
ATOM      8  C   UNL     1       6.202  43.285  83.626  1.00  0.00     0.012 C 
ENDBRANCH   5   6
ENDBRANCH   3   4
ENDBRANCH   2   3
ENDBRANCH   1   2
BRANCH   1   9
ATOM      9  C   UNL     1       0.770  42.613  81.057  1.00  0.00     0.100 C 
BRANCH   9  10
ATOM     10  C   UNL     1       0.660  43.298  82.389  1.00  0.00     0.220 C 
ATOM     11  O   UNL     1       0.263  42.642  83.391  1.00  0.00    -0.275 OA
ATOM     12  N   UNL     1       1.043  44.673  82.529  1.00  0.00    -0.352 N 
ATOM     13  H   UNL     1       1.404  45.188  81.693  1.00  0.00     0.163 HD
BRANCH  12  14
ATOM     14  C   UNL     1       0.985  45.376  83.807  1.00  0.00     0.151 C 
BRANCH  14  15
ATOM     15  C   UNL     1       0.426  46.762  83.619  1.00  0.00    -0.025 A 
ATOM     16  C   UNL     1       0.441  47.677  84.684  1.00  0.00     0.056 A 
ATOM     17  C   UNL     1      -0.092  47.156  82.376  1.00  0.00     0.009 A 
ATOM     18  C   UNL     1      -0.061  48.983  84.513  1.00  0.00     0.160 A 
ATOM     19  C   UNL     1      -0.594  48.447  82.203  1.00  0.00     0.050 A 
ATOM     20  C   UNL     1      -0.581  49.361  83.262  1.00  0.00     0.157 A 
BRANCH  18  21
ATOM     21  O   UNL     1      -0.054  49.923  85.557  1.00  0.00    -0.493 OA
ATOM     22  C   UNL     1       1.121  50.427  86.183  1.00  0.00     0.278 C 
ENDBRANCH  18  21
BRANCH  20  23
ATOM     23  O   UNL     1      -1.088  50.642  83.049  1.00  0.00    -0.504 OA
ATOM     24  H   UNL     1      -0.709  51.459  83.516  1.00  0.00     0.293 HD
ENDBRANCH  20  23
ENDBRANCH  14  15
ENDBRANCH  12  14
ENDBRANCH   9  10
ENDBRANCH   1   9
TORSDOF 10
ENDMDL
MODEL 7
REMARK VINA RESULT:    -4.824      2.117      6.054
REMARK INTER + INTRA:          -8.935
REMARK INTER:                  -7.733
REMARK INTRA:                  -1.201
REMARK UNBOUND:                -1.431
REMARK SMILES COc1cc(CNC(=O)CCCCC=CC(C)C)ccc1O
REMARK SMILES IDX 11 1 12 2 13 3 14 4 15 5 16 6 17 7 18 8 10 9 8 10 9 11 7 12
REMARK SMILES IDX 6 14 5 15 4 16 19 17 3 18 20 19 21 20 2 21 1 22 22 23
REMARK H PARENT 7 13 22 24
REMARK Flexibility Score: inf
ROOT
ATOM      1  C   UNL     1      -1.773  45.145  78.320  1.00  0.00     0.010 C 
ENDROOT
BRANCH   1   2
ATOM      2  C   UNL     1      -0.772  44.205  79.015  1.00  0.00     0.005 C 
BRANCH   2   3
ATOM      3  C   UNL     1       0.284  44.976  79.817  1.00  0.00     0.027 C 
BRANCH   3   4
ATOM      4  C   UNL     1       0.628  44.265  81.098  1.00  0.00    -0.031 C 
ATOM      5  C   UNL     1       1.409  44.835  82.030  1.00  0.00    -0.028 C 
BRANCH   5   6
ATOM      6  C   UNL     1       1.851  44.078  83.258  1.00  0.00     0.005 C 
ATOM      7  C   UNL     1       1.817  44.997  84.482  1.00  0.00     0.012 C 
ATOM      8  C   UNL     1       3.258  43.518  83.040  1.00  0.00     0.012 C 
ENDBRANCH   5   6
ENDBRANCH   3   4
ENDBRANCH   2   3
ENDBRANCH   1   2
BRANCH   1   9
ATOM      9  C   UNL     1      -1.142  46.492  77.947  1.00  0.00     0.100 C 
BRANCH   9  10
ATOM     10  C   UNL     1      -1.714  47.617  78.761  1.00  0.00     0.220 C 
ATOM     11  O   UNL     1      -1.826  48.761  78.243  1.00  0.00    -0.275 OA
ATOM     12  N   UNL     1      -2.167  47.381  80.102  1.00  0.00    -0.352 N 
ATOM     13  H   UNL     1      -2.099  46.416  80.500  1.00  0.00     0.163 HD
BRANCH  12  14
ATOM     14  C   UNL     1      -2.759  48.433  80.925  1.00  0.00     0.151 C 
BRANCH  14  15
ATOM     15  C   UNL     1      -1.972  48.609  82.196  1.00  0.00    -0.025 A 
ATOM     16  C   UNL     1      -2.457  49.449  83.211  1.00  0.00     0.056 A 
ATOM     17  C   UNL     1      -0.764  47.922  82.385  1.00  0.00     0.009 A 
ATOM     18  C   UNL     1      -1.739  49.607  84.414  1.00  0.00     0.160 A 
ATOM     19  C   UNL     1      -0.046  48.077  83.573  1.00  0.00     0.050 A 
ATOM     20  C   UNL     1      -0.526  48.914  84.586  1.00  0.00     0.157 A 
BRANCH  18  21
ATOM     21  O   UNL     1      -2.200  50.434  85.451  1.00  0.00    -0.493 OA
ATOM     22  C   UNL     1      -1.960  51.835  85.536  1.00  0.00     0.278 C 
ENDBRANCH  18  21
BRANCH  20  23
ATOM     23  O   UNL     1       0.216  49.041  85.759  1.00  0.00    -0.504 OA
ATOM     24  H   UNL     1       0.594  49.930  86.068  1.00  0.00     0.293 HD
ENDBRANCH  20  23
ENDBRANCH  14  15
ENDBRANCH  12  14
ENDBRANCH   9  10
ENDBRANCH   1   9
TORSDOF 10
ENDMDL
MODEL 8
REMARK VINA RESULT:    -4.811      4.176      6.762
REMARK INTER + INTRA:          -8.913
REMARK INTER:                  -7.983
REMARK INTRA:                  -0.930
REMARK UNBOUND:                -1.431
REMARK SMILES COc1cc(CNC(=O)CCCCC=CC(C)C)ccc1O
REMARK SMILES IDX 11 1 12 2 13 3 14 4 15 5 16 6 17 7 18 8 10 9 8 10 9 11 7 12
REMARK SMILES IDX 6 14 5 15 4 16 19 17 3 18 20 19 21 20 2 21 1 22 22 23
REMARK H PARENT 7 13 22 24
REMARK Flexibility Score: inf
ROOT
ATOM      1  C   UNL     1      -0.103  48.257  83.065  1.00  0.00     0.010 C 
ENDROOT
BRANCH   1   2
ATOM      2  C   UNL     1      -1.635  48.348  82.955  1.00  0.00     0.005 C 
BRANCH   2   3
ATOM      3  C   UNL     1      -2.097  48.585  81.512  1.00  0.00     0.027 C 
BRANCH   3   4
ATOM      4  C   UNL     1      -1.492  47.580  80.569  1.00  0.00    -0.031 C 
ATOM      5  C   UNL     1      -1.803  47.565  79.263  1.00  0.00    -0.028 C 
BRANCH   5   6
ATOM      6  C   UNL     1      -1.290  46.486  78.342  1.00  0.00     0.005 C 
ATOM      7  C   UNL     1      -0.323  45.568  79.096  1.00  0.00     0.012 C 
ATOM      8  C   UNL     1      -0.601  47.123  77.133  1.00  0.00     0.012 C 
ENDBRANCH   5   6
ENDBRANCH   3   4
ENDBRANCH   2   3
ENDBRANCH   1   2
BRANCH   1   9
ATOM      9  C   UNL     1       0.345  47.267  84.147  1.00  0.00     0.100 C 
BRANCH   9  10
ATOM     10  C   UNL     1       0.252  45.846  83.671  1.00  0.00     0.220 C 
ATOM     11  O   UNL     1      -0.603  45.075  84.185  1.00  0.00    -0.275 OA
ATOM     12  N   UNL     1       1.101  45.382  82.612  1.00  0.00    -0.352 N 
ATOM     13  H   UNL     1       1.779  46.048  82.173  1.00  0.00     0.163 HD
BRANCH  12  14
ATOM     14  C   UNL     1       1.030  44.019  82.091  1.00  0.00     0.151 C 
BRANCH  14  15
ATOM     15  C   UNL     1       2.186  43.201  82.603  1.00  0.00    -0.025 A 
ATOM     16  C   UNL     1       2.210  41.812  82.398  1.00  0.00     0.056 A 
ATOM     17  C   UNL     1       3.255  43.819  83.268  1.00  0.00     0.009 A 
ATOM     18  C   UNL     1       3.296  41.039  82.855  1.00  0.00     0.160 A 
ATOM     19  C   UNL     1       4.331  43.058  83.727  1.00  0.00     0.050 A 
ATOM     20  C   UNL     1       4.358  41.674  83.524  1.00  0.00     0.157 A 
BRANCH  18  21
ATOM     21  O   UNL     1       3.352  39.649  82.659  1.00  0.00    -0.493 OA
ATOM     22  C   UNL     1       2.497  38.920  81.786  1.00  0.00     0.278 C 
ENDBRANCH  18  21
BRANCH  20  23
ATOM     23  O   UNL     1       5.451  40.948  83.994  1.00  0.00    -0.504 OA
ATOM     24  H   UNL     1       5.576  39.963  83.787  1.00  0.00     0.293 HD
ENDBRANCH  20  23
ENDBRANCH  14  15
ENDBRANCH  12  14
ENDBRANCH   9  10
ENDBRANCH   1   9
TORSDOF 10
ENDMDL
MODEL 9
REMARK VINA RESULT:    -4.796      2.686      5.408
REMARK INTER + INTRA:          -8.891
REMARK INTER:                  -7.424
REMARK INTRA:                  -1.467
REMARK UNBOUND:                -1.431
REMARK SMILES COc1cc(CNC(=O)CCCCC=CC(C)C)ccc1O
REMARK SMILES IDX 11 1 12 2 13 3 14 4 15 5 16 6 17 7 18 8 10 9 8 10 9 11 7 12
REMARK SMILES IDX 6 14 5 15 4 16 19 17 3 18 20 19 21 20 2 21 1 22 22 23
REMARK H PARENT 7 13 22 24
REMARK Flexibility Score: inf
ROOT
ATOM      1  C   UNL     1      -3.698  48.402  78.666  1.00  0.00     0.010 C 
ENDROOT
BRANCH   1   2
ATOM      2  C   UNL     1      -4.069  49.115  79.978  1.00  0.00     0.005 C 
BRANCH   2   3
ATOM      3  C   UNL     1      -3.779  48.247  81.209  1.00  0.00     0.027 C 
BRANCH   3   4
ATOM      4  C   UNL     1      -2.726  48.870  82.085  1.00  0.00    -0.031 C 
ATOM      5  C   UNL     1      -1.419  48.625  81.897  1.00  0.00    -0.028 C 
BRANCH   5   6
ATOM      6  C   UNL     1      -0.373  49.153  82.846  1.00  0.00     0.005 C 
ATOM      7  C   UNL     1      -0.015  48.082  83.882  1.00  0.00     0.012 C 
ATOM      8  C   UNL     1      -0.890  50.419  83.532  1.00  0.00     0.012 C 
ENDBRANCH   5   6
ENDBRANCH   3   4
ENDBRANCH   2   3
ENDBRANCH   1   2
BRANCH   1   9
ATOM      9  C   UNL     1      -2.231  48.622  78.279  1.00  0.00     0.100 C 
BRANCH   9  10
ATOM     10  C   UNL     1      -1.520  47.322  78.033  1.00  0.00     0.220 C 
ATOM     11  O   UNL     1      -0.616  47.268  77.156  1.00  0.00    -0.275 OA
ATOM     12  N   UNL     1      -1.839  46.164  78.818  1.00  0.00    -0.352 N 
ATOM     13  H   UNL     1      -2.567  46.240  79.565  1.00  0.00     0.163 HD
BRANCH  12  14
ATOM     14  C   UNL     1      -1.156  44.886  78.640  1.00  0.00     0.151 C 
BRANCH  14  15
ATOM     15  C   UNL     1      -0.306  44.574  79.843  1.00  0.00    -0.025 A 
ATOM     16  C   UNL     1      -0.000  43.241  80.161  1.00  0.00     0.056 A 
ATOM     17  C   UNL     1       0.205  45.609  80.640  1.00  0.00     0.009 A 
ATOM     18  C   UNL     1       0.812  42.938  81.272  1.00  0.00     0.160 A 
ATOM     19  C   UNL     1       1.006  45.314  81.744  1.00  0.00     0.050 A 
ATOM     20  C   UNL     1       1.312  43.988  82.064  1.00  0.00     0.157 A 
BRANCH  18  21
ATOM     21  O   UNL     1       1.141  41.615  81.613  1.00  0.00    -0.493 OA
ATOM     22  C   UNL     1       2.213  40.875  81.038  1.00  0.00     0.278 C 
ENDBRANCH  18  21
BRANCH  20  23
ATOM     23  O   UNL     1       2.118  43.733  83.173  1.00  0.00    -0.504 OA
ATOM     24  H   UNL     1       2.222  42.804  83.566  1.00  0.00     0.293 HD
ENDBRANCH  20  23
ENDBRANCH  14  15
ENDBRANCH  12  14
ENDBRANCH   9  10
ENDBRANCH   1   9
TORSDOF 10
ENDMDL
