MODEL 1
REMARK VINA RESULT:    -5.057      0.000      0.000
REMARK INTER + INTRA:          -6.131
REMARK INTER:                  -5.796
REMARK INTRA:                  -0.336
REMARK UNBOUND:                -0.336
REMARK SMILES COc1ccc(C(C)=O)c(O)c1
REMARK SMILES IDX 6 1 10 2 12 3 3 4 4 5 5 6 7 7 8 8 9 9 11 10 2 12 1 13
REMARK H PARENT 11 11
REMARK Flexibility Score: inf
ROOT
ATOM      1  C   UNL     1      63.124 151.484   4.214  1.00  0.00     0.059 A 
ATOM      2  C   UNL     1      62.160 151.789   5.203  1.00  0.00     0.130 A 
ATOM      3  C   UNL     1      60.868 152.188   4.828  1.00  0.00     0.093 A 
ATOM      4  C   UNL     1      60.513 152.285   3.471  1.00  0.00     0.122 A 
ATOM      5  C   UNL     1      61.464 151.979   2.497  1.00  0.00     0.047 A 
ATOM      6  C   UNL     1      62.753 151.584   2.858  1.00  0.00     0.019 A 
ENDROOT
BRANCH   1   7
ATOM      7  C   UNL     1      64.507 151.068   4.584  1.00  0.00     0.163 C 
ATOM      8  C   UNL     1      65.103 149.783   4.093  1.00  0.00     0.093 C 
ATOM      9  O   UNL     1      65.222 151.816   5.306  1.00  0.00    -0.294 OA
ENDBRANCH   1   7
BRANCH   2  10
ATOM     10  O   UNL     1      62.475 151.688   6.558  1.00  0.00    -0.507 OA
ATOM     11  H   UNL     1      63.302 151.197   6.878  1.00  0.00     0.293 HD
ENDBRANCH   2  10
BRANCH   4  12
ATOM     12  O   UNL     1      59.233 152.678   3.054  1.00  0.00    -0.497 OA
ATOM     13  C   UNL     1      58.969 153.789   2.203  1.00  0.00     0.278 C 
ENDBRANCH   4  12
TORSDOF 3
ENDMDL
MODEL 2
REMARK VINA RESULT:    -5.027      1.699      2.333
REMARK INTER + INTRA:          -6.098
REMARK INTER:                  -5.790
REMARK INTRA:                  -0.307
REMARK UNBOUND:                -0.336
REMARK SMILES COc1ccc(C(C)=O)c(O)c1
REMARK SMILES IDX 6 1 10 2 12 3 3 4 4 5 5 6 7 7 8 8 9 9 11 10 2 12 1 13
REMARK H PARENT 11 11
REMARK Flexibility Score: inf
ROOT
ATOM      1  C   UNL     1      61.441 151.956   3.320  1.00  0.00     0.059 A 
ATOM      2  C   UNL     1      60.221 152.316   3.940  1.00  0.00     0.130 A 
ATOM      3  C   UNL     1      59.277 153.086   3.244  1.00  0.00     0.093 A 
ATOM      4  C   UNL     1      59.527 153.506   1.925  1.00  0.00     0.122 A 
ATOM      5  C   UNL     1      60.729 153.147   1.314  1.00  0.00     0.047 A 
ATOM      6  C   UNL     1      61.677 152.383   1.999  1.00  0.00     0.019 A 
ENDROOT
BRANCH   1   7
ATOM      7  C   UNL     1      62.466 151.147   4.041  1.00  0.00     0.163 C 
ATOM      8  C   UNL     1      63.934 151.369   3.834  1.00  0.00     0.093 C 
ATOM      9  O   UNL     1      62.109 150.267   4.871  1.00  0.00    -0.294 OA
ENDBRANCH   1   7
BRANCH   2  10
ATOM     10  O   UNL     1      59.936 151.902   5.241  1.00  0.00    -0.507 OA
ATOM     11  H   UNL     1      60.402 152.309   6.045  1.00  0.00     0.293 HD
ENDBRANCH   2  10
BRANCH   4  12
ATOM     12  O   UNL     1      58.611 154.276   1.194  1.00  0.00    -0.497 OA
ATOM     13  C   UNL     1      57.943 155.428   1.698  1.00  0.00     0.278 C 
ENDBRANCH   4  12
TORSDOF 3
ENDMDL
MODEL 3
REMARK VINA RESULT:    -4.864      3.354      4.145
REMARK INTER + INTRA:          -5.911
REMARK INTER:                  -5.572
REMARK INTRA:                  -0.338
REMARK UNBOUND:                -0.336
REMARK SMILES COc1ccc(C(C)=O)c(O)c1
REMARK SMILES IDX 6 1 10 2 12 3 3 4 4 5 5 6 7 7 8 8 9 9 11 10 2 12 1 13
REMARK H PARENT 11 11
REMARK Flexibility Score: inf
ROOT
ATOM      1  C   UNL     1      63.199 149.763   5.775  1.00  0.00     0.059 A 
ATOM      2  C   UNL     1      62.542 148.512   5.853  1.00  0.00     0.130 A 
ATOM      3  C   UNL     1      61.242 148.431   6.374  1.00  0.00     0.093 A 
ATOM      4  C   UNL     1      60.574 149.586   6.819  1.00  0.00     0.122 A 
ATOM      5  C   UNL     1      61.223 150.819   6.738  1.00  0.00     0.047 A 
ATOM      6  C   UNL     1      62.518 150.911   6.225  1.00  0.00     0.019 A 
ENDROOT
BRANCH   1   7
ATOM      7  C   UNL     1      64.585 149.876   5.236  1.00  0.00     0.163 C 
ATOM      8  C   UNL     1      64.944 150.888   4.189  1.00  0.00     0.093 C 
ATOM      9  O   UNL     1      65.500 149.130   5.680  1.00  0.00    -0.294 OA
ENDBRANCH   1   7
BRANCH   2  10
ATOM     10  O   UNL     1      63.170 147.350   5.405  1.00  0.00    -0.507 OA
ATOM     11  H   UNL     1      63.559 147.280   4.471  1.00  0.00     0.293 HD
ENDBRANCH   2  10
BRANCH   4  12
ATOM     12  O   UNL     1      59.275 149.549   7.345  1.00  0.00    -0.497 OA
ATOM     13  C   UNL     1      58.778 148.519   8.194  1.00  0.00     0.278 C 
ENDBRANCH   4  12
TORSDOF 3
ENDMDL
MODEL 4
REMARK VINA RESULT:    -4.833      1.188      4.629
REMARK INTER + INTRA:          -5.875
REMARK INTER:                  -5.600
REMARK INTRA:                  -0.275
REMARK UNBOUND:                -0.336
REMARK SMILES COc1ccc(C(C)=O)c(O)c1
REMARK SMILES IDX 6 1 10 2 12 3 3 4 4 5 5 6 7 7 8 8 9 9 11 10 2 12 1 13
REMARK H PARENT 11 11
REMARK Flexibility Score: inf
ROOT
ATOM      1  C   UNL     1      61.260 152.121   3.268  1.00  0.00     0.059 A 
ATOM      2  C   UNL     1      61.053 151.792   4.628  1.00  0.00     0.130 A 
ATOM      3  C   UNL     1      62.111 151.288   5.400  1.00  0.00     0.093 A 
ATOM      4  C   UNL     1      63.387 151.107   4.837  1.00  0.00     0.122 A 
ATOM      5  C   UNL     1      63.590 151.436   3.496  1.00  0.00     0.047 A 
ATOM      6  C   UNL     1      62.544 151.936   2.718  1.00  0.00     0.019 A 
ENDROOT
BRANCH   1   7
ATOM      7  C   UNL     1      60.151 152.649   2.422  1.00  0.00     0.163 C 
ATOM      8  C   UNL     1      60.416 153.485   1.206  1.00  0.00     0.093 C 
ATOM      9  O   UNL     1      58.953 152.373   2.704  1.00  0.00    -0.294 OA
ENDBRANCH   1   7
BRANCH   2  10
ATOM     10  O   UNL     1      59.804 151.974   5.221  1.00  0.00    -0.507 OA
ATOM     11  H   UNL     1      58.949 151.672   4.768  1.00  0.00     0.293 HD
ENDBRANCH   2  10
BRANCH   4  12
ATOM     12  O   UNL     1      64.471 150.607   5.573  1.00  0.00    -0.497 OA
ATOM     13  C   UNL     1      65.087 149.344   5.343  1.00  0.00     0.278 C 
ENDBRANCH   4  12
TORSDOF 3
ENDMDL
MODEL 5
REMARK VINA RESULT:    -4.827      2.126      4.846
REMARK INTER + INTRA:          -5.869
REMARK INTER:                  -5.570
REMARK INTRA:                  -0.299
REMARK UNBOUND:                -0.336
REMARK SMILES COc1ccc(C(C)=O)c(O)c1
REMARK SMILES IDX 6 1 10 2 12 3 3 4 4 5 5 6 7 7 8 8 9 9 11 10 2 12 1 13
REMARK H PARENT 11 11
REMARK Flexibility Score: inf
ROOT
ATOM      1  C   UNL     1      60.357 153.126   2.062  1.00  0.00     0.059 A 
ATOM      2  C   UNL     1      59.668 153.330   3.280  1.00  0.00     0.130 A 
ATOM      3  C   UNL     1      60.037 152.611   4.427  1.00  0.00     0.093 A 
ATOM      4  C   UNL     1      61.094 151.685   4.384  1.00  0.00     0.122 A 
ATOM      5  C   UNL     1      61.775 151.488   3.182  1.00  0.00     0.047 A 
ATOM      6  C   UNL     1      61.415 152.196   2.033  1.00  0.00     0.019 A 
ENDROOT
BRANCH   1   7
ATOM      7  C   UNL     1      59.979 153.869   0.825  1.00  0.00     0.163 C 
ATOM      8  C   UNL     1      60.972 154.144  -0.265  1.00  0.00     0.093 C 
ATOM      9  O   UNL     1      58.791 154.260   0.659  1.00  0.00    -0.294 OA
ENDBRANCH   1   7
BRANCH   2  10
ATOM     10  O   UNL     1      58.625 154.253   3.360  1.00  0.00    -0.507 OA
ATOM     11  H   UNL     1      58.646 155.027   4.015  1.00  0.00     0.293 HD
ENDBRANCH   2  10
BRANCH   4  12
ATOM     12  O   UNL     1      61.495 150.947   5.507  1.00  0.00    -0.497 OA
ATOM     13  C   UNL     1      61.560 149.525   5.555  1.00  0.00     0.278 C 
ENDBRANCH   4  12
TORSDOF 3
ENDMDL
MODEL 6
REMARK VINA RESULT:    -4.824      3.573      5.311
REMARK INTER + INTRA:          -5.864
REMARK INTER:                  -5.600
REMARK INTRA:                  -0.265
REMARK UNBOUND:                -0.336
REMARK SMILES COc1ccc(C(C)=O)c(O)c1
REMARK SMILES IDX 6 1 10 2 12 3 3 4 4 5 5 6 7 7 8 8 9 9 11 10 2 12 1 13
REMARK H PARENT 11 11
REMARK Flexibility Score: inf
ROOT
ATOM      1  C   UNL     1      61.621 148.926   6.447  1.00  0.00     0.059 A 
ATOM      2  C   UNL     1      62.644 148.231   5.761  1.00  0.00     0.130 A 
ATOM      3  C   UNL     1      63.795 148.912   5.335  1.00  0.00     0.093 A 
ATOM      4  C   UNL     1      63.948 150.287   5.586  1.00  0.00     0.122 A 
ATOM      5  C   UNL     1      62.939 150.970   6.266  1.00  0.00     0.047 A 
ATOM      6  C   UNL     1      61.789 150.303   6.692  1.00  0.00     0.019 A 
ENDROOT
BRANCH   1   7
ATOM      7  C   UNL     1      60.383 148.229   6.902  1.00  0.00     0.163 C 
ATOM      8  C   UNL     1      59.089 148.963   7.091  1.00  0.00     0.093 C 
ATOM      9  O   UNL     1      60.397 146.986   7.111  1.00  0.00    -0.294 OA
ENDBRANCH   1   7
BRANCH   2  10
ATOM     10  O   UNL     1      62.530 146.864   5.510  1.00  0.00    -0.507 OA
ATOM     11  H   UNL     1      62.868 146.170   6.168  1.00  0.00     0.293 HD
ENDBRANCH   2  10
BRANCH   4  12
ATOM     12  O   UNL     1      65.082 151.005   5.178  1.00  0.00    -0.497 OA
ATOM     13  C   UNL     1      65.048 152.313   4.615  1.00  0.00     0.278 C 
ENDBRANCH   4  12
TORSDOF 3
ENDMDL
MODEL 7
REMARK VINA RESULT:    -4.710      3.338      3.859
REMARK INTER + INTRA:          -5.734
REMARK INTER:                  -5.604
REMARK INTRA:                  -0.130
REMARK UNBOUND:                -0.336
REMARK SMILES COc1ccc(C(C)=O)c(O)c1
REMARK SMILES IDX 6 1 10 2 12 3 3 4 4 5 5 6 7 7 8 8 9 9 11 10 2 12 1 13
REMARK H PARENT 11 11
REMARK Flexibility Score: inf
ROOT
ATOM      1  C   UNL     1      63.338 149.240   5.634  1.00  0.00     0.059 A 
ATOM      2  C   UNL     1      62.593 150.280   6.237  1.00  0.00     0.130 A 
ATOM      3  C   UNL     1      61.277 150.048   6.666  1.00  0.00     0.093 A 
ATOM      4  C   UNL     1      60.684 148.783   6.508  1.00  0.00     0.122 A 
ATOM      5  C   UNL     1      61.422 147.756   5.917  1.00  0.00     0.047 A 
ATOM      6  C   UNL     1      62.731 147.977   5.484  1.00  0.00     0.019 A 
ENDROOT
BRANCH   1   7
ATOM      7  C   UNL     1      64.734 149.462   5.160  1.00  0.00     0.163 C 
ATOM      8  C   UNL     1      65.028 150.219   3.900  1.00  0.00     0.093 C 
ATOM      9  O   UNL     1      65.708 149.034   5.837  1.00  0.00    -0.294 OA
ENDBRANCH   1   7
BRANCH   2  10
ATOM     10  O   UNL     1      63.157 151.543   6.422  1.00  0.00    -0.507 OA
ATOM     11  H   UNL     1      64.124 151.659   6.704  1.00  0.00     0.293 HD
ENDBRANCH   2  10
BRANCH   4  12
ATOM     12  O   UNL     1      59.373 148.508   6.923  1.00  0.00    -0.497 OA
ATOM     13  C   UNL     1      58.423 149.499   7.299  1.00  0.00     0.278 C 
ENDBRANCH   4  12
TORSDOF 3
ENDMDL
MODEL 8
REMARK VINA RESULT:    -4.668      2.613      4.638
REMARK INTER + INTRA:          -5.686
REMARK INTER:                  -5.364
REMARK INTRA:                  -0.321
REMARK UNBOUND:                -0.336
REMARK SMILES COc1ccc(C(C)=O)c(O)c1
REMARK SMILES IDX 6 1 10 2 12 3 3 4 4 5 5 6 7 7 8 8 9 9 11 10 2 12 1 13
REMARK H PARENT 11 11
REMARK Flexibility Score: inf
ROOT
ATOM      1  C   UNL     1      62.651 149.121   5.552  1.00  0.00     0.059 A 
ATOM      2  C   UNL     1      62.141 150.426   5.364  1.00  0.00     0.130 A 
ATOM      3  C   UNL     1      63.018 151.503   5.161  1.00  0.00     0.093 A 
ATOM      4  C   UNL     1      64.409 151.300   5.138  1.00  0.00     0.122 A 
ATOM      5  C   UNL     1      64.911 150.011   5.320  1.00  0.00     0.047 A 
ATOM      6  C   UNL     1      64.048 148.933   5.525  1.00  0.00     0.019 A 
ENDROOT
BRANCH   1   7
ATOM      7  C   UNL     1      61.743 147.960   5.780  1.00  0.00     0.163 C 
ATOM      8  C   UNL     1      62.034 146.606   5.207  1.00  0.00     0.093 C 
ATOM      9  O   UNL     1      60.712 148.094   6.495  1.00  0.00    -0.294 OA
ENDBRANCH   1   7
BRANCH   2  10
ATOM     10  O   UNL     1      60.766 150.659   5.367  1.00  0.00    -0.507 OA
ATOM     11  H   UNL     1      60.283 151.014   4.549  1.00  0.00     0.293 HD
ENDBRANCH   2  10
BRANCH   4  12
ATOM     12  O   UNL     1      65.320 152.348   4.937  1.00  0.00    -0.497 OA
ATOM     13  C   UNL     1      65.964 153.067   5.984  1.00  0.00     0.278 C 
ENDBRANCH   4  12
TORSDOF 3
ENDMDL
MODEL 9
REMARK VINA RESULT:    -4.660     18.459     20.435
REMARK INTER + INTRA:          -5.677
REMARK INTER:                  -5.348
REMARK INTRA:                  -0.329
REMARK UNBOUND:                -0.336
REMARK SMILES COc1ccc(C(C)=O)c(O)c1
REMARK SMILES IDX 6 1 10 2 12 3 3 4 4 5 5 6 7 7 8 8 9 9 11 10 2 12 1 13
REMARK H PARENT 11 11
REMARK Flexibility Score: inf
ROOT
ATOM      1  C   UNL     1      71.632 138.811  -9.275  1.00  0.00     0.059 A 
ATOM      2  C   UNL     1      70.404 139.512  -9.282  1.00  0.00     0.130 A 
ATOM      3  C   UNL     1      69.567 139.478  -8.156  1.00  0.00     0.093 A 
ATOM      4  C   UNL     1      69.938 138.754  -7.009  1.00  0.00     0.122 A 
ATOM      5  C   UNL     1      71.152 138.066  -7.003  1.00  0.00     0.047 A 
ATOM      6  C   UNL     1      71.991 138.091  -8.119  1.00  0.00     0.019 A 
ENDROOT
BRANCH   1   7
ATOM      7  C   UNL     1      72.536 138.822 -10.462  1.00  0.00     0.163 C 
ATOM      8  C   UNL     1      73.247 137.585 -10.923  1.00  0.00     0.093 C 
ATOM      9  O   UNL     1      72.698 139.882 -11.125  1.00  0.00    -0.294 OA
ENDBRANCH   1   7
BRANCH   2  10
ATOM     10  O   UNL     1      70.015 140.253 -10.398  1.00  0.00    -0.507 OA
ATOM     11  H   UNL     1      69.421 141.070 -10.315  1.00  0.00     0.293 HD
ENDBRANCH   2  10
BRANCH   4  12
ATOM     12  O   UNL     1      69.131 138.694  -5.863  1.00  0.00    -0.497 OA
ATOM     13  C   UNL     1      68.975 137.537  -5.047  1.00  0.00     0.278 C 
ENDBRANCH   4  12
TORSDOF 3
ENDMDL
