MODEL 1
REMARK VINA RESULT:    -3.529      0.000      0.000
REMARK INTER + INTRA:          -6.491
REMARK INTER:                  -5.386
REMARK INTRA:                  -1.105
REMARK UNBOUND:                -1.105
REMARK SMILES CCCCCCCCCC=CC(=O)[O-]
REMARK SMILES IDX 7 1 8 2 9 3 10 4 11 5 12 6 13 7 14 8 6 9 5 10 4 11 3 12 2 13
REMARK SMILES IDX 1 14
REMARK H PARENT
REMARK Flexibility Score: inf
ROOT
ATOM      1  C   UNL     1      58.763  29.270  50.432  1.00  0.00     0.000 C 
ENDROOT
BRANCH   1   2
ATOM      2  C   UNL     1      59.390  29.133  49.033  1.00  0.00     0.004 C 
BRANCH   2   3
ATOM      3  C   UNL     1      60.661  28.271  49.027  1.00  0.00     0.027 C 
BRANCH   3   4
ATOM      4  C   UNL     1      60.344  26.839  49.352  1.00  0.00    -0.025 C 
ATOM      5  C   UNL     1      61.299  25.981  49.728  1.00  0.00     0.020 C 
BRANCH   5   6
ATOM      6  C   UNL     1      61.011  24.578  50.065  1.00  0.00     0.064 C 
ATOM      7  O   UNL     1      59.918  24.248  50.600  1.00  0.00    -0.545 OA
ATOM      8  O   UNL     1      61.958  23.602  49.789  1.00  0.00    -0.545 OA
ENDBRANCH   5   6
ENDBRANCH   3   4
ENDBRANCH   2   3
ENDBRANCH   1   2
BRANCH   1   9
ATOM      9  C   UNL     1      57.286  28.846  50.528  1.00  0.00     0.000 C 
BRANCH   9  10
ATOM     10  C   UNL     1      57.034  27.791  51.616  1.00  0.00     0.000 C 
BRANCH  10  11
ATOM     11  C   UNL     1      57.099  26.372  51.031  1.00  0.00    -0.000 C 
BRANCH  11  12
ATOM     12  C   UNL     1      56.590  26.306  49.583  1.00  0.00    -0.000 C 
BRANCH  12  13
ATOM     13  C   UNL     1      55.137  25.816  49.488  1.00  0.00    -0.003 C 
ATOM     14  C   UNL     1      54.172  26.987  49.323  1.00  0.00     0.004 C 
ENDBRANCH  12  13
ENDBRANCH  11  12
ENDBRANCH  10  11
ENDBRANCH   9  10
ENDBRANCH   1   9
TORSDOF 9
ENDMDL
MODEL 2
REMARK VINA RESULT:    -3.489     11.659     13.154
REMARK INTER + INTRA:          -6.429
REMARK INTER:                  -5.396
REMARK INTRA:                  -1.033
REMARK UNBOUND:                -1.105
REMARK SMILES CCCCCCCCCC=CC(=O)[O-]
REMARK SMILES IDX 7 1 8 2 9 3 10 4 11 5 12 6 13 7 14 8 6 9 5 10 4 11 3 12 2 13
REMARK SMILES IDX 1 14
REMARK H PARENT
REMARK Flexibility Score: inf
ROOT
ATOM      1  C   UNL     1      61.076  31.139  59.470  1.00  0.00     0.000 C 
ENDROOT
BRANCH   1   2
ATOM      2  C   UNL     1      60.873  31.119  60.995  1.00  0.00     0.004 C 
BRANCH   2   3
ATOM      3  C   UNL     1      61.873  30.205  61.720  1.00  0.00     0.027 C 
BRANCH   3   4
ATOM      4  C   UNL     1      63.008  29.820  60.813  1.00  0.00    -0.025 C 
ATOM      5  C   UNL     1      64.263  30.210  61.063  1.00  0.00     0.020 C 
BRANCH   5   6
ATOM      6  C   UNL     1      65.392  29.833  60.198  1.00  0.00     0.064 C 
ATOM      7  O   UNL     1      65.773  30.584  59.260  1.00  0.00    -0.545 OA
ATOM      8  O   UNL     1      66.050  28.631  60.420  1.00  0.00    -0.545 OA
ENDBRANCH   5   6
ENDBRANCH   3   4
ENDBRANCH   2   3
ENDBRANCH   1   2
BRANCH   1   9
ATOM      9  C   UNL     1      61.225  32.542  58.852  1.00  0.00     0.000 C 
BRANCH   9  10
ATOM     10  C   UNL     1      61.638  33.609  59.878  1.00  0.00     0.000 C 
BRANCH  10  11
ATOM     11  C   UNL     1      63.046  34.144  59.578  1.00  0.00    -0.000 C 
BRANCH  11  12
ATOM     12  C   UNL     1      64.071  33.744  60.651  1.00  0.00    -0.000 C 
BRANCH  12  13
ATOM     13  C   UNL     1      64.784  34.957  61.269  1.00  0.00    -0.003 C 
ATOM     14  C   UNL     1      63.944  36.222  61.119  1.00  0.00     0.004 C 
ENDBRANCH  12  13
ENDBRANCH  11  12
ENDBRANCH  10  11
ENDBRANCH   9  10
ENDBRANCH   1   9
TORSDOF 9
ENDMDL
MODEL 3
REMARK VINA RESULT:    -3.463     11.776     13.425
REMARK INTER + INTRA:          -6.390
REMARK INTER:                  -5.854
REMARK INTRA:                  -0.536
REMARK UNBOUND:                -1.105
REMARK SMILES CCCCCCCCCC=CC(=O)[O-]
REMARK SMILES IDX 7 1 8 2 9 3 10 4 11 5 12 6 13 7 14 8 6 9 5 10 4 11 3 12 2 13
REMARK SMILES IDX 1 14
REMARK H PARENT
REMARK Flexibility Score: inf
ROOT
ATOM      1  C   UNL     1      61.339  32.393  59.205  1.00  0.00     0.000 C 
ENDROOT
BRANCH   1   2
ATOM      2  C   UNL     1      60.923  31.020  59.764  1.00  0.00     0.004 C 
BRANCH   2   3
ATOM      3  C   UNL     1      61.345  30.817  61.228  1.00  0.00     0.027 C 
BRANCH   3   4
ATOM      4  C   UNL     1      62.302  29.667  61.359  1.00  0.00    -0.025 C 
ATOM      5  C   UNL     1      62.018  28.461  60.855  1.00  0.00     0.020 C 
BRANCH   5   6
ATOM      6  C   UNL     1      62.946  27.324  60.958  1.00  0.00     0.064 C 
ATOM      7  O   UNL     1      64.148  27.429  60.593  1.00  0.00    -0.545 OA
ATOM      8  O   UNL     1      62.490  26.116  61.468  1.00  0.00    -0.545 OA
ENDBRANCH   5   6
ENDBRANCH   3   4
ENDBRANCH   2   3
ENDBRANCH   1   2
BRANCH   1   9
ATOM      9  C   UNL     1      62.020  33.329  60.220  1.00  0.00     0.000 C 
BRANCH   9  10
ATOM     10  C   UNL     1      61.761  34.816  59.932  1.00  0.00     0.000 C 
BRANCH  10  11
ATOM     11  C   UNL     1      62.837  35.698  60.584  1.00  0.00    -0.000 C 
BRANCH  11  12
ATOM     12  C   UNL     1      64.186  34.975  60.727  1.00  0.00    -0.000 C 
BRANCH  12  13
ATOM     13  C   UNL     1      65.117  35.655  61.743  1.00  0.00    -0.003 C 
ATOM     14  C   UNL     1      64.749  37.124  61.927  1.00  0.00     0.004 C 
ENDBRANCH  12  13
ENDBRANCH  11  12
ENDBRANCH  10  11
ENDBRANCH   9  10
ENDBRANCH   1   9
TORSDOF 9
ENDMDL
MODEL 4
REMARK VINA RESULT:    -3.415     11.921     13.381
REMARK INTER + INTRA:          -6.317
REMARK INTER:                  -4.815
REMARK INTRA:                  -1.502
REMARK UNBOUND:                -1.105
REMARK SMILES CCCCCCCCCC=CC(=O)[O-]
REMARK SMILES IDX 7 1 8 2 9 3 10 4 11 5 12 6 13 7 14 8 6 9 5 10 4 11 3 12 2 13
REMARK SMILES IDX 1 14
REMARK H PARENT
REMARK Flexibility Score: inf
ROOT
ATOM      1  C   UNL     1      60.803  31.159  60.158  1.00  0.00     0.000 C 
ENDROOT
BRANCH   1   2
ATOM      2  C   UNL     1      61.285  32.069  59.013  1.00  0.00     0.004 C 
BRANCH   2   3
ATOM      3  C   UNL     1      61.352  33.550  59.414  1.00  0.00     0.027 C 
BRANCH   3   4
ATOM      4  C   UNL     1      62.774  34.035  59.454  1.00  0.00    -0.025 C 
ATOM      5  C   UNL     1      63.318  34.508  60.581  1.00  0.00     0.020 C 
BRANCH   5   6
ATOM      6  C   UNL     1      64.712  34.975  60.647  1.00  0.00     0.064 C 
ATOM      7  O   UNL     1      65.227  35.337  61.740  1.00  0.00    -0.545 OA
ATOM      8  O   UNL     1      65.474  35.015  59.487  1.00  0.00    -0.545 OA
ENDBRANCH   5   6
ENDBRANCH   3   4
ENDBRANCH   2   3
ENDBRANCH   1   2
BRANCH   1   9
ATOM      9  C   UNL     1      61.835  30.919  61.276  1.00  0.00     0.000 C 
BRANCH   9  10
ATOM     10  C   UNL     1      62.444  29.509  61.239  1.00  0.00     0.000 C 
BRANCH  10  11
ATOM     11  C   UNL     1      63.960  29.572  61.003  1.00  0.00    -0.000 C 
BRANCH  11  12
ATOM     12  C   UNL     1      64.460  31.003  60.750  1.00  0.00    -0.000 C 
BRANCH  12  13
ATOM     13  C   UNL     1      65.183  31.148  59.403  1.00  0.00    -0.003 C 
ATOM     14  C   UNL     1      64.466  30.364  58.307  1.00  0.00     0.004 C 
ENDBRANCH  12  13
ENDBRANCH  11  12
ENDBRANCH  10  11
ENDBRANCH   9  10
ENDBRANCH   1   9
TORSDOF 9
ENDMDL
MODEL 5
REMARK VINA RESULT:    -3.334     11.729     12.966
REMARK INTER + INTRA:          -6.193
REMARK INTER:                  -4.545
REMARK INTRA:                  -1.648
REMARK UNBOUND:                -1.105
REMARK SMILES CCCCCCCCCC=CC(=O)[O-]
REMARK SMILES IDX 7 1 8 2 9 3 10 4 11 5 12 6 13 7 14 8 6 9 5 10 4 11 3 12 2 13
REMARK SMILES IDX 1 14
REMARK H PARENT
REMARK Flexibility Score: inf
ROOT
ATOM      1  C   UNL     1      63.572  29.637  60.427  1.00  0.00     0.000 C 
ENDROOT
BRANCH   1   2
ATOM      2  C   UNL     1      64.720  30.656  60.542  1.00  0.00     0.004 C 
BRANCH   2   3
ATOM      3  C   UNL     1      64.924  31.475  59.258  1.00  0.00     0.027 C 
BRANCH   3   4
ATOM      4  C   UNL     1      64.644  32.932  59.498  1.00  0.00    -0.025 C 
ATOM      5  C   UNL     1      64.493  33.419  60.735  1.00  0.00     0.020 C 
BRANCH   5   6
ATOM      6  C   UNL     1      64.234  34.844  60.994  1.00  0.00     0.064 C 
ATOM      7  O   UNL     1      65.148  35.609  61.405  1.00  0.00    -0.545 OA
ATOM      8  O   UNL     1      62.960  35.355  60.783  1.00  0.00    -0.545 OA
ENDBRANCH   5   6
ENDBRANCH   3   4
ENDBRANCH   2   3
ENDBRANCH   1   2
BRANCH   1   9
ATOM      9  C   UNL     1      62.452  29.799  61.471  1.00  0.00     0.000 C 
BRANCH   9  10
ATOM     10  C   UNL     1      61.136  30.310  60.865  1.00  0.00     0.000 C 
BRANCH  10  11
ATOM     11  C   UNL     1      61.166  31.836  60.693  1.00  0.00    -0.000 C 
BRANCH  11  12
ATOM     12  C   UNL     1      61.115  32.267  59.219  1.00  0.00    -0.000 C 
BRANCH  12  13
ATOM     13  C   UNL     1      60.918  31.081  58.263  1.00  0.00    -0.003 C 
ATOM     14  C   UNL     1      61.920  31.130  57.113  1.00  0.00     0.004 C 
ENDBRANCH  12  13
ENDBRANCH  11  12
ENDBRANCH  10  11
ENDBRANCH   9  10
ENDBRANCH   1   9
TORSDOF 9
ENDMDL
MODEL 6
REMARK VINA RESULT:    -3.316     12.206     13.667
REMARK INTER + INTRA:          -6.166
REMARK INTER:                  -4.800
REMARK INTRA:                  -1.366
REMARK UNBOUND:                -1.105
REMARK SMILES CCCCCCCCCC=CC(=O)[O-]
REMARK SMILES IDX 7 1 8 2 9 3 10 4 11 5 12 6 13 7 14 8 6 9 5 10 4 11 3 12 2 13
REMARK SMILES IDX 1 14
REMARK H PARENT
REMARK Flexibility Score: inf
ROOT
ATOM      1  C   UNL     1      65.419  35.587  60.778  1.00  0.00     0.000 C 
ENDROOT
BRANCH   1   2
ATOM      2  C   UNL     1      64.606  34.320  61.101  1.00  0.00     0.004 C 
BRANCH   2   3
ATOM      3  C   UNL     1      64.544  33.333  59.925  1.00  0.00     0.027 C 
BRANCH   3   4
ATOM      4  C   UNL     1      63.905  32.038  60.339  1.00  0.00    -0.025 C 
ATOM      5  C   UNL     1      62.591  31.955  60.579  1.00  0.00     0.020 C 
BRANCH   5   6
ATOM      6  C   UNL     1      61.940  30.695  60.972  1.00  0.00     0.064 C 
ATOM      7  O   UNL     1      60.689  30.558  60.900  1.00  0.00    -0.545 OA
ATOM      8  O   UNL     1      62.717  29.639  61.428  1.00  0.00    -0.545 OA
ENDBRANCH   5   6
ENDBRANCH   3   4
ENDBRANCH   2   3
ENDBRANCH   1   2
BRANCH   1   9
ATOM      9  C   UNL     1      64.582  36.802  60.339  1.00  0.00     0.000 C 
BRANCH   9  10
ATOM     10  C   UNL     1      63.254  36.924  61.102  1.00  0.00     0.000 C 
BRANCH  10  11
ATOM     11  C   UNL     1      62.059  36.846  60.140  1.00  0.00    -0.000 C 
BRANCH  11  12
ATOM     12  C   UNL     1      61.301  35.514  60.247  1.00  0.00    -0.000 C 
BRANCH  12  13
ATOM     13  C   UNL     1      61.057  34.861  58.878  1.00  0.00    -0.003 C 
ATOM     14  C   UNL     1      62.154  35.237  57.886  1.00  0.00     0.004 C 
ENDBRANCH  12  13
ENDBRANCH  11  12
ENDBRANCH  10  11
ENDBRANCH   9  10
ENDBRANCH   1   9
TORSDOF 9
ENDMDL
MODEL 7
REMARK VINA RESULT:    -3.260     11.983     13.434
REMARK INTER + INTRA:          -6.080
REMARK INTER:                  -4.717
REMARK INTRA:                  -1.364
REMARK UNBOUND:                -1.105
REMARK SMILES CCCCCCCCCC=CC(=O)[O-]
REMARK SMILES IDX 7 1 8 2 9 3 10 4 11 5 12 6 13 7 14 8 6 9 5 10 4 11 3 12 2 13
REMARK SMILES IDX 1 14
REMARK H PARENT
REMARK Flexibility Score: inf
ROOT
ATOM      1  C   UNL     1      62.736  31.394  58.048  1.00  0.00     0.000 C 
ENDROOT
BRANCH   1   2
ATOM      2  C   UNL     1      62.648  32.930  58.009  1.00  0.00     0.004 C 
BRANCH   2   3
ATOM      3  C   UNL     1      61.554  33.490  58.932  1.00  0.00     0.027 C 
BRANCH   3   4
ATOM      4  C   UNL     1      62.149  34.328  60.028  1.00  0.00    -0.025 C 
ATOM      5  C   UNL     1      63.422  34.738  59.979  1.00  0.00     0.020 C 
BRANCH   5   6
ATOM      6  C   UNL     1      64.022  35.571  61.033  1.00  0.00     0.064 C 
ATOM      7  O   UNL     1      65.048  35.190  61.659  1.00  0.00    -0.545 OA
ATOM      8  O   UNL     1      63.450  36.797  61.342  1.00  0.00    -0.545 OA
ENDBRANCH   5   6
ENDBRANCH   3   4
ENDBRANCH   2   3
ENDBRANCH   1   2
BRANCH   1   9
ATOM      9  C   UNL     1      64.156  30.828  58.239  1.00  0.00     0.000 C 
BRANCH   9  10
ATOM     10  C   UNL     1      64.889  31.440  59.442  1.00  0.00     0.000 C 
BRANCH  10  11
ATOM     11  C   UNL     1      64.108  31.199  60.742  1.00  0.00    -0.000 C 
BRANCH  11  12
ATOM     12  C   UNL     1      63.865  29.707  61.018  1.00  0.00    -0.000 C 
BRANCH  12  13
ATOM     13  C   UNL     1      62.389  29.390  61.303  1.00  0.00    -0.003 C 
ATOM     14  C   UNL     1      61.568  30.670  61.431  1.00  0.00     0.004 C 
ENDBRANCH  12  13
ENDBRANCH  11  12
ENDBRANCH  10  11
ENDBRANCH   9  10
ENDBRANCH   1   9
TORSDOF 9
ENDMDL
MODEL 8
REMARK VINA RESULT:    -3.260     11.867     12.815
REMARK INTER + INTRA:          -6.080
REMARK INTER:                  -5.370
REMARK INTRA:                  -0.710
REMARK UNBOUND:                -1.105
REMARK SMILES CCCCCCCCCC=CC(=O)[O-]
REMARK SMILES IDX 7 1 8 2 9 3 10 4 11 5 12 6 13 7 14 8 6 9 5 10 4 11 3 12 2 13
REMARK SMILES IDX 1 14
REMARK H PARENT
REMARK Flexibility Score: inf
ROOT
ATOM      1  C   UNL     1      62.310  29.787  61.400  1.00  0.00     0.000 C 
ENDROOT
BRANCH   1   2
ATOM      2  C   UNL     1      61.966  28.336  61.018  1.00  0.00     0.004 C 
BRANCH   2   3
ATOM      3  C   UNL     1      63.200  27.515  60.612  1.00  0.00     0.027 C 
BRANCH   3   4
ATOM      4  C   UNL     1      64.289  28.404  60.082  1.00  0.00    -0.025 C 
ATOM      5  C   UNL     1      65.576  28.178  60.369  1.00  0.00     0.020 C 
BRANCH   5   6
ATOM      6  C   UNL     1      66.660  29.025  59.849  1.00  0.00     0.064 C 
ATOM      7  O   UNL     1      67.863  28.805  60.156  1.00  0.00    -0.545 OA
ATOM      8  O   UNL     1      66.354  30.085  59.007  1.00  0.00    -0.545 OA
ENDBRANCH   5   6
ENDBRANCH   3   4
ENDBRANCH   2   3
ENDBRANCH   1   2
BRANCH   1   9
ATOM      9  C   UNL     1      61.139  30.782  61.296  1.00  0.00     0.000 C 
BRANCH   9  10
ATOM     10  C   UNL     1      61.428  31.951  60.342  1.00  0.00     0.000 C 
BRANCH  10  11
ATOM     11  C   UNL     1      62.940  32.141  60.148  1.00  0.00    -0.000 C 
BRANCH  11  12
ATOM     12  C   UNL     1      63.377  33.605  60.308  1.00  0.00    -0.000 C 
BRANCH  12  13
ATOM     13  C   UNL     1      62.199  34.588  60.220  1.00  0.00    -0.003 C 
ATOM     14  C   UNL     1      62.613  35.983  60.681  1.00  0.00     0.004 C 
ENDBRANCH  12  13
ENDBRANCH  11  12
ENDBRANCH  10  11
ENDBRANCH   9  10
ENDBRANCH   1   9
TORSDOF 9
ENDMDL
MODEL 9
REMARK VINA RESULT:    -3.244      1.928      2.895
REMARK INTER + INTRA:          -6.055
REMARK INTER:                  -5.364
REMARK INTRA:                  -0.691
REMARK UNBOUND:                -1.105
REMARK SMILES CCCCCCCCCC=CC(=O)[O-]
REMARK SMILES IDX 7 1 8 2 9 3 10 4 11 5 12 6 13 7 14 8 6 9 5 10 4 11 3 12 2 13
REMARK SMILES IDX 1 14
REMARK H PARENT
REMARK Flexibility Score: inf
ROOT
ATOM      1  C   UNL     1      57.849  27.399  50.556  1.00  0.00     0.000 C 
ENDROOT
BRANCH   1   2
ATOM      2  C   UNL     1      58.012  28.866  50.118  1.00  0.00     0.004 C 
BRANCH   2   3
ATOM      3  C   UNL     1      59.296  29.109  49.309  1.00  0.00     0.027 C 
BRANCH   3   4
ATOM      4  C   UNL     1      60.205  27.915  49.366  1.00  0.00    -0.025 C 
ATOM      5  C   UNL     1      61.534  28.052  49.425  1.00  0.00     0.020 C 
BRANCH   5   6
ATOM      6  C   UNL     1      62.444  26.898  49.496  1.00  0.00     0.064 C 
ATOM      7  O   UNL     1      63.672  27.020  49.239  1.00  0.00    -0.545 OA
ATOM      8  O   UNL     1      61.941  25.655  49.854  1.00  0.00    -0.545 OA
ENDBRANCH   5   6
ENDBRANCH   3   4
ENDBRANCH   2   3
ENDBRANCH   1   2
BRANCH   1   9
ATOM      9  C   UNL     1      56.795  26.598  49.769  1.00  0.00     0.000 C 
BRANCH   9  10
ATOM     10  C   UNL     1      55.400  26.650  50.410  1.00  0.00     0.000 C 
BRANCH  10  11
ATOM     11  C   UNL     1      54.343  27.102  49.391  1.00  0.00    -0.000 C 
BRANCH  11  12
ATOM     12  C   UNL     1      53.563  28.340  49.859  1.00  0.00    -0.000 C 
BRANCH  12  13
ATOM     13  C   UNL     1      54.479  29.530  50.182  1.00  0.00    -0.003 C 
ATOM     14  C   UNL     1      53.829  30.464  51.199  1.00  0.00     0.004 C 
ENDBRANCH  12  13
ENDBRANCH  11  12
ENDBRANCH  10  11
ENDBRANCH   9  10
ENDBRANCH   1   9
TORSDOF 9
ENDMDL
