MODEL 1
REMARK VINA RESULT:    -2.482      0.000      0.000
REMARK INTER + INTRA:          -3.327
REMARK INTER:                  -3.062
REMARK INTRA:                  -0.265
REMARK UNBOUND:                -0.265
REMARK SMILES COC(=O)c1ccccc1C(=O)OC
REMARK SMILES IDX 5 1 6 2 7 3 8 4 9 5 10 6 3 7 4 8 2 9 1 10 11 11 12 12 13 13
REMARK SMILES IDX 14 14
REMARK H PARENT
REMARK Flexibility Score: inf
ROOT
ATOM      1  C   UNL     1      25.456  23.845  26.153  1.00  0.00     0.074 A 
ATOM      2  C   UNL     1      24.596  23.014  25.412  1.00  0.00     0.016 A 
ATOM      3  C   UNL     1      24.749  22.877  24.031  1.00  0.00     0.001 A 
ATOM      4  C   UNL     1      25.761  23.569  23.369  1.00  0.00     0.001 A 
ATOM      5  C   UNL     1      26.639  24.381  24.087  1.00  0.00     0.016 A 
ATOM      6  C   UNL     1      26.519  24.515  25.483  1.00  0.00     0.074 A 
ENDROOT
BRANCH   1   7
ATOM      7  C   UNL     1      25.167  24.030  27.593  1.00  0.00     0.338 C 
ATOM      8  O   UNL     1      25.741  23.308  28.455  1.00  0.00    -0.246 OA
BRANCH   7   9
ATOM      9  O   UNL     1      24.300  25.050  27.997  1.00  0.00    -0.465 OA
ATOM     10  C   UNL     1      22.903  25.021  27.729  1.00  0.00     0.282 C 
ENDBRANCH   7   9
ENDBRANCH   1   7
BRANCH   6  11
ATOM     11  C   UNL     1      27.553  25.301  26.194  1.00  0.00     0.338 C 
ATOM     12  O   UNL     1      28.663  24.776  26.485  1.00  0.00    -0.246 OA
BRANCH  11  13
ATOM     13  O   UNL     1      27.313  26.646  26.490  1.00  0.00    -0.465 OA
ATOM     14  C   UNL     1      27.641  27.700  25.591  1.00  0.00     0.282 C 
ENDBRANCH  11  13
ENDBRANCH   6  11
TORSDOF 4
ENDMDL
MODEL 2
REMARK VINA RESULT:    -2.388      1.804      3.573
REMARK INTER + INTRA:          -3.212
REMARK INTER:                  -2.944
REMARK INTRA:                  -0.268
REMARK UNBOUND:                -0.265
REMARK SMILES COC(=O)c1ccccc1C(=O)OC
REMARK SMILES IDX 5 1 6 2 7 3 8 4 9 5 10 6 3 7 4 8 2 9 1 10 11 11 12 12 13 13
REMARK SMILES IDX 14 14
REMARK H PARENT
REMARK Flexibility Score: inf
ROOT
ATOM      1  C   UNL     1      25.886  23.670  25.455  1.00  0.00     0.074 A 
ATOM      2  C   UNL     1      24.747  22.877  25.688  1.00  0.00     0.016 A 
ATOM      3  C   UNL     1      23.991  23.037  26.851  1.00  0.00     0.001 A 
ATOM      4  C   UNL     1      24.361  23.989  27.798  1.00  0.00     0.001 A 
ATOM      5  C   UNL     1      25.473  24.801  27.577  1.00  0.00     0.016 A 
ATOM      6  C   UNL     1      26.236  24.674  26.401  1.00  0.00     0.074 A 
ENDROOT
BRANCH   1   7
ATOM      7  C   UNL     1      26.702  23.370  24.257  1.00  0.00     0.338 C 
ATOM      8  O   UNL     1      26.250  23.608  23.103  1.00  0.00    -0.246 OA
BRANCH   7   9
ATOM      9  O   UNL     1      28.002  22.878  24.413  1.00  0.00    -0.465 OA
ATOM     10  C   UNL     1      29.125  23.454  23.757  1.00  0.00     0.282 C 
ENDBRANCH   7   9
ENDBRANCH   1   7
BRANCH   6  11
ATOM     11  C   UNL     1      27.333  25.643  26.180  1.00  0.00     0.338 C 
ATOM     12  O   UNL     1      28.508  25.370  26.549  1.00  0.00    -0.246 OA
BRANCH  11  13
ATOM     13  O   UNL     1      27.069  26.841  25.508  1.00  0.00    -0.465 OA
ATOM     14  C   UNL     1      27.921  27.977  25.600  1.00  0.00     0.282 C 
ENDBRANCH  11  13
ENDBRANCH   6  11
TORSDOF 4
ENDMDL
MODEL 3
REMARK VINA RESULT:    -1.521      1.845      3.658
REMARK INTER + INTRA:          -2.142
REMARK INTER:                  -2.224
REMARK INTRA:                   0.083
REMARK UNBOUND:                -0.265
REMARK SMILES COC(=O)c1ccccc1C(=O)OC
REMARK SMILES IDX 5 1 6 2 7 3 8 4 9 5 10 6 3 7 4 8 2 9 1 10 11 11 12 12 13 13
REMARK SMILES IDX 14 14
REMARK H PARENT
REMARK Flexibility Score: inf
ROOT
ATOM      1  C   UNL     1      27.063  25.397  26.211  1.00  0.00     0.074 A 
ATOM      2  C   UNL     1      27.065  26.753  26.586  1.00  0.00     0.016 A 
ATOM      3  C   UNL     1      28.037  27.627  26.098  1.00  0.00     0.001 A 
ATOM      4  C   UNL     1      29.021  27.163  25.229  1.00  0.00     0.001 A 
ATOM      5  C   UNL     1      29.025  25.827  24.825  1.00  0.00     0.016 A 
ATOM      6  C   UNL     1      28.041  24.933  25.286  1.00  0.00     0.074 A 
ENDROOT
BRANCH   1   7
ATOM      7  C   UNL     1      26.073  24.503  26.853  1.00  0.00     0.338 C 
ATOM      8  O   UNL     1      24.851  24.583  26.547  1.00  0.00    -0.246 OA
BRANCH   7   9
ATOM      9  O   UNL     1      26.507  23.529  27.758  1.00  0.00    -0.465 OA
ATOM     10  C   UNL     1      25.663  22.989  28.768  1.00  0.00     0.282 C 
ENDBRANCH   7   9
ENDBRANCH   1   7
BRANCH   6  11
ATOM     11  C   UNL     1      28.038  23.561  24.729  1.00  0.00     0.338 C 
ATOM     12  O   UNL     1      29.125  22.952  24.531  1.00  0.00    -0.246 OA
BRANCH  11  13
ATOM     13  O   UNL     1      26.820  22.923  24.475  1.00  0.00    -0.465 OA
ATOM     14  C   UNL     1      25.947  23.324  23.426  1.00  0.00     0.282 C 
ENDBRANCH  11  13
ENDBRANCH   6  11
TORSDOF 4
ENDMDL
MODEL 4
REMARK VINA RESULT:    -1.367      3.582      5.865
REMARK INTER + INTRA:          -1.952
REMARK INTER:                  -2.203
REMARK INTRA:                   0.251
REMARK UNBOUND:                -0.265
REMARK SMILES COC(=O)c1ccccc1C(=O)OC
REMARK SMILES IDX 5 1 6 2 7 3 8 4 9 5 10 6 3 7 4 8 2 9 1 10 11 11 12 12 13 13
REMARK SMILES IDX 14 14
REMARK H PARENT
REMARK Flexibility Score: inf
ROOT
ATOM      1  C   UNL     1      28.693  29.388  26.015  1.00  0.00     0.074 A 
ATOM      2  C   UNL     1      28.913  30.720  25.619  1.00  0.00     0.016 A 
ATOM      3  C   UNL     1      29.077  31.047  24.272  1.00  0.00     0.001 A 
ATOM      4  C   UNL     1      29.025  30.050  23.301  1.00  0.00     0.001 A 
ATOM      5  C   UNL     1      28.785  28.725  23.669  1.00  0.00     0.016 A 
ATOM      6  C   UNL     1      28.593  28.377  25.019  1.00  0.00     0.074 A 
ENDROOT
BRANCH   1   7
ATOM      7  C   UNL     1      28.640  29.099  27.466  1.00  0.00     0.338 C 
ATOM      8  O   UNL     1      29.102  28.015  27.916  1.00  0.00    -0.246 OA
BRANCH   7   9
ATOM      9  O   UNL     1      28.129  30.062  28.344  1.00  0.00    -0.465 OA
ATOM     10  C   UNL     1      26.977  29.834  29.146  1.00  0.00     0.282 C 
ENDBRANCH   7   9
ENDBRANCH   1   7
BRANCH   6  11
ATOM     11  C   UNL     1      28.231  26.974  25.326  1.00  0.00     0.338 C 
ATOM     12  O   UNL     1      27.103  26.702  25.822  1.00  0.00    -0.246 OA
BRANCH  11  13
ATOM     13  O   UNL     1      29.125  25.946  25.009  1.00  0.00    -0.465 OA
ATOM     14  C   UNL     1      28.807  24.571  25.185  1.00  0.00     0.282 C 
ENDBRANCH  11  13
ENDBRANCH   6  11
TORSDOF 4
ENDMDL
MODEL 5
REMARK VINA RESULT:    -1.351      1.650      4.388
REMARK INTER + INTRA:          -1.933
REMARK INTER:                  -1.933
REMARK INTRA:                   0.000
REMARK UNBOUND:                -0.265
REMARK SMILES COC(=O)c1ccccc1C(=O)OC
REMARK SMILES IDX 5 1 6 2 7 3 8 4 9 5 10 6 3 7 4 8 2 9 1 10 11 11 12 12 13 13
REMARK SMILES IDX 14 14
REMARK H PARENT
REMARK Flexibility Score: inf
ROOT
ATOM      1  C   UNL     1      27.811  25.086  25.407  1.00  0.00     0.074 A 
ATOM      2  C   UNL     1      28.651  26.112  24.936  1.00  0.00     0.016 A 
ATOM      3  C   UNL     1      28.484  27.428  25.370  1.00  0.00     0.001 A 
ATOM      4  C   UNL     1      27.476  27.741  26.279  1.00  0.00     0.001 A 
ATOM      5  C   UNL     1      26.646  26.736  26.777  1.00  0.00     0.016 A 
ATOM      6  C   UNL     1      26.811  25.398  26.372  1.00  0.00     0.074 A 
ENDROOT
BRANCH   1   7
ATOM      7  C   UNL     1      27.972  23.737  24.820  1.00  0.00     0.338 C 
ATOM      8  O   UNL     1      29.125  23.277  24.591  1.00  0.00    -0.246 OA
BRANCH   7   9
ATOM      9  O   UNL     1      26.841  22.950  24.578  1.00  0.00    -0.465 OA
ATOM     10  C   UNL     1      25.903  23.251  23.552  1.00  0.00     0.282 C 
ENDBRANCH   7   9
ENDBRANCH   1   7
BRANCH   6  11
ATOM     11  C   UNL     1      25.972  24.369  27.026  1.00  0.00     0.338 C 
ATOM     12  O   UNL     1      26.483  23.557  27.845  1.00  0.00    -0.246 OA
BRANCH  11  13
ATOM     13  O   UNL     1      24.597  24.339  26.773  1.00  0.00    -0.465 OA
ATOM     14  C   UNL     1      23.826  23.146  26.858  1.00  0.00     0.282 C 
ENDBRANCH  11  13
ENDBRANCH   6  11
TORSDOF 4
ENDMDL
MODEL 6
REMARK VINA RESULT:    -1.242      3.369      5.801
REMARK INTER + INTRA:          -1.798
REMARK INTER:                  -1.777
REMARK INTRA:                  -0.020
REMARK UNBOUND:                -0.265
REMARK SMILES COC(=O)c1ccccc1C(=O)OC
REMARK SMILES IDX 5 1 6 2 7 3 8 4 9 5 10 6 3 7 4 8 2 9 1 10 11 11 12 12 13 13
REMARK SMILES IDX 14 14
REMARK H PARENT
REMARK Flexibility Score: inf
ROOT
ATOM      1  C   UNL     1      28.247  28.534  25.175  1.00  0.00     0.074 A 
ATOM      2  C   UNL     1      28.362  28.864  23.812  1.00  0.00     0.016 A 
ATOM      3  C   UNL     1      28.638  30.172  23.414  1.00  0.00     0.001 A 
ATOM      4  C   UNL     1      28.804  31.172  24.369  1.00  0.00     0.001 A 
ATOM      5  C   UNL     1      28.717  30.865  25.727  1.00  0.00     0.016 A 
ATOM      6  C   UNL     1      28.462  29.547  26.152  1.00  0.00     0.074 A 
ENDROOT
BRANCH   1   7
ATOM      7  C   UNL     1      27.842  27.153  25.520  1.00  0.00     0.338 C 
ATOM      8  O   UNL     1      26.639  26.894  25.802  1.00  0.00    -0.246 OA
BRANCH   7   9
ATOM      9  O   UNL     1      28.788  26.124  25.473  1.00  0.00    -0.465 OA
ATOM     10  C   UNL     1      28.432  24.750  25.558  1.00  0.00     0.282 C 
ENDBRANCH   7   9
ENDBRANCH   1   7
BRANCH   6  11
ATOM     11  C   UNL     1      28.496  29.271  27.606  1.00  0.00     0.338 C 
ATOM     12  O   UNL     1      29.125  28.271  28.050  1.00  0.00    -0.246 OA
BRANCH  11  13
ATOM     13  O   UNL     1      27.875  30.158  28.491  1.00  0.00    -0.465 OA
ATOM     14  C   UNL     1      26.767  29.784  29.300  1.00  0.00     0.282 C 
ENDBRANCH  11  13
ENDBRANCH   6  11
TORSDOF 4
ENDMDL
MODEL 7
REMARK VINA RESULT:    -0.506      2.878      6.552
REMARK INTER + INTRA:          -0.890
REMARK INTER:                  -1.467
REMARK INTRA:                   0.578
REMARK UNBOUND:                -0.265
REMARK SMILES COC(=O)c1ccccc1C(=O)OC
REMARK SMILES IDX 5 1 6 2 7 3 8 4 9 5 10 6 3 7 4 8 2 9 1 10 11 11 12 12 13 13
REMARK SMILES IDX 14 14
REMARK H PARENT
REMARK Flexibility Score: inf
ROOT
ATOM      1  C   UNL     1      28.582  29.127  25.734  1.00  0.00     0.074 A 
ATOM      2  C   UNL     1      28.854  30.272  26.504  1.00  0.00     0.016 A 
ATOM      3  C   UNL     1      29.123  30.168  27.869  1.00  0.00     0.001 A 
ATOM      4  C   UNL     1      29.124  28.920  28.487  1.00  0.00     0.001 A 
ATOM      5  C   UNL     1      28.878  27.768  27.739  1.00  0.00     0.016 A 
ATOM      6  C   UNL     1      28.628  27.847  26.356  1.00  0.00     0.074 A 
ENDROOT
BRANCH   1   7
ATOM      7  C   UNL     1      28.195  29.322  24.318  1.00  0.00     0.338 C 
ATOM      8  O   UNL     1      27.051  28.972  23.917  1.00  0.00    -0.246 OA
BRANCH   7   9
ATOM      9  O   UNL     1      29.084  29.952  23.440  1.00  0.00    -0.465 OA
ATOM     10  C   UNL     1      29.047  31.350  23.184  1.00  0.00     0.282 C 
ENDBRANCH   7   9
ENDBRANCH   1   7
BRANCH   6  11
ATOM     11  C   UNL     1      28.490  26.579  25.605  1.00  0.00     0.338 C 
ATOM     12  O   UNL     1      28.716  26.546  24.364  1.00  0.00    -0.246 OA
BRANCH  11  13
ATOM     13  O   UNL     1      28.162  25.405  26.290  1.00  0.00    -0.465 OA
ATOM     14  C   UNL     1      27.190  24.483  25.811  1.00  0.00     0.282 C 
ENDBRANCH  11  13
ENDBRANCH   6  11
TORSDOF 4
ENDMDL
