MODEL 1
REMARK VINA RESULT:    -6.008      0.000      0.000
REMARK INTER + INTRA:          -6.008
REMARK INTER:                  -6.008
REMARK INTRA:                   0.000
REMARK UNBOUND:                 0.000
REMARK SMILES C=C1CCCC(C)(C)[C@@]12CC=C(C)CC2
REMARK SMILES IDX 13 1 12 2 11 3 10 4 9 5 15 6 14 7 2 8 1 9 3 10 4 11 5 12
REMARK SMILES IDX 6 13 7 14 8 15
REMARK H PARENT
REMARK Flexibility Score: inf
ROOT
ATOM      1  C   UNL     1     -38.503 -47.298  28.829  1.00  0.00     0.039 C 
ATOM      2  C   UNL     1     -39.796 -47.795  28.246  1.00  0.00    -0.077 C 
ATOM      3  C   UNL     1     -39.890 -49.052  27.792  1.00  0.00    -0.027 C 
ATOM      4  C   UNL     1     -41.216 -49.559  27.312  1.00  0.00     0.039 C 
ATOM      5  C   UNL     1     -42.380 -49.183  28.300  1.00  0.00    -0.000 C 
ATOM      6  C   UNL     1     -42.324 -47.615  28.543  1.00  0.00     0.017 C 
ATOM      7  C   UNL     1     -41.006 -46.898  28.154  1.00  0.00     0.031 C 
ATOM      8  C   UNL     1     -43.764 -49.499  27.670  1.00  0.00    -0.070 C 
ATOM      9  C   UNL     1     -43.942 -50.072  26.460  1.00  0.00     0.008 C 
ATOM     10  C   UNL     1     -44.989 -49.231  28.519  1.00  0.00     0.031 C 
ATOM     11  C   UNL     1     -44.905 -50.047  29.803  1.00  0.00     0.005 C 
ATOM     12  C   UNL     1     -43.593 -49.772  30.547  1.00  0.00     0.008 C 
ATOM     13  C   UNL     1     -42.309 -50.015  29.681  1.00  0.00    -0.026 C 
ATOM     14  C   UNL     1     -42.197 -51.542  29.410  1.00  0.00     0.012 C 
ATOM     15  C   UNL     1     -41.097 -49.635  30.578  1.00  0.00     0.012 C 
ENDROOT
TORSDOF 0
ENDMDL
MODEL 2
REMARK VINA RESULT:    -5.507      2.392      3.635
REMARK INTER + INTRA:          -5.507
REMARK INTER:                  -5.507
REMARK INTRA:                   0.000
REMARK UNBOUND:                 0.000
REMARK SMILES C=C1CCCC(C)(C)[C@@]12CC=C(C)CC2
REMARK SMILES IDX 13 1 12 2 11 3 10 4 9 5 15 6 14 7 2 8 1 9 3 10 4 11 5 12
REMARK SMILES IDX 6 13 7 14 8 15
REMARK H PARENT
REMARK Flexibility Score: inf
ROOT
ATOM      1  C   UNL     1     -40.042 -46.542  28.382  1.00  0.00     0.039 C 
ATOM      2  C   UNL     1     -40.839 -47.226  27.306  1.00  0.00    -0.077 C 
ATOM      3  C   UNL     1     -41.417 -48.410  27.548  1.00  0.00    -0.027 C 
ATOM      4  C   UNL     1     -42.294 -49.024  26.499  1.00  0.00     0.039 C 
ATOM      5  C   UNL     1     -43.293 -47.977  25.883  1.00  0.00    -0.000 C 
ATOM      6  C   UNL     1     -42.444 -46.730  25.385  1.00  0.00     0.017 C 
ATOM      7  C   UNL     1     -41.003 -46.604  25.942  1.00  0.00     0.031 C 
ATOM      8  C   UNL     1     -44.013 -48.565  24.640  1.00  0.00    -0.070 C 
ATOM      9  C   UNL     1     -43.848 -49.825  24.182  1.00  0.00     0.008 C 
ATOM     10  C   UNL     1     -45.043 -47.689  23.958  1.00  0.00     0.031 C 
ATOM     11  C   UNL     1     -46.136 -47.321  24.954  1.00  0.00     0.005 C 
ATOM     12  C   UNL     1     -45.542 -46.673  26.211  1.00  0.00     0.008 C 
ATOM     13  C   UNL     1     -44.452 -47.548  26.920  1.00  0.00    -0.026 C 
ATOM     14  C   UNL     1     -45.157 -48.798  27.520  1.00  0.00     0.012 C 
ATOM     15  C   UNL     1     -43.935 -46.712  28.124  1.00  0.00     0.012 C 
ENDROOT
TORSDOF 0
ENDMDL
MODEL 3
REMARK VINA RESULT:    -5.484      8.987     11.926
REMARK INTER + INTRA:          -5.484
REMARK INTER:                  -5.484
REMARK INTRA:                   0.000
REMARK UNBOUND:                 0.000
REMARK SMILES C=C1CCCC(C)(C)[C@@]12CC=C(C)CC2
REMARK SMILES IDX 13 1 12 2 11 3 10 4 9 5 15 6 14 7 2 8 1 9 3 10 4 11 5 12
REMARK SMILES IDX 6 13 7 14 8 15
REMARK H PARENT
REMARK Flexibility Score: inf
ROOT
ATOM      1  C   UNL     1     -54.876 -48.038  20.782  1.00  0.00     0.039 C 
ATOM      2  C   UNL     1     -53.927 -47.768  21.917  1.00  0.00    -0.077 C 
ATOM      3  C   UNL     1     -53.368 -48.787  22.581  1.00  0.00    -0.027 C 
ATOM      4  C   UNL     1     -52.345 -48.497  23.639  1.00  0.00     0.039 C 
ATOM      5  C   UNL     1     -51.291 -47.434  23.159  1.00  0.00    -0.000 C 
ATOM      6  C   UNL     1     -52.085 -46.159  22.644  1.00  0.00     0.017 C 
ATOM      7  C   UNL     1     -53.591 -46.358  22.333  1.00  0.00     0.031 C 
ATOM      8  C   UNL     1     -50.397 -46.970  24.341  1.00  0.00    -0.070 C 
ATOM      9  C   UNL     1     -50.477 -47.455  25.599  1.00  0.00     0.008 C 
ATOM     10  C   UNL     1     -49.300 -45.974  24.029  1.00  0.00     0.031 C 
ATOM     11  C   UNL     1     -48.360 -46.565  22.986  1.00  0.00     0.005 C 
ATOM     12  C   UNL     1     -49.130 -47.012  21.738  1.00  0.00     0.008 C 
ATOM     13  C   UNL     1     -50.291 -48.021  22.037  1.00  0.00    -0.026 C 
ATOM     14  C   UNL     1     -49.652 -49.361  22.502  1.00  0.00     0.012 C 
ATOM     15  C   UNL     1     -50.982 -48.310  20.674  1.00  0.00     0.012 C 
ENDROOT
TORSDOF 0
ENDMDL
MODEL 4
REMARK VINA RESULT:    -5.473     10.003     13.127
REMARK INTER + INTRA:          -5.473
REMARK INTER:                  -5.473
REMARK INTRA:                   0.000
REMARK UNBOUND:                 0.000
REMARK SMILES C=C1CCCC(C)(C)[C@@]12CC=C(C)CC2
REMARK SMILES IDX 13 1 12 2 11 3 10 4 9 5 15 6 14 7 2 8 1 9 3 10 4 11 5 12
REMARK SMILES IDX 6 13 7 14 8 15
REMARK H PARENT
REMARK Flexibility Score: inf
ROOT
ATOM      1  C   UNL     1     -55.781 -47.261  21.155  1.00  0.00     0.039 C 
ATOM      2  C   UNL     1     -54.486 -47.759  21.736  1.00  0.00    -0.077 C 
ATOM      3  C   UNL     1     -54.338 -49.057  22.030  1.00  0.00    -0.027 C 
ATOM      4  C   UNL     1     -53.006 -49.551  22.509  1.00  0.00     0.039 C 
ATOM      5  C   UNL     1     -51.824 -48.988  21.638  1.00  0.00    -0.000 C 
ATOM      6  C   UNL     1     -51.963 -47.407  21.593  1.00  0.00     0.017 C 
ATOM      7  C   UNL     1     -53.338 -46.819  22.002  1.00  0.00     0.031 C 
ATOM      8  C   UNL     1     -50.453 -49.309  22.293  1.00  0.00    -0.070 C 
ATOM      9  C   UNL     1     -50.294 -50.023  23.429  1.00  0.00     0.008 C 
ATOM     10  C   UNL     1     -49.211 -48.867  21.549  1.00  0.00     0.031 C 
ATOM     11  C   UNL     1     -49.189 -49.514  20.169  1.00  0.00     0.005 C 
ATOM     12  C   UNL     1     -50.481 -49.216  19.399  1.00  0.00     0.008 C 
ATOM     13  C   UNL     1     -51.785 -49.637  20.161  1.00  0.00    -0.026 C 
ATOM     14  C   UNL     1     -51.818 -51.190  20.231  1.00  0.00     0.012 C 
ATOM     15  C   UNL     1     -52.977 -49.210  19.259  1.00  0.00     0.012 C 
ENDROOT
TORSDOF 0
ENDMDL
MODEL 5
REMARK VINA RESULT:    -5.379      1.965      4.348
REMARK INTER + INTRA:          -5.379
REMARK INTER:                  -5.379
REMARK INTRA:                   0.000
REMARK UNBOUND:                 0.000
REMARK SMILES C=C1CCCC(C)(C)[C@@]12CC=C(C)CC2
REMARK SMILES IDX 13 1 12 2 11 3 10 4 9 5 15 6 14 7 2 8 1 9 3 10 4 11 5 12
REMARK SMILES IDX 6 13 7 14 8 15
REMARK H PARENT
REMARK Flexibility Score: inf
ROOT
ATOM      1  C   UNL     1     -42.159 -51.651  29.380  1.00  0.00     0.039 C 
ATOM      2  C   UNL     1     -42.867 -50.403  28.929  1.00  0.00    -0.077 C 
ATOM      3  C   UNL     1     -42.674 -49.248  29.579  1.00  0.00    -0.027 C 
ATOM      4  C   UNL     1     -43.305 -47.996  29.050  1.00  0.00     0.039 C 
ATOM      5  C   UNL     1     -43.115 -47.855  27.495  1.00  0.00    -0.000 C 
ATOM      6  C   UNL     1     -43.638 -49.193  26.818  1.00  0.00     0.017 C 
ATOM      7  C   UNL     1     -43.805 -50.422  27.748  1.00  0.00     0.031 C 
ATOM      8  C   UNL     1     -43.979 -46.692  26.936  1.00  0.00    -0.070 C 
ATOM      9  C   UNL     1     -44.746 -45.875  27.690  1.00  0.00     0.008 C 
ATOM     10  C   UNL     1     -43.871 -46.401  25.454  1.00  0.00     0.031 C 
ATOM     11  C   UNL     1     -42.426 -46.070  25.105  1.00  0.00     0.005 C 
ATOM     12  C   UNL     1     -41.477 -47.184  25.563  1.00  0.00     0.008 C 
ATOM     13  C   UNL     1     -41.589 -47.525  27.089  1.00  0.00    -0.026 C 
ATOM     14  C   UNL     1     -41.047 -46.308  27.892  1.00  0.00     0.012 C 
ATOM     15  C   UNL     1     -40.605 -48.699  27.349  1.00  0.00     0.012 C 
ENDROOT
TORSDOF 0
ENDMDL
MODEL 6
REMARK VINA RESULT:    -5.318      1.730      3.614
REMARK INTER + INTRA:          -5.318
REMARK INTER:                  -5.318
REMARK INTRA:                   0.000
REMARK UNBOUND:                 0.000
REMARK SMILES C=C1CCCC(C)(C)[C@@]12CC=C(C)CC2
REMARK SMILES IDX 13 1 12 2 11 3 10 4 9 5 15 6 14 7 2 8 1 9 3 10 4 11 5 12
REMARK SMILES IDX 6 13 7 14 8 15
REMARK H PARENT
REMARK Flexibility Score: inf
ROOT
ATOM      1  C   UNL     1     -42.096 -50.750  31.553  1.00  0.00     0.039 C 
ATOM      2  C   UNL     1     -42.039 -50.279  30.126  1.00  0.00    -0.077 C 
ATOM      3  C   UNL     1     -42.931 -50.730  29.234  1.00  0.00    -0.027 C 
ATOM      4  C   UNL     1     -42.922 -50.168  27.844  1.00  0.00     0.039 C 
ATOM      5  C   UNL     1     -42.806 -48.600  27.846  1.00  0.00    -0.000 C 
ATOM      6  C   UNL     1     -41.542 -48.207  28.723  1.00  0.00     0.017 C 
ATOM      7  C   UNL     1     -40.986 -49.301  29.669  1.00  0.00     0.031 C 
ATOM      8  C   UNL     1     -42.553 -48.063  26.411  1.00  0.00    -0.070 C 
ATOM      9  C   UNL     1     -42.496 -48.833  25.303  1.00  0.00     0.008 C 
ATOM     10  C   UNL     1     -42.460 -46.562  26.241  1.00  0.00     0.031 C 
ATOM     11  C   UNL     1     -43.754 -45.916  26.719  1.00  0.00     0.005 C 
ATOM     12  C   UNL     1     -44.081 -46.332  28.158  1.00  0.00     0.008 C 
ATOM     13  C   UNL     1     -44.154 -47.884  28.368  1.00  0.00    -0.026 C 
ATOM     14  C   UNL     1     -45.401 -48.412  27.603  1.00  0.00     0.012 C 
ATOM     15  C   UNL     1     -44.436 -48.108  29.880  1.00  0.00     0.012 C 
ENDROOT
TORSDOF 0
ENDMDL
MODEL 7
REMARK VINA RESULT:    -5.237      1.843      4.775
REMARK INTER + INTRA:          -5.237
REMARK INTER:                  -5.237
REMARK INTRA:                   0.000
REMARK UNBOUND:                 0.000
REMARK SMILES C=C1CCCC(C)(C)[C@@]12CC=C(C)CC2
REMARK SMILES IDX 13 1 12 2 11 3 10 4 9 5 15 6 14 7 2 8 1 9 3 10 4 11 5 12
REMARK SMILES IDX 6 13 7 14 8 15
REMARK H PARENT
REMARK Flexibility Score: inf
ROOT
ATOM      1  C   UNL     1     -46.400 -50.294  24.766  1.00  0.00     0.039 C 
ATOM      2  C   UNL     1     -45.288 -49.333  25.087  1.00  0.00    -0.077 C 
ATOM      3  C   UNL     1     -45.533 -48.246  25.830  1.00  0.00    -0.027 C 
ATOM      4  C   UNL     1     -44.392 -47.359  26.226  1.00  0.00     0.039 C 
ATOM      5  C   UNL     1     -43.160 -48.185  26.749  1.00  0.00    -0.000 C 
ATOM      6  C   UNL     1     -42.799 -49.270  25.647  1.00  0.00     0.017 C 
ATOM      7  C   UNL     1     -43.886 -49.566  24.582  1.00  0.00     0.031 C 
ATOM      8  C   UNL     1     -41.915 -47.274  26.919  1.00  0.00    -0.070 C 
ATOM      9  C   UNL     1     -41.905 -45.941  26.702  1.00  0.00     0.008 C 
ATOM     10  C   UNL     1     -40.655 -47.917  27.459  1.00  0.00     0.031 C 
ATOM     11  C   UNL     1     -40.939 -48.518  28.830  1.00  0.00     0.005 C 
ATOM     12  C   UNL     1     -42.125 -49.488  28.774  1.00  0.00     0.008 C 
ATOM     13  C   UNL     1     -43.435 -48.854  28.192  1.00  0.00    -0.026 C 
ATOM     14  C   UNL     1     -43.948 -47.796  29.210  1.00  0.00     0.012 C 
ATOM     15  C   UNL     1     -44.496 -49.990  28.163  1.00  0.00     0.012 C 
ENDROOT
TORSDOF 0
ENDMDL
MODEL 8
REMARK VINA RESULT:    -5.182      8.214     10.862
REMARK INTER + INTRA:          -5.182
REMARK INTER:                  -5.182
REMARK INTRA:                   0.000
REMARK UNBOUND:                 0.000
REMARK SMILES C=C1CCCC(C)(C)[C@@]12CC=C(C)CC2
REMARK SMILES IDX 13 1 12 2 11 3 10 4 9 5 15 6 14 7 2 8 1 9 3 10 4 11 5 12
REMARK SMILES IDX 6 13 7 14 8 15
REMARK H PARENT
REMARK Flexibility Score: inf
ROOT
ATOM      1  C   UNL     1     -47.503 -50.010  24.769  1.00  0.00     0.039 C 
ATOM      2  C   UNL     1     -48.692 -49.128  24.503  1.00  0.00    -0.077 C 
ATOM      3  C   UNL     1     -48.565 -48.047  23.723  1.00  0.00    -0.027 C 
ATOM      4  C   UNL     1     -49.784 -47.241  23.386  1.00  0.00     0.039 C 
ATOM      5  C   UNL     1     -50.992 -48.155  22.964  1.00  0.00    -0.000 C 
ATOM      6  C   UNL     1     -51.211 -49.232  24.110  1.00  0.00     0.017 C 
ATOM      7  C   UNL     1     -50.040 -49.434  25.106  1.00  0.00     0.031 C 
ATOM      8  C   UNL     1     -52.301 -47.326  22.859  1.00  0.00    -0.070 C 
ATOM      9  C   UNL     1     -52.381 -45.991  23.049  1.00  0.00     0.008 C 
ATOM     10  C   UNL     1     -53.551 -48.059  22.418  1.00  0.00     0.031 C 
ATOM     11  C   UNL     1     -53.320 -48.674  21.044  1.00  0.00     0.005 C 
ATOM     12  C   UNL     1     -52.074 -49.568  21.040  1.00  0.00     0.008 C 
ATOM     13  C   UNL     1     -50.771 -48.840  21.520  1.00  0.00    -0.026 C 
ATOM     14  C   UNL     1     -50.393 -47.778  20.448  1.00  0.00     0.012 C 
ATOM     15  C   UNL     1     -49.641 -49.908  21.502  1.00  0.00     0.012 C 
ENDROOT
TORSDOF 0
ENDMDL
MODEL 9
REMARK VINA RESULT:    -5.010      1.588      4.384
REMARK INTER + INTRA:          -5.010
REMARK INTER:                  -5.010
REMARK INTRA:                   0.000
REMARK UNBOUND:                 0.000
REMARK SMILES C=C1CCCC(C)(C)[C@@]12CC=C(C)CC2
REMARK SMILES IDX 13 1 12 2 11 3 10 4 9 5 15 6 14 7 2 8 1 9 3 10 4 11 5 12
REMARK SMILES IDX 6 13 7 14 8 15
REMARK H PARENT
REMARK Flexibility Score: inf
ROOT
ATOM      1  C   UNL     1     -44.744 -51.494  30.376  1.00  0.00     0.039 C 
ATOM      2  C   UNL     1     -43.825 -50.395  29.921  1.00  0.00    -0.077 C 
ATOM      3  C   UNL     1     -42.803 -50.670  29.101  1.00  0.00    -0.027 C 
ATOM      4  C   UNL     1     -41.963 -49.545  28.576  1.00  0.00     0.039 C 
ATOM      5  C   UNL     1     -42.842 -48.344  28.067  1.00  0.00    -0.000 C 
ATOM      6  C   UNL     1     -43.832 -47.936  29.240  1.00  0.00     0.017 C 
ATOM      7  C   UNL     1     -44.026 -48.971  30.377  1.00  0.00     0.031 C 
ATOM      8  C   UNL     1     -41.959 -47.104  27.761  1.00  0.00    -0.070 C 
ATOM      9  C   UNL     1     -40.613 -47.077  27.862  1.00  0.00     0.008 C 
ATOM     10  C   UNL     1     -42.658 -45.875  27.218  1.00  0.00     0.031 C 
ATOM     11  C   UNL     1     -43.370 -46.228  25.919  1.00  0.00     0.005 C 
ATOM     12  C   UNL     1     -44.321 -47.415  26.114  1.00  0.00     0.008 C 
ATOM     13  C   UNL     1     -43.628 -48.692  26.702  1.00  0.00    -0.026 C 
ATOM     14  C   UNL     1     -42.656 -49.249  25.622  1.00  0.00     0.012 C 
ATOM     15  C   UNL     1     -44.748 -49.756  26.879  1.00  0.00     0.012 C 
ENDROOT
TORSDOF 0
ENDMDL
