MODEL 1
REMARK VINA RESULT:    -4.864      0.000      0.000
REMARK INTER + INTRA:          -5.006
REMARK INTER:                  -5.006
REMARK INTRA:                   0.000
REMARK UNBOUND:                 0.000
REMARK SMILES Nc1ncnc2nc[nH]c12
REMARK SMILES IDX 8 1 7 2 6 3 5 4 4 5 3 6 2 7 10 8 9 9 1 11
REMARK H PARENT 9 10 1 12 1 13
REMARK Flexibility Score: inf
ROOT
ATOM      1  C   UNL     1       4.454  12.592  42.584  1.00  0.00     0.199 A 
ATOM      2  N   UNL     1       5.430  13.227  43.288  1.00  0.00    -0.217 NA
ATOM      3  C   UNL     1       6.512  13.033  42.515  1.00  0.00     0.182 A 
ATOM      4  N   UNL     1       7.770  13.469  42.760  1.00  0.00    -0.215 NA
ATOM      5  C   UNL     1       8.746  13.171  41.851  1.00  0.00     0.226 A 
ATOM      6  N   UNL     1       8.448  12.451  40.721  1.00  0.00    -0.217 NA
ATOM      7  C   UNL     1       7.180  12.010  40.471  1.00  0.00     0.152 A 
ATOM      8  C   UNL     1       6.197  12.321  41.407  1.00  0.00     0.127 A 
ATOM      9  N   UNL     1       4.891  12.028  41.429  1.00  0.00    -0.340 N 
ATOM     10  H   UNL     1       4.330  11.494  40.730  1.00  0.00     0.168 HD
ENDROOT
BRANCH   7  11
ATOM     11  N   UNL     1       6.893  11.261  39.290  1.00  0.00    -0.382 N 
ATOM     12  H   UNL     1       7.018  10.225  39.258  1.00  0.00     0.158 HD
ATOM     13  H   UNL     1       6.552  11.749  38.432  1.00  0.00     0.158 HD
ENDBRANCH   7  11
TORSDOF 1
ENDMDL
MODEL 2
REMARK VINA RESULT:    -4.556      0.861      2.965
REMARK INTER + INTRA:          -4.689
REMARK INTER:                  -4.689
REMARK INTRA:                   0.000
REMARK UNBOUND:                 0.000
REMARK SMILES Nc1ncnc2nc[nH]c12
REMARK SMILES IDX 8 1 7 2 6 3 5 4 4 5 3 6 2 7 10 8 9 9 1 11
REMARK H PARENT 9 10 1 12 1 13
REMARK Flexibility Score: inf
ROOT
ATOM      1  C   UNL     1       7.697  11.600  39.874  1.00  0.00     0.199 A 
ATOM      2  N   UNL     1       8.463  12.247  40.794  1.00  0.00    -0.217 NA
ATOM      3  C   UNL     1       7.548  12.659  41.688  1.00  0.00     0.182 A 
ATOM      4  N   UNL     1       7.784  13.362  42.820  1.00  0.00    -0.215 NA
ATOM      5  C   UNL     1       6.718  13.693  43.610  1.00  0.00     0.226 A 
ATOM      6  N   UNL     1       5.447  13.316  43.256  1.00  0.00    -0.217 NA
ATOM      7  C   UNL     1       5.207  12.606  42.114  1.00  0.00     0.152 A 
ATOM      8  C   UNL     1       6.303  12.278  41.321  1.00  0.00     0.127 A 
ATOM      9  N   UNL     1       6.372  11.602  40.167  1.00  0.00    -0.340 N 
ATOM     10  H   UNL     1       5.598  11.172  39.615  1.00  0.00     0.168 HD
ENDROOT
BRANCH   7  11
ATOM     11  N   UNL     1       3.875  12.225  41.765  1.00  0.00    -0.382 N 
ATOM     12  H   UNL     1       3.684  11.371  41.198  1.00  0.00     0.158 HD
ATOM     13  H   UNL     1       3.067  12.807  42.079  1.00  0.00     0.158 HD
ENDBRANCH   7  11
TORSDOF 1
ENDMDL
MODEL 3
REMARK VINA RESULT:    -4.436     17.876     18.512
REMARK INTER + INTRA:          -4.566
REMARK INTER:                  -4.566
REMARK INTRA:                   0.000
REMARK UNBOUND:                 0.000
REMARK SMILES Nc1ncnc2nc[nH]c12
REMARK SMILES IDX 8 1 7 2 6 3 5 4 4 5 3 6 2 7 10 8 9 9 1 11
REMARK H PARENT 9 10 1 12 1 13
REMARK Flexibility Score: inf
ROOT
ATOM      1  C   UNL     1      17.524  27.839  40.680  1.00  0.00     0.199 A 
ATOM      2  N   UNL     1      17.034  28.104  39.438  1.00  0.00    -0.217 NA
ATOM      3  C   UNL     1      15.762  28.446  39.700  1.00  0.00     0.182 A 
ATOM      4  N   UNL     1      14.820  28.809  38.796  1.00  0.00    -0.215 NA
ATOM      5  C   UNL     1      13.572  29.125  39.256  1.00  0.00     0.226 A 
ATOM      6  N   UNL     1      13.292  29.074  40.598  1.00  0.00    -0.217 NA
ATOM      7  C   UNL     1      14.240  28.709  41.511  1.00  0.00     0.152 A 
ATOM      8  C   UNL     1      15.505  28.390  41.027  1.00  0.00     0.127 A 
ATOM      9  N   UNL     1      16.613  28.005  41.673  1.00  0.00    -0.340 N 
ATOM     10  H   UNL     1      16.756  27.863  42.697  1.00  0.00     0.168 HD
ENDROOT
BRANCH   7  11
ATOM     11  N   UNL     1      13.924  28.663  42.903  1.00  0.00    -0.382 N 
ATOM     12  H   UNL     1      14.020  29.506  43.511  1.00  0.00     0.158 HD
ATOM     13  H   UNL     1      13.590  27.773  43.334  1.00  0.00     0.158 HD
ENDBRANCH   7  11
TORSDOF 1
ENDMDL
MODEL 4
REMARK VINA RESULT:    -4.325      1.062      2.950
REMARK INTER + INTRA:          -4.452
REMARK INTER:                  -4.452
REMARK INTRA:                   0.000
REMARK UNBOUND:                 0.000
REMARK SMILES Nc1ncnc2nc[nH]c12
REMARK SMILES IDX 8 1 7 2 6 3 5 4 4 5 3 6 2 7 10 8 9 9 1 11
REMARK H PARENT 9 10 1 12 1 13
REMARK Flexibility Score: inf
ROOT
ATOM      1  C   UNL     1       9.269  14.340  41.252  1.00  0.00     0.199 A 
ATOM      2  N   UNL     1       8.412  14.715  42.240  1.00  0.00    -0.217 NA
ATOM      3  C   UNL     1       7.375  13.882  42.051  1.00  0.00     0.182 A 
ATOM      4  N   UNL     1       6.234  13.833  42.778  1.00  0.00    -0.215 NA
ATOM      5  C   UNL     1       5.287  12.910  42.433  1.00  0.00     0.226 A 
ATOM      6  N   UNL     1       5.497  12.059  41.376  1.00  0.00    -0.217 NA
ATOM      7  C   UNL     1       6.648  12.107  40.641  1.00  0.00     0.152 A 
ATOM      8  C   UNL     1       7.602  13.052  41.006  1.00  0.00     0.127 A 
ATOM      9  N   UNL     1       8.803  13.326  40.480  1.00  0.00    -0.340 N 
ATOM     10  H   UNL     1       9.279  12.874  39.669  1.00  0.00     0.168 HD
ENDROOT
BRANCH   7  11
ATOM     11  N   UNL     1       6.844  11.212  39.546  1.00  0.00    -0.382 N 
ATOM     12  H   UNL     1       7.766  10.755  39.375  1.00  0.00     0.158 HD
ATOM     13  H   UNL     1       6.055  11.004  38.894  1.00  0.00     0.158 HD
ENDBRANCH   7  11
TORSDOF 1
ENDMDL
MODEL 5
REMARK VINA RESULT:    -4.219      1.081      3.790
REMARK INTER + INTRA:          -4.343
REMARK INTER:                  -4.343
REMARK INTRA:                   0.000
REMARK UNBOUND:                 0.000
REMARK SMILES Nc1ncnc2nc[nH]c12
REMARK SMILES IDX 8 1 7 2 6 3 5 4 4 5 3 6 2 7 10 8 9 9 1 11
REMARK H PARENT 9 10 1 12 1 13
REMARK Flexibility Score: inf
ROOT
ATOM      1  C   UNL     1       8.429  12.401  40.517  1.00  0.00     0.199 A 
ATOM      2  N   UNL     1       7.252  11.731  40.389  1.00  0.00    -0.217 NA
ATOM      3  C   UNL     1       6.463  12.366  41.271  1.00  0.00     0.182 A 
ATOM      4  N   UNL     1       5.166  12.089  41.542  1.00  0.00    -0.215 NA
ATOM      5  C   UNL     1       4.524  12.851  42.479  1.00  0.00     0.226 A 
ATOM      6  N   UNL     1       5.186  13.868  43.120  1.00  0.00    -0.217 NA
ATOM      7  C   UNL     1       6.495  14.149  42.849  1.00  0.00     0.152 A 
ATOM      8  C   UNL     1       7.134  13.364  41.893  1.00  0.00     0.127 A 
ATOM      9  N   UNL     1       8.389  13.406  41.428  1.00  0.00    -0.340 N 
ATOM     10  H   UNL     1       9.163  14.053  41.696  1.00  0.00     0.168 HD
ENDROOT
BRANCH   7  11
ATOM     11  N   UNL     1       7.163  15.212  43.530  1.00  0.00    -0.382 N 
ATOM     12  H   UNL     1       8.195  15.196  43.683  1.00  0.00     0.158 HD
ATOM     13  H   UNL     1       6.618  16.027  43.887  1.00  0.00     0.158 HD
ENDBRANCH   7  11
TORSDOF 1
ENDMDL
MODEL 6
REMARK VINA RESULT:    -4.185      1.318      1.873
REMARK INTER + INTRA:          -4.308
REMARK INTER:                  -4.308
REMARK INTRA:                   0.000
REMARK UNBOUND:                 0.000
REMARK SMILES Nc1ncnc2nc[nH]c12
REMARK SMILES IDX 8 1 7 2 6 3 5 4 4 5 3 6 2 7 10 8 9 9 1 11
REMARK H PARENT 9 10 1 12 1 13
REMARK Flexibility Score: inf
ROOT
ATOM      1  C   UNL     1       6.800  13.051  43.185  1.00  0.00     0.199 A 
ATOM      2  N   UNL     1       8.099  13.456  43.184  1.00  0.00    -0.217 NA
ATOM      3  C   UNL     1       8.525  13.050  41.976  1.00  0.00     0.182 A 
ATOM      4  N   UNL     1       9.767  13.208  41.461  1.00  0.00    -0.215 NA
ATOM      5  C   UNL     1      10.012  12.726  40.206  1.00  0.00     0.226 A 
ATOM      6  N   UNL     1       9.019  12.101  39.494  1.00  0.00    -0.217 NA
ATOM      7  C   UNL     1       7.765  11.941  40.012  1.00  0.00     0.152 A 
ATOM      8  C   UNL     1       7.531  12.437  41.291  1.00  0.00     0.127 A 
ATOM      9  N   UNL     1       6.422  12.425  42.041  1.00  0.00    -0.340 N 
ATOM     10  H   UNL     1       5.484  12.032  41.812  1.00  0.00     0.168 HD
ENDROOT
BRANCH   7  11
ATOM     11  N   UNL     1       6.747  11.287  39.253  1.00  0.00    -0.382 N 
ATOM     12  H   UNL     1       5.798  11.705  39.141  1.00  0.00     0.158 HD
ATOM     13  H   UNL     1       6.945  10.369  38.796  1.00  0.00     0.158 HD
ENDBRANCH   7  11
TORSDOF 1
ENDMDL
MODEL 7
REMARK VINA RESULT:    -4.056      1.067      2.639
REMARK INTER + INTRA:          -4.175
REMARK INTER:                  -4.175
REMARK INTRA:                   0.000
REMARK UNBOUND:                 0.000
REMARK SMILES Nc1ncnc2nc[nH]c12
REMARK SMILES IDX 8 1 7 2 6 3 5 4 4 5 3 6 2 7 10 8 9 9 1 11
REMARK H PARENT 9 10 1 12 1 13
REMARK Flexibility Score: inf
ROOT
ATOM      1  C   UNL     1       4.613  12.608  42.982  1.00  0.00     0.199 A 
ATOM      2  N   UNL     1       4.989  12.291  41.713  1.00  0.00    -0.217 NA
ATOM      3  C   UNL     1       6.309  12.542  41.734  1.00  0.00     0.182 A 
ATOM      4  N   UNL     1       7.178  12.389  40.707  1.00  0.00    -0.215 NA
ATOM      5  C   UNL     1       8.492  12.697  40.922  1.00  0.00     0.226 A 
ATOM      6  N   UNL     1       8.910  13.147  42.149  1.00  0.00    -0.217 NA
ATOM      7  C   UNL     1       8.035  13.302  43.187  1.00  0.00     0.152 A 
ATOM      8  C   UNL     1       6.700  12.984  42.952  1.00  0.00     0.127 A 
ATOM      9  N   UNL     1       5.637  13.035  43.764  1.00  0.00    -0.340 N 
ATOM     10  H   UNL     1       5.592  13.330  44.764  1.00  0.00     0.168 HD
ENDROOT
BRANCH   7  11
ATOM     11  N   UNL     1       8.493  13.772  44.455  1.00  0.00    -0.382 N 
ATOM     12  H   UNL     1       8.750  14.772  44.604  1.00  0.00     0.158 HD
ATOM     13  H   UNL     1       8.577  13.110  45.258  1.00  0.00     0.158 HD
ENDBRANCH   7  11
TORSDOF 1
ENDMDL
MODEL 8
REMARK VINA RESULT:    -3.996      1.861      3.847
REMARK INTER + INTRA:          -4.113
REMARK INTER:                  -4.113
REMARK INTRA:                   0.000
REMARK UNBOUND:                 0.000
REMARK SMILES Nc1ncnc2nc[nH]c12
REMARK SMILES IDX 8 1 7 2 6 3 5 4 4 5 3 6 2 7 10 8 9 9 1 11
REMARK H PARENT 9 10 1 12 1 13
REMARK Flexibility Score: inf
ROOT
ATOM      1  C   UNL     1      10.921  12.367  39.310  1.00  0.00     0.199 A 
ATOM      2  N   UNL     1      10.941  12.952  40.539  1.00  0.00    -0.217 NA
ATOM      3  C   UNL     1       9.666  12.817  40.941  1.00  0.00     0.182 A 
ATOM      4  N   UNL     1       9.140  13.236  42.115  1.00  0.00    -0.215 NA
ATOM      5  C   UNL     1       7.812  13.008  42.347  1.00  0.00     0.226 A 
ATOM      6  N   UNL     1       7.042  12.368  41.408  1.00  0.00    -0.217 NA
ATOM      7  C   UNL     1       7.571  11.944  40.222  1.00  0.00     0.152 A 
ATOM      8  C   UNL     1       8.924  12.184  40.002  1.00  0.00     0.127 A 
ATOM      9  N   UNL     1       9.702  11.888  38.953  1.00  0.00    -0.340 N 
ATOM     10  H   UNL     1       9.445  11.404  38.065  1.00  0.00     0.168 HD
ENDROOT
BRANCH   7  11
ATOM     11  N   UNL     1       6.750  11.281  39.260  1.00  0.00    -0.382 N 
ATOM     12  H   UNL     1       6.061  10.550  39.543  1.00  0.00     0.158 HD
ATOM     13  H   UNL     1       6.832  11.523  38.247  1.00  0.00     0.158 HD
ENDBRANCH   7  11
TORSDOF 1
ENDMDL
MODEL 9
REMARK VINA RESULT:    -3.843      1.813      3.979
REMARK INTER + INTRA:          -3.956
REMARK INTER:                  -3.956
REMARK INTRA:                   0.000
REMARK UNBOUND:                 0.000
REMARK SMILES Nc1ncnc2nc[nH]c12
REMARK SMILES IDX 8 1 7 2 6 3 5 4 4 5 3 6 2 7 10 8 9 9 1 11
REMARK H PARENT 9 10 1 12 1 13
REMARK Flexibility Score: inf
ROOT
ATOM      1  C   UNL     1       9.117  16.003  42.884  1.00  0.00     0.199 A 
ATOM      2  N   UNL     1       9.281  15.272  41.749  1.00  0.00    -0.217 NA
ATOM      3  C   UNL     1       8.315  14.345  41.863  1.00  0.00     0.182 A 
ATOM      4  N   UNL     1       8.038  13.353  40.984  1.00  0.00    -0.215 NA
ATOM      5  C   UNL     1       7.010  12.501  41.275  1.00  0.00     0.226 A 
ATOM      6  N   UNL     1       6.283  12.656  42.429  1.00  0.00    -0.217 NA
ATOM      7  C   UNL     1       6.561  13.656  43.317  1.00  0.00     0.152 A 
ATOM      8  C   UNL     1       7.611  14.515  43.007  1.00  0.00     0.127 A 
ATOM      9  N   UNL     1       8.104  15.566  43.674  1.00  0.00    -0.340 N 
ATOM     10  H   UNL     1       7.792  15.964  44.586  1.00  0.00     0.168 HD
ENDROOT
BRANCH   7  11
ATOM     11  N   UNL     1       5.792  13.797  44.512  1.00  0.00    -0.382 N 
ATOM     12  H   UNL     1       4.853  13.351  44.611  1.00  0.00     0.158 HD
ATOM     13  H   UNL     1       6.165  14.357  45.311  1.00  0.00     0.158 HD
ENDBRANCH   7  11
TORSDOF 1
ENDMDL
