MODEL 1
REMARK VINA RESULT:    -3.152      0.000      0.000
REMARK INTER + INTRA:          -4.504
REMARK INTER:                  -4.073
REMARK INTRA:                  -0.430
REMARK UNBOUND:                -0.430
REMARK SMILES CCCCCCC(=O)[O-]
REMARK SMILES IDX 5 1 6 2 7 3 8 4 9 5 4 6 3 7 2 8 1 9
REMARK H PARENT
REMARK Flexibility Score: inf
ROOT
ATOM      1  C   UNL     1     175.892 161.438 187.079  1.00  0.00     0.006 C 
ENDROOT
BRANCH   1   2
ATOM      2  C   UNL     1     176.047 162.638 186.140  1.00  0.00     0.053 C 
BRANCH   2   3
ATOM      3  C   UNL     1     177.486 163.031 186.024  1.00  0.00     0.041 C 
ATOM      4  O   UNL     1     178.304 162.275 185.437  1.00  0.00    -0.550 OA
ATOM      5  O   UNL     1     177.934 164.210 186.609  1.00  0.00    -0.550 OA
ENDBRANCH   2   3
ENDBRANCH   1   2
BRANCH   1   6
ATOM      6  C   UNL     1     176.008 161.867 188.546  1.00  0.00     0.000 C 
BRANCH   6   7
ATOM      7  C   UNL     1     175.010 162.984 188.873  1.00  0.00    -0.000 C 
BRANCH   7   8
ATOM      8  C   UNL     1     175.663 164.069 189.736  1.00  0.00    -0.003 C 
ATOM      9  C   UNL     1     177.114 163.720 190.057  1.00  0.00     0.004 C 
ENDBRANCH   7   8
ENDBRANCH   6   7
ENDBRANCH   1   6
TORSDOF 5
ENDMDL
MODEL 2
REMARK VINA RESULT:    -3.108      0.135      1.086
REMARK INTER + INTRA:          -4.447
REMARK INTER:                  -4.012
REMARK INTRA:                  -0.435
REMARK UNBOUND:                -0.430
REMARK SMILES CCCCCCC(=O)[O-]
REMARK SMILES IDX 5 1 6 2 7 3 8 4 9 5 4 6 3 7 2 8 1 9
REMARK H PARENT
REMARK Flexibility Score: inf
ROOT
ATOM      1  C   UNL     1     176.002 161.308 187.166  1.00  0.00     0.006 C 
ENDROOT
BRANCH   1   2
ATOM      2  C   UNL     1     176.063 162.534 186.250  1.00  0.00     0.053 C 
BRANCH   2   3
ATOM      3  C   UNL     1     177.474 163.004 186.095  1.00  0.00     0.041 C 
ATOM      4  O   UNL     1     177.842 164.090 186.615  1.00  0.00    -0.550 OA
ATOM      5  O   UNL     1     178.372 162.268 185.331  1.00  0.00    -0.550 OA
ENDBRANCH   2   3
ENDBRANCH   1   2
BRANCH   1   6
ATOM      6  C   UNL     1     175.948 161.725 188.640  1.00  0.00     0.000 C 
BRANCH   6   7
ATOM      7  C   UNL     1     174.988 162.903 188.844  1.00  0.00    -0.000 C 
BRANCH   7   8
ATOM      8  C   UNL     1     175.659 164.027 189.642  1.00  0.00    -0.003 C 
ATOM      9  C   UNL     1     177.073 163.634 190.064  1.00  0.00     0.004 C 
ENDBRANCH   7   8
ENDBRANCH   6   7
ENDBRANCH   1   6
TORSDOF 5
ENDMDL
MODEL 3
REMARK VINA RESULT:    -3.034     10.703     11.501
REMARK INTER + INTRA:          -4.351
REMARK INTER:                  -3.905
REMARK INTRA:                  -0.446
REMARK UNBOUND:                -0.430
REMARK SMILES CCCCCCC(=O)[O-]
REMARK SMILES IDX 5 1 6 2 7 3 8 4 9 5 4 6 3 7 2 8 1 9
REMARK H PARENT
REMARK Flexibility Score: inf
ROOT
ATOM      1  C   UNL     1     178.719 172.922 186.826  1.00  0.00     0.006 C 
ENDROOT
BRANCH   1   2
ATOM      2  C   UNL     1     177.642 173.686 186.051  1.00  0.00     0.053 C 
BRANCH   2   3
ATOM      3  C   UNL     1     177.908 175.157 186.095  1.00  0.00     0.041 C 
ATOM      4  O   UNL     1     177.054 175.942 186.584  1.00  0.00    -0.550 OA
ATOM      5  O   UNL     1     179.079 175.669 185.549  1.00  0.00    -0.550 OA
ENDBRANCH   2   3
ENDBRANCH   1   2
BRANCH   1   6
ATOM      6  C   UNL     1     178.629 173.214 188.328  1.00  0.00     0.000 C 
BRANCH   6   7
ATOM      7  C   UNL     1     177.327 172.662 188.919  1.00  0.00    -0.000 C 
BRANCH   7   8
ATOM      8  C   UNL     1     176.496 173.780 189.559  1.00  0.00    -0.003 C 
ATOM      9  C   UNL     1     177.386 174.924 190.036  1.00  0.00     0.004 C 
ENDBRANCH   7   8
ENDBRANCH   6   7
ENDBRANCH   1   6
TORSDOF 5
ENDMDL
MODEL 4
REMARK VINA RESULT:    -3.019     10.811     11.972
REMARK INTER + INTRA:          -4.332
REMARK INTER:                  -3.947
REMARK INTRA:                  -0.385
REMARK UNBOUND:                -0.430
REMARK SMILES CCCCCCC(=O)[O-]
REMARK SMILES IDX 5 1 6 2 7 3 8 4 9 5 4 6 3 7 2 8 1 9
REMARK H PARENT
REMARK Flexibility Score: inf
ROOT
ATOM      1  C   UNL     1     178.291 174.519 189.432  1.00  0.00     0.006 C 
ENDROOT
BRANCH   1   2
ATOM      2  C   UNL     1     178.663 173.308 188.572  1.00  0.00     0.053 C 
BRANCH   2   3
ATOM      3  C   UNL     1     179.333 173.748 187.309  1.00  0.00     0.041 C 
ATOM      4  O   UNL     1     179.271 174.951 186.943  1.00  0.00    -0.550 OA
ATOM      5  O   UNL     1     179.983 172.818 186.506  1.00  0.00    -0.550 OA
ENDBRANCH   2   3
ENDBRANCH   1   2
BRANCH   1   6
ATOM      6  C   UNL     1     176.827 174.445 189.882  1.00  0.00     0.000 C 
BRANCH   6   7
ATOM      7  C   UNL     1     175.879 174.792 188.729  1.00  0.00    -0.000 C 
BRANCH   7   8
ATOM      8  C   UNL     1     176.186 176.184 188.165  1.00  0.00    -0.003 C 
ATOM      9  C   UNL     1     176.089 176.195 186.641  1.00  0.00     0.004 C 
ENDBRANCH   7   8
ENDBRANCH   6   7
ENDBRANCH   1   6
TORSDOF 5
ENDMDL
MODEL 5
REMARK VINA RESULT:    -2.971      9.552     10.684
REMARK INTER + INTRA:          -4.270
REMARK INTER:                  -3.974
REMARK INTRA:                  -0.296
REMARK UNBOUND:                -0.430
REMARK SMILES CCCCCCC(=O)[O-]
REMARK SMILES IDX 5 1 6 2 7 3 8 4 9 5 4 6 3 7 2 8 1 9
REMARK H PARENT
REMARK Flexibility Score: inf
ROOT
ATOM      1  C   UNL     1     179.533 173.979 188.734  1.00  0.00     0.006 C 
ENDROOT
BRANCH   1   2
ATOM      2  C   UNL     1     179.830 172.506 188.436  1.00  0.00     0.053 C 
BRANCH   2   3
ATOM      3  C   UNL     1     179.543 172.192 187.002  1.00  0.00     0.041 C 
ATOM      4  O   UNL     1     178.851 171.184 186.699  1.00  0.00    -0.550 OA
ATOM      5  O   UNL     1     180.082 172.984 185.995  1.00  0.00    -0.550 OA
ENDBRANCH   2   3
ENDBRANCH   1   2
BRANCH   1   6
ATOM      6  C   UNL     1     178.034 174.275 188.607  1.00  0.00     0.000 C 
BRANCH   6   7
ATOM      7  C   UNL     1     177.469 174.826 189.921  1.00  0.00    -0.000 C 
BRANCH   7   8
ATOM      8  C   UNL     1     176.283 173.983 190.405  1.00  0.00    -0.003 C 
ATOM      9  C   UNL     1     176.252 172.624 189.709  1.00  0.00     0.004 C 
ENDBRANCH   7   8
ENDBRANCH   6   7
ENDBRANCH   1   6
TORSDOF 5
ENDMDL
MODEL 6
REMARK VINA RESULT:    -2.935     12.527     13.510
REMARK INTER + INTRA:          -4.223
REMARK INTER:                  -4.063
REMARK INTRA:                  -0.161
REMARK UNBOUND:                -0.430
REMARK SMILES CCCCCCC(=O)[O-]
REMARK SMILES IDX 5 1 6 2 7 3 8 4 9 5 4 6 3 7 2 8 1 9
REMARK H PARENT
REMARK Flexibility Score: inf
ROOT
ATOM      1  C   UNL     1     163.613 160.830 187.826  1.00  0.00     0.006 C 
ENDROOT
BRANCH   1   2
ATOM      2  C   UNL     1     164.341 160.070 188.939  1.00  0.00     0.053 C 
BRANCH   2   3
ATOM      3  C   UNL     1     165.718 160.621 189.137  1.00  0.00     0.041 C 
ATOM      4  O   UNL     1     166.248 160.607 190.279  1.00  0.00    -0.550 OA
ATOM      5  O   UNL     1     166.397 161.196 188.070  1.00  0.00    -0.550 OA
ENDBRANCH   2   3
ENDBRANCH   1   2
BRANCH   1   6
ATOM      6  C   UNL     1     162.265 161.370 188.318  1.00  0.00     0.000 C 
BRANCH   6   7
ATOM      7  C   UNL     1     162.298 162.897 188.449  1.00  0.00    -0.000 C 
BRANCH   7   8
ATOM      8  C   UNL     1     160.930 163.441 188.875  1.00  0.00    -0.003 C 
ATOM      9  C   UNL     1     159.875 162.338 188.881  1.00  0.00     0.004 C 
ENDBRANCH   7   8
ENDBRANCH   6   7
ENDBRANCH   1   6
TORSDOF 5
ENDMDL
MODEL 7
REMARK VINA RESULT:    -2.933     17.316     18.158
REMARK INTER + INTRA:          -4.220
REMARK INTER:                  -3.999
REMARK INTRA:                  -0.221
REMARK UNBOUND:                -0.430
REMARK SMILES CCCCCCC(=O)[O-]
REMARK SMILES IDX 5 1 6 2 7 3 8 4 9 5 4 6 3 7 2 8 1 9
REMARK H PARENT
REMARK Flexibility Score: inf
ROOT
ATOM      1  C   UNL     1     170.169 178.569 188.250  1.00  0.00     0.006 C 
ENDROOT
BRANCH   1   2
ATOM      2  C   UNL     1     169.595 179.979 188.084  1.00  0.00     0.053 C 
BRANCH   2   3
ATOM      3  C   UNL     1     168.101 179.948 188.147  1.00  0.00     0.041 C 
ATOM      4  O   UNL     1     167.517 179.717 189.238  1.00  0.00    -0.550 OA
ATOM      5  O   UNL     1     167.353 180.125 186.989  1.00  0.00    -0.550 OA
ENDBRANCH   2   3
ENDBRANCH   1   2
BRANCH   1   6
ATOM      6  C   UNL     1     171.588 178.617 188.828  1.00  0.00     0.000 C 
BRANCH   6   7
ATOM      7  C   UNL     1     172.109 180.058 188.891  1.00  0.00    -0.000 C 
BRANCH   7   8
ATOM      8  C   UNL     1     173.639 180.093 188.811  1.00  0.00    -0.003 C 
ATOM      9  C   UNL     1     174.156 179.159 187.719  1.00  0.00     0.004 C 
ENDBRANCH   7   8
ENDBRANCH   6   7
ENDBRANCH   1   6
TORSDOF 5
ENDMDL
MODEL 8
REMARK VINA RESULT:    -2.909     11.924     12.894
REMARK INTER + INTRA:          -4.190
REMARK INTER:                  -3.905
REMARK INTRA:                  -0.285
REMARK UNBOUND:                -0.430
REMARK SMILES CCCCCCC(=O)[O-]
REMARK SMILES IDX 5 1 6 2 7 3 8 4 9 5 4 6 3 7 2 8 1 9
REMARK H PARENT
REMARK Flexibility Score: inf
ROOT
ATOM      1  C   UNL     1     163.227 161.039 187.797  1.00  0.00     0.006 C 
ENDROOT
BRANCH   1   2
ATOM      2  C   UNL     1     162.345 162.034 188.558  1.00  0.00     0.053 C 
BRANCH   2   3
ATOM      3  C   UNL     1     162.906 163.417 188.456  1.00  0.00     0.041 C 
ATOM      4  O   UNL     1     163.704 163.843 189.332  1.00  0.00    -0.550 OA
ATOM      5  O   UNL     1     162.507 164.255 187.422  1.00  0.00    -0.550 OA
ENDBRANCH   2   3
ENDBRANCH   1   2
BRANCH   1   6
ATOM      6  C   UNL     1     164.085 160.215 188.763  1.00  0.00     0.000 C 
BRANCH   6   7
ATOM      7  C   UNL     1     165.570 160.565 188.616  1.00  0.00    -0.000 C 
BRANCH   7   8
ATOM      8  C   UNL     1     166.257 160.633 189.986  1.00  0.00    -0.003 C 
ATOM      9  C   UNL     1     166.625 162.070 190.346  1.00  0.00     0.004 C 
ENDBRANCH   7   8
ENDBRANCH   6   7
ENDBRANCH   1   6
TORSDOF 5
ENDMDL
MODEL 9
REMARK VINA RESULT:    -2.136     12.999     13.878
REMARK INTER + INTRA:          -3.191
REMARK INTER:                  -3.019
REMARK INTRA:                  -0.172
REMARK UNBOUND:                -0.430
REMARK SMILES CCCCCCC(=O)[O-]
REMARK SMILES IDX 5 1 6 2 7 3 8 4 9 5 4 6 3 7 2 8 1 9
REMARK H PARENT
REMARK Flexibility Score: inf
ROOT
ATOM      1  C   UNL     1     163.316 160.595 188.506  1.00  0.00     0.006 C 
ENDROOT
BRANCH   1   2
ATOM      2  C   UNL     1     164.717 161.023 188.060  1.00  0.00     0.053 C 
BRANCH   2   3
ATOM      3  C   UNL     1     165.072 160.381 186.757  1.00  0.00     0.041 C 
ATOM      4  O   UNL     1     164.202 160.254 185.855  1.00  0.00    -0.550 OA
ATOM      5  O   UNL     1     166.350 159.875 186.555  1.00  0.00    -0.550 OA
ENDBRANCH   2   3
ENDBRANCH   1   2
BRANCH   1   6
ATOM      6  C   UNL     1     162.331 161.767 188.423  1.00  0.00     0.000 C 
BRANCH   6   7
ATOM      7  C   UNL     1     160.935 161.285 188.010  1.00  0.00    -0.000 C 
BRANCH   7   8
ATOM      8  C   UNL     1     159.878 162.362 188.283  1.00  0.00    -0.003 C 
ATOM      9  C   UNL     1     160.510 163.612 188.890  1.00  0.00     0.004 C 
ENDBRANCH   7   8
ENDBRANCH   6   7
ENDBRANCH   1   6
TORSDOF 5
ENDMDL
