MODEL 1
REMARK VINA RESULT:    -4.859      0.000      0.000
REMARK INTER + INTRA:         -10.310
REMARK INTER:                  -8.835
REMARK INTRA:                  -1.475
REMARK UNBOUND:                -1.475
REMARK SMILES CCCCCC=CCC=CCCCCCCCC(=O)[O-]
REMARK SMILES IDX 11 1 12 2 13 3 14 4 15 5 16 6 17 7 18 8 19 9 20 10 10 11
REMARK SMILES IDX 9 12 8 13 7 14 6 15 5 16 4 17 3 18 2 19 1 20
REMARK H PARENT
REMARK Flexibility Score: inf
ROOT
ATOM      1  C   UNL     1       1.397   1.673  15.060  1.00  0.00     0.027 C 
ENDROOT
BRANCH   1   2
ATOM      2  C   UNL     1       1.362   1.762  16.592  1.00  0.00     0.004 C 
BRANCH   2   3
ATOM      3  C   UNL     1       1.177   3.213  17.087  1.00  0.00     0.000 C 
BRANCH   3   4
ATOM      4  C   UNL     1       0.191   4.031  16.236  1.00  0.00     0.000 C 
BRANCH   4   5
ATOM      5  C   UNL     1      -1.201   4.146  16.880  1.00  0.00     0.000 C 
BRANCH   5   6
ATOM      6  C   UNL     1      -2.253   3.278  16.173  1.00  0.00     0.006 C 
BRANCH   6   7
ATOM      7  C   UNL     1      -1.925   3.045  14.692  1.00  0.00     0.053 C 
BRANCH   7   8
ATOM      8  C   UNL     1      -2.845   3.843  13.823  1.00  0.00     0.041 C 
ATOM      9  O   UNL     1      -3.739   3.267  13.148  1.00  0.00    -0.550 OA
ATOM     10  O   UNL     1      -2.744   5.228  13.790  1.00  0.00    -0.550 OA
ENDBRANCH   7   8
ENDBRANCH   6   7
ENDBRANCH   5   6
ENDBRANCH   4   5
ENDBRANCH   3   4
ENDBRANCH   2   3
ENDBRANCH   1   2
BRANCH   1  11
ATOM     11  C   UNL     1       2.602   0.905  14.587  1.00  0.00    -0.031 C 
ATOM     12  C   UNL     1       2.574  -0.433  14.512  1.00  0.00    -0.027 C 
BRANCH  12  13
ATOM     13  C   UNL     1       3.761  -1.219  14.030  1.00  0.00     0.054 C 
BRANCH  13  14
ATOM     14  C   UNL     1       3.344  -2.563  13.487  1.00  0.00    -0.027 C 
ATOM     15  C   UNL     1       4.022  -3.253  12.550  1.00  0.00    -0.031 C 
BRANCH  15  16
ATOM     16  C   UNL     1       5.335  -2.816  11.947  1.00  0.00     0.027 C 
BRANCH  16  17
ATOM     17  C   UNL     1       6.537  -3.582  12.533  1.00  0.00     0.004 C 
BRANCH  17  18
ATOM     18  C   UNL     1       7.013  -3.045  13.894  1.00  0.00     0.000 C 
BRANCH  18  19
ATOM     19  C   UNL     1       7.050  -4.126  14.982  1.00  0.00    -0.003 C 
ATOM     20  C   UNL     1       5.767  -4.117  15.809  1.00  0.00     0.004 C 
ENDBRANCH  18  19
ENDBRANCH  17  18
ENDBRANCH  16  17
ENDBRANCH  15  16
ENDBRANCH  13  14
ENDBRANCH  12  13
ENDBRANCH   1  11
TORSDOF 14
ENDMDL
MODEL 2
REMARK VINA RESULT:    -4.844      7.408     10.035
REMARK INTER + INTRA:         -10.283
REMARK INTER:                  -7.554
REMARK INTRA:                  -2.729
REMARK UNBOUND:                -1.475
REMARK SMILES CCCCCC=CCC=CCCCCCCCC(=O)[O-]
REMARK SMILES IDX 11 1 12 2 13 3 14 4 15 5 16 6 17 7 18 8 19 9 20 10 10 11
REMARK SMILES IDX 9 12 8 13 7 14 6 15 5 16 4 17 3 18 2 19 1 20
REMARK H PARENT
REMARK Flexibility Score: inf
ROOT
ATOM      1  C   UNL     1       5.592  -8.001  13.579  1.00  0.00     0.027 C 
ENDROOT
BRANCH   1   2
ATOM      2  C   UNL     1       6.353  -8.405  14.849  1.00  0.00     0.004 C 
BRANCH   2   3
ATOM      3  C   UNL     1       7.012  -7.194  15.544  1.00  0.00     0.000 C 
BRANCH   3   4
ATOM      4  C   UNL     1       6.723  -7.121  17.054  1.00  0.00     0.000 C 
BRANCH   4   5
ATOM      5  C   UNL     1       5.467  -7.909  17.460  1.00  0.00     0.000 C 
BRANCH   5   6
ATOM      6  C   UNL     1       5.203  -7.861  18.973  1.00  0.00     0.006 C 
BRANCH   6   7
ATOM      7  C   UNL     1       6.360  -7.221  19.752  1.00  0.00     0.053 C 
BRANCH   7   8
ATOM      8  C   UNL     1       5.902  -5.971  20.435  1.00  0.00     0.041 C 
ATOM      9  O   UNL     1       5.982  -5.866  21.687  1.00  0.00    -0.550 OA
ATOM     10  O   UNL     1       5.424  -4.904  19.684  1.00  0.00    -0.550 OA
ENDBRANCH   7   8
ENDBRANCH   6   7
ENDBRANCH   5   6
ENDBRANCH   4   5
ENDBRANCH   3   4
ENDBRANCH   2   3
ENDBRANCH   1   2
BRANCH   1  11
ATOM     11  C   UNL     1       6.268  -6.850  12.883  1.00  0.00    -0.031 C 
ATOM     12  C   UNL     1       5.765  -6.349  11.745  1.00  0.00    -0.027 C 
BRANCH  12  13
ATOM     13  C   UNL     1       6.416  -5.192  11.040  1.00  0.00     0.054 C 
BRANCH  13  14
ATOM     14  C   UNL     1       5.677  -3.904  11.305  1.00  0.00    -0.027 C 
ATOM     15  C   UNL     1       5.964  -3.048  12.304  1.00  0.00    -0.031 C 
BRANCH  15  16
ATOM     16  C   UNL     1       7.108  -3.218  13.274  1.00  0.00     0.027 C 
BRANCH  16  17
ATOM     17  C   UNL     1       6.629  -3.574  14.695  1.00  0.00     0.004 C 
BRANCH  17  18
ATOM     18  C   UNL     1       5.113  -3.408  14.899  1.00  0.00     0.000 C 
BRANCH  18  19
ATOM     19  C   UNL     1       4.422  -4.708  15.330  1.00  0.00    -0.003 C 
ATOM     20  C   UNL     1       3.334  -5.108  14.337  1.00  0.00     0.004 C 
ENDBRANCH  18  19
ENDBRANCH  17  18
ENDBRANCH  16  17
ENDBRANCH  15  16
ENDBRANCH  13  14
ENDBRANCH  12  13
ENDBRANCH   1  11
TORSDOF 14
ENDMDL
MODEL 3
REMARK VINA RESULT:    -4.830      6.703      9.999
REMARK INTER + INTRA:         -10.258
REMARK INTER:                  -7.573
REMARK INTRA:                  -2.685
REMARK UNBOUND:                -1.475
REMARK SMILES CCCCCC=CCC=CCCCCCCCC(=O)[O-]
REMARK SMILES IDX 11 1 12 2 13 3 14 4 15 5 16 6 17 7 18 8 19 9 20 10 10 11
REMARK SMILES IDX 9 12 8 13 7 14 6 15 5 16 4 17 3 18 2 19 1 20
REMARK H PARENT
REMARK Flexibility Score: inf
ROOT
ATOM      1  C   UNL     1       5.770  -7.640  13.340  1.00  0.00     0.027 C 
ENDROOT
BRANCH   1   2
ATOM      2  C   UNL     1       6.253  -8.131  14.712  1.00  0.00     0.004 C 
BRANCH   2   3
ATOM      3  C   UNL     1       6.923  -7.007  15.531  1.00  0.00     0.000 C 
BRANCH   3   4
ATOM      4  C   UNL     1       6.938  -7.277  17.046  1.00  0.00     0.000 C 
BRANCH   4   5
ATOM      5  C   UNL     1       5.568  -7.721  17.586  1.00  0.00     0.000 C 
BRANCH   5   6
ATOM      6  C   UNL     1       5.496  -7.676  19.121  1.00  0.00     0.006 C 
BRANCH   6   7
ATOM      7  C   UNL     1       6.727  -7.008  19.748  1.00  0.00     0.053 C 
BRANCH   7   8
ATOM      8  C   UNL     1       6.345  -5.714  20.395  1.00  0.00     0.041 C 
ATOM      9  O   UNL     1       7.057  -5.230  21.314  1.00  0.00    -0.550 OA
ATOM     10  O   UNL     1       5.226  -5.020  19.955  1.00  0.00    -0.550 OA
ENDBRANCH   7   8
ENDBRANCH   6   7
ENDBRANCH   5   6
ENDBRANCH   4   5
ENDBRANCH   3   4
ENDBRANCH   2   3
ENDBRANCH   1   2
BRANCH   1  11
ATOM     11  C   UNL     1       6.371  -6.303  12.998  1.00  0.00    -0.031 C 
ATOM     12  C   UNL     1       5.747  -5.467  12.155  1.00  0.00    -0.027 C 
BRANCH  12  13
ATOM     13  C   UNL     1       6.323  -4.123  11.810  1.00  0.00     0.054 C 
BRANCH  13  14
ATOM     14  C   UNL     1       6.999  -3.494  13.003  1.00  0.00    -0.027 C 
ATOM     15  C   UNL     1       6.463  -2.517  13.760  1.00  0.00    -0.031 C 
BRANCH  15  16
ATOM     16  C   UNL     1       5.080  -1.945  13.565  1.00  0.00     0.027 C 
BRANCH  16  17
ATOM     17  C   UNL     1       4.102  -2.376  14.675  1.00  0.00     0.004 C 
BRANCH  17  18
ATOM     18  C   UNL     1       3.435  -3.740  14.422  1.00  0.00     0.000 C 
BRANCH  18  19
ATOM     19  C   UNL     1       3.901  -4.824  15.402  1.00  0.00    -0.003 C 
ATOM     20  C   UNL     1       4.701  -4.219  16.552  1.00  0.00     0.004 C 
ENDBRANCH  18  19
ENDBRANCH  17  18
ENDBRANCH  16  17
ENDBRANCH  15  16
ENDBRANCH  13  14
ENDBRANCH  12  13
ENDBRANCH   1  11
TORSDOF 14
ENDMDL
MODEL 4
REMARK VINA RESULT:    -4.803      6.160      9.408
REMARK INTER + INTRA:         -10.209
REMARK INTER:                  -7.908
REMARK INTRA:                  -2.301
REMARK UNBOUND:                -1.475
REMARK SMILES CCCCCC=CCC=CCCCCCCCC(=O)[O-]
REMARK SMILES IDX 11 1 12 2 13 3 14 4 15 5 16 6 17 7 18 8 19 9 20 10 10 11
REMARK SMILES IDX 9 12 8 13 7 14 6 15 5 16 4 17 3 18 2 19 1 20
REMARK H PARENT
REMARK Flexibility Score: inf
ROOT
ATOM      1  C   UNL     1       5.140  -8.014  16.236  1.00  0.00     0.027 C 
ENDROOT
BRANCH   1   2
ATOM      2  C   UNL     1       6.386  -8.065  15.340  1.00  0.00     0.004 C 
BRANCH   2   3
ATOM      3  C   UNL     1       6.368  -6.968  14.254  1.00  0.00     0.000 C 
BRANCH   3   4
ATOM      4  C   UNL     1       6.387  -5.539  14.823  1.00  0.00     0.000 C 
BRANCH   4   5
ATOM      5  C   UNL     1       6.731  -4.479  13.764  1.00  0.00     0.000 C 
BRANCH   5   6
ATOM      6  C   UNL     1       6.955  -3.086  14.374  1.00  0.00     0.006 C 
BRANCH   6   7
ATOM      7  C   UNL     1       6.238  -1.978  13.591  1.00  0.00     0.053 C 
BRANCH   7   8
ATOM      8  C   UNL     1       4.756  -2.177  13.644  1.00  0.00     0.041 C 
ATOM      9  O   UNL     1       4.112  -2.432  12.592  1.00  0.00    -0.550 OA
ATOM     10  O   UNL     1       4.090  -2.124  14.862  1.00  0.00    -0.550 OA
ENDBRANCH   7   8
ENDBRANCH   6   7
ENDBRANCH   5   6
ENDBRANCH   4   5
ENDBRANCH   3   4
ENDBRANCH   2   3
ENDBRANCH   1   2
BRANCH   1  11
ATOM     11  C   UNL     1       5.518  -7.947  17.691  1.00  0.00    -0.031 C 
ATOM     12  C   UNL     1       6.662  -7.361  18.074  1.00  0.00    -0.027 C 
BRANCH  12  13
ATOM     13  C   UNL     1       7.053  -7.272  19.523  1.00  0.00     0.054 C 
BRANCH  13  14
ATOM     14  C   UNL     1       5.877  -6.885  20.384  1.00  0.00    -0.027 C 
ATOM     15  C   UNL     1       5.779  -5.732  21.073  1.00  0.00    -0.031 C 
BRANCH  15  16
ATOM     16  C   UNL     1       6.805  -4.625  21.039  1.00  0.00     0.027 C 
BRANCH  16  17
ATOM     17  C   UNL     1       6.324  -3.401  20.235  1.00  0.00     0.004 C 
BRANCH  17  18
ATOM     18  C   UNL     1       5.000  -3.630  19.486  1.00  0.00     0.000 C 
BRANCH  18  19
ATOM     19  C   UNL     1       5.203  -3.953  18.000  1.00  0.00    -0.003 C 
ATOM     20  C   UNL     1       3.953  -4.593  17.401  1.00  0.00     0.004 C 
ENDBRANCH  18  19
ENDBRANCH  17  18
ENDBRANCH  16  17
ENDBRANCH  15  16
ENDBRANCH  13  14
ENDBRANCH  12  13
ENDBRANCH   1  11
TORSDOF 14
ENDMDL
MODEL 5
REMARK VINA RESULT:    -4.765      3.557      9.280
REMARK INTER + INTRA:         -10.140
REMARK INTER:                  -8.780
REMARK INTRA:                  -1.360
REMARK UNBOUND:                -1.475
REMARK SMILES CCCCCC=CCC=CCCCCCCCC(=O)[O-]
REMARK SMILES IDX 11 1 12 2 13 3 14 4 15 5 16 6 17 7 18 8 19 9 20 10 10 11
REMARK SMILES IDX 9 12 8 13 7 14 6 15 5 16 4 17 3 18 2 19 1 20
REMARK H PARENT
REMARK Flexibility Score: inf
ROOT
ATOM      1  C   UNL     1       2.458  -1.603  14.743  1.00  0.00     0.027 C 
ENDROOT
BRANCH   1   2
ATOM      2  C   UNL     1       3.725  -1.299  13.930  1.00  0.00     0.004 C 
BRANCH   2   3
ATOM      3  C   UNL     1       4.824  -2.363  14.144  1.00  0.00     0.000 C 
BRANCH   3   4
ATOM      4  C   UNL     1       6.223  -1.895  13.709  1.00  0.00     0.000 C 
BRANCH   4   5
ATOM      5  C   UNL     1       7.052  -3.017  13.060  1.00  0.00     0.000 C 
BRANCH   5   6
ATOM      6  C   UNL     1       6.177  -4.146  12.493  1.00  0.00     0.006 C 
BRANCH   6   7
ATOM      7  C   UNL     1       6.092  -4.113  10.961  1.00  0.00     0.053 C 
BRANCH   7   8
ATOM      8  C   UNL     1       4.958  -3.242  10.520  1.00  0.00     0.041 C 
ATOM      9  O   UNL     1       5.142  -2.358   9.642  1.00  0.00    -0.550 OA
ATOM     10  O   UNL     1       3.687  -3.435  11.047  1.00  0.00    -0.550 OA
ENDBRANCH   7   8
ENDBRANCH   6   7
ENDBRANCH   5   6
ENDBRANCH   4   5
ENDBRANCH   3   4
ENDBRANCH   2   3
ENDBRANCH   1   2
BRANCH   1  11
ATOM     11  C   UNL     1       1.739  -0.336  15.123  1.00  0.00    -0.031 C 
ATOM     12  C   UNL     1       2.175   0.855  14.686  1.00  0.00    -0.027 C 
BRANCH  12  13
ATOM     13  C   UNL     1       1.465   2.131  15.043  1.00  0.00     0.054 C 
BRANCH  13  14
ATOM     14  C   UNL     1       1.531   2.398  16.525  1.00  0.00    -0.027 C 
ATOM     15  C   UNL     1       0.795   3.324  17.170  1.00  0.00    -0.031 C 
BRANCH  15  16
ATOM     16  C   UNL     1      -0.252   4.192  16.515  1.00  0.00     0.027 C 
BRANCH  16  17
ATOM     17  C   UNL     1      -1.686   3.750  16.864  1.00  0.00     0.004 C 
BRANCH  17  18
ATOM     18  C   UNL     1      -2.334   2.845  15.801  1.00  0.00     0.000 C 
BRANCH  18  19
ATOM     19  C   UNL     1      -1.933   3.224  14.370  1.00  0.00    -0.003 C 
ATOM     20  C   UNL     1      -2.820   4.341  13.828  1.00  0.00     0.004 C 
ENDBRANCH  18  19
ENDBRANCH  17  18
ENDBRANCH  16  17
ENDBRANCH  15  16
ENDBRANCH  13  14
ENDBRANCH  12  13
ENDBRANCH   1  11
TORSDOF 14
ENDMDL
MODEL 6
REMARK VINA RESULT:    -4.723      5.109     10.412
REMARK INTER + INTRA:         -10.064
REMARK INTER:                  -8.236
REMARK INTRA:                  -1.828
REMARK UNBOUND:                -1.475
REMARK SMILES CCCCCC=CCC=CCCCCCCCC(=O)[O-]
REMARK SMILES IDX 11 1 12 2 13 3 14 4 15 5 16 6 17 7 18 8 19 9 20 10 10 11
REMARK SMILES IDX 9 12 8 13 7 14 6 15 5 16 4 17 3 18 2 19 1 20
REMARK H PARENT
REMARK Flexibility Score: inf
ROOT
ATOM      1  C   UNL     1      -3.222   2.745  17.768  1.00  0.00     0.027 C 
ENDROOT
BRANCH   1   2
ATOM      2  C   UNL     1      -3.238   2.998  16.253  1.00  0.00     0.004 C 
BRANCH   2   3
ATOM      3  C   UNL     1      -2.126   3.975  15.814  1.00  0.00     0.000 C 
BRANCH   3   4
ATOM      4  C   UNL     1      -1.069   4.232  16.902  1.00  0.00     0.000 C 
BRANCH   4   5
ATOM      5  C   UNL     1       0.370   4.044  16.394  1.00  0.00     0.000 C 
BRANCH   5   6
ATOM      6  C   UNL     1       1.068   2.833  17.033  1.00  0.00     0.006 C 
BRANCH   6   7
ATOM      7  C   UNL     1       0.897   1.551  16.207  1.00  0.00     0.053 C 
BRANCH   7   8
ATOM      8  C   UNL     1       0.028   0.574  16.933  1.00  0.00     0.041 C 
ATOM      9  O   UNL     1      -0.329   0.802  18.119  1.00  0.00    -0.550 OA
ATOM     10  O   UNL     1      -0.423  -0.570  16.288  1.00  0.00    -0.550 OA
ENDBRANCH   7   8
ENDBRANCH   6   7
ENDBRANCH   5   6
ENDBRANCH   4   5
ENDBRANCH   3   4
ENDBRANCH   2   3
ENDBRANCH   1   2
BRANCH   1  11
ATOM     11  C   UNL     1      -4.610   2.492  18.292  1.00  0.00    -0.031 C 
ATOM     12  C   UNL     1      -5.114   1.250  18.321  1.00  0.00    -0.027 C 
BRANCH  12  13
ATOM     13  C   UNL     1      -6.493   0.973  18.852  1.00  0.00     0.054 C 
BRANCH  13  14
ATOM     14  C   UNL     1      -7.326   2.229  18.893  1.00  0.00    -0.027 C 
ATOM     15  C   UNL     1      -7.826   2.780  20.016  1.00  0.00    -0.031 C 
BRANCH  15  16
ATOM     16  C   UNL     1      -7.575   2.257  21.410  1.00  0.00     0.027 C 
BRANCH  16  17
ATOM     17  C   UNL     1      -6.422   2.995  22.117  1.00  0.00     0.004 C 
BRANCH  17  18
ATOM     18  C   UNL     1      -5.059   2.294  21.980  1.00  0.00     0.000 C 
BRANCH  18  19
ATOM     19  C   UNL     1      -3.894   3.146  22.502  1.00  0.00    -0.003 C 
ATOM     20  C   UNL     1      -4.347   4.574  22.798  1.00  0.00     0.004 C 
ENDBRANCH  18  19
ENDBRANCH  17  18
ENDBRANCH  16  17
ENDBRANCH  15  16
ENDBRANCH  13  14
ENDBRANCH  12  13
ENDBRANCH   1  11
TORSDOF 14
ENDMDL
MODEL 7
REMARK VINA RESULT:    -4.715      7.381      9.798
REMARK INTER + INTRA:         -10.049
REMARK INTER:                  -9.093
REMARK INTRA:                  -0.956
REMARK UNBOUND:                -1.475
REMARK SMILES CCCCCC=CCC=CCCCCCCCC(=O)[O-]
REMARK SMILES IDX 11 1 12 2 13 3 14 4 15 5 16 6 17 7 18 8 19 9 20 10 10 11
REMARK SMILES IDX 9 12 8 13 7 14 6 15 5 16 4 17 3 18 2 19 1 20
REMARK H PARENT
REMARK Flexibility Score: inf
ROOT
ATOM      1  C   UNL     1       6.584  -7.482  15.032  1.00  0.00     0.027 C 
ENDROOT
BRANCH   1   2
ATOM      2  C   UNL     1       6.439  -6.341  14.016  1.00  0.00     0.004 C 
BRANCH   2   3
ATOM      3  C   UNL     1       6.408  -4.955  14.697  1.00  0.00     0.000 C 
BRANCH   3   4
ATOM      4  C   UNL     1       5.831  -3.844  13.802  1.00  0.00     0.000 C 
BRANCH   4   5
ATOM      5  C   UNL     1       6.607  -3.676  12.484  1.00  0.00     0.000 C 
BRANCH   5   6
ATOM      6  C   UNL     1       5.821  -4.187  11.267  1.00  0.00     0.006 C 
BRANCH   6   7
ATOM      7  C   UNL     1       4.858  -3.133  10.703  1.00  0.00     0.053 C 
BRANCH   7   8
ATOM      8  C   UNL     1       5.189  -2.836   9.274  1.00  0.00     0.041 C 
ATOM      9  O   UNL     1       4.538  -1.963   8.641  1.00  0.00    -0.550 OA
ATOM     10  O   UNL     1       6.244  -3.492   8.654  1.00  0.00    -0.550 OA
ENDBRANCH   7   8
ENDBRANCH   6   7
ENDBRANCH   5   6
ENDBRANCH   4   5
ENDBRANCH   3   4
ENDBRANCH   2   3
ENDBRANCH   1   2
BRANCH   1  11
ATOM     11  C   UNL     1       6.939  -6.955  16.396  1.00  0.00    -0.031 C 
ATOM     12  C   UNL     1       6.597  -7.633  17.502  1.00  0.00    -0.027 C 
BRANCH  12  13
ATOM     13  C   UNL     1       6.953  -7.131  18.873  1.00  0.00     0.054 C 
BRANCH  13  14
ATOM     14  C   UNL     1       5.725  -6.979  19.735  1.00  0.00    -0.027 C 
ATOM     15  C   UNL     1       5.205  -5.799  20.125  1.00  0.00    -0.031 C 
BRANCH  15  16
ATOM     16  C   UNL     1       5.737  -4.450  19.707  1.00  0.00     0.027 C 
BRANCH  16  17
ATOM     17  C   UNL     1       6.591  -3.787  20.806  1.00  0.00     0.004 C 
BRANCH  17  18
ATOM     18  C   UNL     1       7.124  -4.774  21.859  1.00  0.00     0.000 C 
BRANCH  18  19
ATOM     19  C   UNL     1       6.904  -4.288  23.298  1.00  0.00    -0.003 C 
ATOM     20  C   UNL     1       6.050  -5.276  24.087  1.00  0.00     0.004 C 
ENDBRANCH  18  19
ENDBRANCH  17  18
ENDBRANCH  16  17
ENDBRANCH  15  16
ENDBRANCH  13  14
ENDBRANCH  12  13
ENDBRANCH   1  11
TORSDOF 14
ENDMDL
MODEL 8
REMARK VINA RESULT:    -4.637      1.107      2.228
REMARK INTER + INTRA:          -9.907
REMARK INTER:                  -8.553
REMARK INTRA:                  -1.353
REMARK UNBOUND:                -1.475
REMARK SMILES CCCCCC=CCC=CCCCCCCCC(=O)[O-]
REMARK SMILES IDX 11 1 12 2 13 3 14 4 15 5 16 6 17 7 18 8 19 9 20 10 10 11
REMARK SMILES IDX 9 12 8 13 7 14 6 15 5 16 4 17 3 18 2 19 1 20
REMARK H PARENT
REMARK Flexibility Score: inf
ROOT
ATOM      1  C   UNL     1       1.867   1.202  14.871  1.00  0.00     0.027 C 
ENDROOT
BRANCH   1   2
ATOM      2  C   UNL     1       1.201   1.300  16.251  1.00  0.00     0.004 C 
BRANCH   2   3
ATOM      3  C   UNL     1       1.431   2.676  16.913  1.00  0.00     0.000 C 
BRANCH   3   4
ATOM      4  C   UNL     1       0.700   3.828  16.203  1.00  0.00     0.000 C 
BRANCH   4   5
ATOM      5  C   UNL     1      -0.702   4.090  16.777  1.00  0.00     0.000 C 
BRANCH   5   6
ATOM      6  C   UNL     1      -1.798   3.306  16.039  1.00  0.00     0.006 C 
BRANCH   6   7
ATOM      7  C   UNL     1      -1.550   3.229  14.527  1.00  0.00     0.053 C 
BRANCH   7   8
ATOM      8  C   UNL     1      -2.611   3.979  13.785  1.00  0.00     0.041 C 
ATOM      9  O   UNL     1      -3.577   3.361  13.264  1.00  0.00    -0.550 OA
ATOM     10  O   UNL     1      -2.557   5.364  13.704  1.00  0.00    -0.550 OA
ENDBRANCH   7   8
ENDBRANCH   6   7
ENDBRANCH   5   6
ENDBRANCH   4   5
ENDBRANCH   3   4
ENDBRANCH   2   3
ENDBRANCH   1   2
BRANCH   1  11
ATOM     11  C   UNL     1       2.406  -0.181  14.624  1.00  0.00    -0.031 C 
ATOM     12  C   UNL     1       3.661  -0.357  14.185  1.00  0.00    -0.027 C 
BRANCH  12  13
ATOM     13  C   UNL     1       4.224  -1.729  13.943  1.00  0.00     0.054 C 
BRANCH  13  14
ATOM     14  C   UNL     1       5.716  -1.678  13.724  1.00  0.00    -0.027 C 
ATOM     15  C   UNL     1       6.526  -2.754  13.716  1.00  0.00    -0.031 C 
BRANCH  15  16
ATOM     16  C   UNL     1       6.055  -4.180  13.865  1.00  0.00     0.027 C 
BRANCH  16  17
ATOM     17  C   UNL     1       6.225  -4.995  12.568  1.00  0.00     0.004 C 
BRANCH  17  18
ATOM     18  C   UNL     1       5.036  -4.877  11.599  1.00  0.00     0.000 C 
BRANCH  18  19
ATOM     19  C   UNL     1       5.420  -4.240  10.257  1.00  0.00    -0.003 C 
ATOM     20  C   UNL     1       4.986  -2.778  10.198  1.00  0.00     0.004 C 
ENDBRANCH  18  19
ENDBRANCH  17  18
ENDBRANCH  16  17
ENDBRANCH  15  16
ENDBRANCH  13  14
ENDBRANCH  12  13
ENDBRANCH   1  11
TORSDOF 14
ENDMDL
MODEL 9
REMARK VINA RESULT:    -4.594      5.444      9.470
REMARK INTER + INTRA:          -9.830
REMARK INTER:                  -7.650
REMARK INTRA:                  -2.180
REMARK UNBOUND:                -1.475
REMARK SMILES CCCCCC=CCC=CCCCCCCCC(=O)[O-]
REMARK SMILES IDX 11 1 12 2 13 3 14 4 15 5 16 6 17 7 18 8 19 9 20 10 10 11
REMARK SMILES IDX 9 12 8 13 7 14 6 15 5 16 4 17 3 18 2 19 1 20
REMARK H PARENT
REMARK Flexibility Score: inf
ROOT
ATOM      1  C   UNL     1      -1.368   0.718  18.092  1.00  0.00     0.027 C 
ENDROOT
BRANCH   1   2
ATOM      2  C   UNL     1      -0.555   1.200  16.882  1.00  0.00     0.004 C 
BRANCH   2   3
ATOM      3  C   UNL     1       0.493   2.265  17.270  1.00  0.00     0.000 C 
BRANCH   3   4
ATOM      4  C   UNL     1       0.290   3.614  16.559  1.00  0.00     0.000 C 
BRANCH   4   5
ATOM      5  C   UNL     1      -1.115   4.199  16.779  1.00  0.00     0.000 C 
BRANCH   5   6
ATOM      6  C   UNL     1      -1.882   4.404  15.463  1.00  0.00     0.006 C 
BRANCH   6   7
ATOM      7  C   UNL     1      -3.145   3.536  15.378  1.00  0.00     0.053 C 
BRANCH   7   8
ATOM      8  C   UNL     1      -3.279   2.943  14.010  1.00  0.00     0.041 C 
ATOM      9  O   UNL     1      -4.261   2.206  13.732  1.00  0.00    -0.550 OA
ATOM     10  O   UNL     1      -2.341   3.238  13.030  1.00  0.00    -0.550 OA
ENDBRANCH   7   8
ENDBRANCH   6   7
ENDBRANCH   5   6
ENDBRANCH   4   5
ENDBRANCH   3   4
ENDBRANCH   2   3
ENDBRANCH   1   2
BRANCH   1  11
ATOM     11  C   UNL     1      -2.817   1.106  17.963  1.00  0.00    -0.031 C 
ATOM     12  C   UNL     1      -3.340   2.065  18.740  1.00  0.00    -0.027 C 
BRANCH  12  13
ATOM     13  C   UNL     1      -4.780   2.477  18.620  1.00  0.00     0.054 C 
BRANCH  13  14
ATOM     14  C   UNL     1      -5.702   1.292  18.763  1.00  0.00    -0.027 C 
ATOM     15  C   UNL     1      -6.853   1.298  19.463  1.00  0.00    -0.031 C 
BRANCH  15  16
ATOM     16  C   UNL     1      -7.425   2.509  20.159  1.00  0.00     0.027 C 
BRANCH  16  17
ATOM     17  C   UNL     1      -7.188   2.480  21.682  1.00  0.00     0.004 C 
BRANCH  17  18
ATOM     18  C   UNL     1      -5.806   3.008  22.107  1.00  0.00     0.000 C 
BRANCH  18  19
ATOM     19  C   UNL     1      -4.804   1.885  22.406  1.00  0.00    -0.003 C 
ATOM     20  C   UNL     1      -3.386   2.434  22.537  1.00  0.00     0.004 C 
ENDBRANCH  18  19
ENDBRANCH  17  18
ENDBRANCH  16  17
ENDBRANCH  15  16
ENDBRANCH  13  14
ENDBRANCH  12  13
ENDBRANCH   1  11
TORSDOF 14
ENDMDL
