MODEL 1
REMARK VINA RESULT:    -3.422      0.000      0.000
REMARK INTER + INTRA:          -4.044
REMARK INTER:                  -4.022
REMARK INTRA:                  -0.023
REMARK UNBOUND:                -0.023
REMARK SMILES CCCCC(=O)[O-]
REMARK SMILES IDX 4 1 5 2 6 3 7 4 3 5 2 6 1 7
REMARK H PARENT
REMARK Flexibility Score: inf
ROOT
ATOM      1  C   UNL     1      38.450 -11.827  27.264  1.00  0.00     0.053 C 
ENDROOT
BRANCH   1   2
ATOM      2  C   UNL     1      37.084 -11.292  27.569  1.00  0.00     0.041 C 
ATOM      3  O   UNL     1      36.707 -11.158  28.763  1.00  0.00    -0.550 OA
ATOM      4  O   UNL     1      36.238 -10.911  26.534  1.00  0.00    -0.550 OA
ENDBRANCH   1   2
BRANCH   1   5
ATOM      5  C   UNL     1      39.520 -10.729  27.337  1.00  0.00     0.006 C 
BRANCH   5   6
ATOM      6  C   UNL     1      39.375  -9.701  26.206  1.00  0.00    -0.003 C 
ATOM      7  C   UNL     1      40.649  -9.621  25.370  1.00  0.00     0.004 C 
ENDBRANCH   5   6
ENDBRANCH   1   5
TORSDOF 3
ENDMDL
MODEL 2
REMARK VINA RESULT:    -3.326     16.846     18.017
REMARK INTER + INTRA:          -3.932
REMARK INTER:                  -3.828
REMARK INTRA:                  -0.103
REMARK UNBOUND:                -0.023
REMARK SMILES CCCCC(=O)[O-]
REMARK SMILES IDX 4 1 5 2 6 3 7 4 3 5 2 6 1 7
REMARK H PARENT
REMARK Flexibility Score: inf
ROOT
ATOM      1  C   UNL     1      51.257  -1.276  20.315  1.00  0.00     0.053 C 
ENDROOT
BRANCH   1   2
ATOM      2  C   UNL     1      50.373  -0.335  21.074  1.00  0.00     0.041 C 
ATOM      3  O   UNL     1      50.003   0.749  20.551  1.00  0.00    -0.550 OA
ATOM      4  O   UNL     1      49.928  -0.670  22.347  1.00  0.00    -0.550 OA
ENDBRANCH   1   2
BRANCH   1   5
ATOM      5  C   UNL     1      52.658  -0.690  20.097  1.00  0.00     0.006 C 
BRANCH   5   6
ATOM      6  C   UNL     1      52.913  -0.326  18.627  1.00  0.00    -0.003 C 
ATOM      7  C   UNL     1      51.942  -1.056  17.704  1.00  0.00     0.004 C 
ENDBRANCH   5   6
ENDBRANCH   1   5
TORSDOF 3
ENDMDL
MODEL 3
REMARK VINA RESULT:    -3.280      2.629      3.778
REMARK INTER + INTRA:          -3.877
REMARK INTER:                  -3.768
REMARK INTRA:                  -0.110
REMARK UNBOUND:                -0.023
REMARK SMILES CCCCC(=O)[O-]
REMARK SMILES IDX 4 1 5 2 6 3 7 4 3 5 2 6 1 7
REMARK H PARENT
REMARK Flexibility Score: inf
ROOT
ATOM      1  C   UNL     1      40.633 -11.079  26.460  1.00  0.00     0.053 C 
ENDROOT
BRANCH   1   2
ATOM      2  C   UNL     1      40.419  -9.785  25.736  1.00  0.00     0.041 C 
ATOM      3  O   UNL     1      39.568  -8.958  26.155  1.00  0.00    -0.550 OA
ATOM      4  O   UNL     1      41.183  -9.478  24.617  1.00  0.00    -0.550 OA
ENDBRANCH   1   2
BRANCH   1   5
ATOM      5  C   UNL     1      39.788 -11.163  27.738  1.00  0.00     0.006 C 
BRANCH   5   6
ATOM      6  C   UNL     1      38.623 -12.152  27.599  1.00  0.00    -0.003 C 
ATOM      7  C   UNL     1      37.310 -11.421  27.329  1.00  0.00     0.004 C 
ENDBRANCH   5   6
ENDBRANCH   1   5
TORSDOF 3
ENDMDL
MODEL 4
REMARK VINA RESULT:    -3.279      1.351      1.929
REMARK INTER + INTRA:          -3.876
REMARK INTER:                  -3.852
REMARK INTRA:                  -0.024
REMARK UNBOUND:                -0.023
REMARK SMILES CCCCC(=O)[O-]
REMARK SMILES IDX 4 1 5 2 6 3 7 4 3 5 2 6 1 7
REMARK H PARENT
REMARK Flexibility Score: inf
ROOT
ATOM      1  C   UNL     1      38.632 -12.001  28.106  1.00  0.00     0.053 C 
ENDROOT
BRANCH   1   2
ATOM      2  C   UNL     1      37.228 -11.481  28.069  1.00  0.00     0.041 C 
ATOM      3  O   UNL     1      36.598 -11.278  29.140  1.00  0.00    -0.550 OA
ATOM      4  O   UNL     1      36.625 -11.187  26.851  1.00  0.00    -0.550 OA
ENDBRANCH   1   2
BRANCH   1   5
ATOM      5  C   UNL     1      39.596 -11.093  27.330  1.00  0.00     0.006 C 
BRANCH   5   6
ATOM      6  C   UNL     1      40.896 -11.816  26.951  1.00  0.00    -0.003 C 
ATOM      7  C   UNL     1      41.493 -12.540  28.154  1.00  0.00     0.004 C 
ENDBRANCH   5   6
ENDBRANCH   1   5
TORSDOF 3
ENDMDL
MODEL 5
REMARK VINA RESULT:    -3.233      3.192      4.073
REMARK INTER + INTRA:          -3.823
REMARK INTER:                  -3.801
REMARK INTRA:                  -0.022
REMARK UNBOUND:                -0.023
REMARK SMILES CCCCC(=O)[O-]
REMARK SMILES IDX 4 1 5 2 6 3 7 4 3 5 2 6 1 7
REMARK H PARENT
REMARK Flexibility Score: inf
ROOT
ATOM      1  C   UNL     1      40.232 -11.730  27.567  1.00  0.00     0.053 C 
ENDROOT
BRANCH   1   2
ATOM      2  C   UNL     1      41.332 -11.479  26.580  1.00  0.00     0.041 C 
ATOM      3  O   UNL     1      42.345 -12.226  26.557  1.00  0.00    -0.550 OA
ATOM      4  O   UNL     1      41.221 -10.441  25.663  1.00  0.00    -0.550 OA
ENDBRANCH   1   2
BRANCH   1   5
ATOM      5  C   UNL     1      38.987 -10.888  27.257  1.00  0.00     0.006 C 
BRANCH   5   6
ATOM      6  C   UNL     1      37.687 -11.627  27.602  1.00  0.00    -0.003 C 
ATOM      7  C   UNL     1      36.500 -11.033  26.847  1.00  0.00     0.004 C 
ENDBRANCH   5   6
ENDBRANCH   1   5
TORSDOF 3
ENDMDL
MODEL 6
REMARK VINA RESULT:    -3.221     16.340     17.555
REMARK INTER + INTRA:          -3.808
REMARK INTER:                  -3.727
REMARK INTRA:                  -0.080
REMARK UNBOUND:                -0.023
REMARK SMILES CCCCC(=O)[O-]
REMARK SMILES IDX 4 1 5 2 6 3 7 4 3 5 2 6 1 7
REMARK H PARENT
REMARK Flexibility Score: inf
ROOT
ATOM      1  C   UNL     1      50.442  -0.194  19.964  1.00  0.00     0.053 C 
ENDROOT
BRANCH   1   2
ATOM      2  C   UNL     1      49.444  -0.262  21.080  1.00  0.00     0.041 C 
ATOM      3  O   UNL     1      48.224  -0.052  20.853  1.00  0.00    -0.550 OA
ATOM      4  O   UNL     1      49.857  -0.591  22.365  1.00  0.00    -0.550 OA
ENDBRANCH   1   2
BRANCH   1   5
ATOM      5  C   UNL     1      51.546  -1.248  20.123  1.00  0.00     0.006 C 
BRANCH   5   6
ATOM      6  C   UNL     1      52.938  -0.616  20.251  1.00  0.00    -0.003 C 
ATOM      7  C   UNL     1      52.938   0.823  19.742  1.00  0.00     0.004 C 
ENDBRANCH   5   6
ENDBRANCH   1   5
TORSDOF 3
ENDMDL
MODEL 7
REMARK VINA RESULT:    -3.192     11.752     12.431
REMARK INTER + INTRA:          -3.774
REMARK INTER:                  -3.740
REMARK INTRA:                  -0.034
REMARK UNBOUND:                -0.023
REMARK SMILES CCCCC(=O)[O-]
REMARK SMILES IDX 4 1 5 2 6 3 7 4 3 5 2 6 1 7
REMARK H PARENT
REMARK Flexibility Score: inf
ROOT
ATOM      1  C   UNL     1      43.405  -0.586  22.167  1.00  0.00     0.053 C 
ENDROOT
BRANCH   1   2
ATOM      2  C   UNL     1      43.069  -0.481  23.623  1.00  0.00     0.041 C 
ATOM      3  O   UNL     1      42.342   0.458  24.040  1.00  0.00    -0.550 OA
ATOM      4  O   UNL     1      43.532  -1.440  24.515  1.00  0.00    -0.550 OA
ENDBRANCH   1   2
BRANCH   1   5
ATOM      5  C   UNL     1      42.327   0.060  21.286  1.00  0.00     0.006 C 
BRANCH   5   6
ATOM      6  C   UNL     1      41.606  -0.969  20.403  1.00  0.00    -0.003 C 
ATOM      7  C   UNL     1      41.604  -0.532  18.941  1.00  0.00     0.004 C 
ENDBRANCH   5   6
ENDBRANCH   1   5
TORSDOF 3
ENDMDL
MODEL 8
REMARK VINA RESULT:    -3.173     11.085     12.032
REMARK INTER + INTRA:          -3.752
REMARK INTER:                  -3.736
REMARK INTRA:                  -0.016
REMARK UNBOUND:                -0.023
REMARK SMILES CCCCC(=O)[O-]
REMARK SMILES IDX 4 1 5 2 6 3 7 4 3 5 2 6 1 7
REMARK H PARENT
REMARK Flexibility Score: inf
ROOT
ATOM      1  C   UNL     1      43.003  -0.467  23.828  1.00  0.00     0.053 C 
ENDROOT
BRANCH   1   2
ATOM      2  C   UNL     1      43.934  -1.224  24.725  1.00  0.00     0.041 C 
ATOM      3  O   UNL     1      45.085  -0.775  24.969  1.00  0.00    -0.550 OA
ATOM      4  O   UNL     1      43.519  -2.409  25.321  1.00  0.00    -0.550 OA
ENDBRANCH   1   2
BRANCH   1   5
ATOM      5  C   UNL     1      43.480  -0.484  22.369  1.00  0.00     0.006 C 
BRANCH   5   6
ATOM      6  C   UNL     1      42.465   0.166  21.419  1.00  0.00    -0.003 C 
ATOM      7  C   UNL     1      41.793  -0.880  20.533  1.00  0.00     0.004 C 
ENDBRANCH   5   6
ENDBRANCH   1   5
TORSDOF 3
ENDMDL
MODEL 9
REMARK VINA RESULT:    -3.053     13.512     14.982
REMARK INTER + INTRA:          -3.611
REMARK INTER:                  -3.587
REMARK INTRA:                  -0.024
REMARK UNBOUND:                -0.023
REMARK SMILES CCCCC(=O)[O-]
REMARK SMILES IDX 4 1 5 2 6 3 7 4 3 5 2 6 1 7
REMARK H PARENT
REMARK Flexibility Score: inf
ROOT
ATOM      1  C   UNL     1      41.841   0.405  18.285  1.00  0.00     0.053 C 
ENDROOT
BRANCH   1   2
ATOM      2  C   UNL     1      42.444   1.650  17.709  1.00  0.00     0.041 C 
ATOM      3  O   UNL     1      41.820   2.312  16.839  1.00  0.00    -0.550 OA
ATOM      4  O   UNL     1      43.680   2.098  18.159  1.00  0.00    -0.550 OA
ENDBRANCH   1   2
BRANCH   1   5
ATOM      5  C   UNL     1      41.921   0.389  19.817  1.00  0.00     0.006 C 
BRANCH   5   6
ATOM      6  C   UNL     1      41.905  -1.037  20.385  1.00  0.00    -0.003 C 
ATOM      7  C   UNL     1      40.603  -1.753  20.037  1.00  0.00     0.004 C 
ENDBRANCH   5   6
ENDBRANCH   1   5
TORSDOF 3
ENDMDL
