MODEL 1
REMARK VINA RESULT:    -6.465      0.000      0.000
REMARK INTER + INTRA:          -7.097
REMARK INTER:                  -7.032
REMARK INTRA:                  -0.065
REMARK UNBOUND:                -0.065
REMARK SMILES COc1cc2ccc(=O)oc2cc1O
REMARK SMILES IDX 3 1 13 2 12 3 11 4 5 5 4 6 6 7 7 8 8 9 9 10 10 11 2 12 1 13
REMARK SMILES IDX 14 14
REMARK H PARENT 14 15
REMARK Flexibility Score: inf
ROOT
ATOM      1  C   UNL     1     -28.867  63.665  84.503  1.00  0.00     0.161 A 
ATOM      2  C   UNL     1     -30.002  63.745  85.325  1.00  0.00     0.161 A 
ATOM      3  C   UNL     1     -30.268  64.915  86.051  1.00  0.00     0.098 A 
ATOM      4  C   UNL     1     -29.407  66.011  85.960  1.00  0.00     0.142 A 
ATOM      5  C   UNL     1     -28.265  65.940  85.136  1.00  0.00     0.022 A 
ATOM      6  C   UNL     1     -27.998  64.770  84.410  1.00  0.00     0.062 A 
ATOM      7  C   UNL     1     -27.423  67.054  85.066  1.00  0.00     0.019 A 
ATOM      8  C   UNL     1     -27.733  68.194  85.807  1.00  0.00     0.094 A 
ATOM      9  C   UNL     1     -28.882  68.192  86.604  1.00  0.00     0.336 A 
ATOM     10  O   UNL     1     -29.178  69.212  87.280  1.00  0.00    -0.246 OA
ATOM     11  O   UNL     1     -29.667  67.119  86.652  1.00  0.00    -0.423 OA
ENDROOT
BRANCH   1  12
ATOM     12  O   UNL     1     -28.640  62.474  83.794  1.00  0.00    -0.493 OA
ATOM     13  C   UNL     1     -27.656  61.504  84.142  1.00  0.00     0.278 C 
ENDBRANCH   1  12
BRANCH   2  14
ATOM     14  O   UNL     1     -30.862  62.653  85.418  1.00  0.00    -0.504 OA
ATOM     15  H   UNL     1     -30.736  61.827  84.844  1.00  0.00     0.293 HD
ENDBRANCH   2  14
TORSDOF 2
ENDMDL
MODEL 2
REMARK VINA RESULT:    -6.451      1.284      5.463
REMARK INTER + INTRA:          -7.081
REMARK INTER:                  -7.018
REMARK INTRA:                  -0.063
REMARK UNBOUND:                -0.065
REMARK SMILES COc1cc2ccc(=O)oc2cc1O
REMARK SMILES IDX 3 1 13 2 12 3 11 4 5 5 4 6 6 7 7 8 8 9 9 10 10 11 2 12 1 13
REMARK SMILES IDX 14 14
REMARK H PARENT 14 15
REMARK Flexibility Score: inf
ROOT
ATOM      1  C   UNL     1     -29.333  68.106  86.288  1.00  0.00     0.161 A 
ATOM      2  C   UNL     1     -28.063  67.988  85.701  1.00  0.00     0.161 A 
ATOM      3  C   UNL     1     -27.644  66.763  85.164  1.00  0.00     0.098 A 
ATOM      4  C   UNL     1     -28.486  65.649  85.208  1.00  0.00     0.142 A 
ATOM      5  C   UNL     1     -29.764  65.759  85.795  1.00  0.00     0.022 A 
ATOM      6  C   UNL     1     -30.184  66.984  86.333  1.00  0.00     0.062 A 
ATOM      7  C   UNL     1     -30.584  64.627  85.823  1.00  0.00     0.019 A 
ATOM      8  C   UNL     1     -30.120  63.432  85.275  1.00  0.00     0.094 A 
ATOM      9  C   UNL     1     -28.841  63.397  84.710  1.00  0.00     0.336 A 
ATOM     10  O   UNL     1     -28.404  62.327  84.210  1.00  0.00    -0.246 OA
ATOM     11  O   UNL     1     -28.081  64.489  84.696  1.00  0.00    -0.423 OA
ENDROOT
BRANCH   1  12
ATOM     12  O   UNL     1     -29.711  69.353  86.813  1.00  0.00    -0.493 OA
ATOM     13  C   UNL     1     -30.755  70.167  86.285  1.00  0.00     0.278 C 
ENDBRANCH   1  12
BRANCH   2  14
ATOM     14  O   UNL     1     -27.221  69.097  85.656  1.00  0.00    -0.504 OA
ATOM     15  H   UNL     1     -27.582  70.033  85.509  1.00  0.00     0.293 HD
ENDBRANCH   2  14
TORSDOF 2
ENDMDL
MODEL 3
REMARK VINA RESULT:    -6.408      2.267      4.927
REMARK INTER + INTRA:          -7.035
REMARK INTER:                  -6.975
REMARK INTRA:                  -0.060
REMARK UNBOUND:                -0.065
REMARK SMILES COc1cc2ccc(=O)oc2cc1O
REMARK SMILES IDX 3 1 13 2 12 3 11 4 5 5 4 6 6 7 7 8 8 9 9 10 10 11 2 12 1 13
REMARK SMILES IDX 14 14
REMARK H PARENT 14 15
REMARK Flexibility Score: inf
ROOT
ATOM      1  C   UNL     1     -29.338  68.163  86.471  1.00  0.00     0.161 A 
ATOM      2  C   UNL     1     -30.605  67.559  86.499  1.00  0.00     0.161 A 
ATOM      3  C   UNL     1     -30.965  66.628  85.515  1.00  0.00     0.098 A 
ATOM      4  C   UNL     1     -30.067  66.292  84.500  1.00  0.00     0.142 A 
ATOM      5  C   UNL     1     -28.791  66.893  84.465  1.00  0.00     0.022 A 
ATOM      6  C   UNL     1     -28.430  67.825  85.448  1.00  0.00     0.062 A 
ATOM      7  C   UNL     1     -27.914  66.536  83.436  1.00  0.00     0.019 A 
ATOM      8  C   UNL     1     -28.320  65.603  82.482  1.00  0.00     0.094 A 
ATOM      9  C   UNL     1     -29.601  65.049  82.580  1.00  0.00     0.336 A 
ATOM     10  O   UNL     1     -29.986  64.206  81.728  1.00  0.00    -0.246 OA
ATOM     11  O   UNL     1     -30.416  65.406  83.569  1.00  0.00    -0.423 OA
ENDROOT
BRANCH   1  12
ATOM     12  O   UNL     1     -29.019  69.090  87.477  1.00  0.00    -0.493 OA
ATOM     13  C   UNL     1     -27.939  68.945  88.394  1.00  0.00     0.278 C 
ENDBRANCH   1  12
BRANCH   2  14
ATOM     14  O   UNL     1     -31.503  67.893  87.510  1.00  0.00    -0.504 OA
ATOM     15  H   UNL     1     -32.330  68.449  87.324  1.00  0.00     0.293 HD
ENDBRANCH   2  14
TORSDOF 2
ENDMDL
MODEL 4
REMARK VINA RESULT:    -6.407      2.099      5.255
REMARK INTER + INTRA:          -7.033
REMARK INTER:                  -6.969
REMARK INTRA:                  -0.064
REMARK UNBOUND:                -0.065
REMARK SMILES COc1cc2ccc(=O)oc2cc1O
REMARK SMILES IDX 3 1 13 2 12 3 11 4 5 5 4 6 6 7 7 8 8 9 9 10 10 11 2 12 1 13
REMARK SMILES IDX 14 14
REMARK H PARENT 14 15
REMARK Flexibility Score: inf
ROOT
ATOM      1  C   UNL     1     -30.458  68.623  85.936  1.00  0.00     0.161 A 
ATOM      2  C   UNL     1     -31.167  67.574  86.543  1.00  0.00     0.161 A 
ATOM      3  C   UNL     1     -31.058  66.267  86.048  1.00  0.00     0.098 A 
ATOM      4  C   UNL     1     -30.243  65.996  84.947  1.00  0.00     0.142 A 
ATOM      5  C   UNL     1     -29.527  67.043  84.331  1.00  0.00     0.022 A 
ATOM      6  C   UNL     1     -29.635  68.351  84.825  1.00  0.00     0.062 A 
ATOM      7  C   UNL     1     -28.719  66.740  83.230  1.00  0.00     0.019 A 
ATOM      8  C   UNL     1     -28.645  65.424  82.776  1.00  0.00     0.094 A 
ATOM      9  C   UNL     1     -29.384  64.437  83.437  1.00  0.00     0.336 A 
ATOM     10  O   UNL     1     -29.331  63.243  83.042  1.00  0.00    -0.246 OA
ATOM     11  O   UNL     1     -30.145  64.753  84.482  1.00  0.00    -0.423 OA
ENDROOT
BRANCH   1  12
ATOM     12  O   UNL     1     -30.596  69.916  86.466  1.00  0.00    -0.493 OA
ATOM     13  C   UNL     1     -31.264  70.989  85.810  1.00  0.00     0.278 C 
ENDBRANCH   1  12
BRANCH   2  14
ATOM     14  O   UNL     1     -31.981  67.842  87.642  1.00  0.00    -0.504 OA
ATOM     15  H   UNL     1     -32.671  67.174  87.967  1.00  0.00     0.293 HD
ENDBRANCH   2  14
TORSDOF 2
ENDMDL
MODEL 5
REMARK VINA RESULT:    -6.351      1.751      2.678
REMARK INTER + INTRA:          -6.973
REMARK INTER:                  -6.910
REMARK INTRA:                  -0.063
REMARK UNBOUND:                -0.065
REMARK SMILES COc1cc2ccc(=O)oc2cc1O
REMARK SMILES IDX 3 1 13 2 12 3 11 4 5 5 4 6 6 7 7 8 8 9 9 10 10 11 2 12 1 13
REMARK SMILES IDX 14 14
REMARK H PARENT 14 15
REMARK Flexibility Score: inf
ROOT
ATOM      1  C   UNL     1     -29.211  64.262  83.847  1.00  0.00     0.161 A 
ATOM      2  C   UNL     1     -28.653  65.303  83.088  1.00  0.00     0.161 A 
ATOM      3  C   UNL     1     -28.876  66.639  83.450  1.00  0.00     0.098 A 
ATOM      4  C   UNL     1     -29.654  66.946  84.568  1.00  0.00     0.142 A 
ATOM      5  C   UNL     1     -30.219  65.907  85.336  1.00  0.00     0.022 A 
ATOM      6  C   UNL     1     -29.998  64.570  84.975  1.00  0.00     0.062 A 
ATOM      7  C   UNL     1     -30.994  66.246  86.449  1.00  0.00     0.019 A 
ATOM      8  C   UNL     1     -31.185  67.590  86.766  1.00  0.00     0.094 A 
ATOM      9  C   UNL     1     -30.594  68.568  85.958  1.00  0.00     0.336 A 
ATOM     10  O   UNL     1     -30.756  69.786  86.228  1.00  0.00    -0.246 OA
ATOM     11  O   UNL     1     -29.861  68.217  84.904  1.00  0.00    -0.423 OA
ENDROOT
BRANCH   1  12
ATOM     12  O   UNL     1     -28.962  62.938  83.449  1.00  0.00    -0.493 OA
ATOM     13  C   UNL     1     -28.169  62.011  84.184  1.00  0.00     0.278 C 
ENDBRANCH   1  12
BRANCH   2  14
ATOM     14  O   UNL     1     -27.876  64.999  81.972  1.00  0.00    -0.504 OA
ATOM     15  H   UNL     1     -28.127  65.323  81.046  1.00  0.00     0.293 HD
ENDBRANCH   2  14
TORSDOF 2
ENDMDL
MODEL 6
REMARK VINA RESULT:    -6.320      1.240      1.420
REMARK INTER + INTRA:          -6.939
REMARK INTER:                  -6.882
REMARK INTRA:                  -0.057
REMARK UNBOUND:                -0.065
REMARK SMILES COc1cc2ccc(=O)oc2cc1O
REMARK SMILES IDX 3 1 13 2 12 3 11 4 5 5 4 6 6 7 7 8 8 9 9 10 10 11 2 12 1 13
REMARK SMILES IDX 14 14
REMARK H PARENT 14 15
REMARK Flexibility Score: inf
ROOT
ATOM      1  C   UNL     1     -29.395  64.330  83.935  1.00  0.00     0.161 A 
ATOM      2  C   UNL     1     -29.951  64.043  85.192  1.00  0.00     0.161 A 
ATOM      3  C   UNL     1     -29.760  64.922  86.267  1.00  0.00     0.098 A 
ATOM      4  C   UNL     1     -29.015  66.091  86.098  1.00  0.00     0.142 A 
ATOM      5  C   UNL     1     -28.453  66.387  84.838  1.00  0.00     0.022 A 
ATOM      6  C   UNL     1     -28.643  65.509  83.762  1.00  0.00     0.062 A 
ATOM      7  C   UNL     1     -27.712  67.565  84.700  1.00  0.00     0.019 A 
ATOM      8  C   UNL     1     -27.551  68.406  85.801  1.00  0.00     0.094 A 
ATOM      9  C   UNL     1     -28.137  68.047  87.019  1.00  0.00     0.336 A 
ATOM     10  O   UNL     1     -28.003  68.793  88.024  1.00  0.00    -0.246 OA
ATOM     11  O   UNL     1     -28.837  66.920  87.123  1.00  0.00    -0.423 OA
ENDROOT
BRANCH   1  12
ATOM     12  O   UNL     1     -29.613  63.422  82.886  1.00  0.00    -0.493 OA
ATOM     13  C   UNL     1     -30.166  63.770  81.620  1.00  0.00     0.278 C 
ENDBRANCH   1  12
BRANCH   2  14
ATOM     14  O   UNL     1     -30.695  62.877  85.364  1.00  0.00    -0.504 OA
ATOM     15  H   UNL     1     -30.424  62.168  86.035  1.00  0.00     0.293 HD
ENDBRANCH   2  14
TORSDOF 2
ENDMDL
MODEL 7
REMARK VINA RESULT:    -6.272      1.720      5.348
REMARK INTER + INTRA:          -6.887
REMARK INTER:                  -6.841
REMARK INTRA:                  -0.046
REMARK UNBOUND:                -0.065
REMARK SMILES COc1cc2ccc(=O)oc2cc1O
REMARK SMILES IDX 3 1 13 2 12 3 11 4 5 5 4 6 6 7 7 8 8 9 9 10 10 11 2 12 1 13
REMARK SMILES IDX 14 14
REMARK H PARENT 14 15
REMARK Flexibility Score: inf
ROOT
ATOM      1  C   UNL     1     -29.551  68.453  86.125  1.00  0.00     0.161 A 
ATOM      2  C   UNL     1     -28.624  67.726  86.888  1.00  0.00     0.161 A 
ATOM      3  C   UNL     1     -28.257  66.427  86.506  1.00  0.00     0.098 A 
ATOM      4  C   UNL     1     -28.811  65.847  85.362  1.00  0.00     0.142 A 
ATOM      5  C   UNL     1     -29.742  66.571  84.589  1.00  0.00     0.022 A 
ATOM      6  C   UNL     1     -30.110  67.870  84.971  1.00  0.00     0.062 A 
ATOM      7  C   UNL     1     -30.278  65.963  83.450  1.00  0.00     0.019 A 
ATOM      8  C   UNL     1     -29.881  64.670  83.112  1.00  0.00     0.094 A 
ATOM      9  C   UNL     1     -28.953  64.012  83.927  1.00  0.00     0.336 A 
ATOM     10  O   UNL     1     -28.582  62.845  83.639  1.00  0.00    -0.246 OA
ATOM     11  O   UNL     1     -28.458  64.614  85.006  1.00  0.00    -0.423 OA
ENDROOT
BRANCH   1  12
ATOM     12  O   UNL     1     -29.888  69.750  86.545  1.00  0.00    -0.493 OA
ATOM     13  C   UNL     1     -31.052  70.456  86.126  1.00  0.00     0.278 C 
ENDBRANCH   1  12
BRANCH   2  14
ATOM     14  O   UNL     1     -28.071  68.302  88.030  1.00  0.00    -0.504 OA
ATOM     15  H   UNL     1     -28.651  68.650  88.784  1.00  0.00     0.293 HD
ENDBRANCH   2  14
TORSDOF 2
ENDMDL
MODEL 8
REMARK VINA RESULT:    -6.091      1.561      5.401
REMARK INTER + INTRA:          -6.690
REMARK INTER:                  -6.628
REMARK INTRA:                  -0.062
REMARK UNBOUND:                -0.065
REMARK SMILES COc1cc2ccc(=O)oc2cc1O
REMARK SMILES IDX 3 1 13 2 12 3 11 4 5 5 4 6 6 7 7 8 8 9 9 10 10 11 2 12 1 13
REMARK SMILES IDX 14 14
REMARK H PARENT 14 15
REMARK Flexibility Score: inf
ROOT
ATOM      1  C   UNL     1     -28.253  68.022  86.877  1.00  0.00     0.161 A 
ATOM      2  C   UNL     1     -27.522  68.217  85.694  1.00  0.00     0.161 A 
ATOM      3  C   UNL     1     -27.598  67.279  84.654  1.00  0.00     0.098 A 
ATOM      4  C   UNL     1     -28.401  66.145  84.785  1.00  0.00     0.142 A 
ATOM      5  C   UNL     1     -29.140  65.942  85.970  1.00  0.00     0.022 A 
ATOM      6  C   UNL     1     -29.064  66.878  87.011  1.00  0.00     0.062 A 
ATOM      7  C   UNL     1     -29.935  64.796  86.071  1.00  0.00     0.019 A 
ATOM      8  C   UNL     1     -29.977  63.895  85.008  1.00  0.00     0.094 A 
ATOM      9  C   UNL     1     -29.217  64.162  83.864  1.00  0.00     0.336 A 
ATOM     10  O   UNL     1     -29.241  63.360  82.894  1.00  0.00    -0.246 OA
ATOM     11  O   UNL     1     -28.468  65.259  83.793  1.00  0.00    -0.423 OA
ENDROOT
BRANCH   1  12
ATOM     12  O   UNL     1     -28.147  68.987  87.892  1.00  0.00    -0.493 OA
ATOM     13  C   UNL     1     -27.602  68.741  89.184  1.00  0.00     0.278 C 
ENDBRANCH   1  12
BRANCH   2  14
ATOM     14  O   UNL     1     -26.719  69.347  85.560  1.00  0.00    -0.504 OA
ATOM     15  H   UNL     1     -25.984  69.558  86.225  1.00  0.00     0.293 HD
ENDBRANCH   2  14
TORSDOF 2
ENDMDL
MODEL 9
REMARK VINA RESULT:    -5.983      2.314      3.211
REMARK INTER + INTRA:          -6.573
REMARK INTER:                  -6.510
REMARK INTRA:                  -0.063
REMARK UNBOUND:                -0.065
REMARK SMILES COc1cc2ccc(=O)oc2cc1O
REMARK SMILES IDX 3 1 13 2 12 3 11 4 5 5 4 6 6 7 7 8 8 9 9 10 10 11 2 12 1 13
REMARK SMILES IDX 14 14
REMARK H PARENT 14 15
REMARK Flexibility Score: inf
ROOT
ATOM      1  C   UNL     1     -29.691  64.849  82.672  1.00  0.00     0.161 A 
ATOM      2  C   UNL     1     -28.476  65.542  82.552  1.00  0.00     0.161 A 
ATOM      3  C   UNL     1     -28.165  66.582  83.441  1.00  0.00     0.098 A 
ATOM      4  C   UNL     1     -29.060  66.936  84.452  1.00  0.00     0.142 A 
ATOM      5  C   UNL     1     -30.283  66.244  84.580  1.00  0.00     0.022 A 
ATOM      6  C   UNL     1     -30.596  65.205  83.692  1.00  0.00     0.062 A 
ATOM      7  C   UNL     1     -31.158  66.623  85.603  1.00  0.00     0.019 A 
ATOM      8  C   UNL     1     -30.801  67.662  86.461  1.00  0.00     0.094 A 
ATOM      9  C   UNL     1     -29.572  68.303  86.273  1.00  0.00     0.336 A 
ATOM     10  O   UNL     1     -29.232  69.244  87.037  1.00  0.00    -0.246 OA
ATOM     11  O   UNL     1     -28.757  67.923  85.292  1.00  0.00    -0.423 OA
ENDROOT
BRANCH   1  12
ATOM     12  O   UNL     1     -29.962  63.815  81.761  1.00  0.00    -0.493 OA
ATOM     13  C   UNL     1     -30.975  63.865  80.762  1.00  0.00     0.278 C 
ENDBRANCH   1  12
BRANCH   2  14
ATOM     14  O   UNL     1     -27.581  65.191  81.544  1.00  0.00    -0.504 OA
ATOM     15  H   UNL     1     -27.118  64.290  81.535  1.00  0.00     0.293 HD
ENDBRANCH   2  14
TORSDOF 2
ENDMDL
