MODEL 1
REMARK VINA RESULT:    -4.207      0.000      0.000
REMARK INTER + INTRA:         -10.921
REMARK INTER:                  -8.142
REMARK INTRA:                  -2.779
REMARK UNBOUND:                -2.779
REMARK SMILES CCCCCCCCCCCCCCCCCC(=O)[O-]
REMARK SMILES IDX 10 1 11 2 12 3 13 4 14 5 15 6 16 7 17 8 18 9 19 10 20 11
REMARK SMILES IDX 9 12 8 13 7 14 6 15 5 16 4 17 3 18 2 19 1 20
REMARK H PARENT
REMARK Flexibility Score: inf
ROOT
ATOM      1  C   UNL     1      16.756  29.502  71.887  1.00  0.00     0.000 C 
ENDROOT
BRANCH   1   2
ATOM      2  C   UNL     1      17.239  30.880  71.418  1.00  0.00     0.000 C 
BRANCH   2   3
ATOM      3  C   UNL     1      18.668  30.804  70.862  1.00  0.00     0.000 C 
BRANCH   3   4
ATOM      4  C   UNL     1      18.861  29.659  69.852  1.00  0.00     0.000 C 
BRANCH   4   5
ATOM      5  C   UNL     1      19.327  30.093  68.449  1.00  0.00     0.000 C 
BRANCH   5   6
ATOM      6  C   UNL     1      19.357  31.620  68.274  1.00  0.00     0.000 C 
BRANCH   6   7
ATOM      7  C   UNL     1      19.230  32.052  66.801  1.00  0.00     0.006 C 
BRANCH   7   8
ATOM      8  C   UNL     1      19.394  30.908  65.786  1.00  0.00     0.053 C 
BRANCH   8   9
ATOM      9  C   UNL     1      18.328  30.936  64.733  1.00  0.00     0.041 C 
ATOM     10  O   UNL     1      17.132  30.684  65.033  1.00  0.00    -0.550 OA
ATOM     11  O   UNL     1      18.654  31.275  63.425  1.00  0.00    -0.550 OA
ENDBRANCH   8   9
ENDBRANCH   7   8
ENDBRANCH   6   7
ENDBRANCH   5   6
ENDBRANCH   4   5
ENDBRANCH   3   4
ENDBRANCH   2   3
ENDBRANCH   1   2
BRANCH   1  12
ATOM     12  C   UNL     1      15.468  29.094  71.158  1.00  0.00     0.000 C 
BRANCH  12  13
ATOM     13  C   UNL     1      14.822  30.260  70.391  1.00  0.00    -0.000 C 
BRANCH  13  14
ATOM     14  C   UNL     1      14.657  29.961  68.891  1.00  0.00    -0.000 C 
BRANCH  14  15
ATOM     15  C   UNL     1      15.710  30.677  68.029  1.00  0.00    -0.000 C 
BRANCH  15  16
ATOM     16  C   UNL     1      15.786  32.184  68.320  1.00  0.00    -0.000 C 
BRANCH  16  17
ATOM     17  C   UNL     1      15.391  33.003  67.081  1.00  0.00    -0.000 C 
BRANCH  17  18
ATOM     18  C   UNL     1      13.864  33.196  66.971  1.00  0.00    -0.000 C 
BRANCH  18  19
ATOM     19  C   UNL     1      13.179  33.473  68.320  1.00  0.00    -0.003 C 
ATOM     20  C   UNL     1      12.040  32.502  68.625  1.00  0.00     0.004 C 
ENDBRANCH  18  19
ENDBRANCH  17  18
ENDBRANCH  16  17
ENDBRANCH  15  16
ENDBRANCH  14  15
ENDBRANCH  13  14
ENDBRANCH  12  13
ENDBRANCH   1  12
TORSDOF 16
ENDMDL
MODEL 2
REMARK VINA RESULT:    -4.148      2.600      5.480
REMARK INTER + INTRA:         -10.808
REMARK INTER:                  -7.953
REMARK INTRA:                  -2.855
REMARK UNBOUND:                -2.779
REMARK SMILES CCCCCCCCCCCCCCCCCC(=O)[O-]
REMARK SMILES IDX 10 1 11 2 12 3 13 4 14 5 15 6 16 7 17 8 18 9 19 10 20 11
REMARK SMILES IDX 9 12 8 13 7 14 6 15 5 16 4 17 3 18 2 19 1 20
REMARK H PARENT
REMARK Flexibility Score: inf
ROOT
ATOM      1  C   UNL     1      14.871  30.527  70.233  1.00  0.00     0.000 C 
ENDROOT
BRANCH   1   2
ATOM      2  C   UNL     1      14.798  29.894  68.837  1.00  0.00     0.000 C 
BRANCH   2   3
ATOM      3  C   UNL     1      15.433  30.810  67.782  1.00  0.00     0.000 C 
BRANCH   3   4
ATOM      4  C   UNL     1      15.702  32.233  68.303  1.00  0.00     0.000 C 
BRANCH   4   5
ATOM      5  C   UNL     1      15.906  33.303  67.213  1.00  0.00     0.000 C 
BRANCH   5   6
ATOM      6  C   UNL     1      14.720  34.275  67.099  1.00  0.00     0.000 C 
BRANCH   6   7
ATOM      7  C   UNL     1      13.564  33.917  68.053  1.00  0.00     0.006 C 
BRANCH   7   8
ATOM      8  C   UNL     1      12.449  33.074  67.412  1.00  0.00     0.053 C 
BRANCH   8   9
ATOM      9  C   UNL     1      11.767  32.191  68.412  1.00  0.00     0.041 C 
ATOM     10  O   UNL     1      11.941  32.377  69.645  1.00  0.00    -0.550 OA
ATOM     11  O   UNL     1      10.913  31.184  67.981  1.00  0.00    -0.550 OA
ENDBRANCH   8   9
ENDBRANCH   7   8
ENDBRANCH   6   7
ENDBRANCH   5   6
ENDBRANCH   4   5
ENDBRANCH   3   4
ENDBRANCH   2   3
ENDBRANCH   1   2
BRANCH   1  12
ATOM     12  C   UNL     1      15.313  29.495  71.281  1.00  0.00     0.000 C 
BRANCH  12  13
ATOM     13  C   UNL     1      16.810  29.589  71.615  1.00  0.00    -0.000 C 
BRANCH  13  14
ATOM     14  C   UNL     1      17.436  30.918  71.156  1.00  0.00    -0.000 C 
BRANCH  14  15
ATOM     15  C   UNL     1      18.672  30.710  70.266  1.00  0.00    -0.000 C 
BRANCH  15  16
ATOM     16  C   UNL     1      18.541  29.484  69.349  1.00  0.00    -0.000 C 
BRANCH  16  17
ATOM     17  C   UNL     1      19.203  29.743  67.987  1.00  0.00    -0.000 C 
BRANCH  17  18
ATOM     18  C   UNL     1      19.120  31.227  67.570  1.00  0.00    -0.000 C 
BRANCH  18  19
ATOM     19  C   UNL     1      19.307  31.454  66.060  1.00  0.00    -0.003 C 
ATOM     20  C   UNL     1      18.103  31.006  65.234  1.00  0.00     0.004 C 
ENDBRANCH  18  19
ENDBRANCH  17  18
ENDBRANCH  16  17
ENDBRANCH  15  16
ENDBRANCH  14  15
ENDBRANCH  13  14
ENDBRANCH  12  13
ENDBRANCH   1  12
TORSDOF 16
ENDMDL
MODEL 3
REMARK VINA RESULT:    -4.072      2.441      4.966
REMARK INTER + INTRA:         -10.659
REMARK INTER:                  -8.265
REMARK INTRA:                  -2.394
REMARK UNBOUND:                -2.779
REMARK SMILES CCCCCCCCCCCCCCCCCC(=O)[O-]
REMARK SMILES IDX 10 1 11 2 12 3 13 4 14 5 15 6 16 7 17 8 18 9 19 10 20 11
REMARK SMILES IDX 9 12 8 13 7 14 6 15 5 16 4 17 3 18 2 19 1 20
REMARK H PARENT
REMARK Flexibility Score: inf
ROOT
ATOM      1  C   UNL     1      17.394  30.890  71.220  1.00  0.00     0.000 C 
ENDROOT
BRANCH   1   2
ATOM      2  C   UNL     1      16.739  29.575  71.662  1.00  0.00     0.000 C 
BRANCH   2   3
ATOM      3  C   UNL     1      15.367  29.392  70.998  1.00  0.00     0.000 C 
BRANCH   3   4
ATOM      4  C   UNL     1      14.874  30.657  70.274  1.00  0.00     0.000 C 
BRANCH   4   5
ATOM      5  C   UNL     1      14.618  30.492  68.764  1.00  0.00     0.000 C 
BRANCH   5   6
ATOM      6  C   UNL     1      13.995  31.742  68.123  1.00  0.00     0.000 C 
BRANCH   6   7
ATOM      7  C   UNL     1      14.920  32.971  68.194  1.00  0.00     0.006 C 
BRANCH   7   8
ATOM      8  C   UNL     1      14.795  33.932  67.000  1.00  0.00     0.053 C 
BRANCH   8   9
ATOM      9  C   UNL     1      14.765  35.366  67.434  1.00  0.00     0.041 C 
ATOM     10  O   UNL     1      13.689  35.887  67.827  1.00  0.00    -0.550 OA
ATOM     11  O   UNL     1      15.935  36.115  67.436  1.00  0.00    -0.550 OA
ENDBRANCH   8   9
ENDBRANCH   7   8
ENDBRANCH   6   7
ENDBRANCH   5   6
ENDBRANCH   4   5
ENDBRANCH   3   4
ENDBRANCH   2   3
ENDBRANCH   1   2
BRANCH   1  12
ATOM     12  C   UNL     1      18.793  30.638  70.638  1.00  0.00     0.000 C 
BRANCH  12  13
ATOM     13  C   UNL     1      18.961  31.211  69.222  1.00  0.00    -0.000 C 
BRANCH  13  14
ATOM     14  C   UNL     1      18.502  30.230  68.129  1.00  0.00    -0.000 C 
BRANCH  14  15
ATOM     15  C   UNL     1      17.752  30.932  66.985  1.00  0.00    -0.000 C 
BRANCH  15  16
ATOM     16  C   UNL     1      18.450  30.760  65.626  1.00  0.00    -0.000 C 
BRANCH  16  17
ATOM     17  C   UNL     1      19.009  32.100  65.123  1.00  0.00    -0.000 C 
BRANCH  17  18
ATOM     18  C   UNL     1      18.192  33.304  65.637  1.00  0.00    -0.000 C 
BRANCH  18  19
ATOM     19  C   UNL     1      19.061  34.445  66.194  1.00  0.00    -0.003 C 
ATOM     20  C   UNL     1      20.260  33.947  66.998  1.00  0.00     0.004 C 
ENDBRANCH  18  19
ENDBRANCH  17  18
ENDBRANCH  16  17
ENDBRANCH  15  16
ENDBRANCH  14  15
ENDBRANCH  13  14
ENDBRANCH  12  13
ENDBRANCH   1  12
TORSDOF 16
ENDMDL
MODEL 4
REMARK VINA RESULT:    -4.062      2.536      5.200
REMARK INTER + INTRA:         -10.641
REMARK INTER:                  -8.092
REMARK INTRA:                  -2.549
REMARK UNBOUND:                -2.779
REMARK SMILES CCCCCCCCCCCCCCCCCC(=O)[O-]
REMARK SMILES IDX 10 1 11 2 12 3 13 4 14 5 15 6 16 7 17 8 18 9 19 10 20 11
REMARK SMILES IDX 9 12 8 13 7 14 6 15 5 16 4 17 3 18 2 19 1 20
REMARK H PARENT
REMARK Flexibility Score: inf
ROOT
ATOM      1  C   UNL     1      15.349  29.112  71.079  1.00  0.00     0.000 C 
ENDROOT
BRANCH   1   2
ATOM      2  C   UNL     1      15.365  28.699  69.602  1.00  0.00     0.000 C 
BRANCH   2   3
ATOM      3  C   UNL     1      14.491  29.636  68.756  1.00  0.00     0.000 C 
BRANCH   3   4
ATOM      4  C   UNL     1      14.298  31.022  69.399  1.00  0.00     0.000 C 
BRANCH   4   5
ATOM      5  C   UNL     1      15.221  32.130  68.857  1.00  0.00     0.000 C 
BRANCH   5   6
ATOM      6  C   UNL     1      15.001  32.414  67.362  1.00  0.00     0.000 C 
BRANCH   6   7
ATOM      7  C   UNL     1      15.289  33.880  66.986  1.00  0.00     0.006 C 
BRANCH   7   8
ATOM      8  C   UNL     1      14.188  34.870  67.401  1.00  0.00     0.053 C 
BRANCH   8   9
ATOM      9  C   UNL     1      14.679  36.286  67.404  1.00  0.00     0.041 C 
ATOM     10  O   UNL     1      15.902  36.533  67.575  1.00  0.00    -0.550 OA
ATOM     11  O   UNL     1      13.789  37.330  67.184  1.00  0.00    -0.550 OA
ENDBRANCH   8   9
ENDBRANCH   7   8
ENDBRANCH   6   7
ENDBRANCH   5   6
ENDBRANCH   4   5
ENDBRANCH   3   4
ENDBRANCH   2   3
ENDBRANCH   1   2
BRANCH   1  12
ATOM     12  C   UNL     1      16.775  29.324  71.605  1.00  0.00     0.000 C 
BRANCH  12  13
ATOM     13  C   UNL     1      17.227  30.791  71.526  1.00  0.00    -0.000 C 
BRANCH  13  14
ATOM     14  C   UNL     1      18.429  30.989  70.586  1.00  0.00    -0.000 C 
BRANCH  14  15
ATOM     15  C   UNL     1      19.109  29.662  70.213  1.00  0.00    -0.000 C 
BRANCH  15  16
ATOM     16  C   UNL     1      19.224  29.462  68.694  1.00  0.00    -0.000 C 
BRANCH  16  17
ATOM     17  C   UNL     1      18.156  30.279  67.950  1.00  0.00    -0.000 C 
BRANCH  17  18
ATOM     18  C   UNL     1      18.760  31.140  66.820  1.00  0.00    -0.000 C 
BRANCH  18  19
ATOM     19  C   UNL     1      18.910  32.625  67.191  1.00  0.00    -0.003 C 
ATOM     20  C   UNL     1      19.699  33.424  66.156  1.00  0.00     0.004 C 
ENDBRANCH  18  19
ENDBRANCH  17  18
ENDBRANCH  16  17
ENDBRANCH  15  16
ENDBRANCH  14  15
ENDBRANCH  13  14
ENDBRANCH  12  13
ENDBRANCH   1  12
TORSDOF 16
ENDMDL
MODEL 5
REMARK VINA RESULT:    -3.999      1.771      2.308
REMARK INTER + INTRA:         -10.519
REMARK INTER:                  -7.819
REMARK INTRA:                  -2.700
REMARK UNBOUND:                -2.779
REMARK SMILES CCCCCCCCCCCCCCCCCC(=O)[O-]
REMARK SMILES IDX 10 1 11 2 12 3 13 4 14 5 15 6 16 7 17 8 18 9 19 10 20 11
REMARK SMILES IDX 9 12 8 13 7 14 6 15 5 16 4 17 3 18 2 19 1 20
REMARK H PARENT
REMARK Flexibility Score: inf
ROOT
ATOM      1  C   UNL     1      16.586  29.638  71.297  1.00  0.00     0.000 C 
ENDROOT
BRANCH   1   2
ATOM      2  C   UNL     1      17.442  30.899  71.467  1.00  0.00     0.000 C 
BRANCH   2   3
ATOM      3  C   UNL     1      18.787  30.755  70.740  1.00  0.00     0.000 C 
BRANCH   3   4
ATOM      4  C   UNL     1      18.781  29.643  69.677  1.00  0.00     0.000 C 
BRANCH   4   5
ATOM      5  C   UNL     1      19.032  30.114  68.232  1.00  0.00     0.000 C 
BRANCH   5   6
ATOM      6  C   UNL     1      19.019  31.645  68.091  1.00  0.00     0.000 C 
BRANCH   6   7
ATOM      7  C   UNL     1      18.682  32.108  66.661  1.00  0.00     0.006 C 
BRANCH   7   8
ATOM      8  C   UNL     1      18.125  33.539  66.570  1.00  0.00     0.053 C 
BRANCH   8   9
ATOM      9  C   UNL     1      19.117  34.491  65.975  1.00  0.00     0.041 C 
ATOM     10  O   UNL     1      18.729  35.572  65.461  1.00  0.00    -0.550 OA
ATOM     11  O   UNL     1      20.474  34.197  66.021  1.00  0.00    -0.550 OA
ENDBRANCH   8   9
ENDBRANCH   7   8
ENDBRANCH   6   7
ENDBRANCH   5   6
ENDBRANCH   4   5
ENDBRANCH   3   4
ENDBRANCH   2   3
ENDBRANCH   1   2
BRANCH   1  12
ATOM     12  C   UNL     1      15.197  29.988  70.744  1.00  0.00     0.000 C 
BRANCH  12  13
ATOM     13  C   UNL     1      15.008  29.543  69.284  1.00  0.00    -0.000 C 
BRANCH  13  14
ATOM     14  C   UNL     1      15.386  30.644  68.277  1.00  0.00    -0.000 C 
BRANCH  14  15
ATOM     15  C   UNL     1      15.132  32.057  68.828  1.00  0.00    -0.000 C 
BRANCH  15  16
ATOM     16  C   UNL     1      14.488  32.989  67.789  1.00  0.00    -0.000 C 
BRANCH  16  17
ATOM     17  C   UNL     1      13.130  33.510  68.286  1.00  0.00    -0.000 C 
BRANCH  17  18
ATOM     18  C   UNL     1      12.314  32.418  69.009  1.00  0.00    -0.000 C 
BRANCH  18  19
ATOM     19  C   UNL     1      11.305  31.699  68.098  1.00  0.00    -0.003 C 
ATOM     20  C   UNL     1      11.710  30.264  67.768  1.00  0.00     0.004 C 
ENDBRANCH  18  19
ENDBRANCH  17  18
ENDBRANCH  16  17
ENDBRANCH  15  16
ENDBRANCH  14  15
ENDBRANCH  13  14
ENDBRANCH  12  13
ENDBRANCH   1  12
TORSDOF 16
ENDMDL
MODEL 6
REMARK VINA RESULT:    -3.959      2.072      2.545
REMARK INTER + INTRA:         -10.442
REMARK INTER:                  -7.764
REMARK INTRA:                  -2.677
REMARK UNBOUND:                -2.779
REMARK SMILES CCCCCCCCCCCCCCCCCC(=O)[O-]
REMARK SMILES IDX 10 1 11 2 12 3 13 4 14 5 15 6 16 7 17 8 18 9 19 10 20 11
REMARK SMILES IDX 9 12 8 13 7 14 6 15 5 16 4 17 3 18 2 19 1 20
REMARK H PARENT
REMARK Flexibility Score: inf
ROOT
ATOM      1  C   UNL     1      16.851  30.509  71.496  1.00  0.00     0.000 C 
ENDROOT
BRANCH   1   2
ATOM      2  C   UNL     1      17.973  29.781  70.745  1.00  0.00     0.000 C 
BRANCH   2   3
ATOM      3  C   UNL     1      19.211  30.678  70.599  1.00  0.00     0.000 C 
BRANCH   3   4
ATOM      4  C   UNL     1      19.479  31.102  69.144  1.00  0.00     0.000 C 
BRANCH   4   5
ATOM      5  C   UNL     1      18.999  30.107  68.071  1.00  0.00     0.000 C 
BRANCH   5   6
ATOM      6  C   UNL     1      18.054  30.748  67.041  1.00  0.00     0.000 C 
BRANCH   6   7
ATOM      7  C   UNL     1      17.681  32.199  67.399  1.00  0.00     0.006 C 
BRANCH   7   8
ATOM      8  C   UNL     1      17.649  33.161  66.199  1.00  0.00     0.053 C 
BRANCH   8   9
ATOM      9  C   UNL     1      18.673  34.248  66.324  1.00  0.00     0.041 C 
ATOM     10  O   UNL     1      18.415  35.412  65.922  1.00  0.00    -0.550 OA
ATOM     11  O   UNL     1      19.900  33.980  66.918  1.00  0.00    -0.550 OA
ENDBRANCH   8   9
ENDBRANCH   7   8
ENDBRANCH   6   7
ENDBRANCH   5   6
ENDBRANCH   4   5
ENDBRANCH   3   4
ENDBRANCH   2   3
ENDBRANCH   1   2
BRANCH   1  12
ATOM     12  C   UNL     1      15.729  30.929  70.535  1.00  0.00     0.000 C 
BRANCH  12  13
ATOM     13  C   UNL     1      15.078  29.734  69.820  1.00  0.00    -0.000 C 
BRANCH  13  14
ATOM     14  C   UNL     1      14.820  30.006  68.328  1.00  0.00    -0.000 C 
BRANCH  14  15
ATOM     15  C   UNL     1      13.722  31.058  68.103  1.00  0.00    -0.000 C 
BRANCH  15  16
ATOM     16  C   UNL     1      13.598  31.478  66.630  1.00  0.00    -0.000 C 
BRANCH  16  17
ATOM     17  C   UNL     1      13.977  32.956  66.446  1.00  0.00    -0.000 C 
BRANCH  17  18
ATOM     18  C   UNL     1      14.223  33.668  67.794  1.00  0.00    -0.000 C 
BRANCH  18  19
ATOM     19  C   UNL     1      13.950  35.180  67.750  1.00  0.00    -0.003 C 
ATOM     20  C   UNL     1      15.198  36.006  67.442  1.00  0.00     0.004 C 
ENDBRANCH  18  19
ENDBRANCH  17  18
ENDBRANCH  16  17
ENDBRANCH  15  16
ENDBRANCH  14  15
ENDBRANCH  13  14
ENDBRANCH  12  13
ENDBRANCH   1  12
TORSDOF 16
ENDMDL
MODEL 7
REMARK VINA RESULT:    -3.952      2.738      4.466
REMARK INTER + INTRA:         -10.429
REMARK INTER:                  -8.168
REMARK INTRA:                  -2.260
REMARK UNBOUND:                -2.779
REMARK SMILES CCCCCCCCCCCCCCCCCC(=O)[O-]
REMARK SMILES IDX 10 1 11 2 12 3 13 4 14 5 15 6 16 7 17 8 18 9 19 10 20 11
REMARK SMILES IDX 9 12 8 13 7 14 6 15 5 16 4 17 3 18 2 19 1 20
REMARK H PARENT
REMARK Flexibility Score: inf
ROOT
ATOM      1  C   UNL     1      19.445  31.294  68.789  1.00  0.00     0.000 C 
ENDROOT
BRANCH   1   2
ATOM      2  C   UNL     1      18.860  30.290  67.787  1.00  0.00     0.000 C 
BRANCH   2   3
ATOM      3  C   UNL     1      18.298  31.008  66.552  1.00  0.00     0.000 C 
BRANCH   3   4
ATOM      4  C   UNL     1      19.265  32.054  65.970  1.00  0.00     0.000 C 
BRANCH   4   5
ATOM      5  C   UNL     1      18.656  33.447  65.726  1.00  0.00     0.000 C 
BRANCH   5   6
ATOM      6  C   UNL     1      17.333  33.663  66.480  1.00  0.00     0.000 C 
BRANCH   6   7
ATOM      7  C   UNL     1      16.915  35.144  66.536  1.00  0.00     0.006 C 
BRANCH   7   8
ATOM      8  C   UNL     1      15.567  35.399  67.231  1.00  0.00     0.053 C 
BRANCH   8   9
ATOM      9  C   UNL     1      14.747  36.424  66.508  1.00  0.00     0.041 C 
ATOM     10  O   UNL     1      14.782  36.494  65.252  1.00  0.00    -0.550 OA
ATOM     11  O   UNL     1      13.918  37.279  67.223  1.00  0.00    -0.550 OA
ENDBRANCH   8   9
ENDBRANCH   7   8
ENDBRANCH   6   7
ENDBRANCH   5   6
ENDBRANCH   4   5
ENDBRANCH   3   4
ENDBRANCH   2   3
ENDBRANCH   1   2
BRANCH   1  12
ATOM     12  C   UNL     1      19.222  30.821  70.233  1.00  0.00     0.000 C 
BRANCH  12  13
ATOM     13  C   UNL     1      18.012  29.884  70.373  1.00  0.00    -0.000 C 
BRANCH  13  14
ATOM     14  C   UNL     1      17.056  30.317  71.498  1.00  0.00    -0.000 C 
BRANCH  14  15
ATOM     15  C   UNL     1      15.643  30.632  70.981  1.00  0.00    -0.000 C 
BRANCH  15  16
ATOM     16  C   UNL     1      15.527  30.493  69.455  1.00  0.00    -0.000 C 
BRANCH  16  17
ATOM     17  C   UNL     1      15.334  31.865  68.791  1.00  0.00    -0.000 C 
BRANCH  17  18
ATOM     18  C   UNL     1      14.109  31.893  67.852  1.00  0.00    -0.000 C 
BRANCH  18  19
ATOM     19  C   UNL     1      14.428  31.462  66.411  1.00  0.00    -0.003 C 
ATOM     20  C   UNL     1      13.306  31.784  65.427  1.00  0.00     0.004 C 
ENDBRANCH  18  19
ENDBRANCH  17  18
ENDBRANCH  16  17
ENDBRANCH  15  16
ENDBRANCH  14  15
ENDBRANCH  13  14
ENDBRANCH  12  13
ENDBRANCH   1  12
TORSDOF 16
ENDMDL
MODEL 8
REMARK VINA RESULT:    -3.940      2.627      6.013
REMARK INTER + INTRA:         -10.405
REMARK INTER:                  -7.773
REMARK INTRA:                  -2.632
REMARK UNBOUND:                -2.779
REMARK SMILES CCCCCCCCCCCCCCCCCC(=O)[O-]
REMARK SMILES IDX 10 1 11 2 12 3 13 4 14 5 15 6 16 7 17 8 18 9 19 10 20 11
REMARK SMILES IDX 9 12 8 13 7 14 6 15 5 16 4 17 3 18 2 19 1 20
REMARK H PARENT
REMARK Flexibility Score: inf
ROOT
ATOM      1  C   UNL     1      13.215  33.385  68.186  1.00  0.00     0.000 C 
ENDROOT
BRANCH   1   2
ATOM      2  C   UNL     1      12.525  32.718  66.989  1.00  0.00     0.000 C 
BRANCH   2   3
ATOM      3  C   UNL     1      13.010  31.273  66.806  1.00  0.00     0.000 C 
BRANCH   3   4
ATOM      4  C   UNL     1      14.241  31.163  65.889  1.00  0.00     0.000 C 
BRANCH   4   5
ATOM      5  C   UNL     1      15.562  30.819  66.602  1.00  0.00     0.000 C 
BRANCH   5   6
ATOM      6  C   UNL     1      15.355  30.348  68.051  1.00  0.00     0.000 C 
BRANCH   6   7
ATOM      7  C   UNL     1      16.004  31.291  69.082  1.00  0.00     0.006 C 
BRANCH   7   8
ATOM      8  C   UNL     1      15.675  30.956  70.546  1.00  0.00     0.053 C 
BRANCH   8   9
ATOM      9  C   UNL     1      16.865  30.420  71.280  1.00  0.00     0.041 C 
ATOM     10  O   UNL     1      17.983  30.989  71.178  1.00  0.00    -0.550 OA
ATOM     11  O   UNL     1      16.731  29.310  72.105  1.00  0.00    -0.550 OA
ENDBRANCH   8   9
ENDBRANCH   7   8
ENDBRANCH   6   7
ENDBRANCH   5   6
ENDBRANCH   4   5
ENDBRANCH   3   4
ENDBRANCH   2   3
ENDBRANCH   1   2
BRANCH   1  12
ATOM     12  C   UNL     1      13.764  34.767  67.803  1.00  0.00     0.000 C 
BRANCH  12  13
ATOM     13  C   UNL     1      14.698  34.721  66.584  1.00  0.00    -0.000 C 
BRANCH  13  14
ATOM     14  C   UNL     1      16.149  34.377  66.964  1.00  0.00    -0.000 C 
BRANCH  14  15
ATOM     15  C   UNL     1      17.176  35.205  66.175  1.00  0.00    -0.000 C 
BRANCH  15  16
ATOM     16  C   UNL     1      18.572  34.562  66.165  1.00  0.00    -0.000 C 
BRANCH  16  17
ATOM     17  C   UNL     1      18.598  33.320  65.261  1.00  0.00    -0.000 C 
BRANCH  17  18
ATOM     18  C   UNL     1      19.380  32.150  65.898  1.00  0.00    -0.000 C 
BRANCH  18  19
ATOM     19  C   UNL     1      19.051  31.926  67.383  1.00  0.00    -0.003 C 
ATOM     20  C   UNL     1      19.417  30.527  67.874  1.00  0.00     0.004 C 
ENDBRANCH  18  19
ENDBRANCH  17  18
ENDBRANCH  16  17
ENDBRANCH  15  16
ENDBRANCH  14  15
ENDBRANCH  13  14
ENDBRANCH  12  13
ENDBRANCH   1  12
TORSDOF 16
ENDMDL
MODEL 9
REMARK VINA RESULT:    -3.930      2.425      5.204
REMARK INTER + INTRA:         -10.385
REMARK INTER:                  -8.218
REMARK INTRA:                  -2.166
REMARK UNBOUND:                -2.779
REMARK SMILES CCCCCCCCCCCCCCCCCC(=O)[O-]
REMARK SMILES IDX 10 1 11 2 12 3 13 4 14 5 15 6 16 7 17 8 18 9 19 10 20 11
REMARK SMILES IDX 9 12 8 13 7 14 6 15 5 16 4 17 3 18 2 19 1 20
REMARK H PARENT
REMARK Flexibility Score: inf
ROOT
ATOM      1  C   UNL     1      14.726  32.494  68.182  1.00  0.00     0.000 C 
ENDROOT
BRANCH   1   2
ATOM      2  C   UNL     1      13.962  33.469  67.277  1.00  0.00     0.000 C 
BRANCH   2   3
ATOM      3  C   UNL     1      13.638  34.774  68.019  1.00  0.00     0.000 C 
BRANCH   3   4
ATOM      4  C   UNL     1      14.156  36.025  67.288  1.00  0.00     0.000 C 
BRANCH   4   5
ATOM      5  C   UNL     1      15.675  36.261  67.386  1.00  0.00     0.000 C 
BRANCH   5   6
ATOM      6  C   UNL     1      16.403  36.032  66.052  1.00  0.00     0.000 C 
BRANCH   6   7
ATOM      7  C   UNL     1      17.536  34.994  66.163  1.00  0.00     0.006 C 
BRANCH   7   8
ATOM      8  C   UNL     1      18.890  35.469  65.610  1.00  0.00     0.053 C 
BRANCH   8   9
ATOM      9  C   UNL     1      20.014  34.573  66.033  1.00  0.00     0.041 C 
ATOM     10  O   UNL     1      21.092  35.066  66.458  1.00  0.00    -0.550 OA
ATOM     11  O   UNL     1      19.857  33.194  65.991  1.00  0.00    -0.550 OA
ENDBRANCH   8   9
ENDBRANCH   7   8
ENDBRANCH   6   7
ENDBRANCH   5   6
ENDBRANCH   4   5
ENDBRANCH   3   4
ENDBRANCH   2   3
ENDBRANCH   1   2
BRANCH   1  12
ATOM     12  C   UNL     1      15.772  31.706  67.381  1.00  0.00     0.000 C 
BRANCH  12  13
ATOM     13  C   UNL     1      17.209  31.969  67.858  1.00  0.00    -0.000 C 
BRANCH  13  14
ATOM     14  C   UNL     1      17.915  30.691  68.343  1.00  0.00    -0.000 C 
BRANCH  14  15
ATOM     15  C   UNL     1      18.489  30.838  69.761  1.00  0.00    -0.000 C 
BRANCH  15  16
ATOM     16  C   UNL     1      17.664  30.082  70.815  1.00  0.00    -0.000 C 
BRANCH  16  17
ATOM     17  C   UNL     1      16.357  30.827  71.127  1.00  0.00    -0.000 C 
BRANCH  17  18
ATOM     18  C   UNL     1      15.123  29.902  71.043  1.00  0.00    -0.000 C 
BRANCH  18  19
ATOM     19  C   UNL     1      15.358  28.638  70.200  1.00  0.00    -0.003 C 
ATOM     20  C   UNL     1      14.600  28.653  68.874  1.00  0.00     0.004 C 
ENDBRANCH  18  19
ENDBRANCH  17  18
ENDBRANCH  16  17
ENDBRANCH  15  16
ENDBRANCH  14  15
ENDBRANCH  13  14
ENDBRANCH  12  13
ENDBRANCH   1  12
TORSDOF 16
ENDMDL
