MODEL 1
REMARK VINA RESULT:     2.207      0.000      0.000
REMARK INTER + INTRA:           2.207
REMARK INTER:                   2.207
REMARK INTRA:                   0.000
REMARK UNBOUND:                 0.000
REMARK SMILES CC1(C)[C@@H]2CC[C@@]1(C)C(=O)C2
REMARK SMILES IDX 1 1 2 2 4 3 5 4 6 5 7 6 9 7 10 8 11 9 8 10 3 11
REMARK H PARENT
REMARK Flexibility Score: inf
ROOT
ATOM      1  C   UNL     1      -6.155   3.024  13.711  1.00  0.00     0.012 C 
ATOM      2  C   UNL     1      -5.738   3.510  15.131  1.00  0.00    -0.020 C 
ATOM      3  C   UNL     1      -6.235   2.596  16.277  1.00  0.00     0.003 C 
ATOM      4  C   UNL     1      -7.780   2.734  16.178  1.00  0.00     0.005 C 
ATOM      5  C   UNL     1      -7.970   4.215  15.766  1.00  0.00     0.015 C 
ATOM      6  C   UNL     1      -6.515   4.731  15.671  1.00  0.00     0.032 C 
ATOM      7  C   UNL     1      -6.025   4.765  17.097  1.00  0.00     0.139 C 
ATOM      8  O   UNL     1      -5.904   5.764  17.791  1.00  0.00    -0.299 OA
ATOM      9  C   UNL     1      -5.808   3.359  17.563  1.00  0.00     0.080 C 
ATOM     10  C   UNL     1      -6.349   6.044  14.897  1.00  0.00     0.020 C 
ATOM     11  C   UNL     1      -4.188   3.687  15.101  1.00  0.00     0.012 C 
ENDROOT
TORSDOF 0
ENDMDL
MODEL 2
REMARK VINA RESULT:     2.288      1.811      3.242
REMARK INTER + INTRA:           2.288
REMARK INTER:                   2.288
REMARK INTRA:                   0.000
REMARK UNBOUND:                 0.000
REMARK SMILES CC1(C)[C@@H]2CC[C@@]1(C)C(=O)C2
REMARK SMILES IDX 1 1 2 2 4 3 5 4 6 5 7 6 9 7 10 8 11 9 8 10 3 11
REMARK H PARENT
REMARK Flexibility Score: inf
ROOT
ATOM      1  C   UNL     1      -6.478   5.633  17.492  1.00  0.00     0.012 C 
ATOM      2  C   UNL     1      -6.581   5.286  15.976  1.00  0.00    -0.020 C 
ATOM      3  C   UNL     1      -8.011   4.920  15.514  1.00  0.00     0.003 C 
ATOM      4  C   UNL     1      -8.303   3.615  16.306  1.00  0.00     0.005 C 
ATOM      5  C   UNL     1      -6.924   2.912  16.337  1.00  0.00     0.015 C 
ATOM      6  C   UNL     1      -6.019   3.906  15.571  1.00  0.00     0.032 C 
ATOM      7  C   UNL     1      -6.484   3.825  14.139  1.00  0.00     0.139 C 
ATOM      8  O   UNL     1      -5.916   3.236  13.231  1.00  0.00    -0.299 OA
ATOM      9  C   UNL     1      -7.817   4.498  14.030  1.00  0.00     0.080 C 
ATOM     10  C   UNL     1      -4.514   3.693  15.776  1.00  0.00     0.020 C 
ATOM     11  C   UNL     1      -5.964   6.492  15.203  1.00  0.00     0.012 C 
ENDROOT
TORSDOF 0
ENDMDL
MODEL 3
REMARK VINA RESULT:     2.765      1.543      2.777
REMARK INTER + INTRA:           2.765
REMARK INTER:                   2.765
REMARK INTRA:                   0.000
REMARK UNBOUND:                 0.000
REMARK SMILES CC1(C)[C@@H]2CC[C@@]1(C)C(=O)C2
REMARK SMILES IDX 1 1 2 2 4 3 5 4 6 5 7 6 9 7 10 8 11 9 8 10 3 11
REMARK H PARENT
REMARK Flexibility Score: inf
ROOT
ATOM      1  C   UNL     1      -6.069   6.261  15.158  1.00  0.00     0.012 C 
ATOM      2  C   UNL     1      -6.089   4.953  16.004  1.00  0.00    -0.020 C 
ATOM      3  C   UNL     1      -4.872   4.029  15.758  1.00  0.00     0.003 C 
ATOM      4  C   UNL     1      -5.050   3.618  14.270  1.00  0.00     0.005 C 
ATOM      5  C   UNL     1      -6.588   3.505  14.123  1.00  0.00     0.015 C 
ATOM      6  C   UNL     1      -7.093   3.875  15.538  1.00  0.00     0.032 C 
ATOM      7  C   UNL     1      -6.681   2.715  16.410  1.00  0.00     0.139 C 
ATOM      8  O   UNL     1      -7.415   1.830  16.821  1.00  0.00    -0.299 OA
ATOM      9  C   UNL     1      -5.197   2.766  16.604  1.00  0.00     0.080 C 
ATOM     10  C   UNL     1      -8.579   4.246  15.613  1.00  0.00     0.020 C 
ATOM     11  C   UNL     1      -6.250   5.391  17.493  1.00  0.00     0.012 C 
ENDROOT
TORSDOF 0
ENDMDL
MODEL 4
REMARK VINA RESULT:     2.915      1.483      3.046
REMARK INTER + INTRA:           2.915
REMARK INTER:                   2.915
REMARK INTRA:                   0.000
REMARK UNBOUND:                 0.000
REMARK SMILES CC1(C)[C@@H]2CC[C@@]1(C)C(=O)C2
REMARK SMILES IDX 1 1 2 2 4 3 5 4 6 5 7 6 9 7 10 8 11 9 8 10 3 11
REMARK H PARENT
REMARK Flexibility Score: inf
ROOT
ATOM      1  C   UNL     1      -4.377   3.715  15.267  1.00  0.00     0.012 C 
ATOM      2  C   UNL     1      -5.868   4.071  14.985  1.00  0.00    -0.020 C 
ATOM      3  C   UNL     1      -6.145   5.591  14.912  1.00  0.00     0.003 C 
ATOM      4  C   UNL     1      -5.824   6.067  16.357  1.00  0.00     0.005 C 
ATOM      5  C   UNL     1      -6.309   4.881  17.228  1.00  0.00     0.015 C 
ATOM      6  C   UNL     1      -6.834   3.878  16.174  1.00  0.00     0.032 C 
ATOM      7  C   UNL     1      -8.084   4.516  15.624  1.00  0.00     0.139 C 
ATOM      8  O   UNL     1      -9.232   4.203  15.902  1.00  0.00    -0.299 OA
ATOM      9  C   UNL     1      -7.690   5.673  14.758  1.00  0.00     0.080 C 
ATOM     10  C   UNL     1      -7.010   2.443  16.686  1.00  0.00     0.020 C 
ATOM     11  C   UNL     1      -6.269   3.300  13.689  1.00  0.00     0.012 C 
ENDROOT
TORSDOF 0
ENDMDL
MODEL 5
REMARK VINA RESULT:     3.206      1.523      2.764
REMARK INTER + INTRA:           3.206
REMARK INTER:                   3.206
REMARK INTRA:                   0.000
REMARK UNBOUND:                 0.000
REMARK SMILES CC1(C)[C@@H]2CC[C@@]1(C)C(=O)C2
REMARK SMILES IDX 1 1 2 2 4 3 5 4 6 5 7 6 9 7 10 8 11 9 8 10 3 11
REMARK H PARENT
REMARK Flexibility Score: inf
ROOT
ATOM      1  C   UNL     1      -8.591   4.261  15.584  1.00  0.00     0.012 C 
ATOM      2  C   UNL     1      -7.220   3.627  15.963  1.00  0.00    -0.020 C 
ATOM      3  C   UNL     1      -6.521   4.317  17.160  1.00  0.00     0.003 C 
ATOM      4  C   UNL     1      -6.234   5.743  16.612  1.00  0.00     0.005 C 
ATOM      5  C   UNL     1      -5.902   5.482  15.121  1.00  0.00     0.015 C 
ATOM      6  C   UNL     1      -6.051   3.946  15.005  1.00  0.00     0.032 C 
ATOM      7  C   UNL     1      -4.889   3.385  15.784  1.00  0.00     0.139 C 
ATOM      8  O   UNL     1      -3.866   2.915  15.310  1.00  0.00    -0.299 OA
ATOM      9  C   UNL     1      -5.146   3.595  17.244  1.00  0.00     0.080 C 
ATOM     10  C   UNL     1      -6.182   3.422  13.570  1.00  0.00     0.020 C 
ATOM     11  C   UNL     1      -7.481   2.106  16.186  1.00  0.00     0.012 C 
ENDROOT
TORSDOF 0
ENDMDL
MODEL 6
REMARK VINA RESULT:     3.367      1.471      2.812
REMARK INTER + INTRA:           3.367
REMARK INTER:                   3.367
REMARK INTRA:                   0.000
REMARK UNBOUND:                 0.000
REMARK SMILES CC1(C)[C@@H]2CC[C@@]1(C)C(=O)C2
REMARK SMILES IDX 1 1 2 2 4 3 5 4 6 5 7 6 9 7 10 8 11 9 8 10 3 11
REMARK H PARENT
REMARK Flexibility Score: inf
ROOT
ATOM      1  C   UNL     1      -8.195   4.817  15.974  1.00  0.00     0.012 C 
ATOM      2  C   UNL     1      -6.744   4.546  15.473  1.00  0.00    -0.020 C 
ATOM      3  C   UNL     1      -6.671   3.605  14.248  1.00  0.00     0.003 C 
ATOM      4  C   UNL     1      -7.222   2.265  14.812  1.00  0.00     0.005 C 
ATOM      5  C   UNL     1      -6.684   2.254  16.265  1.00  0.00     0.015 C 
ATOM      6  C   UNL     1      -5.906   3.588  16.349  1.00  0.00     0.032 C 
ATOM      7  C   UNL     1      -4.700   3.388  15.467  1.00  0.00     0.139 C 
ATOM      8  O   UNL     1      -3.561   3.167  15.849  1.00  0.00    -0.299 OA
ATOM      9  C   UNL     1      -5.145   3.397  14.038  1.00  0.00     0.080 C 
ATOM     10  C   UNL     1      -5.596   4.061  17.774  1.00  0.00     0.020 C 
ATOM     11  C   UNL     1      -6.092   5.942  15.229  1.00  0.00     0.012 C 
ENDROOT
TORSDOF 0
ENDMDL
MODEL 7
REMARK VINA RESULT:     3.958      1.222      2.966
REMARK INTER + INTRA:           3.958
REMARK INTER:                   3.958
REMARK INTRA:                   0.000
REMARK UNBOUND:                 0.000
REMARK SMILES CC1(C)[C@@H]2CC[C@@]1(C)C(=O)C2
REMARK SMILES IDX 1 1 2 2 4 3 5 4 6 5 7 6 9 7 10 8 11 9 8 10 3 11
REMARK H PARENT
REMARK Flexibility Score: inf
ROOT
ATOM      1  C   UNL     1      -6.993   2.200  16.537  1.00  0.00     0.012 C 
ATOM      2  C   UNL     1      -7.221   3.600  15.891  1.00  0.00    -0.020 C 
ATOM      3  C   UNL     1      -6.966   3.634  14.365  1.00  0.00     0.003 C 
ATOM      4  C   UNL     1      -5.447   3.323  14.265  1.00  0.00     0.005 C 
ATOM      5  C   UNL     1      -4.864   4.033  15.513  1.00  0.00     0.015 C 
ATOM      6  C   UNL     1      -6.122   4.649  16.171  1.00  0.00     0.032 C 
ATOM      7  C   UNL     1      -6.544   5.753  15.235  1.00  0.00     0.139 C 
ATOM      8  O   UNL     1      -6.365   6.949  15.408  1.00  0.00    -0.299 OA
ATOM      9  C   UNL     1      -7.130   5.137  14.002  1.00  0.00     0.080 C 
ATOM     10  C   UNL     1      -5.938   5.073  17.633  1.00  0.00     0.020 C 
ATOM     11  C   UNL     1      -8.661   4.045  16.294  1.00  0.00     0.012 C 
ENDROOT
TORSDOF 0
ENDMDL
MODEL 8
REMARK VINA RESULT:     4.218      1.406      2.142
REMARK INTER + INTRA:           4.218
REMARK INTER:                   4.218
REMARK INTRA:                   0.000
REMARK UNBOUND:                 0.000
REMARK SMILES CC1(C)[C@@H]2CC[C@@]1(C)C(=O)C2
REMARK SMILES IDX 1 1 2 2 4 3 5 4 6 5 7 6 9 7 10 8 11 9 8 10 3 11
REMARK H PARENT
REMARK Flexibility Score: inf
ROOT
ATOM      1  C   UNL     1      -6.623   2.255  16.152  1.00  0.00     0.012 C 
ATOM      2  C   UNL     1      -6.165   3.738  16.015  1.00  0.00    -0.020 C 
ATOM      3  C   UNL     1      -6.632   4.647  17.177  1.00  0.00     0.003 C 
ATOM      4  C   UNL     1      -8.179   4.626  17.026  1.00  0.00     0.005 C 
ATOM      5  C   UNL     1      -8.377   4.583  15.491  1.00  0.00     0.015 C 
ATOM      6  C   UNL     1      -6.924   4.574  14.961  1.00  0.00     0.032 C 
ATOM      7  C   UNL     1      -6.394   5.953  15.264  1.00  0.00     0.139 C 
ATOM      8  O   UNL     1      -6.252   6.860  14.459  1.00  0.00    -0.299 OA
ATOM      9  C   UNL     1      -6.168   6.065  16.740  1.00  0.00     0.080 C 
ATOM     10  C   UNL     1      -6.776   4.129  13.501  1.00  0.00     0.020 C 
ATOM     11  C   UNL     1      -4.616   3.708  15.830  1.00  0.00     0.012 C 
ENDROOT
TORSDOF 0
ENDMDL
MODEL 9
REMARK VINA RESULT:     4.561      1.271      2.383
REMARK INTER + INTRA:           4.561
REMARK INTER:                   4.561
REMARK INTRA:                   0.000
REMARK UNBOUND:                 0.000
REMARK SMILES CC1(C)[C@@H]2CC[C@@]1(C)C(=O)C2
REMARK SMILES IDX 1 1 2 2 4 3 5 4 6 5 7 6 9 7 10 8 11 9 8 10 3 11
REMARK H PARENT
REMARK Flexibility Score: inf
ROOT
ATOM      1  C   UNL     1      -4.116   3.404  15.874  1.00  0.00     0.012 C 
ATOM      2  C   UNL     1      -5.648   3.434  16.158  1.00  0.00    -0.020 C 
ATOM      3  C   UNL     1      -6.491   2.653  15.122  1.00  0.00     0.003 C 
ATOM      4  C   UNL     1      -6.250   3.452  13.811  1.00  0.00     0.005 C 
ATOM      5  C   UNL     1      -6.165   4.917  14.309  1.00  0.00     0.015 C 
ATOM      6  C   UNL     1      -6.358   4.768  15.837  1.00  0.00     0.032 C 
ATOM      7  C   UNL     1      -7.801   4.363  16.005  1.00  0.00     0.139 C 
ATOM      8  O   UNL     1      -8.713   5.090  16.370  1.00  0.00    -0.299 OA
ATOM      9  C   UNL     1      -7.957   2.946  15.550  1.00  0.00     0.080 C 
ATOM     10  C   UNL     1      -5.927   5.987  16.660  1.00  0.00     0.020 C 
ATOM     11  C   UNL     1      -5.838   2.933  17.623  1.00  0.00     0.012 C 
ENDROOT
TORSDOF 0
ENDMDL
