MODEL 1
REMARK VINA RESULT:    -4.297      0.000      0.000
REMARK INTER + INTRA:         -14.952
REMARK INTER:                  -9.824
REMARK INTRA:                  -5.128
REMARK UNBOUND:                -5.128
REMARK SMILES CCCCCCCCCCCCCCCCCCCCCCCC(=O)[O-]
REMARK SMILES IDX 13 1 14 2 15 3 16 4 17 5 18 6 19 7 20 8 21 9 22 10 23 11
REMARK SMILES IDX 24 12 25 13 26 14 12 15 11 16 10 17 9 18 8 19 7 20 6 21 5 22
REMARK SMILES IDX 4 23 3 24 2 25 1 26
REMARK H PARENT
REMARK Flexibility Score: inf
ROOT
ATOM      1  C   UNL     1       9.328 -18.069  25.295  1.00  0.00     0.000 C 
ENDROOT
BRANCH   1   2
ATOM      2  C   UNL     1       9.975 -16.676  25.283  1.00  0.00     0.000 C 
BRANCH   2   3
ATOM      3  C   UNL     1       8.953 -15.599  24.890  1.00  0.00     0.000 C 
BRANCH   3   4
ATOM      4  C   UNL     1       8.836 -15.418  23.367  1.00  0.00     0.000 C 
BRANCH   4   5
ATOM      5  C   UNL     1       7.486 -15.903  22.815  1.00  0.00     0.000 C 
BRANCH   5   6
ATOM      6  C   UNL     1       7.628 -17.112  21.872  1.00  0.00     0.000 C 
BRANCH   6   7
ATOM      7  C   UNL     1       9.012 -17.267  21.209  1.00  0.00     0.000 C 
BRANCH   7   8
ATOM      8  C   UNL     1       9.750 -18.578  21.538  1.00  0.00     0.000 C 
BRANCH   8   9
ATOM      9  C   UNL     1      11.255 -18.374  21.762  1.00  0.00     0.000 C 
BRANCH   9  10
ATOM     10  C   UNL     1      11.774 -19.283  22.885  1.00  0.00     0.006 C 
BRANCH  10  11
ATOM     11  C   UNL     1      11.067 -20.645  22.902  1.00  0.00     0.053 C 
BRANCH  11  12
ATOM     12  C   UNL     1      12.032 -21.773  22.691  1.00  0.00     0.041 C 
ATOM     13  O   UNL     1      13.247 -21.534  22.466  1.00  0.00    -0.550 OA
ATOM     14  O   UNL     1      11.596 -23.087  22.790  1.00  0.00    -0.550 OA
ENDBRANCH  11  12
ENDBRANCH  10  11
ENDBRANCH   9  10
ENDBRANCH   8   9
ENDBRANCH   7   8
ENDBRANCH   6   7
ENDBRANCH   5   6
ENDBRANCH   4   5
ENDBRANCH   3   4
ENDBRANCH   2   3
ENDBRANCH   1   2
BRANCH   1  15
ATOM     15  C   UNL     1       7.889 -18.058  25.843  1.00  0.00     0.000 C 
BRANCH  15  16
ATOM     16  C   UNL     1       6.877 -18.892  25.035  1.00  0.00     0.000 C 
BRANCH  16  17
ATOM     17  C   UNL     1       7.495 -19.989  24.148  1.00  0.00     0.000 C 
BRANCH  17  18
ATOM     18  C   UNL     1       6.475 -20.702  23.234  1.00  0.00    -0.000 C 
BRANCH  18  19
ATOM     19  C   UNL     1       7.058 -21.037  21.848  1.00  0.00    -0.000 C 
BRANCH  19  20
ATOM     20  C   UNL     1       8.042 -22.216  21.890  1.00  0.00    -0.000 C 
BRANCH  20  21
ATOM     21  C   UNL     1       8.845 -22.363  20.587  1.00  0.00    -0.000 C 
BRANCH  21  22
ATOM     22  C   UNL     1       8.414 -21.341  19.509  1.00  0.00    -0.000 C 
BRANCH  22  23
ATOM     23  C   UNL     1       9.566 -20.890  18.594  1.00  0.00    -0.000 C 
BRANCH  23  24
ATOM     24  C   UNL     1      10.976 -21.162  19.153  1.00  0.00    -0.000 C 
BRANCH  24  25
ATOM     25  C   UNL     1      12.061 -20.216  18.595  1.00  0.00    -0.003 C 
ATOM     26  C   UNL     1      13.440 -20.459  19.205  1.00  0.00     0.004 C 
ENDBRANCH  24  25
ENDBRANCH  23  24
ENDBRANCH  22  23
ENDBRANCH  21  22
ENDBRANCH  20  21
ENDBRANCH  19  20
ENDBRANCH  18  19
ENDBRANCH  17  18
ENDBRANCH  16  17
ENDBRANCH  15  16
ENDBRANCH   1  15
TORSDOF 22
ENDMDL
MODEL 2
REMARK VINA RESULT:    -4.245      1.738      4.034
REMARK INTER + INTRA:         -14.832
REMARK INTER:                 -10.164
REMARK INTRA:                  -4.669
REMARK UNBOUND:                -5.128
REMARK SMILES CCCCCCCCCCCCCCCCCCCCCCCC(=O)[O-]
REMARK SMILES IDX 13 1 14 2 15 3 16 4 17 5 18 6 19 7 20 8 21 9 22 10 23 11
REMARK SMILES IDX 24 12 25 13 26 14 12 15 11 16 10 17 9 18 8 19 7 20 6 21 5 22
REMARK SMILES IDX 4 23 3 24 2 25 1 26
REMARK H PARENT
REMARK Flexibility Score: inf
ROOT
ATOM      1  C   UNL     1       7.548 -17.690  21.169  1.00  0.00     0.000 C 
ENDROOT
BRANCH   1   2
ATOM      2  C   UNL     1       7.575 -16.160  21.037  1.00  0.00     0.000 C 
BRANCH   2   3
ATOM      3  C   UNL     1       6.883 -15.493  22.235  1.00  0.00     0.000 C 
BRANCH   3   4
ATOM      4  C   UNL     1       7.509 -15.894  23.581  1.00  0.00     0.000 C 
BRANCH   4   5
ATOM      5  C   UNL     1       8.857 -15.199  23.838  1.00  0.00     0.000 C 
BRANCH   5   6
ATOM      6  C   UNL     1       9.934 -16.167  24.362  1.00  0.00     0.000 C 
BRANCH   6   7
ATOM      7  C   UNL     1      11.338 -15.978  23.753  1.00  0.00     0.000 C 
BRANCH   7   8
ATOM      8  C   UNL     1      12.317 -17.141  23.997  1.00  0.00     0.000 C 
BRANCH   8   9
ATOM      9  C   UNL     1      11.875 -18.062  25.143  1.00  0.00     0.000 C 
BRANCH   9  10
ATOM     10  C   UNL     1      12.875 -19.209  25.346  1.00  0.00     0.006 C 
BRANCH  10  11
ATOM     11  C   UNL     1      13.809 -19.385  24.141  1.00  0.00     0.053 C 
BRANCH  11  12
ATOM     12  C   UNL     1      14.017 -20.832  23.808  1.00  0.00     0.041 C 
ATOM     13  O   UNL     1      14.364 -21.171  22.647  1.00  0.00    -0.550 OA
ATOM     14  O   UNL     1      13.871 -21.799  24.793  1.00  0.00    -0.550 OA
ENDBRANCH  11  12
ENDBRANCH  10  11
ENDBRANCH   9  10
ENDBRANCH   8   9
ENDBRANCH   7   8
ENDBRANCH   6   7
ENDBRANCH   5   6
ENDBRANCH   4   5
ENDBRANCH   3   4
ENDBRANCH   2   3
ENDBRANCH   1   2
BRANCH   1  15
ATOM     15  C   UNL     1       8.794 -18.367  20.569  1.00  0.00     0.000 C 
BRANCH  15  16
ATOM     16  C   UNL     1       9.965 -18.564  21.550  1.00  0.00     0.000 C 
BRANCH  16  17
ATOM     17  C   UNL     1      10.703 -19.911  21.425  1.00  0.00     0.000 C 
BRANCH  17  18
ATOM     18  C   UNL     1      10.665 -20.764  22.711  1.00  0.00    -0.000 C 
BRANCH  18  19
ATOM     19  C   UNL     1      10.816 -22.270  22.424  1.00  0.00    -0.000 C 
BRANCH  19  20
ATOM     20  C   UNL     1      10.182 -22.684  21.087  1.00  0.00    -0.000 C 
BRANCH  20  21
ATOM     21  C   UNL     1       8.698 -23.063  21.227  1.00  0.00    -0.000 C 
BRANCH  21  22
ATOM     22  C   UNL     1       7.761 -22.040  20.545  1.00  0.00    -0.000 C 
BRANCH  22  23
ATOM     23  C   UNL     1       6.714 -21.435  21.496  1.00  0.00    -0.000 C 
BRANCH  23  24
ATOM     24  C   UNL     1       7.185 -21.280  22.955  1.00  0.00    -0.000 C 
BRANCH  24  25
ATOM     25  C   UNL     1       6.704 -19.977  23.631  1.00  0.00    -0.003 C 
ATOM     26  C   UNL     1       7.724 -19.394  24.606  1.00  0.00     0.004 C 
ENDBRANCH  24  25
ENDBRANCH  23  24
ENDBRANCH  22  23
ENDBRANCH  21  22
ENDBRANCH  20  21
ENDBRANCH  19  20
ENDBRANCH  18  19
ENDBRANCH  17  18
ENDBRANCH  16  17
ENDBRANCH  15  16
ENDBRANCH   1  15
TORSDOF 22
ENDMDL
MODEL 3
REMARK VINA RESULT:    -4.107      2.939      4.634
REMARK INTER + INTRA:         -14.517
REMARK INTER:                 -10.234
REMARK INTRA:                  -4.284
REMARK UNBOUND:                -5.128
REMARK SMILES CCCCCCCCCCCCCCCCCCCCCCCC(=O)[O-]
REMARK SMILES IDX 13 1 14 2 15 3 16 4 17 5 18 6 19 7 20 8 21 9 22 10 23 11
REMARK SMILES IDX 24 12 25 13 26 14 12 15 11 16 10 17 9 18 8 19 7 20 6 21 5 22
REMARK SMILES IDX 4 23 3 24 2 25 1 26
REMARK H PARENT
REMARK Flexibility Score: inf
ROOT
ATOM      1  C   UNL     1       6.764 -20.115  24.667  1.00  0.00     0.000 C 
ENDROOT
BRANCH   1   2
ATOM      2  C   UNL     1       6.830 -18.614  24.991  1.00  0.00     0.000 C 
BRANCH   2   3
ATOM      3  C   UNL     1       8.180 -18.249  25.628  1.00  0.00     0.000 C 
BRANCH   3   4
ATOM      4  C   UNL     1       8.319 -16.742  25.902  1.00  0.00     0.000 C 
BRANCH   4   5
ATOM      5  C   UNL     1       9.538 -16.123  25.199  1.00  0.00     0.000 C 
BRANCH   5   6
ATOM      6  C   UNL     1      10.123 -17.038  24.108  1.00  0.00     0.000 C 
BRANCH   6   7
ATOM      7  C   UNL     1       9.950 -16.528  22.663  1.00  0.00     0.000 C 
BRANCH   7   8
ATOM      8  C   UNL     1       8.648 -16.967  21.968  1.00  0.00     0.000 C 
BRANCH   8   9
ATOM      9  C   UNL     1       7.451 -16.077  22.330  1.00  0.00     0.000 C 
BRANCH   9  10
ATOM     10  C   UNL     1       6.731 -15.581  21.068  1.00  0.00     0.006 C 
BRANCH  10  11
ATOM     11  C   UNL     1       7.067 -16.431  19.836  1.00  0.00     0.053 C 
BRANCH  11  12
ATOM     12  C   UNL     1       7.528 -15.585  18.687  1.00  0.00     0.041 C 
ATOM     13  O   UNL     1       6.817 -14.632  18.275  1.00  0.00    -0.550 OA
ATOM     14  O   UNL     1       8.766 -15.823  18.104  1.00  0.00    -0.550 OA
ENDBRANCH  11  12
ENDBRANCH  10  11
ENDBRANCH   9  10
ENDBRANCH   8   9
ENDBRANCH   7   8
ENDBRANCH   6   7
ENDBRANCH   5   6
ENDBRANCH   4   5
ENDBRANCH   3   4
ENDBRANCH   2   3
ENDBRANCH   1   2
BRANCH   1  15
ATOM     15  C   UNL     1       7.765 -20.539  23.577  1.00  0.00     0.000 C 
BRANCH  15  16
ATOM     16  C   UNL     1       7.304 -20.275  22.130  1.00  0.00     0.000 C 
BRANCH  16  17
ATOM     17  C   UNL     1       7.506 -21.451  21.156  1.00  0.00     0.000 C 
BRANCH  17  18
ATOM     18  C   UNL     1       8.084 -22.719  21.820  1.00  0.00    -0.000 C 
BRANCH  18  19
ATOM     19  C   UNL     1       9.406 -23.173  21.173  1.00  0.00    -0.000 C 
BRANCH  19  20
ATOM     20  C   UNL     1      10.626 -22.909  22.070  1.00  0.00    -0.000 C 
BRANCH  20  21
ATOM     21  C   UNL     1      11.589 -21.871  21.471  1.00  0.00    -0.000 C 
BRANCH  21  22
ATOM     22  C   UNL     1      11.197 -20.421  21.838  1.00  0.00    -0.000 C 
BRANCH  22  23
ATOM     23  C   UNL     1      10.814 -19.560  20.622  1.00  0.00    -0.000 C 
BRANCH  23  24
ATOM     24  C   UNL     1      11.082 -20.222  19.257  1.00  0.00    -0.000 C 
BRANCH  24  25
ATOM     25  C   UNL     1       9.799 -20.586  18.477  1.00  0.00    -0.003 C 
ATOM     26  C   UNL     1       8.832 -19.414  18.333  1.00  0.00     0.004 C 
ENDBRANCH  24  25
ENDBRANCH  23  24
ENDBRANCH  22  23
ENDBRANCH  21  22
ENDBRANCH  20  21
ENDBRANCH  19  20
ENDBRANCH  18  19
ENDBRANCH  17  18
ENDBRANCH  16  17
ENDBRANCH  15  16
ENDBRANCH   1  15
TORSDOF 22
ENDMDL
MODEL 4
REMARK VINA RESULT:    -4.069      2.168      4.953
REMARK INTER + INTRA:         -14.429
REMARK INTER:                 -10.217
REMARK INTRA:                  -4.212
REMARK UNBOUND:                -5.128
REMARK SMILES CCCCCCCCCCCCCCCCCCCCCCCC(=O)[O-]
REMARK SMILES IDX 13 1 14 2 15 3 16 4 17 5 18 6 19 7 20 8 21 9 22 10 23 11
REMARK SMILES IDX 24 12 25 13 26 14 12 15 11 16 10 17 9 18 8 19 7 20 6 21 5 22
REMARK SMILES IDX 4 23 3 24 2 25 1 26
REMARK H PARENT
REMARK Flexibility Score: inf
ROOT
ATOM      1  C   UNL     1      10.007 -22.880  21.556  1.00  0.00     0.000 C 
ENDROOT
BRANCH   1   2
ATOM      2  C   UNL     1      10.944 -21.913  22.295  1.00  0.00     0.000 C 
BRANCH   2   3
ATOM      3  C   UNL     1      10.165 -20.713  22.854  1.00  0.00     0.000 C 
BRANCH   3   4
ATOM      4  C   UNL     1      10.646 -19.371  22.276  1.00  0.00     0.000 C 
BRANCH   4   5
ATOM      5  C   UNL     1       9.507 -18.558  21.640  1.00  0.00     0.000 C 
BRANCH   5   6
ATOM      6  C   UNL     1       8.141 -18.836  22.295  1.00  0.00     0.000 C 
BRANCH   6   7
ATOM      7  C   UNL     1       7.518 -17.641  23.045  1.00  0.00     0.000 C 
BRANCH   7   8
ATOM      8  C   UNL     1       7.673 -16.279  22.345  1.00  0.00     0.000 C 
BRANCH   8   9
ATOM      9  C   UNL     1       7.848 -15.117  23.333  1.00  0.00     0.000 C 
BRANCH   9  10
ATOM     10  C   UNL     1       8.982 -15.407  24.328  1.00  0.00     0.006 C 
BRANCH  10  11
ATOM     11  C   UNL     1      10.355 -15.456  23.645  1.00  0.00     0.053 C 
BRANCH  11  12
ATOM     12  C   UNL     1      11.276 -16.425  24.322  1.00  0.00     0.041 C 
ATOM     13  O   UNL     1      10.913 -17.019  25.370  1.00  0.00    -0.550 OA
ATOM     14  O   UNL     1      12.518 -16.705  23.768  1.00  0.00    -0.550 OA
ENDBRANCH  11  12
ENDBRANCH  10  11
ENDBRANCH   9  10
ENDBRANCH   8   9
ENDBRANCH   7   8
ENDBRANCH   6   7
ENDBRANCH   5   6
ENDBRANCH   4   5
ENDBRANCH   3   4
ENDBRANCH   2   3
ENDBRANCH   1   2
BRANCH   1  15
ATOM     15  C   UNL     1       8.518 -22.569  21.789  1.00  0.00     0.000 C 
BRANCH  15  16
ATOM     16  C   UNL     1       7.745 -22.108  20.538  1.00  0.00     0.000 C 
BRANCH  16  17
ATOM     17  C   UNL     1       8.603 -21.918  19.273  1.00  0.00     0.000 C 
BRANCH  17  18
ATOM     18  C   UNL     1       8.670 -20.457  18.778  1.00  0.00    -0.000 C 
BRANCH  18  19
ATOM     19  C   UNL     1      10.013 -20.125  18.101  1.00  0.00    -0.000 C 
BRANCH  19  20
ATOM     20  C   UNL     1      11.191 -20.902  18.709  1.00  0.00    -0.000 C 
BRANCH  20  21
ATOM     21  C   UNL     1      12.412 -20.009  18.982  1.00  0.00    -0.000 C 
BRANCH  21  22
ATOM     22  C   UNL     1      13.592 -20.795  19.599  1.00  0.00    -0.000 C 
BRANCH  22  23
ATOM     23  C   UNL     1      14.087 -20.212  20.935  1.00  0.00    -0.000 C 
BRANCH  23  24
ATOM     24  C   UNL     1      13.846 -18.699  21.104  1.00  0.00    -0.000 C 
BRANCH  24  25
ATOM     25  C   UNL     1      15.116 -17.841  20.916  1.00  0.00    -0.003 C 
ATOM     26  C   UNL     1      16.294 -18.628  20.346  1.00  0.00     0.004 C 
ENDBRANCH  24  25
ENDBRANCH  23  24
ENDBRANCH  22  23
ENDBRANCH  21  22
ENDBRANCH  20  21
ENDBRANCH  19  20
ENDBRANCH  18  19
ENDBRANCH  17  18
ENDBRANCH  16  17
ENDBRANCH  15  16
ENDBRANCH   1  15
TORSDOF 22
ENDMDL
MODEL 5
REMARK VINA RESULT:    -4.040      2.650      4.625
REMARK INTER + INTRA:         -14.364
REMARK INTER:                  -9.958
REMARK INTRA:                  -4.406
REMARK UNBOUND:                -5.128
REMARK SMILES CCCCCCCCCCCCCCCCCCCCCCCC(=O)[O-]
REMARK SMILES IDX 13 1 14 2 15 3 16 4 17 5 18 6 19 7 20 8 21 9 22 10 23 11
REMARK SMILES IDX 24 12 25 13 26 14 12 15 11 16 10 17 9 18 8 19 7 20 6 21 5 22
REMARK SMILES IDX 4 23 3 24 2 25 1 26
REMARK H PARENT
REMARK Flexibility Score: inf
ROOT
ATOM      1  C   UNL     1       7.584 -19.772  23.643  1.00  0.00     0.000 C 
ENDROOT
BRANCH   1   2
ATOM      2  C   UNL     1       6.683 -19.271  24.782  1.00  0.00     0.000 C 
BRANCH   2   3
ATOM      3  C   UNL     1       7.505 -18.525  25.845  1.00  0.00     0.000 C 
BRANCH   3   4
ATOM      4  C   UNL     1       8.712 -17.783  25.249  1.00  0.00     0.000 C 
BRANCH   4   5
ATOM      5  C   UNL     1       8.593 -16.255  25.381  1.00  0.00     0.000 C 
BRANCH   5   6
ATOM      6  C   UNL     1       8.577 -15.540  24.018  1.00  0.00     0.000 C 
BRANCH   6   7
ATOM      7  C   UNL     1       7.290 -15.731  23.191  1.00  0.00     0.000 C 
BRANCH   7   8
ATOM      8  C   UNL     1       7.490 -16.398  21.818  1.00  0.00     0.000 C 
BRANCH   8   9
ATOM      9  C   UNL     1       8.790 -17.210  21.733  1.00  0.00     0.000 C 
BRANCH   9  10
ATOM     10  C   UNL     1       9.456 -17.043  20.360  1.00  0.00     0.006 C 
BRANCH  10  11
ATOM     11  C   UNL     1       9.206 -18.246  19.442  1.00  0.00     0.053 C 
BRANCH  11  12
ATOM     12  C   UNL     1       8.038 -18.016  18.532  1.00  0.00     0.041 C 
ATOM     13  O   UNL     1       8.157 -17.272  17.523  1.00  0.00    -0.550 OA
ATOM     14  O   UNL     1       6.831 -18.659  18.774  1.00  0.00    -0.550 OA
ENDBRANCH  11  12
ENDBRANCH  10  11
ENDBRANCH   9  10
ENDBRANCH   8   9
ENDBRANCH   7   8
ENDBRANCH   6   7
ENDBRANCH   5   6
ENDBRANCH   4   5
ENDBRANCH   3   4
ENDBRANCH   2   3
ENDBRANCH   1   2
BRANCH   1  15
ATOM     15  C   UNL     1       7.040 -21.041  22.962  1.00  0.00     0.000 C 
BRANCH  15  16
ATOM     16  C   UNL     1       6.935 -20.963  21.427  1.00  0.00     0.000 C 
BRANCH  16  17
ATOM     17  C   UNL     1       7.617 -22.117  20.666  1.00  0.00     0.000 C 
BRANCH  17  18
ATOM     18  C   UNL     1       8.415 -23.077  21.574  1.00  0.00    -0.000 C 
BRANCH  18  19
ATOM     19  C   UNL     1       9.927 -23.046  21.279  1.00  0.00    -0.000 C 
BRANCH  19  20
ATOM     20  C   UNL     1      10.700 -22.138  22.247  1.00  0.00    -0.000 C 
BRANCH  20  21
ATOM     21  C   UNL     1      10.716 -20.667  21.795  1.00  0.00    -0.000 C 
BRANCH  21  22
ATOM     22  C   UNL     1      11.180 -19.710  22.917  1.00  0.00    -0.000 C 
BRANCH  22  23
ATOM     23  C   UNL     1      12.220 -18.676  22.453  1.00  0.00    -0.000 C 
BRANCH  23  24
ATOM     24  C   UNL     1      12.844 -17.839  23.586  1.00  0.00    -0.000 C 
BRANCH  24  25
ATOM     25  C   UNL     1      12.081 -16.530  23.887  1.00  0.00    -0.003 C 
ATOM     26  C   UNL     1      12.033 -15.577  22.695  1.00  0.00     0.004 C 
ENDBRANCH  24  25
ENDBRANCH  23  24
ENDBRANCH  22  23
ENDBRANCH  21  22
ENDBRANCH  20  21
ENDBRANCH  19  20
ENDBRANCH  18  19
ENDBRANCH  17  18
ENDBRANCH  16  17
ENDBRANCH  15  16
ENDBRANCH   1  15
TORSDOF 22
ENDMDL
MODEL 6
REMARK VINA RESULT:    -4.038      1.793      4.776
REMARK INTER + INTRA:         -14.359
REMARK INTER:                  -9.677
REMARK INTRA:                  -4.682
REMARK UNBOUND:                -5.128
REMARK SMILES CCCCCCCCCCCCCCCCCCCCCCCC(=O)[O-]
REMARK SMILES IDX 13 1 14 2 15 3 16 4 17 5 18 6 19 7 20 8 21 9 22 10 23 11
REMARK SMILES IDX 24 12 25 13 26 14 12 15 11 16 10 17 9 18 8 19 7 20 6 21 5 22
REMARK SMILES IDX 4 23 3 24 2 25 1 26
REMARK H PARENT
REMARK Flexibility Score: inf
ROOT
ATOM      1  C   UNL     1       7.507 -15.540  22.145  1.00  0.00     0.000 C 
ENDROOT
BRANCH   1   2
ATOM      2  C   UNL     1       7.818 -15.169  23.603  1.00  0.00     0.000 C 
BRANCH   2   3
ATOM      3  C   UNL     1       9.325 -15.271  23.886  1.00  0.00     0.000 C 
BRANCH   3   4
ATOM      4  C   UNL     1       9.643 -16.164  25.097  1.00  0.00     0.000 C 
BRANCH   4   5
ATOM      5  C   UNL     1       8.377 -16.661  25.815  1.00  0.00     0.000 C 
BRANCH   5   6
ATOM      6  C   UNL     1       8.264 -18.196  25.827  1.00  0.00     0.000 C 
BRANCH   6   7
ATOM      7  C   UNL     1       7.131 -18.777  24.957  1.00  0.00     0.000 C 
BRANCH   7   8
ATOM      8  C   UNL     1       7.387 -20.194  24.412  1.00  0.00     0.000 C 
BRANCH   8   9
ATOM      9  C   UNL     1       6.416 -20.585  23.289  1.00  0.00     0.000 C 
BRANCH   9  10
ATOM     10  C   UNL     1       7.121 -20.583  21.925  1.00  0.00     0.006 C 
BRANCH  10  11
ATOM     11  C   UNL     1       7.432 -22.002  21.430  1.00  0.00     0.053 C 
BRANCH  11  12
ATOM     12  C   UNL     1       8.871 -22.149  21.036  1.00  0.00     0.041 C 
ATOM     13  O   UNL     1       9.722 -22.535  21.879  1.00  0.00    -0.550 OA
ATOM     14  O   UNL     1       9.261 -21.902  19.727  1.00  0.00    -0.550 OA
ENDBRANCH  11  12
ENDBRANCH  10  11
ENDBRANCH   9  10
ENDBRANCH   8   9
ENDBRANCH   7   8
ENDBRANCH   6   7
ENDBRANCH   5   6
ENDBRANCH   4   5
ENDBRANCH   3   4
ENDBRANCH   2   3
ENDBRANCH   1   2
BRANCH   1  15
ATOM     15  C   UNL     1       7.827 -17.010  21.817  1.00  0.00     0.000 C 
BRANCH  15  16
ATOM     16  C   UNL     1       8.949 -17.217  20.782  1.00  0.00     0.000 C 
BRANCH  16  17
ATOM     17  C   UNL     1       9.886 -18.408  21.063  1.00  0.00     0.000 C 
BRANCH  17  18
ATOM     18  C   UNL     1      10.174 -18.633  22.563  1.00  0.00    -0.000 C 
BRANCH  18  19
ATOM     19  C   UNL     1      11.418 -19.511  22.798  1.00  0.00    -0.000 C 
BRANCH  19  20
ATOM     20  C   UNL     1      11.984 -19.366  24.219  1.00  0.00    -0.000 C 
BRANCH  20  21
ATOM     21  C   UNL     1      13.421 -18.818  24.232  1.00  0.00    -0.000 C 
BRANCH  21  22
ATOM     22  C   UNL     1      14.086 -18.875  22.838  1.00  0.00    -0.000 C 
BRANCH  22  23
ATOM     23  C   UNL     1      14.447 -17.490  22.272  1.00  0.00    -0.000 C 
BRANCH  23  24
ATOM     24  C   UNL     1      13.796 -16.305  23.010  1.00  0.00    -0.000 C 
BRANCH  24  25
ATOM     25  C   UNL     1      12.582 -15.700  22.271  1.00  0.00    -0.003 C 
ATOM     26  C   UNL     1      12.624 -15.928  20.762  1.00  0.00     0.004 C 
ENDBRANCH  24  25
ENDBRANCH  23  24
ENDBRANCH  22  23
ENDBRANCH  21  22
ENDBRANCH  20  21
ENDBRANCH  19  20
ENDBRANCH  18  19
ENDBRANCH  17  18
ENDBRANCH  16  17
ENDBRANCH  15  16
ENDBRANCH   1  15
TORSDOF 22
ENDMDL
MODEL 7
REMARK VINA RESULT:    -3.987      1.866      4.775
REMARK INTER + INTRA:         -14.243
REMARK INTER:                  -9.896
REMARK INTRA:                  -4.347
REMARK UNBOUND:                -5.128
REMARK SMILES CCCCCCCCCCCCCCCCCCCCCCCC(=O)[O-]
REMARK SMILES IDX 13 1 14 2 15 3 16 4 17 5 18 6 19 7 20 8 21 9 22 10 23 11
REMARK SMILES IDX 24 12 25 13 26 14 12 15 11 16 10 17 9 18 8 19 7 20 6 21 5 22
REMARK SMILES IDX 4 23 3 24 2 25 1 26
REMARK H PARENT
REMARK Flexibility Score: inf
ROOT
ATOM      1  C   UNL     1       8.672 -19.375  23.777  1.00  0.00     0.000 C 
ENDROOT
BRANCH   1   2
ATOM      2  C   UNL     1       7.964 -19.578  22.430  1.00  0.00     0.000 C 
BRANCH   2   3
ATOM      3  C   UNL     1       7.045 -20.809  22.473  1.00  0.00     0.000 C 
BRANCH   3   4
ATOM      4  C   UNL     1       7.331 -21.803  21.335  1.00  0.00     0.000 C 
BRANCH   4   5
ATOM      5  C   UNL     1       8.228 -22.970  21.780  1.00  0.00     0.000 C 
BRANCH   5   6
ATOM      6  C   UNL     1       9.630 -22.918  21.145  1.00  0.00     0.000 C 
BRANCH   6   7
ATOM      7  C   UNL     1      10.789 -22.682  22.133  1.00  0.00     0.000 C 
BRANCH   7   8
ATOM      8  C   UNL     1      11.548 -21.356  21.945  1.00  0.00     0.000 C 
BRANCH   8   9
ATOM      9  C   UNL     1      12.605 -21.426  20.834  1.00  0.00     0.000 C 
BRANCH   9  10
ATOM     10  C   UNL     1      13.908 -20.740  21.269  1.00  0.00     0.006 C 
BRANCH  10  11
ATOM     11  C   UNL     1      14.286 -21.076  22.717  1.00  0.00     0.053 C 
BRANCH  11  12
ATOM     12  C   UNL     1      15.295 -20.111  23.264  1.00  0.00     0.041 C 
ATOM     13  O   UNL     1      15.787 -20.289  24.409  1.00  0.00    -0.550 OA
ATOM     14  O   UNL     1      15.724 -19.042  22.490  1.00  0.00    -0.550 OA
ENDBRANCH  11  12
ENDBRANCH  10  11
ENDBRANCH   9  10
ENDBRANCH   8   9
ENDBRANCH   7   8
ENDBRANCH   6   7
ENDBRANCH   5   6
ENDBRANCH   4   5
ENDBRANCH   3   4
ENDBRANCH   2   3
ENDBRANCH   1   2
BRANCH   1  15
ATOM     15  C   UNL     1       8.069 -18.226  24.606  1.00  0.00     0.000 C 
BRANCH  15  16
ATOM     16  C   UNL     1       7.250 -17.200  23.799  1.00  0.00     0.000 C 
BRANCH  16  17
ATOM     17  C   UNL     1       8.034 -15.956  23.340  1.00  0.00     0.000 C 
BRANCH  17  18
ATOM     18  C   UNL     1       9.172 -15.546  24.299  1.00  0.00    -0.000 C 
BRANCH  18  19
ATOM     19  C   UNL     1      10.552 -15.554  23.614  1.00  0.00    -0.000 C 
BRANCH  19  20
ATOM     20  C   UNL     1      11.422 -16.743  24.049  1.00  0.00    -0.000 C 
BRANCH  20  21
ATOM     21  C   UNL     1      11.932 -17.571  22.857  1.00  0.00    -0.000 C 
BRANCH  21  22
ATOM     22  C   UNL     1      10.988 -17.491  21.636  1.00  0.00    -0.000 C 
BRANCH  22  23
ATOM     23  C   UNL     1      11.664 -17.881  20.309  1.00  0.00    -0.000 C 
BRANCH  23  24
ATOM     24  C   UNL     1      10.688 -18.195  19.159  1.00  0.00    -0.000 C 
BRANCH  24  25
ATOM     25  C   UNL     1       9.798 -19.431  19.417  1.00  0.00    -0.003 C 
ATOM     26  C   UNL     1       9.853 -20.456  18.286  1.00  0.00     0.004 C 
ENDBRANCH  24  25
ENDBRANCH  23  24
ENDBRANCH  22  23
ENDBRANCH  21  22
ENDBRANCH  20  21
ENDBRANCH  19  20
ENDBRANCH  18  19
ENDBRANCH  17  18
ENDBRANCH  16  17
ENDBRANCH  15  16
ENDBRANCH   1  15
TORSDOF 22
ENDMDL
MODEL 8
REMARK VINA RESULT:    -3.986      2.242      4.694
REMARK INTER + INTRA:         -14.240
REMARK INTER:                  -9.848
REMARK INTRA:                  -4.391
REMARK UNBOUND:                -5.128
REMARK SMILES CCCCCCCCCCCCCCCCCCCCCCCC(=O)[O-]
REMARK SMILES IDX 13 1 14 2 15 3 16 4 17 5 18 6 19 7 20 8 21 9 22 10 23 11
REMARK SMILES IDX 24 12 25 13 26 14 12 15 11 16 10 17 9 18 8 19 7 20 6 21 5 22
REMARK SMILES IDX 4 23 3 24 2 25 1 26
REMARK H PARENT
REMARK Flexibility Score: inf
ROOT
ATOM      1  C   UNL     1       7.467 -16.184  20.950  1.00  0.00     0.000 C 
ENDROOT
BRANCH   1   2
ATOM      2  C   UNL     1       7.790 -16.681  22.367  1.00  0.00     0.000 C 
BRANCH   2   3
ATOM      3  C   UNL     1       7.706 -15.534  23.384  1.00  0.00     0.000 C 
BRANCH   3   4
ATOM      4  C   UNL     1       8.937 -15.464  24.304  1.00  0.00     0.000 C 
BRANCH   4   5
ATOM      5  C   UNL     1       8.698 -16.138  25.665  1.00  0.00     0.000 C 
BRANCH   5   6
ATOM      6  C   UNL     1       9.541 -17.413  25.852  1.00  0.00     0.000 C 
BRANCH   6   7
ATOM      7  C   UNL     1      10.631 -17.642  24.786  1.00  0.00     0.000 C 
BRANCH   7   8
ATOM      8  C   UNL     1      10.414 -18.871  23.884  1.00  0.00     0.000 C 
BRANCH   8   9
ATOM      9  C   UNL     1      11.269 -18.834  22.610  1.00  0.00     0.000 C 
BRANCH   9  10
ATOM     10  C   UNL     1      11.276 -17.428  21.992  1.00  0.00     0.006 C 
BRANCH  10  11
ATOM     11  C   UNL     1      12.590 -17.121  21.262  1.00  0.00     0.053 C 
BRANCH  11  12
ATOM     12  C   UNL     1      13.250 -15.889  21.803  1.00  0.00     0.041 C 
ATOM     13  O   UNL     1      13.718 -15.881  22.971  1.00  0.00    -0.550 OA
ATOM     14  O   UNL     1      13.389 -14.765  20.999  1.00  0.00    -0.550 OA
ENDBRANCH  11  12
ENDBRANCH  10  11
ENDBRANCH   9  10
ENDBRANCH   8   9
ENDBRANCH   7   8
ENDBRANCH   6   7
ENDBRANCH   5   6
ENDBRANCH   4   5
ENDBRANCH   3   4
ENDBRANCH   2   3
ENDBRANCH   1   2
BRANCH   1  15
ATOM     15  C   UNL     1       7.729 -17.246  19.866  1.00  0.00     0.000 C 
BRANCH  15  16
ATOM     16  C   UNL     1       8.023 -18.662  20.399  1.00  0.00     0.000 C 
BRANCH  16  17
ATOM     17  C   UNL     1       8.557 -19.656  19.351  1.00  0.00     0.000 C 
BRANCH  17  18
ATOM     18  C   UNL     1      10.098 -19.738  19.296  1.00  0.00    -0.000 C 
BRANCH  18  19
ATOM     19  C   UNL     1      10.603 -21.161  18.992  1.00  0.00    -0.000 C 
BRANCH  19  20
ATOM     20  C   UNL     1      11.442 -21.748  20.137  1.00  0.00    -0.000 C 
BRANCH  20  21
ATOM     21  C   UNL     1      10.596 -22.096  21.374  1.00  0.00    -0.000 C 
BRANCH  21  22
ATOM     22  C   UNL     1       9.419 -23.039  21.037  1.00  0.00    -0.000 C 
BRANCH  22  23
ATOM     23  C   UNL     1       8.132 -22.720  21.820  1.00  0.00    -0.000 C 
BRANCH  23  24
ATOM     24  C   UNL     1       8.182 -21.413  22.633  1.00  0.00    -0.000 C 
BRANCH  24  25
ATOM     25  C   UNL     1       6.790 -20.841  22.981  1.00  0.00    -0.003 C 
ATOM     26  C   UNL     1       6.822 -19.848  24.140  1.00  0.00     0.004 C 
ENDBRANCH  24  25
ENDBRANCH  23  24
ENDBRANCH  22  23
ENDBRANCH  21  22
ENDBRANCH  20  21
ENDBRANCH  19  20
ENDBRANCH  18  19
ENDBRANCH  17  18
ENDBRANCH  16  17
ENDBRANCH  15  16
ENDBRANCH   1  15
TORSDOF 22
ENDMDL
MODEL 9
REMARK VINA RESULT:    -3.940      2.122      3.141
REMARK INTER + INTRA:         -14.136
REMARK INTER:                 -10.066
REMARK INTRA:                  -4.070
REMARK UNBOUND:                -5.128
REMARK SMILES CCCCCCCCCCCCCCCCCCCCCCCC(=O)[O-]
REMARK SMILES IDX 13 1 14 2 15 3 16 4 17 5 18 6 19 7 20 8 21 9 22 10 23 11
REMARK SMILES IDX 24 12 25 13 26 14 12 15 11 16 10 17 9 18 8 19 7 20 6 21 5 22
REMARK SMILES IDX 4 23 3 24 2 25 1 26
REMARK H PARENT
REMARK Flexibility Score: inf
ROOT
ATOM      1  C   UNL     1       7.256 -17.068  23.663  1.00  0.00     0.000 C 
ENDROOT
BRANCH   1   2
ATOM      2  C   UNL     1       8.105 -15.870  23.212  1.00  0.00     0.000 C 
BRANCH   2   3
ATOM      3  C   UNL     1       8.970 -15.344  24.368  1.00  0.00     0.000 C 
BRANCH   3   4
ATOM      4  C   UNL     1       9.968 -16.393  24.888  1.00  0.00     0.000 C 
BRANCH   4   5
ATOM      5  C   UNL     1      11.078 -16.709  23.872  1.00  0.00     0.000 C 
BRANCH   5   6
ATOM      6  C   UNL     1      11.669 -15.442  23.225  1.00  0.00     0.000 C 
BRANCH   6   7
ATOM      7  C   UNL     1      13.065 -15.618  22.594  1.00  0.00     0.000 C 
BRANCH   7   8
ATOM      8  C   UNL     1      13.658 -17.035  22.705  1.00  0.00     0.000 C 
BRANCH   8   9
ATOM      9  C   UNL     1      14.739 -17.312  21.652  1.00  0.00     0.000 C 
BRANCH   9  10
ATOM     10  C   UNL     1      14.946 -18.821  21.458  1.00  0.00     0.006 C 
BRANCH  10  11
ATOM     11  C   UNL     1      15.793 -19.440  22.578  1.00  0.00     0.053 C 
BRANCH  11  12
ATOM     12  C   UNL     1      15.017 -20.451  23.366  1.00  0.00     0.041 C 
ATOM     13  O   UNL     1      15.024 -21.662  23.025  1.00  0.00    -0.550 OA
ATOM     14  O   UNL     1      14.323 -20.060  24.504  1.00  0.00    -0.550 OA
ENDBRANCH  11  12
ENDBRANCH  10  11
ENDBRANCH   9  10
ENDBRANCH   8   9
ENDBRANCH   7   8
ENDBRANCH   6   7
ENDBRANCH   5   6
ENDBRANCH   4   5
ENDBRANCH   3   4
ENDBRANCH   2   3
ENDBRANCH   1   2
BRANCH   1  15
ATOM     15  C   UNL     1       7.511 -18.334  22.825  1.00  0.00     0.000 C 
BRANCH  15  16
ATOM     16  C   UNL     1       7.795 -19.610  23.642  1.00  0.00     0.000 C 
BRANCH  16  17
ATOM     17  C   UNL     1       7.247 -20.913  23.030  1.00  0.00     0.000 C 
BRANCH  17  18
ATOM     18  C   UNL     1       7.150 -20.885  21.489  1.00  0.00    -0.000 C 
BRANCH  18  19
ATOM     19  C   UNL     1       8.258 -21.715  20.814  1.00  0.00    -0.000 C 
BRANCH  19  20
ATOM     20  C   UNL     1       8.746 -22.877  21.693  1.00  0.00    -0.000 C 
BRANCH  20  21
ATOM     21  C   UNL     1      10.280 -22.955  21.774  1.00  0.00    -0.000 C 
BRANCH  21  22
ATOM     22  C   UNL     1      10.972 -22.125  20.668  1.00  0.00    -0.000 C 
BRANCH  22  23
ATOM     23  C   UNL     1      11.996 -21.112  21.210  1.00  0.00    -0.000 C 
BRANCH  23  24
ATOM     24  C   UNL     1      11.384 -19.946  22.009  1.00  0.00    -0.000 C 
BRANCH  24  25
ATOM     25  C   UNL     1      10.661 -18.900  21.132  1.00  0.00    -0.003 C 
ATOM     26  C   UNL     1      11.515 -18.397  19.970  1.00  0.00     0.004 C 
ENDBRANCH  24  25
ENDBRANCH  23  24
ENDBRANCH  22  23
ENDBRANCH  21  22
ENDBRANCH  20  21
ENDBRANCH  19  20
ENDBRANCH  18  19
ENDBRANCH  17  18
ENDBRANCH  16  17
ENDBRANCH  15  16
ENDBRANCH   1  15
TORSDOF 22
ENDMDL
