MODEL 1
REMARK VINA RESULT:    10.609      0.000      0.000
REMARK INTER + INTRA:          11.850
REMARK INTER:                  11.850
REMARK INTRA:                   0.000
REMARK UNBOUND:                 0.000
REMARK SMILES Oc1cc(O)c2c(ccc3ccc(O)c(O)c32)c1
REMARK SMILES IDX 9 1 8 2 7 3 18 4 2 5 3 6 4 7 6 8 17 9 10 10 11 11 12 12
REMARK SMILES IDX 13 13 15 14 16 15 1 17 5 19 14 21
REMARK H PARENT 16 16 1 18 5 20 14 22
REMARK Flexibility Score: inf
ROOT
ATOM      1  C   UNL     1      10.763  13.545   2.121  1.00  0.00     0.009 A 
ATOM      2  C   UNL     1       9.459  13.109   1.927  1.00  0.00     0.009 A 
ATOM      3  C   UNL     1       8.426  14.031   1.726  1.00  0.00    -0.010 A 
ATOM      4  C   UNL     1       7.108  13.568   1.608  1.00  0.00     0.055 A 
ATOM      5  C   UNL     1       6.045  14.471   1.538  1.00  0.00     0.119 A 
ATOM      6  C   UNL     1       6.293  15.837   1.649  1.00  0.00     0.093 A 
ATOM      7  C   UNL     1       7.602  16.320   1.789  1.00  0.00     0.127 A 
ATOM      8  C   UNL     1       8.707  15.428   1.691  1.00  0.00     0.035 A 
ATOM      9  C   UNL     1      10.076  15.850   1.664  1.00  0.00     0.039 A 
ATOM     10  C   UNL     1      11.085  14.899   1.986  1.00  0.00    -0.014 A 
ATOM     11  C   UNL     1      12.419  15.302   2.124  1.00  0.00     0.013 A 
ATOM     12  C   UNL     1      12.781  16.624   1.893  1.00  0.00     0.051 A 
ATOM     13  C   UNL     1      11.839  17.544   1.433  1.00  0.00     0.158 A 
ATOM     14  C   UNL     1      10.500  17.138   1.226  1.00  0.00     0.166 A 
ENDROOT
BRANCH  14  15
ATOM     15  O   UNL     1       9.631  17.943   0.486  1.00  0.00    -0.504 OA
ATOM     16  H   UNL     1       8.779  17.606   0.058  1.00  0.00     0.293 HD
ENDBRANCH  14  15
BRANCH   5  17
ATOM     17  O   UNL     1       4.735  14.019   1.399  1.00  0.00    -0.508 OA
ATOM     18  H   UNL     1       4.519  13.167   0.895  1.00  0.00     0.293 HD
ENDBRANCH   5  17
BRANCH   7  19
ATOM     19  O   UNL     1       7.779  17.662   2.123  1.00  0.00    -0.507 OA
ATOM     20  H   UNL     1       7.823  17.974   3.087  1.00  0.00     0.293 HD
ENDBRANCH   7  19
BRANCH  13  21
ATOM     21  O   UNL     1      12.270  18.848   1.182  1.00  0.00    -0.504 OA
ATOM     22  H   UNL     1      12.758  19.122   0.340  1.00  0.00     0.293 HD
ENDBRANCH  13  21
TORSDOF 4
ENDMDL
