MODEL 1
REMARK VINA RESULT:    -5.085      0.000      0.000
REMARK INTER + INTRA:          -5.723
REMARK INTER:                  -5.679
REMARK INTRA:                  -0.044
REMARK UNBOUND:                -0.044
REMARK SMILES O=C([O-])c1ccc(O)c(O)c1
REMARK SMILES IDX 4 1 11 2 5 3 9 4 6 5 7 6 2 7 1 8 3 9 10 10 8 12
REMARK H PARENT 10 11 8 13
REMARK Flexibility Score: inf
ROOT
ATOM      1  C   UNL     1       3.779  10.845   4.653  1.00  0.00     0.001 A 
ATOM      2  C   UNL     1       4.327  12.121   4.428  1.00  0.00     0.060 A 
ATOM      3  C   UNL     1       4.335   9.738   3.988  1.00  0.00     0.014 A 
ATOM      4  C   UNL     1       5.412  12.287   3.554  1.00  0.00     0.158 A 
ATOM      5  C   UNL     1       5.416   9.904   3.118  1.00  0.00     0.051 A 
ATOM      6  C   UNL     1       5.957  11.177   2.898  1.00  0.00     0.157 A 
ENDROOT
BRANCH   1   7
ATOM      7  C   UNL     1       2.636  10.666   5.573  1.00  0.00     0.072 C 
ATOM      8  O   UNL     1       1.944   9.613   5.539  1.00  0.00    -0.545 OA
ATOM      9  O   UNL     1       2.307  11.657   6.491  1.00  0.00    -0.545 OA
ENDBRANCH   1   7
BRANCH   4  10
ATOM     10  O   UNL     1       5.952  13.553   3.334  1.00  0.00    -0.504 OA
ATOM     11  H   UNL     1       5.872  14.016   2.436  1.00  0.00     0.293 HD
ENDBRANCH   4  10
BRANCH   6  12
ATOM     12  O   UNL     1       7.034  11.347   2.030  1.00  0.00    -0.504 OA
ATOM     13  H   UNL     1       7.382  12.269   1.793  1.00  0.00     0.293 HD
ENDBRANCH   6  12
TORSDOF 3
ENDMDL
MODEL 2
REMARK VINA RESULT:    -5.054      1.858      2.832
REMARK INTER + INTRA:          -5.688
REMARK INTER:                  -5.652
REMARK INTRA:                  -0.036
REMARK UNBOUND:                -0.044
REMARK SMILES O=C([O-])c1ccc(O)c(O)c1
REMARK SMILES IDX 4 1 11 2 5 3 9 4 6 5 7 6 2 7 1 8 3 9 10 10 8 12
REMARK H PARENT 10 11 8 13
REMARK Flexibility Score: inf
ROOT
ATOM      1  C   UNL     1       4.534   9.432   3.909  1.00  0.00     0.001 A 
ATOM      2  C   UNL     1       5.591   9.712   3.024  1.00  0.00     0.060 A 
ATOM      3  C   UNL     1       3.936  10.491   4.613  1.00  0.00     0.014 A 
ATOM      4  C   UNL     1       6.042  11.029   2.846  1.00  0.00     0.158 A 
ATOM      5  C   UNL     1       4.385  11.802   4.436  1.00  0.00     0.051 A 
ATOM      6  C   UNL     1       5.438  12.075   3.553  1.00  0.00     0.157 A 
ENDROOT
BRANCH   1   7
ATOM      7  C   UNL     1       4.056   8.045   4.098  1.00  0.00     0.072 C 
ATOM      8  O   UNL     1       3.022   7.636   3.505  1.00  0.00    -0.545 OA
ATOM      9  O   UNL     1       4.742   7.171   4.935  1.00  0.00    -0.545 OA
ENDBRANCH   1   7
BRANCH   4  10
ATOM     10  O   UNL     1       7.090  11.303   1.969  1.00  0.00    -0.504 OA
ATOM     11  H   UNL     1       7.597  12.179   2.004  1.00  0.00     0.293 HD
ENDBRANCH   4  10
BRANCH   6  12
ATOM     12  O   UNL     1       5.889  13.381   3.374  1.00  0.00    -0.504 OA
ATOM     13  H   UNL     1       6.874  13.613   3.429  1.00  0.00     0.293 HD
ENDBRANCH   6  12
TORSDOF 3
ENDMDL
MODEL 3
REMARK VINA RESULT:    -4.551      3.514      4.621
REMARK INTER + INTRA:          -5.127
REMARK INTER:                  -5.088
REMARK INTRA:                  -0.039
REMARK UNBOUND:                -0.044
REMARK SMILES O=C([O-])c1ccc(O)c(O)c1
REMARK SMILES IDX 4 1 11 2 5 3 9 4 6 5 7 6 2 7 1 8 3 9 10 10 8 12
REMARK H PARENT 10 11 8 13
REMARK Flexibility Score: inf
ROOT
ATOM      1  C   UNL     1       5.403   7.223   2.027  1.00  0.00     0.001 A 
ATOM      2  C   UNL     1       4.780   8.285   2.707  1.00  0.00     0.060 A 
ATOM      3  C   UNL     1       6.598   7.467   1.328  1.00  0.00     0.014 A 
ATOM      4  C   UNL     1       5.345   9.570   2.691  1.00  0.00     0.158 A 
ATOM      5  C   UNL     1       7.159   8.747   1.312  1.00  0.00     0.051 A 
ATOM      6  C   UNL     1       6.536   9.801   1.992  1.00  0.00     0.157 A 
ENDROOT
BRANCH   1   7
ATOM      7  C   UNL     1       4.811   5.867   2.042  1.00  0.00     0.072 C 
ATOM      8  O   UNL     1       3.590   5.697   1.783  1.00  0.00    -0.545 OA
ATOM      9  O   UNL     1       5.596   4.759   2.343  1.00  0.00    -0.545 OA
ENDBRANCH   1   7
BRANCH   4  10
ATOM     10  O   UNL     1       4.726  10.620   3.366  1.00  0.00    -0.504 OA
ATOM     11  H   UNL     1       4.928  11.588   3.144  1.00  0.00     0.293 HD
ENDBRANCH   4  10
BRANCH   6  12
ATOM     12  O   UNL     1       7.091  11.078   1.977  1.00  0.00    -0.504 OA
ATOM     13  H   UNL     1       6.784  11.797   2.622  1.00  0.00     0.293 HD
ENDBRANCH   6  12
TORSDOF 3
ENDMDL
MODEL 4
REMARK VINA RESULT:    -4.534      1.242      2.349
REMARK INTER + INTRA:          -5.107
REMARK INTER:                  -5.071
REMARK INTRA:                  -0.036
REMARK UNBOUND:                -0.044
REMARK SMILES O=C([O-])c1ccc(O)c(O)c1
REMARK SMILES IDX 4 1 11 2 5 3 9 4 6 5 7 6 2 7 1 8 3 9 10 10 8 12
REMARK H PARENT 10 11 8 13
REMARK Flexibility Score: inf
ROOT
ATOM      1  C   UNL     1       4.120  10.089   4.667  1.00  0.00     0.001 A 
ATOM      2  C   UNL     1       4.456   9.251   3.588  1.00  0.00     0.060 A 
ATOM      3  C   UNL     1       4.787  11.319   4.809  1.00  0.00     0.014 A 
ATOM      4  C   UNL     1       5.443   9.636   2.667  1.00  0.00     0.158 A 
ATOM      5  C   UNL     1       5.769  11.701   3.892  1.00  0.00     0.051 A 
ATOM      6  C   UNL     1       6.100  10.863   2.820  1.00  0.00     0.157 A 
ENDROOT
BRANCH   1   7
ATOM      7  C   UNL     1       3.080   9.687   5.639  1.00  0.00     0.072 C 
ATOM      8  O   UNL     1       1.880  10.036   5.476  1.00  0.00    -0.545 OA
ATOM      9  O   UNL     1       3.412   8.918   6.749  1.00  0.00    -0.545 OA
ENDBRANCH   1   7
BRANCH   4  10
ATOM     10  O   UNL     1       5.774   8.803   1.600  1.00  0.00    -0.504 OA
ATOM     11  H   UNL     1       5.513   9.031   0.647  1.00  0.00     0.293 HD
ENDBRANCH   4  10
BRANCH   6  12
ATOM     12  O   UNL     1       7.080  11.241   1.904  1.00  0.00    -0.504 OA
ATOM     13  H   UNL     1       8.052  10.988   2.034  1.00  0.00     0.293 HD
ENDBRANCH   6  12
TORSDOF 3
ENDMDL
MODEL 5
REMARK VINA RESULT:    -4.501      2.063      3.456
REMARK INTER + INTRA:          -5.070
REMARK INTER:                  -5.032
REMARK INTRA:                  -0.039
REMARK UNBOUND:                -0.044
REMARK SMILES O=C([O-])c1ccc(O)c(O)c1
REMARK SMILES IDX 4 1 11 2 5 3 9 4 6 5 7 6 2 7 1 8 3 9 10 10 8 12
REMARK H PARENT 10 11 8 13
REMARK Flexibility Score: inf
ROOT
ATOM      1  C   UNL     1       4.756   9.580   3.590  1.00  0.00     0.001 A 
ATOM      2  C   UNL     1       5.480  10.707   3.159  1.00  0.00     0.060 A 
ATOM      3  C   UNL     1       3.722   9.751   4.526  1.00  0.00     0.014 A 
ATOM      4  C   UNL     1       5.173  11.984   3.655  1.00  0.00     0.158 A 
ATOM      5  C   UNL     1       3.417  11.022   5.020  1.00  0.00     0.051 A 
ATOM      6  C   UNL     1       4.140  12.141   4.587  1.00  0.00     0.157 A 
ENDROOT
BRANCH   1   7
ATOM      7  C   UNL     1       5.076   8.234   3.068  1.00  0.00     0.072 C 
ATOM      8  O   UNL     1       5.278   7.272   3.858  1.00  0.00    -0.545 OA
ATOM      9  O   UNL     1       5.159   8.010   1.699  1.00  0.00    -0.545 OA
ENDBRANCH   1   7
BRANCH   4  10
ATOM     10  O   UNL     1       5.891  13.098   3.227  1.00  0.00    -0.504 OA
ATOM     11  H   UNL     1       5.470  13.807   2.636  1.00  0.00     0.293 HD
ENDBRANCH   4  10
BRANCH   6  12
ATOM     12  O   UNL     1       3.839  13.410   5.079  1.00  0.00    -0.504 OA
ATOM     13  H   UNL     1       2.925  13.827   4.945  1.00  0.00     0.293 HD
ENDBRANCH   6  12
TORSDOF 3
ENDMDL
MODEL 6
REMARK VINA RESULT:    -4.493      1.507      2.069
REMARK INTER + INTRA:          -5.062
REMARK INTER:                  -5.022
REMARK INTRA:                  -0.040
REMARK UNBOUND:                -0.044
REMARK SMILES O=C([O-])c1ccc(O)c(O)c1
REMARK SMILES IDX 4 1 11 2 5 3 9 4 6 5 7 6 2 7 1 8 3 9 10 10 8 12
REMARK H PARENT 10 11 8 13
REMARK Flexibility Score: inf
ROOT
ATOM      1  C   UNL     1       4.390   9.637   3.951  1.00  0.00     0.001 A 
ATOM      2  C   UNL     1       5.272  10.615   3.460  1.00  0.00     0.060 A 
ATOM      3  C   UNL     1       4.466   8.330   3.439  1.00  0.00     0.014 A 
ATOM      4  C   UNL     1       6.216  10.292   2.472  1.00  0.00     0.158 A 
ATOM      5  C   UNL     1       5.406   8.009   2.456  1.00  0.00     0.051 A 
ATOM      6  C   UNL     1       6.283   8.987   1.970  1.00  0.00     0.157 A 
ENDROOT
BRANCH   1   7
ATOM      7  C   UNL     1       3.394   9.973   4.992  1.00  0.00     0.072 C 
ATOM      8  O   UNL     1       3.186   9.189   5.958  1.00  0.00    -0.545 OA
ATOM      9  O   UNL     1       2.672  11.159   4.921  1.00  0.00    -0.545 OA
ENDBRANCH   1   7
BRANCH   4  10
ATOM     10  O   UNL     1       7.089  11.265   1.987  1.00  0.00    -0.504 OA
ATOM     11  H   UNL     1       7.405  11.262   1.024  1.00  0.00     0.293 HD
ENDBRANCH   4  10
BRANCH   6  12
ATOM     12  O   UNL     1       7.220   8.672   0.989  1.00  0.00    -0.504 OA
ATOM     13  H   UNL     1       6.979   8.093   0.193  1.00  0.00     0.293 HD
ENDBRANCH   6  12
TORSDOF 3
ENDMDL
MODEL 7
REMARK VINA RESULT:    -4.400      1.694      2.610
REMARK INTER + INTRA:          -4.958
REMARK INTER:                  -4.922
REMARK INTRA:                  -0.036
REMARK UNBOUND:                -0.044
REMARK SMILES O=C([O-])c1ccc(O)c(O)c1
REMARK SMILES IDX 4 1 11 2 5 3 9 4 6 5 7 6 2 7 1 8 3 9 10 10 8 12
REMARK H PARENT 10 11 8 13
REMARK Flexibility Score: inf
ROOT
ATOM      1  C   UNL     1       4.588   9.542   3.966  1.00  0.00     0.001 A 
ATOM      2  C   UNL     1       3.926  10.621   4.579  1.00  0.00     0.060 A 
ATOM      3  C   UNL     1       5.680   9.804   3.120  1.00  0.00     0.014 A 
ATOM      4  C   UNL     1       4.350  11.940   4.352  1.00  0.00     0.158 A 
ATOM      5  C   UNL     1       6.102  11.117   2.894  1.00  0.00     0.051 A 
ATOM      6  C   UNL     1       5.440  12.187   3.508  1.00  0.00     0.157 A 
ENDROOT
BRANCH   1   7
ATOM      7  C   UNL     1       4.144   8.151   4.203  1.00  0.00     0.072 C 
ATOM      8  O   UNL     1       3.223   7.645   3.509  1.00  0.00    -0.545 OA
ATOM      9  O   UNL     1       4.738   7.382   5.198  1.00  0.00    -0.545 OA
ENDBRANCH   1   7
BRANCH   4  10
ATOM     10  O   UNL     1       3.693  13.007   4.961  1.00  0.00    -0.504 OA
ATOM     11  H   UNL     1       4.061  13.950   4.922  1.00  0.00     0.293 HD
ENDBRANCH   4  10
BRANCH   6  12
ATOM     12  O   UNL     1       5.857  13.498   3.284  1.00  0.00    -0.504 OA
ATOM     13  H   UNL     1       5.191  14.257   3.193  1.00  0.00     0.293 HD
ENDBRANCH   6  12
TORSDOF 3
ENDMDL
MODEL 8
REMARK VINA RESULT:    -4.283      3.016      4.651
REMARK INTER + INTRA:          -4.827
REMARK INTER:                  -4.791
REMARK INTRA:                  -0.036
REMARK UNBOUND:                -0.044
REMARK SMILES O=C([O-])c1ccc(O)c(O)c1
REMARK SMILES IDX 4 1 11 2 5 3 9 4 6 5 7 6 2 7 1 8 3 9 10 10 8 12
REMARK H PARENT 10 11 8 13
REMARK Flexibility Score: inf
ROOT
ATOM      1  C   UNL     1       6.054   7.748   2.572  1.00  0.00     0.001 A 
ATOM      2  C   UNL     1       6.777   8.866   2.117  1.00  0.00     0.060 A 
ATOM      3  C   UNL     1       4.899   7.952   3.348  1.00  0.00     0.014 A 
ATOM      4  C   UNL     1       6.352  10.166   2.433  1.00  0.00     0.158 A 
ATOM      5  C   UNL     1       4.478   9.247   3.662  1.00  0.00     0.051 A 
ATOM      6  C   UNL     1       5.201  10.356   3.207  1.00  0.00     0.157 A 
ENDROOT
BRANCH   1   7
ATOM      7  C   UNL     1       6.498   6.377   2.241  1.00  0.00     0.072 C 
ATOM      8  O   UNL     1       6.055   5.789   1.218  1.00  0.00    -0.545 OA
ATOM      9  O   UNL     1       7.411   5.715   3.054  1.00  0.00    -0.545 OA
ENDBRANCH   1   7
BRANCH   4  10
ATOM     10  O   UNL     1       7.071  11.271   1.981  1.00  0.00    -0.504 OA
ATOM     11  H   UNL     1       6.881  12.205   2.325  1.00  0.00     0.293 HD
ENDBRANCH   4  10
BRANCH   6  12
ATOM     12  O   UNL     1       4.784  11.648   3.519  1.00  0.00    -0.504 OA
ATOM     13  H   UNL     1       3.802  11.898   3.538  1.00  0.00     0.293 HD
ENDBRANCH   6  12
TORSDOF 3
ENDMDL
MODEL 9
REMARK VINA RESULT:    -4.260      1.169      2.372
REMARK INTER + INTRA:          -4.802
REMARK INTER:                  -4.763
REMARK INTRA:                  -0.038
REMARK UNBOUND:                -0.044
REMARK SMILES O=C([O-])c1ccc(O)c(O)c1
REMARK SMILES IDX 4 1 11 2 5 3 9 4 6 5 7 6 2 7 1 8 3 9 10 10 8 12
REMARK H PARENT 10 11 8 13
REMARK Flexibility Score: inf
ROOT
ATOM      1  C   UNL     1       3.972  10.969   5.137  1.00  0.00     0.001 A 
ATOM      2  C   UNL     1       4.881  10.863   4.068  1.00  0.00     0.060 A 
ATOM      3  C   UNL     1       3.831  12.205   5.792  1.00  0.00     0.014 A 
ATOM      4  C   UNL     1       5.635  11.974   3.661  1.00  0.00     0.158 A 
ATOM      5  C   UNL     1       4.582  13.311   5.386  1.00  0.00     0.051 A 
ATOM      6  C   UNL     1       5.485  13.200   4.321  1.00  0.00     0.157 A 
ENDROOT
BRANCH   1   7
ATOM      7  C   UNL     1       3.175   9.800   5.568  1.00  0.00     0.072 C 
ATOM      8  O   UNL     1       3.742   8.723   5.895  1.00  0.00    -0.545 OA
ATOM      9  O   UNL     1       1.787   9.873   5.619  1.00  0.00    -0.545 OA
ENDBRANCH   1   7
BRANCH   4  10
ATOM     10  O   UNL     1       6.534  11.866   2.602  1.00  0.00    -0.504 OA
ATOM     11  H   UNL     1       6.314  12.222   1.679  1.00  0.00     0.293 HD
ENDBRANCH   4  10
BRANCH   6  12
ATOM     12  O   UNL     1       6.237  14.300   3.914  1.00  0.00    -0.504 OA
ATOM     13  H   UNL     1       5.892  15.247   4.024  1.00  0.00     0.293 HD
ENDBRANCH   6  12
TORSDOF 3
ENDMDL
