MODEL 1
REMARK VINA RESULT:    -3.729      0.000      0.000
REMARK INTER + INTRA:          -4.170
REMARK INTER:                  -4.165
REMARK INTRA:                  -0.005
REMARK UNBOUND:                -0.005
REMARK SMILES CCCC(=O)[O-]
REMARK SMILES IDX 3 1 4 2 5 3 6 4 2 5 1 6
REMARK H PARENT
REMARK Flexibility Score: inf
ROOT
ATOM      1  C   UNL     1       6.881  32.304  34.186  1.00  0.00     0.052 C 
ENDROOT
BRANCH   1   2
ATOM      2  C   UNL     1       5.938  32.433  33.030  1.00  0.00     0.041 C 
ATOM      3  O   UNL     1       4.703  32.247  33.197  1.00  0.00    -0.550 OA
ATOM      4  O   UNL     1       6.416  32.792  31.777  1.00  0.00    -0.550 OA
ENDBRANCH   1   2
BRANCH   1   5
ATOM      5  C   UNL     1       6.714  33.452  35.189  1.00  0.00     0.003 C 
ATOM      6  C   UNL     1       7.786  33.433  36.279  1.00  0.00     0.004 C 
ENDBRANCH   1   5
TORSDOF 2
ENDMDL
MODEL 2
REMARK VINA RESULT:    -3.677      2.019      2.788
REMARK INTER + INTRA:          -4.113
REMARK INTER:                  -4.066
REMARK INTRA:                  -0.047
REMARK UNBOUND:                -0.005
REMARK SMILES CCCC(=O)[O-]
REMARK SMILES IDX 3 1 4 2 5 3 6 4 2 5 1 6
REMARK H PARENT
REMARK Flexibility Score: inf
ROOT
ATOM      1  C   UNL     1       8.383  33.410  36.151  1.00  0.00     0.052 C 
ENDROOT
BRANCH   1   2
ATOM      2  C   UNL     1       7.516  32.999  35.002  1.00  0.00     0.041 C 
ATOM      3  O   UNL     1       7.955  32.202  34.131  1.00  0.00    -0.550 OA
ATOM      4  O   UNL     1       6.211  33.466  34.910  1.00  0.00    -0.550 OA
ENDBRANCH   1   2
BRANCH   1   5
ATOM      5  C   UNL     1       7.560  33.686  37.416  1.00  0.00     0.003 C 
ATOM      6  C   UNL     1       7.325  32.424  38.245  1.00  0.00     0.004 C 
ENDBRANCH   1   5
TORSDOF 2
ENDMDL
MODEL 3
REMARK VINA RESULT:    -3.655      7.352      7.851
REMARK INTER + INTRA:          -4.088
REMARK INTER:                  -4.081
REMARK INTRA:                  -0.007
REMARK UNBOUND:                -0.005
REMARK SMILES CCCC(=O)[O-]
REMARK SMILES IDX 3 1 4 2 5 3 6 4 2 5 1 6
REMARK H PARENT
REMARK Flexibility Score: inf
ROOT
ATOM      1  C   UNL     1       3.332  26.373  37.788  1.00  0.00     0.052 C 
ENDROOT
BRANCH   1   2
ATOM      2  C   UNL     1       4.476  26.982  37.039  1.00  0.00     0.041 C 
ATOM      3  O   UNL     1       5.328  27.685  37.645  1.00  0.00    -0.550 OA
ATOM      4  O   UNL     1       4.623  26.746  35.678  1.00  0.00    -0.550 OA
ENDBRANCH   1   2
BRANCH   1   5
ATOM      5  C   UNL     1       1.996  26.600  37.071  1.00  0.00     0.003 C 
ATOM      6  C   UNL     1       0.875  26.987  38.036  1.00  0.00     0.004 C 
ENDBRANCH   1   5
TORSDOF 2
ENDMDL
MODEL 4
REMARK VINA RESULT:    -3.620      3.412      4.193
REMARK INTER + INTRA:          -4.048
REMARK INTER:                  -4.001
REMARK INTRA:                  -0.047
REMARK UNBOUND:                -0.005
REMARK SMILES CCCC(=O)[O-]
REMARK SMILES IDX 3 1 4 2 5 3 6 4 2 5 1 6
REMARK H PARENT
REMARK Flexibility Score: inf
ROOT
ATOM      1  C   UNL     1       8.053  33.142  36.384  1.00  0.00     0.052 C 
ENDROOT
BRANCH   1   2
ATOM      2  C   UNL     1       7.568  32.241  37.478  1.00  0.00     0.041 C 
ATOM      3  O   UNL     1       6.891  32.710  38.431  1.00  0.00    -0.550 OA
ATOM      4  O   UNL     1       7.833  30.878  37.427  1.00  0.00    -0.550 OA
ENDBRANCH   1   2
BRANCH   1   5
ATOM      5  C   UNL     1       6.956  33.427  35.351  1.00  0.00     0.003 C 
ATOM      6  C   UNL     1       6.866  32.338  34.282  1.00  0.00     0.004 C 
ENDBRANCH   1   5
TORSDOF 2
ENDMDL
MODEL 5
REMARK VINA RESULT:    -3.528     19.661     20.094
REMARK INTER + INTRA:          -3.946
REMARK INTER:                  -3.878
REMARK INTRA:                  -0.068
REMARK UNBOUND:                -0.005
REMARK SMILES CCCC(=O)[O-]
REMARK SMILES IDX 3 1 4 2 5 3 6 4 2 5 1 6
REMARK H PARENT
REMARK Flexibility Score: inf
ROOT
ATOM      1  C   UNL     1      15.215  14.291  37.275  1.00  0.00     0.052 C 
ENDROOT
BRANCH   1   2
ATOM      2  C   UNL     1      15.382  15.774  37.395  1.00  0.00     0.041 C 
ATOM      3  O   UNL     1      14.391  16.503  37.668  1.00  0.00    -0.550 OA
ATOM      4  O   UNL     1      16.636  16.349  37.240  1.00  0.00    -0.550 OA
ENDBRANCH   1   2
BRANCH   1   5
ATOM      5  C   UNL     1      14.410  13.907  36.027  1.00  0.00     0.003 C 
ATOM      6  C   UNL     1      15.152  14.236  34.732  1.00  0.00     0.004 C 
ENDBRANCH   1   5
TORSDOF 2
ENDMDL
MODEL 6
REMARK VINA RESULT:    -3.361      4.291      4.840
REMARK INTER + INTRA:          -3.759
REMARK INTER:                  -3.714
REMARK INTRA:                  -0.046
REMARK UNBOUND:                -0.005
REMARK SMILES CCCC(=O)[O-]
REMARK SMILES IDX 3 1 4 2 5 3 6 4 2 5 1 6
REMARK H PARENT
REMARK Flexibility Score: inf
ROOT
ATOM      1  C   UNL     1       8.511  30.838  29.655  1.00  0.00     0.052 C 
ENDROOT
BRANCH   1   2
ATOM      2  C   UNL     1       8.005  32.172  30.110  1.00  0.00     0.041 C 
ATOM      3  O   UNL     1       7.119  32.242  31.003  1.00  0.00    -0.550 OA
ATOM      4  O   UNL     1       8.535  33.339  29.575  1.00  0.00    -0.550 OA
ENDBRANCH   1   2
BRANCH   1   5
ATOM      5  C   UNL     1       9.911  30.541  30.208  1.00  0.00     0.003 C 
ATOM      6  C   UNL     1       9.865  29.913  31.601  1.00  0.00     0.004 C 
ENDBRANCH   1   5
TORSDOF 2
ENDMDL
MODEL 7
REMARK VINA RESULT:    -3.312      4.365      5.274
REMARK INTER + INTRA:          -3.704
REMARK INTER:                  -3.656
REMARK INTRA:                  -0.049
REMARK UNBOUND:                -0.005
REMARK SMILES CCCC(=O)[O-]
REMARK SMILES IDX 3 1 4 2 5 3 6 4 2 5 1 6
REMARK H PARENT
REMARK Flexibility Score: inf
ROOT
ATOM      1  C   UNL     1       9.879  30.506  31.165  1.00  0.00     0.052 C 
ENDROOT
BRANCH   1   2
ATOM      2  C   UNL     1       8.937  31.463  31.827  1.00  0.00     0.041 C 
ATOM      3  O   UNL     1       9.190  31.906  32.978  1.00  0.00    -0.550 OA
ATOM      4  O   UNL     1       7.798  31.893  31.159  1.00  0.00    -0.550 OA
ENDBRANCH   1   2
BRANCH   1   5
ATOM      5  C   UNL     1       9.898  30.685  29.642  1.00  0.00     0.003 C 
ATOM      6  C   UNL     1      10.851  31.795  29.198  1.00  0.00     0.004 C 
ENDBRANCH   1   5
TORSDOF 2
ENDMDL
MODEL 8
REMARK VINA RESULT:    -3.276      4.701      5.832
REMARK INTER + INTRA:          -3.664
REMARK INTER:                  -3.615
REMARK INTRA:                  -0.049
REMARK UNBOUND:                -0.005
REMARK SMILES CCCC(=O)[O-]
REMARK SMILES IDX 3 1 4 2 5 3 6 4 2 5 1 6
REMARK H PARENT
REMARK Flexibility Score: inf
ROOT
ATOM      1  C   UNL     1       9.972  30.965  30.326  1.00  0.00     0.052 C 
ENDROOT
BRANCH   1   2
ATOM      2  C   UNL     1       9.946  30.714  31.802  1.00  0.00     0.041 C 
ATOM      3  O   UNL     1      10.496  29.685  32.279  1.00  0.00    -0.550 OA
ATOM      4  O   UNL     1       9.347  31.632  32.655  1.00  0.00    -0.550 OA
ENDBRANCH   1   2
BRANCH   1   5
ATOM      5  C   UNL     1       8.602  30.717  29.682  1.00  0.00     0.003 C 
ATOM      6  C   UNL     1       8.317  29.229  29.476  1.00  0.00     0.004 C 
ENDBRANCH   1   5
TORSDOF 2
ENDMDL
MODEL 9
REMARK VINA RESULT:    -3.240     18.675     19.169
REMARK INTER + INTRA:          -3.625
REMARK INTER:                  -3.618
REMARK INTRA:                  -0.007
REMARK UNBOUND:                -0.005
REMARK SMILES CCCC(=O)[O-]
REMARK SMILES IDX 3 1 4 2 5 3 6 4 2 5 1 6
REMARK H PARENT
REMARK Flexibility Score: inf
ROOT
ATOM      1  C   UNL     1      20.675  19.773  36.534  1.00  0.00     0.052 C 
ENDROOT
BRANCH   1   2
ATOM      2  C   UNL     1      20.269  20.320  37.867  1.00  0.00     0.041 C 
ATOM      3  O   UNL     1      21.124  20.861  38.617  1.00  0.00    -0.550 OA
ATOM      4  O   UNL     1      18.940  20.265  38.268  1.00  0.00    -0.550 OA
ENDBRANCH   1   2
BRANCH   1   5
ATOM      5  C   UNL     1      19.715  20.211  35.421  1.00  0.00     0.003 C 
ATOM      6  C   UNL     1      20.062  19.584  34.072  1.00  0.00     0.004 C 
ENDBRANCH   1   5
TORSDOF 2
ENDMDL
