MODEL 1
REMARK VINA RESULT:    -4.756      0.000      0.000
REMARK INTER + INTRA:          -6.601
REMARK INTER:                  -6.425
REMARK INTRA:                  -0.176
REMARK UNBOUND:                -0.176
REMARK SMILES [NH3+]CCCC[C@@H]([NH3+])C(=O)[O-]
REMARK SMILES IDX 4 1 3 2 2 3 1 4 5 8 6 9 7 10 8 14 9 15 10 16
REMARK H PARENT 1 5 1 6 1 7 7 11 7 12 7 13
REMARK Flexibility Score: inf
ROOT
ATOM      1  C   UNL     1      29.431  33.246  34.180  1.00  0.00     0.012 C 
ENDROOT
BRANCH   1   2
ATOM      2  C   UNL     1      29.422  34.685  34.718  1.00  0.00     0.061 C 
BRANCH   2   3
ATOM      3  C   UNL     1      28.128  35.439  34.366  1.00  0.00     0.258 C 
BRANCH   3   4
ATOM      4  N   UNL     1      27.537  34.969  33.110  1.00  0.00    -0.358 N 
ATOM      5  H   UNL     1      27.243  35.797  32.545  1.00  0.00     0.344 HD
ATOM      6  H   UNL     1      28.236  34.419  32.560  1.00  0.00     0.344 HD
ATOM      7  H   UNL     1      26.692  34.384  33.300  1.00  0.00     0.344 HD
ENDBRANCH   3   4
ENDBRANCH   2   3
ENDBRANCH   1   2
BRANCH   1   8
ATOM      8  C   UNL     1      30.472  32.349  34.877  1.00  0.00     0.072 C 
BRANCH   8   9
ATOM      9  C   UNL     1      31.765  32.093  34.067  1.00  0.00     0.227 C 
BRANCH   9  10
ATOM     10  N   UNL     1      31.574  32.352  32.632  1.00  0.00    -0.350 N 
ATOM     11  H   UNL     1      30.963  33.188  32.483  1.00  0.00     0.345 HD
ATOM     12  H   UNL     1      31.144  31.519  32.171  1.00  0.00     0.345 HD
ATOM     13  H   UNL     1      32.499  32.521  32.174  1.00  0.00     0.345 HD
ENDBRANCH   9  10
BRANCH   9  14
ATOM     14  C   UNL     1      32.873  32.955  34.609  1.00  0.00     0.099 C 
ATOM     15  O   UNL     1      33.832  32.441  35.245  1.00  0.00    -0.544 OA
ATOM     16  O   UNL     1      32.860  34.326  34.383  1.00  0.00    -0.544 OA
ENDBRANCH   9  14
ENDBRANCH   8   9
ENDBRANCH   1   8
TORSDOF 7
ENDMDL
MODEL 2
REMARK VINA RESULT:    -4.397      1.687      1.980
REMARK INTER + INTRA:          -6.115
REMARK INTER:                  -6.014
REMARK INTRA:                  -0.101
REMARK UNBOUND:                -0.176
REMARK SMILES [NH3+]CCCC[C@@H]([NH3+])C(=O)[O-]
REMARK SMILES IDX 4 1 3 2 2 3 1 4 5 8 6 9 7 10 8 14 9 15 10 16
REMARK H PARENT 1 5 1 6 1 7 7 11 7 12 7 13
REMARK Flexibility Score: inf
ROOT
ATOM      1  C   UNL     1      29.605  32.937  34.280  1.00  0.00     0.012 C 
ENDROOT
BRANCH   1   2
ATOM      2  C   UNL     1      29.555  34.463  34.460  1.00  0.00     0.061 C 
BRANCH   2   3
ATOM      3  C   UNL     1      28.126  35.022  34.360  1.00  0.00     0.258 C 
BRANCH   3   4
ATOM      4  N   UNL     1      27.599  34.956  32.995  1.00  0.00    -0.358 N 
ATOM      5  H   UNL     1      26.928  34.157  32.930  1.00  0.00     0.344 HD
ATOM      6  H   UNL     1      27.092  35.838  32.755  1.00  0.00     0.344 HD
ATOM      7  H   UNL     1      28.372  34.791  32.312  1.00  0.00     0.344 HD
ENDBRANCH   3   4
ENDBRANCH   2   3
ENDBRANCH   1   2
BRANCH   1   8
ATOM      8  C   UNL     1      30.647  32.258  35.189  1.00  0.00     0.072 C 
BRANCH   8   9
ATOM      9  C   UNL     1      32.044  32.062  34.552  1.00  0.00     0.227 C 
BRANCH   9  10
ATOM     10  N   UNL     1      32.935  33.199  34.823  1.00  0.00    -0.350 N 
ATOM     11  H   UNL     1      32.421  33.965  35.317  1.00  0.00     0.345 HD
ATOM     12  H   UNL     1      33.329  33.566  33.927  1.00  0.00     0.345 HD
ATOM     13  H   UNL     1      33.739  32.890  35.415  1.00  0.00     0.345 HD
ENDBRANCH   9  10
BRANCH   9  14
ATOM     14  C   UNL     1      32.654  30.787  35.071  1.00  0.00     0.099 C 
ATOM     15  O   UNL     1      31.921  29.826  35.429  1.00  0.00    -0.544 OA
ATOM     16  O   UNL     1      34.035  30.651  35.128  1.00  0.00    -0.544 OA
ENDBRANCH   9  14
ENDBRANCH   8   9
ENDBRANCH   1   8
TORSDOF 7
ENDMDL
MODEL 3
REMARK VINA RESULT:    -4.229     17.883     18.378
REMARK INTER + INTRA:          -5.889
REMARK INTER:                  -5.828
REMARK INTRA:                  -0.061
REMARK UNBOUND:                -0.176
REMARK SMILES [NH3+]CCCC[C@@H]([NH3+])C(=O)[O-]
REMARK SMILES IDX 4 1 3 2 2 3 1 4 5 8 6 9 7 10 8 14 9 15 10 16
REMARK H PARENT 1 5 1 6 1 7 7 11 7 12 7 13
REMARK Flexibility Score: inf
ROOT
ATOM      1  C   UNL     1      40.308  18.159  39.253  1.00  0.00     0.012 C 
ENDROOT
BRANCH   1   2
ATOM      2  C   UNL     1      38.793  18.100  39.004  1.00  0.00     0.061 C 
BRANCH   2   3
ATOM      3  C   UNL     1      38.343  16.750  38.419  1.00  0.00     0.258 C 
BRANCH   3   4
ATOM      4  N   UNL     1      36.922  16.486  38.662  1.00  0.00    -0.358 N 
ATOM      5  H   UNL     1      36.398  16.615  37.767  1.00  0.00     0.344 HD
ATOM      6  H   UNL     1      36.784  15.504  38.992  1.00  0.00     0.344 HD
ATOM      7  H   UNL     1      36.541  17.158  39.365  1.00  0.00     0.344 HD
ENDBRANCH   3   4
ENDBRANCH   2   3
ENDBRANCH   1   2
BRANCH   1   8
ATOM      8  C   UNL     1      40.869  19.593  39.217  1.00  0.00     0.072 C 
BRANCH   8   9
ATOM      9  C   UNL     1      42.345  19.731  39.661  1.00  0.00     0.227 C 
BRANCH   9  10
ATOM     10  N   UNL     1      43.276  19.247  38.631  1.00  0.00    -0.350 N 
ATOM     11  H   UNL     1      42.839  18.484  38.064  1.00  0.00     0.345 HD
ATOM     12  H   UNL     1      44.151  18.891  39.078  1.00  0.00     0.345 HD
ATOM     13  H   UNL     1      43.546  20.033  37.996  1.00  0.00     0.345 HD
ENDBRANCH   9  10
BRANCH   9  14
ATOM     14  C   UNL     1      42.635  21.171  39.989  1.00  0.00     0.099 C 
ATOM     15  O   UNL     1      43.308  21.472  41.011  1.00  0.00    -0.544 OA
ATOM     16  O   UNL     1      42.185  22.180  39.146  1.00  0.00    -0.544 OA
ENDBRANCH   9  14
ENDBRANCH   8   9
ENDBRANCH   1   8
TORSDOF 7
ENDMDL
MODEL 4
REMARK VINA RESULT:    -4.186      2.810      4.480
REMARK INTER + INTRA:          -5.830
REMARK INTER:                  -5.608
REMARK INTRA:                  -0.222
REMARK UNBOUND:                -0.176
REMARK SMILES [NH3+]CCCC[C@@H]([NH3+])C(=O)[O-]
REMARK SMILES IDX 4 1 3 2 2 3 1 4 5 8 6 9 7 10 8 14 9 15 10 16
REMARK H PARENT 1 5 1 6 1 7 7 11 7 12 7 13
REMARK Flexibility Score: inf
ROOT
ATOM      1  C   UNL     1      32.302  31.217  34.181  1.00  0.00     0.012 C 
ENDROOT
BRANCH   1   2
ATOM      2  C   UNL     1      33.211  31.436  35.401  1.00  0.00     0.061 C 
BRANCH   2   3
ATOM      3  C   UNL     1      32.725  30.672  36.644  1.00  0.00     0.258 C 
BRANCH   3   4
ATOM      4  N   UNL     1      31.733  31.432  37.410  1.00  0.00    -0.358 N 
ATOM      5  H   UNL     1      32.229  32.003  38.131  1.00  0.00     0.344 HD
ATOM      6  H   UNL     1      31.201  32.075  36.782  1.00  0.00     0.344 HD
ATOM      7  H   UNL     1      31.076  30.784  37.900  1.00  0.00     0.344 HD
ENDBRANCH   3   4
ENDBRANCH   2   3
ENDBRANCH   1   2
BRANCH   1   8
ATOM      8  C   UNL     1      31.876  32.532  33.503  1.00  0.00     0.072 C 
BRANCH   8   9
ATOM      9  C   UNL     1      31.547  33.693  34.472  1.00  0.00     0.227 C 
BRANCH   9  10
ATOM     10  N   UNL     1      32.176  34.954  34.052  1.00  0.00    -0.350 N 
ATOM     11  H   UNL     1      33.132  35.049  34.467  1.00  0.00     0.345 HD
ATOM     12  H   UNL     1      31.586  35.765  34.347  1.00  0.00     0.345 HD
ATOM     13  H   UNL     1      32.252  34.985  33.009  1.00  0.00     0.345 HD
ENDBRANCH   9  10
BRANCH   9  14
ATOM     14  C   UNL     1      30.054  33.860  34.563  1.00  0.00     0.099 C 
ATOM     15  O   UNL     1      29.549  34.992  34.793  1.00  0.00    -0.544 OA
ATOM     16  O   UNL     1      29.220  32.768  34.361  1.00  0.00    -0.544 OA
ENDBRANCH   9  14
ENDBRANCH   8   9
ENDBRANCH   1   8
TORSDOF 7
ENDMDL
MODEL 5
REMARK VINA RESULT:    -4.172      2.544      4.098
REMARK INTER + INTRA:          -5.811
REMARK INTER:                  -5.681
REMARK INTRA:                  -0.130
REMARK UNBOUND:                -0.176
REMARK SMILES [NH3+]CCCC[C@@H]([NH3+])C(=O)[O-]
REMARK SMILES IDX 4 1 3 2 2 3 1 4 5 8 6 9 7 10 8 14 9 15 10 16
REMARK H PARENT 1 5 1 6 1 7 7 11 7 12 7 13
REMARK Flexibility Score: inf
ROOT
ATOM      1  C   UNL     1      31.040  30.975  35.168  1.00  0.00     0.012 C 
ENDROOT
BRANCH   1   2
ATOM      2  C   UNL     1      31.481  29.791  36.044  1.00  0.00     0.061 C 
BRANCH   2   3
ATOM      3  C   UNL     1      31.256  30.051  37.543  1.00  0.00     0.258 C 
BRANCH   3   4
ATOM      4  N   UNL     1      31.914  31.279  37.998  1.00  0.00    -0.358 N 
ATOM      5  H   UNL     1      32.704  31.024  38.633  1.00  0.00     0.344 HD
ATOM      6  H   UNL     1      32.298  31.811  37.184  1.00  0.00     0.344 HD
ATOM      7  H   UNL     1      31.243  31.876  38.532  1.00  0.00     0.344 HD
ENDBRANCH   3   4
ENDBRANCH   2   3
ENDBRANCH   1   2
BRANCH   1   8
ATOM      8  C   UNL     1      32.167  31.507  34.264  1.00  0.00     0.072 C 
BRANCH   8   9
ATOM      9  C   UNL     1      31.760  32.667  33.323  1.00  0.00     0.227 C 
BRANCH   9  10
ATOM     10  N   UNL     1      30.467  32.416  32.670  1.00  0.00    -0.350 N 
ATOM     11  H   UNL     1      30.233  33.186  32.000  1.00  0.00     0.345 HD
ATOM     12  H   UNL     1      29.712  32.338  33.388  1.00  0.00     0.345 HD
ATOM     13  H   UNL     1      30.499  31.510  32.150  1.00  0.00     0.345 HD
ENDBRANCH   9  10
BRANCH   9  14
ATOM     14  C   UNL     1      31.708  33.951  34.106  1.00  0.00     0.099 C 
ATOM     15  O   UNL     1      30.603  34.428  34.482  1.00  0.00    -0.544 OA
ATOM     16  O   UNL     1      32.886  34.604  34.449  1.00  0.00    -0.544 OA
ENDBRANCH   9  14
ENDBRANCH   8   9
ENDBRANCH   1   8
TORSDOF 7
ENDMDL
MODEL 6
REMARK VINA RESULT:    -4.117     11.203     12.074
REMARK INTER + INTRA:          -5.736
REMARK INTER:                  -5.317
REMARK INTRA:                  -0.419
REMARK UNBOUND:                -0.176
REMARK SMILES [NH3+]CCCC[C@@H]([NH3+])C(=O)[O-]
REMARK SMILES IDX 4 1 3 2 2 3 1 4 5 8 6 9 7 10 8 14 9 15 10 16
REMARK H PARENT 1 5 1 6 1 7 7 11 7 12 7 13
REMARK Flexibility Score: inf
ROOT
ATOM      1  C   UNL     1      27.214  26.353  43.200  1.00  0.00     0.012 C 
ENDROOT
BRANCH   1   2
ATOM      2  C   UNL     1      28.702  26.733  43.121  1.00  0.00     0.061 C 
BRANCH   2   3
ATOM      3  C   UNL     1      29.007  27.682  41.950  1.00  0.00     0.258 C 
BRANCH   3   4
ATOM      4  N   UNL     1      27.814  27.983  41.154  1.00  0.00    -0.358 N 
ATOM      5  H   UNL     1      27.083  28.389  41.782  1.00  0.00     0.344 HD
ATOM      6  H   UNL     1      28.038  28.680  40.408  1.00  0.00     0.344 HD
ATOM      7  H   UNL     1      27.430  27.110  40.726  1.00  0.00     0.344 HD
ENDBRANCH   3   4
ENDBRANCH   2   3
ENDBRANCH   1   2
BRANCH   1   8
ATOM      8  C   UNL     1      26.436  27.179  44.241  1.00  0.00     0.072 C 
BRANCH   8   9
ATOM      9  C   UNL     1      25.163  27.878  43.705  1.00  0.00     0.227 C 
BRANCH   9  10
ATOM     10  N   UNL     1      23.994  27.619  44.558  1.00  0.00    -0.350 N 
ATOM     11  H   UNL     1      24.127  28.038  45.508  1.00  0.00     0.345 HD
ATOM     12  H   UNL     1      23.838  26.590  44.650  1.00  0.00     0.345 HD
ATOM     13  H   UNL     1      23.136  28.028  44.122  1.00  0.00     0.345 HD
ENDBRANCH   9  10
BRANCH   9  14
ATOM     14  C   UNL     1      25.414  29.359  43.600  1.00  0.00     0.099 C 
ATOM     15  O   UNL     1      26.590  29.807  43.543  1.00  0.00    -0.544 OA
ATOM     16  O   UNL     1      24.342  30.241  43.534  1.00  0.00    -0.544 OA
ENDBRANCH   9  14
ENDBRANCH   8   9
ENDBRANCH   1   8
TORSDOF 7
ENDMDL
MODEL 7
REMARK VINA RESULT:    -4.104     18.276     19.017
REMARK INTER + INTRA:          -5.719
REMARK INTER:                  -5.644
REMARK INTRA:                  -0.075
REMARK UNBOUND:                -0.176
REMARK SMILES [NH3+]CCCC[C@@H]([NH3+])C(=O)[O-]
REMARK SMILES IDX 4 1 3 2 2 3 1 4 5 8 6 9 7 10 8 14 9 15 10 16
REMARK H PARENT 1 5 1 6 1 7 7 11 7 12 7 13
REMARK Flexibility Score: inf
ROOT
ATOM      1  C   UNL     1      40.892  18.930  39.364  1.00  0.00     0.012 C 
ENDROOT
BRANCH   1   2
ATOM      2  C   UNL     1      40.965  20.457  39.522  1.00  0.00     0.061 C 
BRANCH   2   3
ATOM      3  C   UNL     1      42.388  20.951  39.833  1.00  0.00     0.258 C 
BRANCH   3   4
ATOM      4  N   UNL     1      43.366  19.860  39.835  1.00  0.00    -0.358 N 
ATOM      5  H   UNL     1      44.251  20.199  39.394  1.00  0.00     0.344 HD
ATOM      6  H   UNL     1      43.574  19.557  40.813  1.00  0.00     0.344 HD
ATOM      7  H   UNL     1      43.011  19.050  39.277  1.00  0.00     0.344 HD
ENDBRANCH   3   4
ENDBRANCH   2   3
ENDBRANCH   1   2
BRANCH   1   8
ATOM      8  C   UNL     1      39.472  18.424  39.051  1.00  0.00     0.072 C 
BRANCH   8   9
ATOM      9  C   UNL     1      39.372  16.917  38.713  1.00  0.00     0.227 C 
BRANCH   9  10
ATOM     10  N   UNL     1      39.763  16.072  39.851  1.00  0.00    -0.350 N 
ATOM     11  H   UNL     1      39.020  15.365  40.062  1.00  0.00     0.345 HD
ATOM     12  H   UNL     1      39.930  16.664  40.696  1.00  0.00     0.345 HD
ATOM     13  H   UNL     1      40.657  15.574  39.635  1.00  0.00     0.345 HD
ENDBRANCH   9  10
BRANCH   9  14
ATOM     14  C   UNL     1      37.966  16.594  38.283  1.00  0.00     0.099 C 
ATOM     15  O   UNL     1      36.981  16.995  38.960  1.00  0.00    -0.544 OA
ATOM     16  O   UNL     1      37.745  15.875  37.114  1.00  0.00    -0.544 OA
ENDBRANCH   9  14
ENDBRANCH   8   9
ENDBRANCH   1   8
TORSDOF 7
ENDMDL
MODEL 8
REMARK VINA RESULT:    -4.092     18.103     19.406
REMARK INTER + INTRA:          -5.703
REMARK INTER:                  -5.613
REMARK INTRA:                  -0.090
REMARK UNBOUND:                -0.176
REMARK SMILES [NH3+]CCCC[C@@H]([NH3+])C(=O)[O-]
REMARK SMILES IDX 4 1 3 2 2 3 1 4 5 8 6 9 7 10 8 14 9 15 10 16
REMARK H PARENT 1 5 1 6 1 7 7 11 7 12 7 13
REMARK Flexibility Score: inf
ROOT
ATOM      1  C   UNL     1      40.798  16.448  39.409  1.00  0.00     0.012 C 
ENDROOT
BRANCH   1   2
ATOM      2  C   UNL     1      42.198  17.066  39.266  1.00  0.00     0.061 C 
BRANCH   2   3
ATOM      3  C   UNL     1      42.152  18.533  38.808  1.00  0.00     0.258 C 
BRANCH   3   4
ATOM      4  N   UNL     1      43.483  19.143  38.767  1.00  0.00    -0.358 N 
ATOM      5  H   UNL     1      44.162  18.447  38.384  1.00  0.00     0.344 HD
ATOM      6  H   UNL     1      43.481  19.984  38.146  1.00  0.00     0.344 HD
ATOM      7  H   UNL     1      43.794  19.409  39.728  1.00  0.00     0.344 HD
ENDBRANCH   3   4
ENDBRANCH   2   3
ENDBRANCH   1   2
BRANCH   1   8
ATOM      8  C   UNL     1      39.669  17.415  39.004  1.00  0.00     0.072 C 
BRANCH   8   9
ATOM      9  C   UNL     1      38.259  16.781  38.928  1.00  0.00     0.227 C 
BRANCH   9  10
ATOM     10  N   UNL     1      37.411  17.192  40.056  1.00  0.00    -0.350 N 
ATOM     11  H   UNL     1      36.480  16.714  40.016  1.00  0.00     0.345 HD
ATOM     12  H   UNL     1      37.271  18.228  40.040  1.00  0.00     0.345 HD
ATOM     13  H   UNL     1      37.878  16.953  40.960  1.00  0.00     0.345 HD
ENDBRANCH   9  10
BRANCH   9  14
ATOM     14  C   UNL     1      37.611  17.160  37.623  1.00  0.00     0.099 C 
ATOM     15  O   UNL     1      36.989  18.251  37.510  1.00  0.00    -0.544 OA
ATOM     16  O   UNL     1      37.722  16.319  36.523  1.00  0.00    -0.544 OA
ENDBRANCH   9  14
ENDBRANCH   8   9
ENDBRANCH   1   8
TORSDOF 7
ENDMDL
MODEL 9
REMARK VINA RESULT:    -3.999      9.355     11.136
REMARK INTER + INTRA:          -5.577
REMARK INTER:                  -5.036
REMARK INTRA:                  -0.541
REMARK UNBOUND:                -0.176
REMARK SMILES [NH3+]CCCC[C@@H]([NH3+])C(=O)[O-]
REMARK SMILES IDX 4 1 3 2 2 3 1 4 5 8 6 9 7 10 8 14 9 15 10 16
REMARK H PARENT 1 5 1 6 1 7 7 11 7 12 7 13
REMARK Flexibility Score: inf
ROOT
ATOM      1  C   UNL     1      38.968  35.363  42.473  1.00  0.00     0.012 C 
ENDROOT
BRANCH   1   2
ATOM      2  C   UNL     1      40.367  34.788  42.196  1.00  0.00     0.061 C 
BRANCH   2   3
ATOM      3  C   UNL     1      41.199  35.684  41.264  1.00  0.00     0.258 C 
BRANCH   3   4
ATOM      4  N   UNL     1      41.518  35.021  39.997  1.00  0.00    -0.358 N 
ATOM      5  H   UNL     1      42.466  35.331  39.683  1.00  0.00     0.344 HD
ATOM      6  H   UNL     1      41.530  33.983  40.120  1.00  0.00     0.344 HD
ATOM      7  H   UNL     1      40.825  35.287  39.261  1.00  0.00     0.344 HD
ENDBRANCH   3   4
ENDBRANCH   2   3
ENDBRANCH   1   2
BRANCH   1   8
ATOM      8  C   UNL     1      37.832  34.406  42.069  1.00  0.00     0.072 C 
BRANCH   8   9
ATOM      9  C   UNL     1      37.328  34.565  40.614  1.00  0.00     0.227 C 
BRANCH   9  10
ATOM     10  N   UNL     1      37.716  35.859  40.036  1.00  0.00    -0.350 N 
ATOM     11  H   UNL     1      37.924  36.556  40.789  1.00  0.00     0.345 HD
ATOM     12  H   UNL     1      36.950  36.224  39.426  1.00  0.00     0.345 HD
ATOM     13  H   UNL     1      38.565  35.742  39.437  1.00  0.00     0.345 HD
ENDBRANCH   9  10
BRANCH   9  14
ATOM     14  C   UNL     1      37.865  33.437  39.774  1.00  0.00     0.099 C 
ATOM     15  O   UNL     1      37.229  32.353  39.676  1.00  0.00    -0.544 OA
ATOM     16  O   UNL     1      39.054  33.598  39.074  1.00  0.00    -0.544 OA
ENDBRANCH   9  14
ENDBRANCH   8   9
ENDBRANCH   1   8
TORSDOF 7
ENDMDL
