MODEL 1
REMARK VINA RESULT:    -4.050      0.000      0.000
REMARK INTER + INTRA:         -16.011
REMARK INTER:                 -10.680
REMARK INTRA:                  -5.330
REMARK UNBOUND:                -5.330
REMARK SMILES CCCCCCCCCCCCCCCCCCCCCCCCCCCCCC(=O)[O-]
REMARK SMILES IDX 16 1 17 2 18 3 19 4 20 5 21 6 22 7 23 8 24 9 25 10 26 11
REMARK SMILES IDX 27 12 28 13 29 14 30 15 31 16 32 17 15 18 14 19 13 20 12 21
REMARK SMILES IDX 11 22 10 23 9 24 8 25 7 26 6 27 5 28 4 29 3 30 2 31 1 32
REMARK H PARENT
REMARK Flexibility Score: inf
ROOT
ATOM      1  C   UNL     1     -19.024 116.126  -3.596  1.00  0.00     0.000 C 
ENDROOT
BRANCH   1   2
ATOM      2  C   UNL     1     -20.234 116.685  -4.362  1.00  0.00     0.000 C 
BRANCH   2   3
ATOM      3  C   UNL     1     -20.125 116.472  -5.881  1.00  0.00     0.000 C 
BRANCH   3   4
ATOM      4  C   UNL     1     -21.420 116.824  -6.633  1.00  0.00     0.000 C 
BRANCH   4   5
ATOM      5  C   UNL     1     -22.128 115.649  -7.341  1.00  0.00     0.000 C 
BRANCH   5   6
ATOM      6  C   UNL     1     -23.332 115.068  -6.571  1.00  0.00     0.000 C 
BRANCH   6   7
ATOM      7  C   UNL     1     -22.955 113.875  -5.671  1.00  0.00     0.000 C 
BRANCH   7   8
ATOM      8  C   UNL     1     -22.834 114.264  -4.187  1.00  0.00     0.000 C 
BRANCH   8   9
ATOM      9  C   UNL     1     -23.979 115.146  -3.656  1.00  0.00     0.000 C 
BRANCH   9  10
ATOM     10  C   UNL     1     -23.498 116.464  -3.008  1.00  0.00     0.000 C 
BRANCH  10  11
ATOM     11  C   UNL     1     -24.600 117.537  -3.003  1.00  0.00     0.000 C 
BRANCH  11  12
ATOM     12  C   UNL     1     -25.149 117.823  -1.597  1.00  0.00     0.000 C 
BRANCH  12  13
ATOM     13  C   UNL     1     -26.034 119.078  -1.556  1.00  0.00     0.006 C 
BRANCH  13  14
ATOM     14  C   UNL     1     -25.985 119.832  -2.889  1.00  0.00     0.053 C 
BRANCH  14  15
ATOM     15  C   UNL     1     -25.497 121.234  -2.692  1.00  0.00     0.041 C 
ATOM     16  O   UNL     1     -24.630 121.719  -3.468  1.00  0.00    -0.550 OA
ATOM     17  O   UNL     1     -26.003 122.011  -1.656  1.00  0.00    -0.550 OA
ENDBRANCH  14  15
ENDBRANCH  13  14
ENDBRANCH  12  13
ENDBRANCH  11  12
ENDBRANCH  10  11
ENDBRANCH   9  10
ENDBRANCH   8   9
ENDBRANCH   7   8
ENDBRANCH   6   7
ENDBRANCH   5   6
ENDBRANCH   4   5
ENDBRANCH   3   4
ENDBRANCH   2   3
ENDBRANCH   1   2
BRANCH   1  18
ATOM     18  C   UNL     1     -18.396 114.905  -4.289  1.00  0.00     0.000 C 
BRANCH  18  19
ATOM     19  C   UNL     1     -17.563 114.038  -3.329  1.00  0.00     0.000 C 
BRANCH  19  20
ATOM     20  C   UNL     1     -17.022 114.819  -2.111  1.00  0.00     0.000 C 
BRANCH  20  21
ATOM     21  C   UNL     1     -17.434 114.174  -0.775  1.00  0.00     0.000 C 
BRANCH  21  22
ATOM     22  C   UNL     1     -18.746 114.750  -0.213  1.00  0.00     0.000 C 
BRANCH  22  23
ATOM     23  C   UNL     1     -20.027 114.090  -0.755  1.00  0.00     0.000 C 
BRANCH  23  24
ATOM     24  C   UNL     1     -21.259 115.004  -0.639  1.00  0.00    -0.000 C 
BRANCH  24  25
ATOM     25  C   UNL     1     -20.880 116.483  -0.462  1.00  0.00    -0.000 C 
BRANCH  25  26
ATOM     26  C   UNL     1     -21.965 117.295   0.269  1.00  0.00    -0.000 C 
BRANCH  26  27
ATOM     27  C   UNL     1     -21.548 118.765   0.490  1.00  0.00    -0.000 C 
BRANCH  27  28
ATOM     28  C   UNL     1     -22.648 119.778   0.115  1.00  0.00    -0.000 C 
BRANCH  28  29
ATOM     29  C   UNL     1     -22.194 120.901  -0.834  1.00  0.00    -0.000 C 
BRANCH  29  30
ATOM     30  C   UNL     1     -20.667 120.938  -1.017  1.00  0.00    -0.000 C 
BRANCH  30  31
ATOM     31  C   UNL     1     -20.239 120.649  -2.464  1.00  0.00    -0.003 C 
ATOM     32  C   UNL     1     -21.341 119.992  -3.292  1.00  0.00     0.004 C 
ENDBRANCH  30  31
ENDBRANCH  29  30
ENDBRANCH  28  29
ENDBRANCH  27  28
ENDBRANCH  26  27
ENDBRANCH  25  26
ENDBRANCH  24  25
ENDBRANCH  23  24
ENDBRANCH  22  23
ENDBRANCH  21  22
ENDBRANCH  20  21
ENDBRANCH  19  20
ENDBRANCH  18  19
ENDBRANCH   1  18
TORSDOF 28
ENDMDL
MODEL 2
REMARK VINA RESULT:    -4.030      2.263      5.593
REMARK INTER + INTRA:         -15.957
REMARK INTER:                  -9.957
REMARK INTRA:                  -6.000
REMARK UNBOUND:                -5.330
REMARK SMILES CCCCCCCCCCCCCCCCCCCCCCCCCCCCCC(=O)[O-]
REMARK SMILES IDX 16 1 17 2 18 3 19 4 20 5 21 6 22 7 23 8 24 9 25 10 26 11
REMARK SMILES IDX 27 12 28 13 29 14 30 15 31 16 32 17 15 18 14 19 13 20 12 21
REMARK SMILES IDX 11 22 10 23 9 24 8 25 7 26 6 27 5 28 4 29 3 30 2 31 1 32
REMARK H PARENT
REMARK Flexibility Score: inf
ROOT
ATOM      1  C   UNL     1     -20.371 120.490  -0.948  1.00  0.00     0.000 C 
ENDROOT
BRANCH   1   2
ATOM      2  C   UNL     1     -20.431 119.406  -2.036  1.00  0.00     0.000 C 
BRANCH   2   3
ATOM      3  C   UNL     1     -21.819 119.294  -2.687  1.00  0.00     0.000 C 
BRANCH   3   4
ATOM      4  C   UNL     1     -22.328 120.631  -3.254  1.00  0.00     0.000 C 
BRANCH   4   5
ATOM      5  C   UNL     1     -23.782 121.005  -2.894  1.00  0.00     0.000 C 
BRANCH   5   6
ATOM      6  C   UNL     1     -24.217 120.592  -1.472  1.00  0.00     0.000 C 
BRANCH   6   7
ATOM      7  C   UNL     1     -25.327 119.524  -1.467  1.00  0.00     0.000 C 
BRANCH   7   8
ATOM      8  C   UNL     1     -25.775 119.123  -2.883  1.00  0.00     0.000 C 
BRANCH   8   9
ATOM      9  C   UNL     1     -25.641 117.622  -3.201  1.00  0.00     0.000 C 
BRANCH   9  10
ATOM     10  C   UNL     1     -24.397 116.961  -2.567  1.00  0.00     0.000 C 
BRANCH  10  11
ATOM     11  C   UNL     1     -24.768 115.735  -1.717  1.00  0.00     0.000 C 
BRANCH  11  12
ATOM     12  C   UNL     1     -26.249 115.345  -1.844  1.00  0.00     0.000 C 
BRANCH  12  13
ATOM     13  C   UNL     1     -26.856 114.900  -0.504  1.00  0.00     0.006 C 
BRANCH  13  14
ATOM     14  C   UNL     1     -25.903 115.195   0.659  1.00  0.00     0.053 C 
BRANCH  14  15
ATOM     15  C   UNL     1     -26.473 116.242   1.565  1.00  0.00     0.041 C 
ATOM     16  O   UNL     1     -26.904 115.926   2.707  1.00  0.00    -0.550 OA
ATOM     17  O   UNL     1     -26.524 117.569   1.155  1.00  0.00    -0.550 OA
ENDBRANCH  14  15
ENDBRANCH  13  14
ENDBRANCH  12  13
ENDBRANCH  11  12
ENDBRANCH  10  11
ENDBRANCH   9  10
ENDBRANCH   8   9
ENDBRANCH   7   8
ENDBRANCH   6   7
ENDBRANCH   5   6
ENDBRANCH   4   5
ENDBRANCH   3   4
ENDBRANCH   2   3
ENDBRANCH   1   2
BRANCH   1  18
ATOM     18  C   UNL     1     -21.356 120.231   0.203  1.00  0.00     0.000 C 
BRANCH  18  19
ATOM     19  C   UNL     1     -21.258 118.800   0.761  1.00  0.00     0.000 C 
BRANCH  19  20
ATOM     20  C   UNL     1     -22.606 118.046   0.753  1.00  0.00     0.000 C 
BRANCH  20  21
ATOM     21  C   UNL     1     -22.422 116.525   0.595  1.00  0.00     0.000 C 
BRANCH  21  22
ATOM     22  C   UNL     1     -21.251 116.159  -0.334  1.00  0.00     0.000 C 
BRANCH  22  23
ATOM     23  C   UNL     1     -21.174 114.671  -0.723  1.00  0.00     0.000 C 
BRANCH  23  24
ATOM     24  C   UNL     1     -19.769 114.252  -1.185  1.00  0.00    -0.000 C 
BRANCH  24  25
ATOM     25  C   UNL     1     -18.706 115.323  -0.889  1.00  0.00    -0.000 C 
BRANCH  25  26
ATOM     26  C   UNL     1     -18.192 116.022  -2.160  1.00  0.00    -0.000 C 
BRANCH  26  27
ATOM     27  C   UNL     1     -18.134 115.066  -3.372  1.00  0.00    -0.000 C 
BRANCH  27  28
ATOM     28  C   UNL     1     -19.002 115.529  -4.559  1.00  0.00    -0.000 C 
BRANCH  28  29
ATOM     29  C   UNL     1     -20.242 116.350  -4.169  1.00  0.00    -0.000 C 
BRANCH  29  30
ATOM     30  C   UNL     1     -21.536 115.798  -4.790  1.00  0.00    -0.000 C 
BRANCH  30  31
ATOM     31  C   UNL     1     -21.943 114.440  -4.198  1.00  0.00    -0.003 C 
ATOM     32  C   UNL     1     -23.340 113.998  -4.628  1.00  0.00     0.004 C 
ENDBRANCH  30  31
ENDBRANCH  29  30
ENDBRANCH  28  29
ENDBRANCH  27  28
ENDBRANCH  26  27
ENDBRANCH  25  26
ENDBRANCH  24  25
ENDBRANCH  23  24
ENDBRANCH  22  23
ENDBRANCH  21  22
ENDBRANCH  20  21
ENDBRANCH  19  20
ENDBRANCH  18  19
ENDBRANCH   1  18
TORSDOF 28
ENDMDL
MODEL 3
REMARK VINA RESULT:    -3.993      2.047      5.603
REMARK INTER + INTRA:         -15.859
REMARK INTER:                 -10.507
REMARK INTRA:                  -5.353
REMARK UNBOUND:                -5.330
REMARK SMILES CCCCCCCCCCCCCCCCCCCCCCCCCCCCCC(=O)[O-]
REMARK SMILES IDX 16 1 17 2 18 3 19 4 20 5 21 6 22 7 23 8 24 9 25 10 26 11
REMARK SMILES IDX 27 12 28 13 29 14 30 15 31 16 32 17 15 18 14 19 13 20 12 21
REMARK SMILES IDX 11 22 10 23 9 24 8 25 7 26 6 27 5 28 4 29 3 30 2 31 1 32
REMARK H PARENT
REMARK Flexibility Score: inf
ROOT
ATOM      1  C   UNL     1     -20.497 117.520  -1.206  1.00  0.00     0.000 C 
ENDROOT
BRANCH   1   2
ATOM      2  C   UNL     1     -20.549 118.723  -2.161  1.00  0.00     0.000 C 
BRANCH   2   3
ATOM      3  C   UNL     1     -19.758 119.932  -1.635  1.00  0.00     0.000 C 
BRANCH   3   4
ATOM      4  C   UNL     1     -20.629 120.929  -0.852  1.00  0.00     0.000 C 
BRANCH   4   5
ATOM      5  C   UNL     1     -22.058 121.146  -1.395  1.00  0.00     0.000 C 
BRANCH   5   6
ATOM      6  C   UNL     1     -23.165 120.433  -0.590  1.00  0.00     0.000 C 
BRANCH   6   7
ATOM      7  C   UNL     1     -24.585 120.863  -1.005  1.00  0.00     0.000 C 
BRANCH   7   8
ATOM      8  C   UNL     1     -25.315 119.788  -1.830  1.00  0.00     0.000 C 
BRANCH   8   9
ATOM      9  C   UNL     1     -24.431 118.612  -2.284  1.00  0.00     0.000 C 
BRANCH   9  10
ATOM     10  C   UNL     1     -25.209 117.496  -3.017  1.00  0.00     0.000 C 
BRANCH  10  11
ATOM     11  C   UNL     1     -26.157 116.739  -2.072  1.00  0.00     0.000 C 
BRANCH  11  12
ATOM     12  C   UNL     1     -25.595 115.381  -1.624  1.00  0.00     0.000 C 
BRANCH  12  13
ATOM     13  C   UNL     1     -25.492 115.264  -0.095  1.00  0.00     0.006 C 
BRANCH  13  14
ATOM     14  C   UNL     1     -26.586 116.083   0.597  1.00  0.00     0.053 C 
BRANCH  14  15
ATOM     15  C   UNL     1     -25.988 117.122   1.495  1.00  0.00     0.041 C 
ATOM     16  O   UNL     1     -26.617 117.519   2.513  1.00  0.00    -0.550 OA
ATOM     17  O   UNL     1     -24.733 117.649   1.214  1.00  0.00    -0.550 OA
ENDBRANCH  14  15
ENDBRANCH  13  14
ENDBRANCH  12  13
ENDBRANCH  11  12
ENDBRANCH  10  11
ENDBRANCH   9  10
ENDBRANCH   8   9
ENDBRANCH   7   8
ENDBRANCH   6   7
ENDBRANCH   5   6
ENDBRANCH   4   5
ENDBRANCH   3   4
ENDBRANCH   2   3
ENDBRANCH   1   2
BRANCH   1  18
ATOM     18  C   UNL     1     -21.865 116.839  -1.035  1.00  0.00     0.000 C 
BRANCH  18  19
ATOM     19  C   UNL     1     -21.751 115.383  -0.552  1.00  0.00     0.000 C 
BRANCH  19  20
ATOM     20  C   UNL     1     -20.570 114.618  -1.189  1.00  0.00     0.000 C 
BRANCH  20  21
ATOM     21  C   UNL     1     -19.495 114.238  -0.155  1.00  0.00     0.000 C 
BRANCH  21  22
ATOM     22  C   UNL     1     -18.097 114.075  -0.778  1.00  0.00     0.000 C 
BRANCH  22  23
ATOM     23  C   UNL     1     -17.395 115.395  -1.146  1.00  0.00     0.000 C 
BRANCH  23  24
ATOM     24  C   UNL     1     -17.241 115.580  -2.665  1.00  0.00    -0.000 C 
BRANCH  24  25
ATOM     25  C   UNL     1     -17.586 114.304  -3.452  1.00  0.00    -0.000 C 
BRANCH  25  26
ATOM     26  C   UNL     1     -18.793 114.489  -4.391  1.00  0.00    -0.000 C 
BRANCH  26  27
ATOM     27  C   UNL     1     -19.317 115.942  -4.392  1.00  0.00    -0.000 C 
BRANCH  27  28
ATOM     28  C   UNL     1     -20.821 116.051  -4.716  1.00  0.00    -0.000 C 
BRANCH  28  29
ATOM     29  C   UNL     1     -21.517 114.709  -5.000  1.00  0.00    -0.000 C 
BRANCH  29  30
ATOM     30  C   UNL     1     -22.722 114.462  -4.077  1.00  0.00    -0.000 C 
BRANCH  30  31
ATOM     31  C   UNL     1     -24.059 114.481  -4.833  1.00  0.00    -0.003 C 
ATOM     32  C   UNL     1     -23.956 113.897  -6.240  1.00  0.00     0.004 C 
ENDBRANCH  30  31
ENDBRANCH  29  30
ENDBRANCH  28  29
ENDBRANCH  27  28
ENDBRANCH  26  27
ENDBRANCH  25  26
ENDBRANCH  24  25
ENDBRANCH  23  24
ENDBRANCH  22  23
ENDBRANCH  21  22
ENDBRANCH  20  21
ENDBRANCH  19  20
ENDBRANCH  18  19
ENDBRANCH   1  18
TORSDOF 28
ENDMDL
MODEL 4
REMARK VINA RESULT:    -3.993      2.442      7.104
REMARK INTER + INTRA:         -15.859
REMARK INTER:                 -10.361
REMARK INTRA:                  -5.498
REMARK UNBOUND:                -5.330
REMARK SMILES CCCCCCCCCCCCCCCCCCCCCCCCCCCCCC(=O)[O-]
REMARK SMILES IDX 16 1 17 2 18 3 19 4 20 5 21 6 22 7 23 8 24 9 25 10 26 11
REMARK SMILES IDX 27 12 28 13 29 14 30 15 31 16 32 17 15 18 14 19 13 20 12 21
REMARK SMILES IDX 11 22 10 23 9 24 8 25 7 26 6 27 5 28 4 29 3 30 2 31 1 32
REMARK H PARENT
REMARK Flexibility Score: inf
ROOT
ATOM      1  C   UNL     1     -19.985 120.386  -1.246  1.00  0.00     0.000 C 
ENDROOT
BRANCH   1   2
ATOM      2  C   UNL     1     -20.213 119.157  -2.140  1.00  0.00     0.000 C 
BRANCH   2   3
ATOM      3  C   UNL     1     -19.998 117.831  -1.393  1.00  0.00     0.000 C 
BRANCH   3   4
ATOM      4  C   UNL     1     -21.115 117.521  -0.383  1.00  0.00     0.000 C 
BRANCH   4   5
ATOM      5  C   UNL     1     -21.313 116.030  -0.033  1.00  0.00     0.000 C 
BRANCH   5   6
ATOM      6  C   UNL     1     -21.382 115.089  -1.253  1.00  0.00     0.000 C 
BRANCH   6   7
ATOM      7  C   UNL     1     -20.303 113.989  -1.229  1.00  0.00     0.000 C 
BRANCH   7   8
ATOM      8  C   UNL     1     -19.216 114.244  -0.170  1.00  0.00     0.000 C 
BRANCH   8   9
ATOM      9  C   UNL     1     -17.772 114.053  -0.670  1.00  0.00     0.000 C 
BRANCH   9  10
ATOM     10  C   UNL     1     -17.078 115.369  -1.085  1.00  0.00     0.000 C 
BRANCH  10  11
ATOM     11  C   UNL     1     -17.193 115.629  -2.596  1.00  0.00     0.000 C 
BRANCH  11  12
ATOM     12  C   UNL     1     -17.378 114.340  -3.412  1.00  0.00     0.000 C 
BRANCH  12  13
ATOM     13  C   UNL     1     -18.530 114.446  -4.424  1.00  0.00     0.006 C 
BRANCH  13  14
ATOM     14  C   UNL     1     -19.254 115.790  -4.297  1.00  0.00     0.053 C 
BRANCH  14  15
ATOM     15  C   UNL     1     -20.436 115.848  -5.216  1.00  0.00     0.041 C 
ATOM     16  O   UNL     1     -21.316 114.946  -5.176  1.00  0.00    -0.550 OA
ATOM     17  O   UNL     1     -20.571 116.902  -6.112  1.00  0.00    -0.550 OA
ENDBRANCH  14  15
ENDBRANCH  13  14
ENDBRANCH  12  13
ENDBRANCH  11  12
ENDBRANCH  10  11
ENDBRANCH   9  10
ENDBRANCH   8   9
ENDBRANCH   7   8
ENDBRANCH   6   7
ENDBRANCH   5   6
ENDBRANCH   4   5
ENDBRANCH   3   4
ENDBRANCH   2   3
ENDBRANCH   1   2
BRANCH   1  18
ATOM     18  C   UNL     1     -21.275 121.184  -0.995  1.00  0.00     0.000 C 
BRANCH  18  19
ATOM     19  C   UNL     1     -22.425 120.768  -1.930  1.00  0.00     0.000 C 
BRANCH  19  20
ATOM     20  C   UNL     1     -23.825 120.994  -1.316  1.00  0.00     0.000 C 
BRANCH  20  21
ATOM     21  C   UNL     1     -24.942 120.926  -2.373  1.00  0.00     0.000 C 
BRANCH  21  22
ATOM     22  C   UNL     1     -26.319 121.325  -1.813  1.00  0.00     0.000 C 
BRANCH  22  23
ATOM     23  C   UNL     1     -26.970 120.278  -0.890  1.00  0.00     0.000 C 
BRANCH  23  24
ATOM     24  C   UNL     1     -26.646 118.835  -1.311  1.00  0.00    -0.000 C 
BRANCH  24  25
ATOM     25  C   UNL     1     -26.565 117.875  -0.113  1.00  0.00    -0.000 C 
BRANCH  25  26
ATOM     26  C   UNL     1     -25.135 117.372   0.156  1.00  0.00    -0.000 C 
BRANCH  26  27
ATOM     27  C   UNL     1     -24.991 115.854  -0.093  1.00  0.00    -0.000 C 
BRANCH  27  28
ATOM     28  C   UNL     1     -26.182 115.243  -0.859  1.00  0.00    -0.000 C 
BRANCH  28  29
ATOM     29  C   UNL     1     -26.095 115.366  -2.389  1.00  0.00    -0.000 C 
BRANCH  29  30
ATOM     30  C   UNL     1     -24.659 115.199  -2.914  1.00  0.00    -0.000 C 
BRANCH  30  31
ATOM     31  C   UNL     1     -24.232 116.346  -3.844  1.00  0.00    -0.003 C 
ATOM     32  C   UNL     1     -23.506 117.470  -3.107  1.00  0.00     0.004 C 
ENDBRANCH  30  31
ENDBRANCH  29  30
ENDBRANCH  28  29
ENDBRANCH  27  28
ENDBRANCH  26  27
ENDBRANCH  25  26
ENDBRANCH  24  25
ENDBRANCH  23  24
ENDBRANCH  22  23
ENDBRANCH  21  22
ENDBRANCH  20  21
ENDBRANCH  19  20
ENDBRANCH  18  19
ENDBRANCH   1  18
TORSDOF 28
ENDMDL
MODEL 5
REMARK VINA RESULT:    -3.988      1.504      5.298
REMARK INTER + INTRA:         -15.846
REMARK INTER:                  -9.542
REMARK INTRA:                  -6.304
REMARK UNBOUND:                -5.330
REMARK SMILES CCCCCCCCCCCCCCCCCCCCCCCCCCCCCC(=O)[O-]
REMARK SMILES IDX 16 1 17 2 18 3 19 4 20 5 21 6 22 7 23 8 24 9 25 10 26 11
REMARK SMILES IDX 27 12 28 13 29 14 30 15 31 16 32 17 15 18 14 19 13 20 12 21
REMARK SMILES IDX 11 22 10 23 9 24 8 25 7 26 6 27 5 28 4 29 3 30 2 31 1 32
REMARK H PARENT
REMARK Flexibility Score: inf
ROOT
ATOM      1  C   UNL     1     -21.431 120.435  -0.232  1.00  0.00     0.000 C 
ENDROOT
BRANCH   1   2
ATOM      2  C   UNL     1     -21.129 119.646   1.052  1.00  0.00     0.000 C 
BRANCH   2   3
ATOM      3  C   UNL     1     -21.926 118.334   1.143  1.00  0.00     0.000 C 
BRANCH   3   4
ATOM      4  C   UNL     1     -23.241 118.371   0.346  1.00  0.00     0.000 C 
BRANCH   4   5
ATOM      5  C   UNL     1     -24.137 117.120   0.466  1.00  0.00     0.000 C 
BRANCH   5   6
ATOM      6  C   UNL     1     -25.602 117.414   0.851  1.00  0.00     0.000 C 
BRANCH   6   7
ATOM      7  C   UNL     1     -26.620 116.662  -0.027  1.00  0.00     0.000 C 
BRANCH   7   8
ATOM      8  C   UNL     1     -26.084 115.313  -0.539  1.00  0.00     0.000 C 
BRANCH   8   9
ATOM      9  C   UNL     1     -26.173 115.121  -2.064  1.00  0.00     0.000 C 
BRANCH   9  10
ATOM     10  C   UNL     1     -24.843 115.392  -2.803  1.00  0.00     0.000 C 
BRANCH  10  11
ATOM     11  C   UNL     1     -24.747 116.844  -3.301  1.00  0.00     0.000 C 
BRANCH  11  12
ATOM     12  C   UNL     1     -26.085 117.384  -3.829  1.00  0.00     0.000 C 
BRANCH  12  13
ATOM     13  C   UNL     1     -26.483 118.713  -3.168  1.00  0.00     0.006 C 
BRANCH  13  14
ATOM     14  C   UNL     1     -25.280 119.375  -2.490  1.00  0.00     0.053 C 
BRANCH  14  15
ATOM     15  C   UNL     1     -25.726 120.367  -1.460  1.00  0.00     0.041 C 
ATOM     16  O   UNL     1     -26.892 120.306  -0.984  1.00  0.00    -0.550 OA
ATOM     17  O   UNL     1     -24.854 121.355  -1.017  1.00  0.00    -0.550 OA
ENDBRANCH  14  15
ENDBRANCH  13  14
ENDBRANCH  12  13
ENDBRANCH  11  12
ENDBRANCH  10  11
ENDBRANCH   9  10
ENDBRANCH   8   9
ENDBRANCH   7   8
ENDBRANCH   6   7
ENDBRANCH   5   6
ENDBRANCH   4   5
ENDBRANCH   3   4
ENDBRANCH   2   3
ENDBRANCH   1   2
BRANCH   1  18
ATOM     18  C   UNL     1     -20.307 120.321  -1.276  1.00  0.00     0.000 C 
BRANCH  18  19
ATOM     19  C   UNL     1     -20.837 120.045  -2.694  1.00  0.00     0.000 C 
BRANCH  19  20
ATOM     20  C   UNL     1     -21.443 118.633  -2.857  1.00  0.00     0.000 C 
BRANCH  20  21
ATOM     21  C   UNL     1     -20.570 117.546  -2.205  1.00  0.00     0.000 C 
BRANCH  21  22
ATOM     22  C   UNL     1     -21.336 116.233  -1.959  1.00  0.00     0.000 C 
BRANCH  22  23
ATOM     23  C   UNL     1     -20.913 115.465  -0.694  1.00  0.00     0.000 C 
BRANCH  23  24
ATOM     24  C   UNL     1     -19.999 114.268  -1.006  1.00  0.00    -0.000 C 
BRANCH  24  25
ATOM     25  C   UNL     1     -18.537 114.520  -0.599  1.00  0.00    -0.000 C 
BRANCH  25  26
ATOM     26  C   UNL     1     -17.547 114.293  -1.756  1.00  0.00    -0.000 C 
BRANCH  26  27
ATOM     27  C   UNL     1     -17.787 115.266  -2.932  1.00  0.00    -0.000 C 
BRANCH  27  28
ATOM     28  C   UNL     1     -18.198 114.559  -4.239  1.00  0.00    -0.000 C 
BRANCH  28  29
ATOM     29  C   UNL     1     -19.593 114.938  -4.765  1.00  0.00    -0.000 C 
BRANCH  29  30
ATOM     30  C   UNL     1     -19.604 116.299  -5.481  1.00  0.00    -0.000 C 
BRANCH  30  31
ATOM     31  C   UNL     1     -20.999 116.683  -5.998  1.00  0.00    -0.003 C 
ATOM     32  C   UNL     1     -22.082 115.690  -5.583  1.00  0.00     0.004 C 
ENDBRANCH  30  31
ENDBRANCH  29  30
ENDBRANCH  28  29
ENDBRANCH  27  28
ENDBRANCH  26  27
ENDBRANCH  25  26
ENDBRANCH  24  25
ENDBRANCH  23  24
ENDBRANCH  22  23
ENDBRANCH  21  22
ENDBRANCH  20  21
ENDBRANCH  19  20
ENDBRANCH  18  19
ENDBRANCH   1  18
TORSDOF 28
ENDMDL
MODEL 6
REMARK VINA RESULT:    -3.975      1.365      4.088
REMARK INTER + INTRA:         -15.812
REMARK INTER:                 -10.208
REMARK INTRA:                  -5.604
REMARK UNBOUND:                -5.330
REMARK SMILES CCCCCCCCCCCCCCCCCCCCCCCCCCCCCC(=O)[O-]
REMARK SMILES IDX 16 1 17 2 18 3 19 4 20 5 21 6 22 7 23 8 24 9 25 10 26 11
REMARK SMILES IDX 27 12 28 13 29 14 30 15 31 16 32 17 15 18 14 19 13 20 12 21
REMARK SMILES IDX 11 22 10 23 9 24 8 25 7 26 6 27 5 28 4 29 3 30 2 31 1 32
REMARK H PARENT
REMARK Flexibility Score: inf
ROOT
ATOM      1  C   UNL     1     -17.489 115.403  -1.945  1.00  0.00     0.000 C 
ENDROOT
BRANCH   1   2
ATOM      2  C   UNL     1     -17.236 114.501  -0.726  1.00  0.00     0.000 C 
BRANCH   2   3
ATOM      3  C   UNL     1     -18.520 114.199   0.065  1.00  0.00     0.000 C 
BRANCH   3   4
ATOM      4  C   UNL     1     -19.786 114.229  -0.808  1.00  0.00     0.000 C 
BRANCH   4   5
ATOM      5  C   UNL     1     -20.834 115.300  -0.438  1.00  0.00     0.000 C 
BRANCH   5   6
ATOM      6  C   UNL     1     -22.057 115.353  -1.378  1.00  0.00     0.000 C 
BRANCH   6   7
ATOM      7  C   UNL     1     -21.856 114.545  -2.675  1.00  0.00     0.000 C 
BRANCH   7   8
ATOM      8  C   UNL     1     -23.005 114.739  -3.681  1.00  0.00     0.000 C 
BRANCH   8   9
ATOM      9  C   UNL     1     -24.339 115.189  -3.057  1.00  0.00     0.000 C 
BRANCH   9  10
ATOM     10  C   UNL     1     -25.025 116.342  -3.823  1.00  0.00     0.000 C 
BRANCH  10  11
ATOM     11  C   UNL     1     -26.424 116.651  -3.265  1.00  0.00     0.000 C 
BRANCH  11  12
ATOM     12  C   UNL     1     -26.862 118.102  -3.517  1.00  0.00     0.000 C 
BRANCH  12  13
ATOM     13  C   UNL     1     -25.735 119.111  -3.244  1.00  0.00     0.006 C 
BRANCH  13  14
ATOM     14  C   UNL     1     -26.282 120.540  -3.158  1.00  0.00     0.053 C 
BRANCH  14  15
ATOM     15  C   UNL     1     -25.216 121.540  -3.482  1.00  0.00     0.041 C 
ATOM     16  O   UNL     1     -24.093 121.477  -2.913  1.00  0.00    -0.550 OA
ATOM     17  O   UNL     1     -25.457 122.539  -4.418  1.00  0.00    -0.550 OA
ENDBRANCH  14  15
ENDBRANCH  13  14
ENDBRANCH  12  13
ENDBRANCH  11  12
ENDBRANCH  10  11
ENDBRANCH   9  10
ENDBRANCH   8   9
ENDBRANCH   7   8
ENDBRANCH   6   7
ENDBRANCH   5   6
ENDBRANCH   4   5
ENDBRANCH   3   4
ENDBRANCH   2   3
ENDBRANCH   1   2
BRANCH   1  18
ATOM     18  C   UNL     1     -17.220 114.686  -3.278  1.00  0.00     0.000 C 
BRANCH  18  19
ATOM     19  C   UNL     1     -18.405 114.781  -4.255  1.00  0.00     0.000 C 
BRANCH  19  20
ATOM     20  C   UNL     1     -19.183 116.112  -4.147  1.00  0.00     0.000 C 
BRANCH  20  21
ATOM     21  C   UNL     1     -20.059 116.377  -5.385  1.00  0.00     0.000 C 
BRANCH  21  22
ATOM     22  C   UNL     1     -21.136 117.448  -5.136  1.00  0.00     0.000 C 
BRANCH  22  23
ATOM     23  C   UNL     1     -21.145 118.039  -3.715  1.00  0.00     0.000 C 
BRANCH  23  24
ATOM     24  C   UNL     1     -21.198 119.576  -3.713  1.00  0.00    -0.000 C 
BRANCH  24  25
ATOM     25  C   UNL     1     -20.807 120.178  -2.353  1.00  0.00    -0.000 C 
BRANCH  25  26
ATOM     26  C   UNL     1     -20.230 119.133  -1.380  1.00  0.00    -0.000 C 
BRANCH  26  27
ATOM     27  C   UNL     1     -21.139 118.912  -0.152  1.00  0.00    -0.000 C 
BRANCH  27  28
ATOM     28  C   UNL     1     -22.534 119.553  -0.298  1.00  0.00    -0.000 C 
BRANCH  28  29
ATOM     29  C   UNL     1     -23.664 118.566  -0.634  1.00  0.00    -0.000 C 
BRANCH  29  30
ATOM     30  C   UNL     1     -24.156 117.788   0.598  1.00  0.00    -0.000 C 
BRANCH  30  31
ATOM     31  C   UNL     1     -25.431 116.979   0.316  1.00  0.00    -0.003 C 
ATOM     32  C   UNL     1     -25.230 115.474   0.484  1.00  0.00     0.004 C 
ENDBRANCH  30  31
ENDBRANCH  29  30
ENDBRANCH  28  29
ENDBRANCH  27  28
ENDBRANCH  26  27
ENDBRANCH  25  26
ENDBRANCH  24  25
ENDBRANCH  23  24
ENDBRANCH  22  23
ENDBRANCH  21  22
ENDBRANCH  20  21
ENDBRANCH  19  20
ENDBRANCH  18  19
ENDBRANCH   1  18
TORSDOF 28
ENDMDL
MODEL 7
REMARK VINA RESULT:    -3.941      2.361      6.844
REMARK INTER + INTRA:         -15.723
REMARK INTER:                  -9.970
REMARK INTRA:                  -5.753
REMARK UNBOUND:                -5.330
REMARK SMILES CCCCCCCCCCCCCCCCCCCCCCCCCCCCCC(=O)[O-]
REMARK SMILES IDX 16 1 17 2 18 3 19 4 20 5 21 6 22 7 23 8 24 9 25 10 26 11
REMARK SMILES IDX 27 12 28 13 29 14 30 15 31 16 32 17 15 18 14 19 13 20 12 21
REMARK SMILES IDX 11 22 10 23 9 24 8 25 7 26 6 27 5 28 4 29 3 30 2 31 1 32
REMARK H PARENT
REMARK Flexibility Score: inf
ROOT
ATOM      1  C   UNL     1     -19.942 118.452  -1.398  1.00  0.00     0.000 C 
ENDROOT
BRANCH   1   2
ATOM      2  C   UNL     1     -21.102 117.780  -0.645  1.00  0.00     0.000 C 
BRANCH   2   3
ATOM      3  C   UNL     1     -22.032 116.986  -1.576  1.00  0.00     0.000 C 
BRANCH   3   4
ATOM      4  C   UNL     1     -21.997 115.471  -1.313  1.00  0.00     0.000 C 
BRANCH   4   5
ATOM      5  C   UNL     1     -21.024 115.001  -0.211  1.00  0.00     0.000 C 
BRANCH   5   6
ATOM      6  C   UNL     1     -19.936 114.017  -0.692  1.00  0.00     0.000 C 
BRANCH   6   7
ATOM      7  C   UNL     1     -18.578 114.234   0.001  1.00  0.00     0.000 C 
BRANCH   7   8
ATOM      8  C   UNL     1     -17.421 114.415  -0.998  1.00  0.00     0.000 C 
BRANCH   8   9
ATOM      9  C   UNL     1     -17.523 115.671  -1.882  1.00  0.00     0.000 C 
BRANCH   9  10
ATOM     10  C   UNL     1     -17.494 115.369  -3.397  1.00  0.00     0.000 C 
BRANCH  10  11
ATOM     11  C   UNL     1     -18.556 114.332  -3.798  1.00  0.00     0.000 C 
BRANCH  11  12
ATOM     12  C   UNL     1     -19.842 114.972  -4.343  1.00  0.00     0.000 C 
BRANCH  12  13
ATOM     13  C   UNL     1     -19.707 116.491  -4.534  1.00  0.00     0.006 C 
BRANCH  13  14
ATOM     14  C   UNL     1     -21.032 117.110  -4.992  1.00  0.00     0.053 C 
BRANCH  14  15
ATOM     15  C   UNL     1     -21.515 116.463  -6.254  1.00  0.00     0.041 C 
ATOM     16  O   UNL     1     -22.623 115.861  -6.274  1.00  0.00    -0.550 OA
ATOM     17  O   UNL     1     -20.748 116.529  -7.411  1.00  0.00    -0.550 OA
ENDBRANCH  14  15
ENDBRANCH  13  14
ENDBRANCH  12  13
ENDBRANCH  11  12
ENDBRANCH  10  11
ENDBRANCH   9  10
ENDBRANCH   8   9
ENDBRANCH   7   8
ENDBRANCH   6   7
ENDBRANCH   5   6
ENDBRANCH   4   5
ENDBRANCH   3   4
ENDBRANCH   2   3
ENDBRANCH   1   2
BRANCH   1  18
ATOM     18  C   UNL     1     -20.183 119.951  -1.644  1.00  0.00     0.000 C 
BRANCH  18  19
ATOM     19  C   UNL     1     -20.880 120.230  -2.987  1.00  0.00     0.000 C 
BRANCH  19  20
ATOM     20  C   UNL     1     -22.404 120.446  -2.853  1.00  0.00     0.000 C 
BRANCH  20  21
ATOM     21  C   UNL     1     -22.797 120.980  -1.464  1.00  0.00     0.000 C 
BRANCH  21  22
ATOM     22  C   UNL     1     -24.289 120.779  -1.147  1.00  0.00     0.000 C 
BRANCH  22  23
ATOM     23  C   UNL     1     -24.685 119.337  -0.778  1.00  0.00     0.000 C 
BRANCH  23  24
ATOM     24  C   UNL     1     -26.012 118.904  -1.422  1.00  0.00    -0.000 C 
BRANCH  24  25
ATOM     25  C   UNL     1     -25.996 119.037  -2.954  1.00  0.00    -0.000 C 
BRANCH  25  26
ATOM     26  C   UNL     1     -26.141 117.684  -3.674  1.00  0.00    -0.000 C 
BRANCH  26  27
ATOM     27  C   UNL     1     -24.877 116.807  -3.535  1.00  0.00    -0.000 C 
BRANCH  27  28
ATOM     28  C   UNL     1     -25.188 115.314  -3.312  1.00  0.00    -0.000 C 
BRANCH  28  29
ATOM     29  C   UNL     1     -26.641 115.012  -2.906  1.00  0.00    -0.000 C 
BRANCH  29  30
ATOM     30  C   UNL     1     -26.761 114.533  -1.450  1.00  0.00    -0.000 C 
BRANCH  30  31
ATOM     31  C   UNL     1     -26.464 115.646  -0.434  1.00  0.00    -0.003 C 
ATOM     32  C   UNL     1     -25.240 115.353   0.431  1.00  0.00     0.004 C 
ENDBRANCH  30  31
ENDBRANCH  29  30
ENDBRANCH  28  29
ENDBRANCH  27  28
ENDBRANCH  26  27
ENDBRANCH  25  26
ENDBRANCH  24  25
ENDBRANCH  23  24
ENDBRANCH  22  23
ENDBRANCH  21  22
ENDBRANCH  20  21
ENDBRANCH  19  20
ENDBRANCH  18  19
ENDBRANCH   1  18
TORSDOF 28
ENDMDL
MODEL 8
REMARK VINA RESULT:    -3.897      2.536      6.880
REMARK INTER + INTRA:         -15.605
REMARK INTER:                  -9.846
REMARK INTRA:                  -5.760
REMARK UNBOUND:                -5.330
REMARK SMILES CCCCCCCCCCCCCCCCCCCCCCCCCCCCCC(=O)[O-]
REMARK SMILES IDX 16 1 17 2 18 3 19 4 20 5 21 6 22 7 23 8 24 9 25 10 26 11
REMARK SMILES IDX 27 12 28 13 29 14 30 15 31 16 32 17 15 18 14 19 13 20 12 21
REMARK SMILES IDX 11 22 10 23 9 24 8 25 7 26 6 27 5 28 4 29 3 30 2 31 1 32
REMARK H PARENT
REMARK Flexibility Score: inf
ROOT
ATOM      1  C   UNL     1     -20.453 120.509  -1.578  1.00  0.00     0.000 C 
ENDROOT
BRANCH   1   2
ATOM      2  C   UNL     1     -20.501 119.298  -0.632  1.00  0.00     0.000 C 
BRANCH   2   3
ATOM      3  C   UNL     1     -21.473 119.500   0.542  1.00  0.00     0.000 C 
BRANCH   3   4
ATOM      4  C   UNL     1     -21.860 118.184   1.238  1.00  0.00     0.000 C 
BRANCH   4   5
ATOM      5  C   UNL     1     -22.908 117.318   0.506  1.00  0.00     0.000 C 
BRANCH   5   6
ATOM      6  C   UNL     1     -22.534 115.826   0.383  1.00  0.00     0.000 C 
BRANCH   6   7
ATOM      7  C   UNL     1     -22.180 115.410  -1.058  1.00  0.00     0.000 C 
BRANCH   7   8
ATOM      8  C   UNL     1     -20.801 114.735  -1.161  1.00  0.00     0.000 C 
BRANCH   8   9
ATOM      9  C   UNL     1     -19.603 115.688  -1.000  1.00  0.00     0.000 C 
BRANCH   9  10
ATOM     10  C   UNL     1     -19.151 116.347  -2.323  1.00  0.00     0.000 C 
BRANCH  10  11
ATOM     11  C   UNL     1     -18.608 115.315  -3.324  1.00  0.00     0.000 C 
BRANCH  11  12
ATOM     12  C   UNL     1     -19.106 115.552  -4.758  1.00  0.00     0.000 C 
BRANCH  12  13
ATOM     13  C   UNL     1     -20.595 115.929  -4.807  1.00  0.00     0.006 C 
BRANCH  13  14
ATOM     14  C   UNL     1     -20.932 116.678  -6.101  1.00  0.00     0.053 C 
BRANCH  14  15
ATOM     15  C   UNL     1     -21.892 115.892  -6.939  1.00  0.00     0.041 C 
ATOM     16  O   UNL     1     -21.806 114.635  -6.991  1.00  0.00    -0.550 OA
ATOM     17  O   UNL     1     -22.887 116.543  -7.658  1.00  0.00    -0.550 OA
ENDBRANCH  14  15
ENDBRANCH  13  14
ENDBRANCH  12  13
ENDBRANCH  11  12
ENDBRANCH  10  11
ENDBRANCH   9  10
ENDBRANCH   8   9
ENDBRANCH   7   8
ENDBRANCH   6   7
ENDBRANCH   5   6
ENDBRANCH   4   5
ENDBRANCH   3   4
ENDBRANCH   2   3
ENDBRANCH   1   2
BRANCH   1  18
ATOM     18  C   UNL     1     -21.196 120.258  -2.900  1.00  0.00     0.000 C 
BRANCH  18  19
ATOM     19  C   UNL     1     -21.808 118.849  -2.982  1.00  0.00     0.000 C 
BRANCH  19  20
ATOM     20  C   UNL     1     -23.330 118.826  -2.712  1.00  0.00     0.000 C 
BRANCH  20  21
ATOM     21  C   UNL     1     -23.905 120.238  -2.500  1.00  0.00     0.000 C 
BRANCH  21  22
ATOM     22  C   UNL     1     -24.637 120.389  -1.155  1.00  0.00     0.000 C 
BRANCH  22  23
ATOM     23  C   UNL     1     -26.146 120.679  -1.268  1.00  0.00     0.000 C 
BRANCH  23  24
ATOM     24  C   UNL     1     -27.012 119.492  -0.815  1.00  0.00    -0.000 C 
BRANCH  24  25
ATOM     25  C   UNL     1     -26.171 118.277  -0.387  1.00  0.00    -0.000 C 
BRANCH  25  26
ATOM     26  C   UNL     1     -26.689 117.616   0.903  1.00  0.00    -0.000 C 
BRANCH  26  27
ATOM     27  C   UNL     1     -26.921 116.099   0.731  1.00  0.00    -0.000 C 
BRANCH  27  28
ATOM     28  C   UNL     1     -26.071 115.472  -0.392  1.00  0.00    -0.000 C 
BRANCH  28  29
ATOM     29  C   UNL     1     -26.853 114.581  -1.372  1.00  0.00    -0.000 C 
BRANCH  29  30
ATOM     30  C   UNL     1     -26.551 114.912  -2.843  1.00  0.00    -0.000 C 
BRANCH  30  31
ATOM     31  C   UNL     1     -25.233 115.682  -3.017  1.00  0.00    -0.003 C 
ATOM     32  C   UNL     1     -24.311 115.054  -4.059  1.00  0.00     0.004 C 
ENDBRANCH  30  31
ENDBRANCH  29  30
ENDBRANCH  28  29
ENDBRANCH  27  28
ENDBRANCH  26  27
ENDBRANCH  25  26
ENDBRANCH  24  25
ENDBRANCH  23  24
ENDBRANCH  22  23
ENDBRANCH  21  22
ENDBRANCH  20  21
ENDBRANCH  19  20
ENDBRANCH  18  19
ENDBRANCH   1  18
TORSDOF 28
ENDMDL
MODEL 9
REMARK VINA RESULT:    -3.853      2.481      5.277
REMARK INTER + INTRA:         -15.491
REMARK INTER:                  -9.800
REMARK INTRA:                  -5.692
REMARK UNBOUND:                -5.330
REMARK SMILES CCCCCCCCCCCCCCCCCCCCCCCCCCCCCC(=O)[O-]
REMARK SMILES IDX 16 1 17 2 18 3 19 4 20 5 21 6 22 7 23 8 24 9 25 10 26 11
REMARK SMILES IDX 27 12 28 13 29 14 30 15 31 16 32 17 15 18 14 19 13 20 12 21
REMARK SMILES IDX 11 22 10 23 9 24 8 25 7 26 6 27 5 28 4 29 3 30 2 31 1 32
REMARK H PARENT
REMARK Flexibility Score: inf
ROOT
ATOM      1  C   UNL     1     -21.242 114.202  -5.496  1.00  0.00     0.000 C 
ENDROOT
BRANCH   1   2
ATOM      2  C   UNL     1     -21.924 114.916  -6.674  1.00  0.00     0.000 C 
BRANCH   2   3
ATOM      3  C   UNL     1     -21.537 116.401  -6.774  1.00  0.00     0.000 C 
BRANCH   3   4
ATOM      4  C   UNL     1     -20.539 116.837  -5.687  1.00  0.00     0.000 C 
BRANCH   4   5
ATOM      5  C   UNL     1     -21.118 117.708  -4.552  1.00  0.00     0.000 C 
BRANCH   5   6
ATOM      6  C   UNL     1     -20.994 117.090  -3.143  1.00  0.00     0.000 C 
BRANCH   6   7
ATOM      7  C   UNL     1     -19.574 116.579  -2.831  1.00  0.00     0.000 C 
BRANCH   7   8
ATOM      8  C   UNL     1     -19.576 115.244  -2.067  1.00  0.00     0.000 C 
BRANCH   8   9
ATOM      9  C   UNL     1     -20.825 114.999  -1.199  1.00  0.00     0.000 C 
BRANCH   9  10
ATOM     10  C   UNL     1     -20.839 115.814   0.114  1.00  0.00     0.000 C 
BRANCH  10  11
ATOM     11  C   UNL     1     -22.264 116.219   0.524  1.00  0.00     0.000 C 
BRANCH  11  12
ATOM     12  C   UNL     1     -23.330 115.762  -0.485  1.00  0.00     0.000 C 
BRANCH  12  13
ATOM     13  C   UNL     1     -24.709 116.377  -0.201  1.00  0.00     0.006 C 
BRANCH  13  14
ATOM     14  C   UNL     1     -25.802 115.303  -0.193  1.00  0.00     0.053 C 
BRANCH  14  15
ATOM     15  C   UNL     1     -26.377 115.137   1.180  1.00  0.00     0.041 C 
ATOM     16  O   UNL     1     -27.124 116.029   1.666  1.00  0.00    -0.550 OA
ATOM     17  O   UNL     1     -26.096 113.996   1.921  1.00  0.00    -0.550 OA
ENDBRANCH  14  15
ENDBRANCH  13  14
ENDBRANCH  12  13
ENDBRANCH  11  12
ENDBRANCH  10  11
ENDBRANCH   9  10
ENDBRANCH   8   9
ENDBRANCH   7   8
ENDBRANCH   6   7
ENDBRANCH   5   6
ENDBRANCH   4   5
ENDBRANCH   3   4
ENDBRANCH   2   3
ENDBRANCH   1   2
BRANCH   1  18
ATOM     18  C   UNL     1     -22.217 113.880  -4.352  1.00  0.00     0.000 C 
BRANCH  18  19
ATOM     19  C   UNL     1     -23.670 114.268  -4.680  1.00  0.00     0.000 C 
BRANCH  19  20
ATOM     20  C   UNL     1     -24.196 115.445  -3.828  1.00  0.00     0.000 C 
BRANCH  20  21
ATOM     21  C   UNL     1     -25.295 116.242  -4.552  1.00  0.00     0.000 C 
BRANCH  21  22
ATOM     22  C   UNL     1     -26.344 116.826  -3.588  1.00  0.00     0.000 C 
BRANCH  22  23
ATOM     23  C   UNL     1     -26.281 118.354  -3.412  1.00  0.00     0.000 C 
BRANCH  23  24
ATOM     24  C   UNL     1     -26.670 118.803  -1.993  1.00  0.00    -0.000 C 
BRANCH  24  25
ATOM     25  C   UNL     1     -26.212 120.237  -1.682  1.00  0.00    -0.000 C 
BRANCH  25  26
ATOM     26  C   UNL     1     -25.563 120.934  -2.893  1.00  0.00    -0.000 C 
BRANCH  26  27
ATOM     27  C   UNL     1     -24.027 121.022  -2.764  1.00  0.00    -0.000 C 
BRANCH  27  28
ATOM     28  C   UNL     1     -23.515 120.751  -1.334  1.00  0.00    -0.000 C 
BRANCH  28  29
ATOM     29  C   UNL     1     -22.554 119.556  -1.210  1.00  0.00    -0.000 C 
BRANCH  29  30
ATOM     30  C   UNL     1     -21.438 119.800  -0.180  1.00  0.00    -0.000 C 
BRANCH  30  31
ATOM     31  C   UNL     1     -20.394 120.815  -0.668  1.00  0.00    -0.003 C 
ATOM     32  C   UNL     1     -19.965 120.580  -2.115  1.00  0.00     0.004 C 
ENDBRANCH  30  31
ENDBRANCH  29  30
ENDBRANCH  28  29
ENDBRANCH  27  28
ENDBRANCH  26  27
ENDBRANCH  25  26
ENDBRANCH  24  25
ENDBRANCH  23  24
ENDBRANCH  22  23
ENDBRANCH  21  22
ENDBRANCH  20  21
ENDBRANCH  19  20
ENDBRANCH  18  19
ENDBRANCH   1  18
TORSDOF 28
ENDMDL
