MODEL 1
REMARK VINA RESULT:     7.007      0.000      0.000
REMARK INTER + INTRA:          12.887
REMARK INTER:                  12.331
REMARK INTRA:                   0.555
REMARK UNBOUND:                 0.555
REMARK SMILES CCCCCCCCCCCCCCC(=O)[O-]
REMARK SMILES IDX 9 1 10 2 11 3 12 4 13 5 14 6 15 7 16 8 17 9 8 10 7 11 6 12
REMARK SMILES IDX 5 13 4 14 3 15 2 16 1 17
REMARK H PARENT
REMARK Flexibility Score: inf
ROOT
ATOM      1  C   UNL     1      15.506 -14.543   6.851  1.00  0.00     0.000 C 
ENDROOT
BRANCH   1   2
ATOM      2  C   UNL     1      14.001 -14.804   7.043  1.00  0.00     0.000 C 
BRANCH   2   3
ATOM      3  C   UNL     1      13.165 -13.515   7.032  1.00  0.00     0.000 C 
BRANCH   3   4
ATOM      4  C   UNL     1      12.293 -13.437   5.772  1.00  0.00     0.000 C 
BRANCH   4   5
ATOM      5  C   UNL     1      11.944 -11.980   5.434  1.00  0.00     0.006 C 
BRANCH   5   6
ATOM      6  C   UNL     1      10.539 -11.594   5.916  1.00  0.00     0.053 C 
BRANCH   6   7
ATOM      7  C   UNL     1       9.494 -12.527   5.384  1.00  0.00     0.041 C 
ATOM      8  O   UNL     1       9.745 -13.753   5.255  1.00  0.00    -0.550 OA
ATOM      9  O   UNL     1       8.252 -12.034   5.002  1.00  0.00    -0.550 OA
ENDBRANCH   6   7
ENDBRANCH   5   6
ENDBRANCH   4   5
ENDBRANCH   3   4
ENDBRANCH   2   3
ENDBRANCH   1   2
BRANCH   1  10
ATOM     10  C   UNL     1      16.387 -15.808   6.789  1.00  0.00     0.000 C 
BRANCH  10  11
ATOM     11  C   UNL     1      17.880 -15.551   6.518  1.00  0.00    -0.000 C 
BRANCH  11  12
ATOM     12  C   UNL     1      18.760 -16.774   6.816  1.00  0.00    -0.000 C 
BRANCH  12  13
ATOM     13  C   UNL     1      18.348 -17.971   5.951  1.00  0.00    -0.000 C 
BRANCH  13  14
ATOM     14  C   UNL     1      19.120 -17.981   4.623  1.00  0.00    -0.000 C 
BRANCH  14  15
ATOM     15  C   UNL     1      18.878 -16.713   3.788  1.00  0.00    -0.000 C 
BRANCH  15  16
ATOM     16  C   UNL     1      18.780 -17.005   2.283  1.00  0.00    -0.003 C 
ATOM     17  C   UNL     1      17.342 -17.316   1.877  1.00  0.00     0.004 C 
ENDBRANCH  15  16
ENDBRANCH  14  15
ENDBRANCH  13  14
ENDBRANCH  12  13
ENDBRANCH  11  12
ENDBRANCH  10  11
ENDBRANCH   1  10
TORSDOF 13
ENDMDL
MODEL 2
REMARK VINA RESULT:     7.396      1.473      1.733
REMARK INTER + INTRA:          13.573
REMARK INTER:                  14.198
REMARK INTRA:                  -0.625
REMARK UNBOUND:                 0.555
REMARK SMILES CCCCCCCCCCCCCCC(=O)[O-]
REMARK SMILES IDX 9 1 10 2 11 3 12 4 13 5 14 6 15 7 16 8 17 9 8 10 7 11 6 12
REMARK SMILES IDX 5 13 4 14 3 15 2 16 1 17
REMARK H PARENT
REMARK Flexibility Score: inf
ROOT
ATOM      1  C   UNL     1      14.850 -14.869   6.708  1.00  0.00     0.000 C 
ENDROOT
BRANCH   1   2
ATOM      2  C   UNL     1      14.271 -13.751   7.595  1.00  0.00     0.000 C 
BRANCH   2   3
ATOM      3  C   UNL     1      12.849 -13.339   7.185  1.00  0.00     0.000 C 
BRANCH   3   4
ATOM      4  C   UNL     1      12.500 -13.882   5.794  1.00  0.00     0.000 C 
BRANCH   4   5
ATOM      5  C   UNL     1      11.209 -13.241   5.261  1.00  0.00     0.006 C 
BRANCH   5   6
ATOM      6  C   UNL     1      10.796 -12.008   6.075  1.00  0.00     0.053 C 
BRANCH   6   7
ATOM      7  C   UNL     1      11.256 -10.737   5.428  1.00  0.00     0.041 C 
ATOM      8  O   UNL     1      10.571  -9.687   5.535  1.00  0.00    -0.550 OA
ATOM      9  O   UNL     1      12.426 -10.723   4.678  1.00  0.00    -0.550 OA
ENDBRANCH   6   7
ENDBRANCH   5   6
ENDBRANCH   4   5
ENDBRANCH   3   4
ENDBRANCH   2   3
ENDBRANCH   1   2
BRANCH   1  10
ATOM     10  C   UNL     1      16.390 -14.903   6.621  1.00  0.00     0.000 C 
BRANCH  10  11
ATOM     11  C   UNL     1      17.018 -16.304   6.718  1.00  0.00    -0.000 C 
BRANCH  11  12
ATOM     12  C   UNL     1      18.529 -16.301   6.443  1.00  0.00    -0.000 C 
BRANCH  12  13
ATOM     13  C   UNL     1      19.018 -17.699   6.045  1.00  0.00    -0.000 C 
BRANCH  13  14
ATOM     14  C   UNL     1      18.833 -17.938   4.539  1.00  0.00    -0.000 C 
BRANCH  14  15
ATOM     15  C   UNL     1      19.125 -16.684   3.700  1.00  0.00    -0.000 C 
BRANCH  15  16
ATOM     16  C   UNL     1      18.901 -16.911   2.198  1.00  0.00    -0.003 C 
ATOM     17  C   UNL     1      17.447 -17.273   1.908  1.00  0.00     0.004 C 
ENDBRANCH  15  16
ENDBRANCH  14  15
ENDBRANCH  13  14
ENDBRANCH  12  13
ENDBRANCH  11  12
ENDBRANCH  10  11
ENDBRANCH   1  10
TORSDOF 13
ENDMDL
MODEL 3
REMARK VINA RESULT:     7.436      0.614      1.053
REMARK INTER + INTRA:          13.643
REMARK INTER:                  14.266
REMARK INTRA:                  -0.623
REMARK UNBOUND:                 0.555
REMARK SMILES CCCCCCCCCCCCCCC(=O)[O-]
REMARK SMILES IDX 9 1 10 2 11 3 12 4 13 5 14 6 15 7 16 8 17 9 8 10 7 11 6 12
REMARK SMILES IDX 5 13 4 14 3 15 2 16 1 17
REMARK H PARENT
REMARK Flexibility Score: inf
ROOT
ATOM      1  C   UNL     1      14.748 -14.716   7.085  1.00  0.00     0.000 C 
ENDROOT
BRANCH   1   2
ATOM      2  C   UNL     1      13.510 -14.553   6.185  1.00  0.00     0.000 C 
BRANCH   2   3
ATOM      3  C   UNL     1      12.738 -13.253   6.461  1.00  0.00     0.000 C 
BRANCH   3   4
ATOM      4  C   UNL     1      12.616 -12.405   5.189  1.00  0.00     0.000 C 
BRANCH   4   5
ATOM      5  C   UNL     1      11.499 -11.360   5.329  1.00  0.00     0.006 C 
BRANCH   5   6
ATOM      6  C   UNL     1      10.333 -11.870   6.186  1.00  0.00     0.053 C 
BRANCH   6   7
ATOM      7  C   UNL     1       9.351 -12.657   5.374  1.00  0.00     0.041 C 
ATOM      8  O   UNL     1       8.275 -12.128   4.992  1.00  0.00    -0.550 OA
ATOM      9  O   UNL     1       9.612 -13.987   5.066  1.00  0.00    -0.550 OA
ENDBRANCH   6   7
ENDBRANCH   5   6
ENDBRANCH   4   5
ENDBRANCH   3   4
ENDBRANCH   2   3
ENDBRANCH   1   2
BRANCH   1  10
ATOM     10  C   UNL     1      16.041 -15.126   6.350  1.00  0.00     0.000 C 
BRANCH  10  11
ATOM     11  C   UNL     1      16.919 -16.148   7.094  1.00  0.00    -0.000 C 
BRANCH  11  12
ATOM     12  C   UNL     1      18.340 -16.246   6.518  1.00  0.00    -0.000 C 
BRANCH  12  13
ATOM     13  C   UNL     1      18.752 -17.709   6.318  1.00  0.00    -0.000 C 
BRANCH  13  14
ATOM     14  C   UNL     1      19.078 -17.991   4.843  1.00  0.00    -0.000 C 
BRANCH  14  15
ATOM     15  C   UNL     1      19.080 -16.718   3.983  1.00  0.00    -0.000 C 
BRANCH  15  16
ATOM     16  C   UNL     1      19.010 -17.020   2.479  1.00  0.00    -0.003 C 
ATOM     17  C   UNL     1      17.572 -16.954   1.971  1.00  0.00     0.004 C 
ENDBRANCH  15  16
ENDBRANCH  14  15
ENDBRANCH  13  14
ENDBRANCH  12  13
ENDBRANCH  11  12
ENDBRANCH  10  11
ENDBRANCH   1  10
TORSDOF 13
ENDMDL
MODEL 4
REMARK VINA RESULT:     7.965      3.353      7.913
REMARK INTER + INTRA:          14.573
REMARK INTER:                  14.729
REMARK INTRA:                  -0.156
REMARK UNBOUND:                 0.555
REMARK SMILES CCCCCCCCCCCCCCC(=O)[O-]
REMARK SMILES IDX 9 1 10 2 11 3 12 4 13 5 14 6 15 7 16 8 17 9 8 10 7 11 6 12
REMARK SMILES IDX 5 13 4 14 3 15 2 16 1 17
REMARK H PARENT
REMARK Flexibility Score: inf
ROOT
ATOM      1  C   UNL     1      16.464 -15.006   6.685  1.00  0.00     0.000 C 
ENDROOT
BRANCH   1   2
ATOM      2  C   UNL     1      17.165 -16.300   7.133  1.00  0.00     0.000 C 
BRANCH   2   3
ATOM      3  C   UNL     1      18.554 -16.477   6.500  1.00  0.00     0.000 C 
BRANCH   3   4
ATOM      4  C   UNL     1      18.497 -16.268   4.982  1.00  0.00     0.000 C 
BRANCH   4   5
ATOM      5  C   UNL     1      19.056 -17.490   4.237  1.00  0.00     0.006 C 
BRANCH   5   6
ATOM      6  C   UNL     1      19.118 -17.265   2.721  1.00  0.00     0.053 C 
BRANCH   6   7
ATOM      7  C   UNL     1      17.763 -16.987   2.146  1.00  0.00     0.041 C 
ATOM      8  O   UNL     1      16.981 -17.936   1.876  1.00  0.00    -0.550 OA
ATOM      9  O   UNL     1      17.377 -15.679   1.878  1.00  0.00    -0.550 OA
ENDBRANCH   6   7
ENDBRANCH   5   6
ENDBRANCH   4   5
ENDBRANCH   3   4
ENDBRANCH   2   3
ENDBRANCH   1   2
BRANCH   1  10
ATOM     10  C   UNL     1      14.929 -15.006   6.839  1.00  0.00     0.000 C 
BRANCH  10  11
ATOM     11  C   UNL     1      14.345 -13.784   7.570  1.00  0.00    -0.000 C 
BRANCH  11  12
ATOM     12  C   UNL     1      12.939 -13.410   7.079  1.00  0.00    -0.000 C 
BRANCH  12  13
ATOM     13  C   UNL     1      12.671 -13.992   5.686  1.00  0.00    -0.000 C 
BRANCH  13  14
ATOM     14  C   UNL     1      11.162 -14.059   5.400  1.00  0.00    -0.000 C 
BRANCH  14  15
ATOM     15  C   UNL     1      10.489 -12.679   5.451  1.00  0.00    -0.000 C 
BRANCH  15  16
ATOM     16  C   UNL     1      11.491 -11.525   5.298  1.00  0.00    -0.003 C 
ATOM     17  C   UNL     1      10.922 -10.225   5.860  1.00  0.00     0.004 C 
ENDBRANCH  15  16
ENDBRANCH  14  15
ENDBRANCH  13  14
ENDBRANCH  12  13
ENDBRANCH  11  12
ENDBRANCH  10  11
ENDBRANCH   1  10
TORSDOF 13
ENDMDL
MODEL 5
REMARK VINA RESULT:     8.622      0.940      2.386
REMARK INTER + INTRA:          15.731
REMARK INTER:                  15.993
REMARK INTRA:                  -0.263
REMARK UNBOUND:                 0.555
REMARK SMILES CCCCCCCCCCCCCCC(=O)[O-]
REMARK SMILES IDX 9 1 10 2 11 3 12 4 13 5 14 6 15 7 16 8 17 9 8 10 7 11 6 12
REMARK SMILES IDX 5 13 4 14 3 15 2 16 1 17
REMARK H PARENT
REMARK Flexibility Score: inf
ROOT
ATOM      1  C   UNL     1      13.183 -13.439   6.873  1.00  0.00     0.000 C 
ENDROOT
BRANCH   1   2
ATOM      2  C   UNL     1      12.218 -13.071   5.731  1.00  0.00     0.000 C 
BRANCH   2   3
ATOM      3  C   UNL     1      12.471 -11.666   5.165  1.00  0.00     0.000 C 
BRANCH   3   4
ATOM      4  C   UNL     1      11.237 -10.772   5.344  1.00  0.00     0.000 C 
BRANCH   4   5
ATOM      5  C   UNL     1      10.181 -11.460   6.221  1.00  0.00     0.006 C 
BRANCH   5   6
ATOM      6  C   UNL     1       8.831 -11.594   5.505  1.00  0.00     0.053 C 
BRANCH   6   7
ATOM      7  C   UNL     1       8.715 -12.900   4.780  1.00  0.00     0.041 C 
ATOM      8  O   UNL     1       9.393 -13.894   5.150  1.00  0.00    -0.550 OA
ATOM      9  O   UNL     1       7.881 -13.009   3.673  1.00  0.00    -0.550 OA
ENDBRANCH   6   7
ENDBRANCH   5   6
ENDBRANCH   4   5
ENDBRANCH   3   4
ENDBRANCH   2   3
ENDBRANCH   1   2
BRANCH   1  10
ATOM     10  C   UNL     1      14.141 -14.610   6.569  1.00  0.00     0.000 C 
BRANCH  10  11
ATOM     11  C   UNL     1      15.516 -14.525   7.255  1.00  0.00    -0.000 C 
BRANCH  11  12
ATOM     12  C   UNL     1      16.333 -15.818   7.117  1.00  0.00    -0.000 C 
BRANCH  12  13
ATOM     13  C   UNL     1      17.749 -15.521   6.608  1.00  0.00    -0.000 C 
BRANCH  13  14
ATOM     14  C   UNL     1      18.665 -16.741   6.789  1.00  0.00    -0.000 C 
BRANCH  14  15
ATOM     15  C   UNL     1      18.195 -17.959   5.978  1.00  0.00    -0.000 C 
BRANCH  15  16
ATOM     16  C   UNL     1      19.105 -18.256   4.777  1.00  0.00    -0.003 C 
ATOM     17  C   UNL     1      19.097 -17.098   3.783  1.00  0.00     0.004 C 
ENDBRANCH  15  16
ENDBRANCH  14  15
ENDBRANCH  13  14
ENDBRANCH  12  13
ENDBRANCH  11  12
ENDBRANCH  10  11
ENDBRANCH   1  10
TORSDOF 13
ENDMDL
MODEL 6
REMARK VINA RESULT:     8.890      3.946      8.617
REMARK INTER + INTRA:          16.201
REMARK INTER:                  15.494
REMARK INTRA:                   0.707
REMARK UNBOUND:                 0.555
REMARK SMILES CCCCCCCCCCCCCCC(=O)[O-]
REMARK SMILES IDX 9 1 10 2 11 3 12 4 13 5 14 6 15 7 16 8 17 9 8 10 7 11 6 12
REMARK SMILES IDX 5 13 4 14 3 15 2 16 1 17
REMARK H PARENT
REMARK Flexibility Score: inf
ROOT
ATOM      1  C   UNL     1      13.421 -13.572   6.983  1.00  0.00     0.000 C 
ENDROOT
BRANCH   1   2
ATOM      2  C   UNL     1      14.236 -14.865   6.795  1.00  0.00     0.000 C 
BRANCH   2   3
ATOM      3  C   UNL     1      15.746 -14.651   6.981  1.00  0.00     0.000 C 
BRANCH   3   4
ATOM      4  C   UNL     1      16.515 -15.964   6.787  1.00  0.00     0.000 C 
BRANCH   4   5
ATOM      5  C   UNL     1      18.013 -15.698   6.574  1.00  0.00     0.006 C 
BRANCH   5   6
ATOM      6  C   UNL     1      18.827 -16.997   6.506  1.00  0.00     0.053 C 
BRANCH   6   7
ATOM      7  C   UNL     1      19.015 -17.460   5.094  1.00  0.00     0.041 C 
ATOM      8  O   UNL     1      19.102 -18.689   4.836  1.00  0.00    -0.550 OA
ATOM      9  O   UNL     1      19.125 -16.531   4.066  1.00  0.00    -0.550 OA
ENDBRANCH   6   7
ENDBRANCH   5   6
ENDBRANCH   4   5
ENDBRANCH   3   4
ENDBRANCH   2   3
ENDBRANCH   1   2
BRANCH   1  10
ATOM     10  C   UNL     1      12.230 -13.403   6.017  1.00  0.00     0.000 C 
BRANCH  10  11
ATOM     11  C   UNL     1      12.492 -12.480   4.813  1.00  0.00    -0.000 C 
BRANCH  11  12
ATOM     12  C   UNL     1      12.392 -10.990   5.170  1.00  0.00    -0.000 C 
BRANCH  12  13
ATOM     13  C   UNL     1      10.988 -10.640   5.678  1.00  0.00    -0.000 C 
BRANCH  13  14
ATOM     14  C   UNL     1      10.157 -11.911   5.916  1.00  0.00    -0.000 C 
BRANCH  14  15
ATOM     15  C   UNL     1       8.793 -11.867   5.209  1.00  0.00    -0.000 C 
BRANCH  15  16
ATOM     16  C   UNL     1       8.315 -13.256   4.760  1.00  0.00    -0.003 C 
ATOM     17  C   UNL     1       9.405 -14.305   4.965  1.00  0.00     0.004 C 
ENDBRANCH  15  16
ENDBRANCH  14  15
ENDBRANCH  13  14
ENDBRANCH  12  13
ENDBRANCH  11  12
ENDBRANCH  10  11
ENDBRANCH   1  10
TORSDOF 13
ENDMDL
MODEL 7
REMARK VINA RESULT:     9.018      1.064      2.149
REMARK INTER + INTRA:          16.427
REMARK INTER:                  16.949
REMARK INTRA:                  -0.522
REMARK UNBOUND:                 0.555
REMARK SMILES CCCCCCCCCCCCCCC(=O)[O-]
REMARK SMILES IDX 9 1 10 2 11 3 12 4 13 5 14 6 15 7 16 8 17 9 8 10 7 11 6 12
REMARK SMILES IDX 5 13 4 14 3 15 2 16 1 17
REMARK H PARENT
REMARK Flexibility Score: inf
ROOT
ATOM      1  C   UNL     1      16.750 -16.463   6.979  1.00  0.00     0.000 C 
ENDROOT
BRANCH   1   2
ATOM      2  C   UNL     1      16.145 -15.054   6.841  1.00  0.00     0.000 C 
BRANCH   2   3
ATOM      3  C   UNL     1      14.625 -15.032   7.065  1.00  0.00     0.000 C 
BRANCH   3   4
ATOM      4  C   UNL     1      14.038 -13.658   6.720  1.00  0.00     0.000 C 
BRANCH   4   5
ATOM      5  C   UNL     1      12.691 -13.801   5.996  1.00  0.00     0.006 C 
BRANCH   5   6
ATOM      6  C   UNL     1      11.899 -12.487   5.981  1.00  0.00     0.053 C 
BRANCH   6   7
ATOM      7  C   UNL     1      10.456 -12.714   5.651  1.00  0.00     0.041 C 
ATOM      8  O   UNL     1       9.630 -11.766   5.729  1.00  0.00    -0.550 OA
ATOM      9  O   UNL     1      10.016 -13.981   5.286  1.00  0.00    -0.550 OA
ENDBRANCH   6   7
ENDBRANCH   5   6
ENDBRANCH   4   5
ENDBRANCH   3   4
ENDBRANCH   2   3
ENDBRANCH   1   2
BRANCH   1  10
ATOM     10  C   UNL     1      18.289 -16.507   7.072  1.00  0.00     0.000 C 
BRANCH  10  11
ATOM     11  C   UNL     1      19.034 -16.103   5.787  1.00  0.00    -0.000 C 
BRANCH  11  12
ATOM     12  C   UNL     1      18.314 -16.563   4.511  1.00  0.00    -0.000 C 
BRANCH  12  13
ATOM     13  C   UNL     1      19.124 -17.642   3.782  1.00  0.00    -0.000 C 
BRANCH  13  14
ATOM     14  C   UNL     1      18.643 -17.805   2.332  1.00  0.00    -0.000 C 
BRANCH  14  15
ATOM     15  C   UNL     1      17.595 -16.754   1.935  1.00  0.00    -0.000 C 
BRANCH  15  16
ATOM     16  C   UNL     1      16.172 -17.331   1.875  1.00  0.00    -0.003 C 
ATOM     17  C   UNL     1      15.127 -16.222   1.951  1.00  0.00     0.004 C 
ENDBRANCH  15  16
ENDBRANCH  14  15
ENDBRANCH  13  14
ENDBRANCH  12  13
ENDBRANCH  11  12
ENDBRANCH  10  11
ENDBRANCH   1  10
TORSDOF 13
ENDMDL
