MODEL 1
REMARK VINA RESULT:    -0.180      0.000      0.000
REMARK INTER + INTRA:           2.490
REMARK INTER:                  -0.222
REMARK INTRA:                   2.712
REMARK UNBOUND:                 2.712
REMARK SMILES C=C1CC[C@@H]2[C@@H]([C@H]3[C@H](C)CC[C@H]13)C2(C)C
REMARK SMILES IDX 3 1 2 2 1 3 12 4 9 5 8 6 10 7 7 8 11 9 4 11 5 12 6 13 13 14
REMARK SMILES IDX 14 16 15 17
REMARK H PARENT
REMARK Flexibility Score: 80.00
ROOT
ATOM      1  C   UNL     1     140.076 135.321 122.242  1.00  0.00     0.031 C 
ENDROOT
BRANCH   1   2
ATOM      2  C   UNL     1     138.705 135.779 121.728  1.00  0.00    -0.074 C 
ATOM      3  C   UNL     1     137.910 134.894 121.103  1.00  0.00     0.008 C 
BRANCH   2   4
ATOM      4  C   UNL     1     138.198 137.143 122.201  1.00  0.00     0.018 C 
ATOM      5  C   UNL     1     135.767 138.538 124.702  1.00  0.00     0.008 C 
ATOM      6  C   UNL     1     136.949 138.486 123.730  1.00  0.00    -0.010 C 
ATOM      7  C   UNL     1     136.555 138.916 122.299  1.00  0.00     0.004 C 
ATOM      8  C   UNL     1     137.519 137.076 123.570  1.00  0.00     0.003 CG0
ATOM      9  C   UNL     1     137.211 137.916 121.333  1.00  0.00     0.008 C 
ATOM     10  G   UNL     1     138.588 136.688 124.609  1.00  0.00     0.000 G0
ENDBRANCH   2   4
ENDBRANCH   1   2
BRANCH   1  11
ATOM     11  C   UNL     1     140.111 134.884 123.742  1.00  0.00     0.009 C 
BRANCH  11  12
ATOM     12  C   UNL     1     138.774 135.142 124.458  1.00  0.00    -0.001 C 
ATOM     13  C   UNL     1     138.591 136.680 124.610  1.00  0.00     0.002 CG0
ATOM     14  C   UNL     1     138.505 135.756 125.824  1.00  0.00    -0.029 C 
ATOM     15  G   UNL     1     137.516 137.061 123.575  1.00  0.00     0.000 G0
ATOM     16  C   UNL     1     137.114 135.500 126.414  1.00  0.00     0.011 C 
ATOM     17  C   UNL     1     139.684 135.778 126.804  1.00  0.00     0.011 C 
ENDBRANCH  11  12
ENDBRANCH   1  11
TORSDOF 0
ENDMDL
MODEL 2
REMARK VINA RESULT:     0.935      1.189      3.815
REMARK INTER + INTRA:           3.866
REMARK INTER:                   1.013
REMARK INTRA:                   2.853
REMARK UNBOUND:                 2.712
REMARK SMILES C=C1CC[C@@H]2[C@@H]([C@H]3[C@H](C)CC[C@H]13)C2(C)C
REMARK SMILES IDX 3 1 2 2 1 3 12 4 9 5 8 6 10 7 7 8 11 9 4 11 5 12 6 13 13 14
REMARK SMILES IDX 14 16 15 17
REMARK H PARENT
REMARK Flexibility Score: 80.00
ROOT
ATOM      1  C   UNL     1     138.629 136.540 121.638  1.00  0.00     0.031 C 
ENDROOT
BRANCH   1   2
ATOM      2  C   UNL     1     139.297 136.263 122.990  1.00  0.00    -0.074 C 
ATOM      3  C   UNL     1     140.514 136.777 123.237  1.00  0.00     0.008 C 
BRANCH   2   4
ATOM      4  C   UNL     1     138.428 135.653 124.092  1.00  0.00     0.018 C 
ATOM      5  C   UNL     1     136.516 136.776 127.124  1.00  0.00     0.008 C 
ATOM      6  C   UNL     1     136.949 135.892 125.951  1.00  0.00    -0.010 C 
ATOM      7  C   UNL     1     138.042 134.875 126.350  1.00  0.00     0.004 C 
ATOM      8  C   UNL     1     137.564 136.695 124.804  1.00  0.00     0.003 CG0
ATOM      9  C   UNL     1     139.092 134.880 125.227  1.00  0.00     0.008 C 
ATOM     10  G   UNL     1     136.551 137.245 123.783  1.00  0.00     0.000 G0
ENDBRANCH   2   4
ENDBRANCH   1   2
BRANCH   1  11
ATOM     11  C   UNL     1     137.712 137.804 121.597  1.00  0.00     0.009 C 
BRANCH  11  12
ATOM     12  C   UNL     1     137.406 138.351 123.002  1.00  0.00    -0.001 C 
ATOM     13  C   UNL     1     136.575 137.283 123.770  1.00  0.00     0.002 CG0
ATOM     14  C   UNL     1     136.071 138.719 123.633  1.00  0.00    -0.029 C 
ATOM     15  G   UNL     1     137.555 136.669 124.789  1.00  0.00     0.000 G0
ATOM     16  C   UNL     1     136.139 139.609 124.878  1.00  0.00     0.011 C 
ATOM     17  C   UNL     1     134.905 138.960 122.667  1.00  0.00     0.011 C 
ENDBRANCH  11  12
ENDBRANCH   1  11
TORSDOF 0
ENDMDL
MODEL 3
REMARK VINA RESULT:     0.936      1.090      4.641
REMARK INTER + INTRA:           3.866
REMARK INTER:                   1.059
REMARK INTRA:                   2.807
REMARK UNBOUND:                 2.712
REMARK SMILES C=C1CC[C@@H]2[C@@H]([C@H]3[C@H](C)CC[C@H]13)C2(C)C
REMARK SMILES IDX 3 1 2 2 1 3 12 4 9 5 8 6 10 7 7 8 11 9 4 11 5 12 6 13 13 14
REMARK SMILES IDX 14 16 15 17
REMARK H PARENT
REMARK Flexibility Score: 80.00
ROOT
ATOM      1  C   UNL     1     136.269 137.909 125.222  1.00  0.00     0.031 C 
ENDROOT
BRANCH   1   2
ATOM      2  C   UNL     1     136.838 136.507 125.470  1.00  0.00    -0.074 C 
ATOM      3  C   UNL     1     135.991 135.475 125.634  1.00  0.00     0.008 C 
BRANCH   2   4
ATOM      4  C   UNL     1     138.337 136.305 125.238  1.00  0.00     0.018 C 
ATOM      5  C   UNL     1     140.620 134.875 122.620  1.00  0.00     0.008 C 
ATOM      6  C   UNL     1     140.164 135.707 123.823  1.00  0.00    -0.010 C 
ATOM      7  C   UNL     1     140.343 134.957 125.162  1.00  0.00     0.004 C 
ATOM      8  C   UNL     1     138.675 136.055 123.768  1.00  0.00     0.003 CG0
ATOM      9  C   UNL     1     139.066 135.193 125.984  1.00  0.00     0.008 C 
ATOM     10  G   UNL     1     138.339 137.336 122.981  1.00  0.00     0.000 G0
ENDBRANCH   2   4
ENDBRANCH   1   2
BRANCH   1  11
ATOM     11  C   UNL     1     136.182 138.335 123.721  1.00  0.00     0.009 C 
BRANCH  11  12
ATOM     12  C   UNL     1     136.813 137.295 122.780  1.00  0.00    -0.001 C 
ATOM     13  C   UNL     1     138.356 137.330 122.978  1.00  0.00     0.002 CG0
ATOM     14  C   UNL     1     137.739 137.495 121.590  1.00  0.00    -0.029 C 
ATOM     15  G   UNL     1     138.689 136.052 123.770  1.00  0.00     0.000 G0
ATOM     16  C   UNL     1     137.858 136.312 120.624  1.00  0.00     0.011 C 
ATOM     17  C   UNL     1     137.764 138.900 120.976  1.00  0.00     0.011 C 
ENDBRANCH  11  12
ENDBRANCH   1  11
TORSDOF 0
ENDMDL
MODEL 4
REMARK VINA RESULT:     1.725      1.176      3.726
REMARK INTER + INTRA:           4.841
REMARK INTER:                   2.050
REMARK INTRA:                   2.790
REMARK UNBOUND:                 2.712
REMARK SMILES C=C1CC[C@@H]2[C@@H]([C@H]3[C@H](C)CC[C@H]13)C2(C)C
REMARK SMILES IDX 3 1 2 2 1 3 12 4 9 5 8 6 10 7 7 8 11 9 4 11 5 12 6 13 13 14
REMARK SMILES IDX 14 16 15 17
REMARK H PARENT
REMARK Flexibility Score: 80.00
ROOT
ATOM      1  C   UNL     1     140.173 134.875 123.120  1.00  0.00     0.031 C 
ENDROOT
BRANCH   1   2
ATOM      2  C   UNL     1     139.586 135.497 124.394  1.00  0.00    -0.074 C 
ATOM      3  C   UNL     1     140.391 136.195 125.213  1.00  0.00     0.008 C 
BRANCH   2   4
ATOM      4  C   UNL     1     138.062 135.529 124.522  1.00  0.00     0.018 C 
ATOM      5  C   UNL     1     135.247 137.985 124.123  1.00  0.00     0.008 C 
ATOM      6  C   UNL     1     135.969 136.638 124.222  1.00  0.00    -0.010 C 
ATOM      7  C   UNL     1     136.007 136.094 125.667  1.00  0.00     0.004 C 
ATOM      8  C   UNL     1     137.436 136.722 123.798  1.00  0.00     0.003 CG0
ATOM      9  C   UNL     1     137.428 135.560 125.909  1.00  0.00     0.008 C 
ATOM     10  G   UNL     1     137.685 136.542 122.289  1.00  0.00     0.000 G0
ENDBRANCH   2   4
ENDBRANCH   1   2
BRANCH   1  11
ATOM     11  C   UNL     1     139.987 135.723 121.821  1.00  0.00     0.009 C 
BRANCH  11  12
ATOM     12  C   UNL     1     139.143 136.987 122.062  1.00  0.00    -0.001 C 
ATOM     13  C   UNL     1     137.667 136.550 122.291  1.00  0.00     0.002 CG0
ATOM     14  C   UNL     1     138.023 137.583 121.222  1.00  0.00    -0.029 C 
ATOM     15  G   UNL     1     137.424 136.729 123.802  1.00  0.00     0.000 G0
ATOM     16  C   UNL     1     137.670 139.045 121.514  1.00  0.00     0.011 C 
ATOM     17  C   UNL     1     137.953 137.128 119.760  1.00  0.00     0.011 C 
ENDBRANCH  11  12
ENDBRANCH   1  11
TORSDOF 0
ENDMDL
MODEL 5
REMARK VINA RESULT:     2.060     15.246     16.860
REMARK INTER + INTRA:           5.254
REMARK INTER:                   2.389
REMARK INTRA:                   2.865
REMARK UNBOUND:                 2.712
REMARK SMILES C=C1CC[C@@H]2[C@@H]([C@H]3[C@H](C)CC[C@H]13)C2(C)C
REMARK SMILES IDX 3 1 2 2 1 3 12 4 9 5 8 6 10 7 7 8 11 9 4 11 5 12 6 13 13 14
REMARK SMILES IDX 14 16 15 17
REMARK H PARENT
REMARK Flexibility Score: 80.00
ROOT
ATOM      1  C   UNL     1     138.762 155.038 124.016  1.00  0.00     0.031 C 
ENDROOT
BRANCH   1   2
ATOM      2  C   UNL     1     138.912 153.847 123.061  1.00  0.00    -0.074 C 
ATOM      3  C   UNL     1     139.962 153.020 123.206  1.00  0.00     0.008 C 
BRANCH   2   4
ATOM      4  C   UNL     1     137.713 153.500 122.177  1.00  0.00     0.018 C 
ATOM      5  C   UNL     1     134.879 151.035 122.105  1.00  0.00     0.008 C 
ATOM      6  C   UNL     1     135.685 152.299 121.793  1.00  0.00    -0.010 C 
ATOM      7  C   UNL     1     136.568 152.142 120.535  1.00  0.00     0.004 C 
ATOM      8  C   UNL     1     136.663 152.665 122.911  1.00  0.00     0.003 CG0
ATOM      9  C   UNL     1     137.941 152.747 120.870  1.00  0.00     0.008 C 
ATOM     10  G   UNL     1     136.067 153.537 124.032  1.00  0.00     0.000 G0
ENDBRANCH   2   4
ENDBRANCH   1   2
BRANCH   1  11
ATOM     11  C   UNL     1     137.872 154.775 125.272  1.00  0.00     0.009 C 
BRANCH  11  12
ATOM     12  C   UNL     1     137.121 153.435 125.188  1.00  0.00    -0.001 C 
ATOM     13  C   UNL     1     136.079 153.532 124.036  1.00  0.00     0.002 CG0
ATOM     14  C   UNL     1     135.655 153.123 125.446  1.00  0.00    -0.029 C 
ATOM     15  G   UNL     1     136.664 152.683 122.891  1.00  0.00     0.000 G0
ATOM     16  C   UNL     1     135.312 151.647 125.676  1.00  0.00     0.011 C 
ATOM     17  C   UNL     1     134.875 154.156 126.269  1.00  0.00     0.011 C 
ENDBRANCH  11  12
ENDBRANCH   1  11
TORSDOF 0
ENDMDL
MODEL 6
REMARK VINA RESULT:     2.301      1.093      3.490
REMARK INTER + INTRA:           5.551
REMARK INTER:                   2.789
REMARK INTRA:                   2.762
REMARK UNBOUND:                 2.712
REMARK SMILES C=C1CC[C@@H]2[C@@H]([C@H]3[C@H](C)CC[C@H]13)C2(C)C
REMARK SMILES IDX 3 1 2 2 1 3 12 4 9 5 8 6 10 7 7 8 11 9 4 11 5 12 6 13 13 14
REMARK SMILES IDX 14 16 15 17
REMARK H PARENT
REMARK Flexibility Score: 80.00
ROOT
ATOM      1  C   UNL     1     135.317 138.493 123.503  1.00  0.00     0.031 C 
ENDROOT
BRANCH   1   2
ATOM      2  C   UNL     1     136.613 138.718 122.713  1.00  0.00    -0.074 C 
ATOM      3  C   UNL     1     137.303 139.856 122.895  1.00  0.00     0.008 C 
BRANCH   2   4
ATOM      4  C   UNL     1     137.200 137.515 121.970  1.00  0.00     0.018 C 
ATOM      5  C   UNL     1     139.944 134.988 122.414  1.00  0.00     0.008 C 
ATOM      6  C   UNL     1     138.651 135.621 121.890  1.00  0.00    -0.010 C 
ATOM      7  C   UNL     1     138.876 136.439 120.598  1.00  0.00     0.004 C 
ATOM      8  C   UNL     1     138.039 136.616 122.878  1.00  0.00     0.003 CG0
ATOM      9  C   UNL     1     138.088 137.750 120.752  1.00  0.00     0.008 C 
ATOM     10  G   UNL     1     137.097 135.991 123.925  1.00  0.00     0.000 G0
ENDBRANCH   2   4
ENDBRANCH   1   2
BRANCH   1  11
ATOM     11  C   UNL     1     135.485 137.709 124.844  1.00  0.00     0.009 C 
BRANCH  11  12
ATOM     12  C   UNL     1     136.897 137.122 125.007  1.00  0.00    -0.001 C 
ATOM     13  C   UNL     1     137.088 136.006 123.940  1.00  0.00     0.002 CG0
ATOM     14  C   UNL     1     137.328 135.723 125.422  1.00  0.00    -0.029 C 
ATOM     15  G   UNL     1     138.026 136.616 122.882  1.00  0.00     0.000 G0
ATOM     16  C   UNL     1     138.782 135.577 125.882  1.00  0.00     0.011 C 
ATOM     17  C   UNL     1     136.278 134.877 126.152  1.00  0.00     0.011 C 
ENDBRANCH  11  12
ENDBRANCH   1  11
TORSDOF 0
ENDMDL
MODEL 7
REMARK VINA RESULT:     2.694     13.985     16.247
REMARK INTER + INTRA:           6.035
REMARK INTER:                   3.288
REMARK INTRA:                   2.747
REMARK UNBOUND:                 2.712
REMARK SMILES C=C1CC[C@@H]2[C@@H]([C@H]3[C@H](C)CC[C@H]13)C2(C)C
REMARK SMILES IDX 3 1 2 2 1 3 12 4 9 5 8 6 10 7 7 8 11 9 4 11 5 12 6 13 13 14
REMARK SMILES IDX 14 16 15 17
REMARK H PARENT
REMARK Flexibility Score: 80.00
ROOT
ATOM      1  C   UNL     1     135.913 154.500 125.997  1.00  0.00     0.031 C 
ENDROOT
BRANCH   1   2
ATOM      2  C   UNL     1     136.406 154.451 124.545  1.00  0.00    -0.074 C 
ATOM      3  C   UNL     1     137.673 154.806 124.271  1.00  0.00     0.008 C 
BRANCH   2   4
ATOM      4  C   UNL     1     135.518 153.735 123.526  1.00  0.00     0.018 C 
ATOM      5  C   UNL     1     135.333 150.410 121.787  1.00  0.00     0.008 C 
ATOM      6  C   UNL     1     134.877 151.763 122.342  1.00  0.00    -0.010 C 
ATOM      7  C   UNL     1     135.021 152.903 121.309  1.00  0.00     0.004 C 
ATOM      8  C   UNL     1     135.709 152.218 123.543  1.00  0.00     0.003 CG0
ATOM      9  C   UNL     1     135.623 154.108 122.050  1.00  0.00     0.008 C 
ATOM     10  G   UNL     1     135.218 151.695 124.906  1.00  0.00     0.000 G0
ENDBRANCH   2   4
ENDBRANCH   1   2
BRANCH   1  11
ATOM     11  C   UNL     1     136.012 153.150 126.778  1.00  0.00     0.009 C 
BRANCH  11  12
ATOM     12  C   UNL     1     136.430 151.979 125.873  1.00  0.00    -0.001 C 
ATOM     13  C   UNL     1     135.247 151.658 124.914  1.00  0.00     0.002 CG0
ATOM     14  C   UNL     1     135.869 150.568 125.786  1.00  0.00    -0.029 C 
ATOM     15  G   UNL     1     135.684 152.198 123.540  1.00  0.00     0.000 G0
ATOM     16  C   UNL     1     136.758 149.533 125.089  1.00  0.00     0.011 C 
ATOM     17  C   UNL     1     135.052 150.086 126.991  1.00  0.00     0.011 C 
ENDBRANCH  11  12
ENDBRANCH   1  11
TORSDOF 0
ENDMDL
