MODEL 1
REMARK VINA RESULT:    -2.140      0.000      0.000
REMARK INTER + INTRA:          -2.140
REMARK INTER:                  -2.140
REMARK INTRA:                   0.000
REMARK UNBOUND:                 0.000
REMARK SMILES CC(=O)[O-]
REMARK SMILES IDX 1 1 2 2 3 3 4 4
REMARK H PARENT
REMARK Flexibility Score: inf
ROOT
ATOM      1  C   UNL     1     182.674 195.444 190.557  1.00  0.00     0.063 C 
ATOM      2  C   UNL     1     183.826 196.338 190.244  1.00  0.00     0.038 C 
ATOM      3  O   UNL     1     183.696 197.587 190.322  1.00  0.00    -0.550 OA
ATOM      4  O   UNL     1     185.030 195.797 189.813  1.00  0.00    -0.550 OA
ENDROOT
TORSDOF 0
ENDMDL
MODEL 2
REMARK VINA RESULT:    -2.073      1.641      2.379
REMARK INTER + INTRA:          -2.073
REMARK INTER:                  -2.073
REMARK INTRA:                   0.000
REMARK UNBOUND:                 0.000
REMARK SMILES CC(=O)[O-]
REMARK SMILES IDX 1 1 2 2 3 3 4 4
REMARK H PARENT
REMARK Flexibility Score: inf
ROOT
ATOM      1  C   UNL     1     183.721 197.161 190.226  1.00  0.00     0.063 C 
ATOM      2  C   UNL     1     183.381 195.734 190.493  1.00  0.00     0.038 C 
ATOM      3  O   UNL     1     184.221 194.828 190.249  1.00  0.00    -0.550 OA
ATOM      4  O   UNL     1     182.117 195.395 190.958  1.00  0.00    -0.550 OA
ENDROOT
TORSDOF 0
ENDMDL
MODEL 3
REMARK VINA RESULT:    -1.995      1.464      1.826
REMARK INTER + INTRA:          -1.995
REMARK INTER:                  -1.995
REMARK INTRA:                   0.000
REMARK UNBOUND:                 0.000
REMARK SMILES CC(=O)[O-]
REMARK SMILES IDX 1 1 2 2 3 3 4 4
REMARK H PARENT
REMARK Flexibility Score: inf
ROOT
ATOM      1  C   UNL     1     184.360 195.100 190.048  1.00  0.00     0.063 C 
ATOM      2  C   UNL     1     183.373 196.123 190.497  1.00  0.00     0.038 C 
ATOM      3  O   UNL     1     183.602 197.347 190.311  1.00  0.00    -0.550 OA
ATOM      4  O   UNL     1     182.223 195.733 191.172  1.00  0.00    -0.550 OA
ENDROOT
TORSDOF 0
ENDMDL
MODEL 4
REMARK VINA RESULT:    -1.929     17.870     18.299
REMARK INTER + INTRA:          -1.929
REMARK INTER:                  -1.929
REMARK INTRA:                   0.000
REMARK UNBOUND:                 0.000
REMARK SMILES CC(=O)[O-]
REMARK SMILES IDX 1 1 2 2 3 3 4 4
REMARK H PARENT
REMARK Flexibility Score: inf
ROOT
ATOM      1  C   UNL     1     186.814 181.747 198.259  1.00  0.00     0.063 C 
ATOM      2  C   UNL     1     186.585 180.760 199.354  1.00  0.00     0.038 C 
ATOM      3  O   UNL     1     186.052 179.648 199.101  1.00  0.00    -0.550 OA
ATOM      4  O   UNL     1     186.909 181.088 200.664  1.00  0.00    -0.550 OA
ENDROOT
TORSDOF 0
ENDMDL
MODEL 5
REMARK VINA RESULT:    -1.918     18.373     18.788
REMARK INTER + INTRA:          -1.918
REMARK INTER:                  -1.918
REMARK INTRA:                   0.000
REMARK UNBOUND:                 0.000
REMARK SMILES CC(=O)[O-]
REMARK SMILES IDX 1 1 2 2 3 3 4 4
REMARK H PARENT
REMARK Flexibility Score: inf
ROOT
ATOM      1  C   UNL     1     189.588 182.926 201.638  1.00  0.00     0.063 C 
ATOM      2  C   UNL     1     191.012 183.348 201.772  1.00  0.00     0.038 C 
ATOM      3  O   UNL     1     191.305 184.571 201.842  1.00  0.00    -0.550 OA
ATOM      4  O   UNL     1     192.024 182.397 201.765  1.00  0.00    -0.550 OA
ENDROOT
TORSDOF 0
ENDMDL
MODEL 6
REMARK VINA RESULT:    -1.881     12.953     13.220
REMARK INTER + INTRA:          -1.881
REMARK INTER:                  -1.881
REMARK INTRA:                   0.000
REMARK UNBOUND:                 0.000
REMARK SMILES CC(=O)[O-]
REMARK SMILES IDX 1 1 2 2 3 3 4 4
REMARK H PARENT
REMARK Flexibility Score: inf
ROOT
ATOM      1  C   UNL     1     192.146 198.382 199.104  1.00  0.00     0.063 C 
ATOM      2  C   UNL     1     192.003 197.624 200.381  1.00  0.00     0.038 C 
ATOM      3  O   UNL     1     192.953 197.590 201.205  1.00  0.00    -0.550 OA
ATOM      4  O   UNL     1     190.840 196.910 200.640  1.00  0.00    -0.550 OA
ENDROOT
TORSDOF 0
ENDMDL
MODEL 7
REMARK VINA RESULT:    -1.821     13.215     13.544
REMARK INTER + INTRA:          -1.821
REMARK INTER:                  -1.821
REMARK INTRA:                   0.000
REMARK UNBOUND:                 0.000
REMARK SMILES CC(=O)[O-]
REMARK SMILES IDX 1 1 2 2 3 3 4 4
REMARK H PARENT
REMARK Flexibility Score: inf
ROOT
ATOM      1  C   UNL     1     192.101 198.402 199.080  1.00  0.00     0.063 C 
ATOM      2  C   UNL     1     193.179 197.631 199.765  1.00  0.00     0.038 C 
ATOM      3  O   UNL     1     193.733 196.664 199.180  1.00  0.00    -0.550 OA
ATOM      4  O   UNL     1     193.536 197.942 201.070  1.00  0.00    -0.550 OA
ENDROOT
TORSDOF 0
ENDMDL
MODEL 8
REMARK VINA RESULT:    -1.794     18.776     19.173
REMARK INTER + INTRA:          -1.794
REMARK INTER:                  -1.794
REMARK INTRA:                   0.000
REMARK UNBOUND:                 0.000
REMARK SMILES CC(=O)[O-]
REMARK SMILES IDX 1 1 2 2 3 3 4 4
REMARK H PARENT
REMARK Flexibility Score: inf
ROOT
ATOM      1  C   UNL     1     184.535 179.248 200.839  1.00  0.00     0.063 C 
ATOM      2  C   UNL     1     185.559 180.073 200.135  1.00  0.00     0.038 C 
ATOM      3  O   UNL     1     186.079 179.657 199.066  1.00  0.00    -0.550 OA
ATOM      4  O   UNL     1     185.981 181.277 200.684  1.00  0.00    -0.550 OA
ENDROOT
TORSDOF 0
ENDMDL
MODEL 9
REMARK VINA RESULT:    -1.765     11.519     11.943
REMARK INTER + INTRA:          -1.765
REMARK INTER:                  -1.765
REMARK INTRA:                   0.000
REMARK UNBOUND:                 0.000
REMARK SMILES CC(=O)[O-]
REMARK SMILES IDX 1 1 2 2 3 3 4 4
REMARK H PARENT
REMARK Flexibility Score: inf
ROOT
ATOM      1  C   UNL     1     185.980 186.512 192.902  1.00  0.00     0.063 C 
ATOM      2  C   UNL     1     185.873 185.090 193.339  1.00  0.00     0.038 C 
ATOM      3  O   UNL     1     186.747 184.595 194.098  1.00  0.00    -0.550 OA
ATOM      4  O   UNL     1     184.839 184.292 192.866  1.00  0.00    -0.550 OA
ENDROOT
TORSDOF 0
ENDMDL
