MODEL 1
REMARK VINA RESULT:    -8.375      0.000      0.000
REMARK INTER + INTRA:         -10.645
REMARK INTER:                 -10.333
REMARK INTRA:                  -0.312
REMARK UNBOUND:                -0.312
REMARK SMILES O=c1c(O)c(-c2cc(O)c(O)c(O)c2)oc2cc(O)cc(O)c12
REMARK SMILES IDX 5 1 3 2 2 3 1 4 23 5 21 6 20 7 18 8 17 9 16 10 15 11 6 12
REMARK SMILES IDX 7 13 8 14 14 15 10 16 12 17 9 18 11 20 13 22 4 24 22 26
REMARK SMILES IDX 19 28
REMARK H PARENT 9 19 11 21 13 23 4 25 22 27 19 29
REMARK Flexibility Score: inf
ROOT
ATOM      1  C   UNL     1       1.385 -22.167  16.584  1.00  0.00     0.180 A 
ATOM      2  C   UNL     1       0.568 -22.071  15.444  1.00  0.00     0.208 A 
ATOM      3  C   UNL     1       0.663 -20.927  14.634  1.00  0.00     0.238 A 
ATOM      4  O   UNL     1      -0.031 -20.871  13.585  1.00  0.00    -0.285 OA
ATOM      5  C   UNL     1       1.560 -19.889  14.983  1.00  0.00     0.111 A 
ATOM      6  C   UNL     1       1.708 -18.669  14.256  1.00  0.00     0.134 A 
ATOM      7  C   UNL     1       2.719 -17.769  14.618  1.00  0.00     0.093 A 
ATOM      8  C   UNL     1       3.542 -18.015  15.716  1.00  0.00     0.123 A 
ATOM      9  C   UNL     1       3.366 -19.176  16.469  1.00  0.00     0.094 A 
ATOM     10  C   UNL     1       2.390 -20.110  16.111  1.00  0.00     0.146 A 
ATOM     11  O   UNL     1       2.263 -21.207  16.848  1.00  0.00    -0.452 OA
ENDROOT
BRANCH   1  12
ATOM     12  C   UNL     1       1.325 -23.330  17.500  1.00  0.00     0.029 A 
ATOM     13  C   UNL     1       1.922 -24.554  17.166  1.00  0.00     0.062 A 
ATOM     14  C   UNL     1       1.836 -25.649  18.031  1.00  0.00     0.162 A 
ATOM     15  C   UNL     1       0.608 -23.226  18.699  1.00  0.00     0.062 A 
ATOM     16  C   UNL     1       1.137 -25.538  19.247  1.00  0.00     0.200 A 
ATOM     17  C   UNL     1       0.512 -24.310  19.579  1.00  0.00     0.162 A 
BRANCH  14  18
ATOM     18  O   UNL     1       2.451 -26.845  17.662  1.00  0.00    -0.504 OA
ATOM     19  H   UNL     1       2.517 -27.637  18.291  1.00  0.00     0.293 HD
ENDBRANCH  14  18
BRANCH  16  20
ATOM     20  O   UNL     1       1.082 -26.652  20.088  1.00  0.00    -0.502 OA
ATOM     21  H   UNL     1       0.949 -26.604  21.087  1.00  0.00     0.293 HD
ENDBRANCH  16  20
BRANCH  17  22
ATOM     22  O   UNL     1      -0.210 -24.126  20.760  1.00  0.00    -0.504 OA
ATOM     23  H   UNL     1      -0.004 -23.416  21.446  1.00  0.00     0.293 HD
ENDBRANCH  17  22
ENDBRANCH   1  12
BRANCH   2  24
ATOM     24  O   UNL     1      -0.294 -23.118  15.106  1.00  0.00    -0.502 OA
ATOM     25  H   UNL     1      -0.520 -23.865  15.752  1.00  0.00     0.293 HD
ENDBRANCH   2  24
BRANCH   6  26
ATOM     26  O   UNL     1       0.879 -18.284  13.200  1.00  0.00    -0.507 OA
ATOM     27  H   UNL     1       0.028 -18.757  12.935  1.00  0.00     0.293 HD
ENDBRANCH   6  26
BRANCH   8  28
ATOM     28  O   UNL     1       4.527 -17.090  16.057  1.00  0.00    -0.508 OA
ATOM     29  H   UNL     1       4.941 -16.476  15.365  1.00  0.00     0.293 HD
ENDBRANCH   8  28
TORSDOF 7
ENDMDL
MODEL 2
REMARK VINA RESULT:    -8.363      0.095      1.768
REMARK INTER + INTRA:         -10.631
REMARK INTER:                 -10.300
REMARK INTRA:                  -0.330
REMARK UNBOUND:                -0.312
REMARK SMILES O=c1c(O)c(-c2cc(O)c(O)c(O)c2)oc2cc(O)cc(O)c12
REMARK SMILES IDX 5 1 3 2 2 3 1 4 23 5 21 6 20 7 18 8 17 9 16 10 15 11 6 12
REMARK SMILES IDX 7 13 8 14 14 15 10 16 12 17 9 18 11 20 13 22 4 24 22 26
REMARK SMILES IDX 19 28
REMARK H PARENT 9 19 11 21 13 23 4 25 22 27 19 29
REMARK Flexibility Score: inf
ROOT
ATOM      1  C   UNL     1       1.263 -22.160  16.583  1.00  0.00     0.180 A 
ATOM      2  C   UNL     1       0.449 -22.041  15.443  1.00  0.00     0.208 A 
ATOM      3  C   UNL     1       0.572 -20.899  14.635  1.00  0.00     0.238 A 
ATOM      4  O   UNL     1      -0.120 -20.824  13.586  1.00  0.00    -0.285 OA
ATOM      5  C   UNL     1       1.494 -19.884  14.986  1.00  0.00     0.111 A 
ATOM      6  C   UNL     1       1.673 -18.667  14.262  1.00  0.00     0.134 A 
ATOM      7  C   UNL     1       2.705 -17.793  14.626  1.00  0.00     0.093 A 
ATOM      8  C   UNL     1       3.522 -18.061  15.724  1.00  0.00     0.123 A 
ATOM      9  C   UNL     1       3.317 -19.218  16.474  1.00  0.00     0.094 A 
ATOM     10  C   UNL     1       2.318 -20.127  16.115  1.00  0.00     0.146 A 
ATOM     11  O   UNL     1       2.163 -21.222  16.849  1.00  0.00    -0.452 OA
ENDROOT
BRANCH   1  12
ATOM     12  C   UNL     1       1.173 -23.322  17.497  1.00  0.00     0.029 A 
ATOM     13  C   UNL     1       0.480 -23.242  18.714  1.00  0.00     0.062 A 
ATOM     14  C   UNL     1       0.424 -24.341  19.577  1.00  0.00     0.162 A 
ATOM     15  C   UNL     1       1.839 -24.511  17.170  1.00  0.00     0.062 A 
ATOM     16  C   UNL     1       1.073 -25.542  19.237  1.00  0.00     0.200 A 
ATOM     17  C   UNL     1       1.793 -25.622  18.020  1.00  0.00     0.162 A 
BRANCH  14  18
ATOM     18  O   UNL     1      -0.282 -24.218  20.774  1.00  0.00    -0.504 OA
ATOM     19  H   UNL     1      -0.876 -23.422  20.973  1.00  0.00     0.293 HD
ENDBRANCH  14  18
BRANCH  16  20
ATOM     20  O   UNL     1       0.985 -26.619  20.122  1.00  0.00    -0.502 OA
ATOM     21  H   UNL     1       1.767 -27.197  20.393  1.00  0.00     0.293 HD
ENDBRANCH  16  20
BRANCH  17  22
ATOM     22  O   UNL     1       2.473 -26.773  17.620  1.00  0.00    -0.504 OA
ATOM     23  H   UNL     1       2.661 -27.017  16.658  1.00  0.00     0.293 HD
ENDBRANCH  17  22
ENDBRANCH   1  12
BRANCH   2  24
ATOM     24  O   UNL     1      -0.440 -23.066  15.103  1.00  0.00    -0.502 OA
ATOM     25  H   UNL     1      -0.733 -23.772  15.767  1.00  0.00     0.293 HD
ENDBRANCH   2  24
BRANCH   6  26
ATOM     26  O   UNL     1       0.854 -18.260  13.206  1.00  0.00    -0.507 OA
ATOM     27  H   UNL     1       0.971 -17.403  12.686  1.00  0.00     0.293 HD
ENDBRANCH   6  26
BRANCH   8  28
ATOM     28  O   UNL     1       4.529 -17.161  16.066  1.00  0.00    -0.508 OA
ATOM     29  H   UNL     1       4.583 -16.751  16.991  1.00  0.00     0.293 HD
ENDBRANCH   8  28
TORSDOF 7
ENDMDL
MODEL 3
REMARK VINA RESULT:    -8.261      1.538      7.107
REMARK INTER + INTRA:         -10.504
REMARK INTER:                 -10.147
REMARK INTRA:                  -0.357
REMARK UNBOUND:                -0.312
REMARK SMILES O=c1c(O)c(-c2cc(O)c(O)c(O)c2)oc2cc(O)cc(O)c12
REMARK SMILES IDX 5 1 3 2 2 3 1 4 23 5 21 6 20 7 18 8 17 9 16 10 15 11 6 12
REMARK SMILES IDX 7 13 8 14 14 15 10 16 12 17 9 18 11 20 13 22 4 24 22 26
REMARK SMILES IDX 19 28
REMARK H PARENT 9 19 11 21 13 23 4 25 22 27 19 29
REMARK Flexibility Score: inf
ROOT
ATOM      1  C   UNL     1       1.157 -22.143  17.180  1.00  0.00     0.180 A 
ATOM      2  C   UNL     1       1.718 -23.425  17.047  1.00  0.00     0.208 A 
ATOM      3  C   UNL     1       1.334 -24.432  17.948  1.00  0.00     0.238 A 
ATOM      4  O   UNL     1       1.798 -25.593  17.790  1.00  0.00    -0.285 OA
ATOM      5  C   UNL     1       0.410 -24.140  18.979  1.00  0.00     0.111 A 
ATOM      6  C   UNL     1      -0.019 -25.073  19.971  1.00  0.00     0.134 A 
ATOM      7  C   UNL     1      -1.036 -24.713  20.864  1.00  0.00     0.093 A 
ATOM      8  C   UNL     1      -1.593 -23.435  20.843  1.00  0.00     0.123 A 
ATOM      9  C   UNL     1      -1.140 -22.496  19.916  1.00  0.00     0.094 A 
ATOM     10  C   UNL     1      -0.152 -22.837  18.989  1.00  0.00     0.146 A 
ATOM     11  O   UNL     1       0.244 -21.918  18.117  1.00  0.00    -0.452 OA
ENDROOT
BRANCH   1  12
ATOM     12  C   UNL     1       1.531 -21.024  16.285  1.00  0.00     0.029 A 
ATOM     13  C   UNL     1       0.837 -20.781  15.091  1.00  0.00     0.062 A 
ATOM     14  C   UNL     1       1.217 -19.735  14.245  1.00  0.00     0.162 A 
ATOM     15  C   UNL     1       2.635 -20.223  16.606  1.00  0.00     0.062 A 
ATOM     16  C   UNL     1       2.311 -18.915  14.579  1.00  0.00     0.200 A 
ATOM     17  C   UNL     1       3.030 -19.170  15.772  1.00  0.00     0.162 A 
BRANCH  14  18
ATOM     18  O   UNL     1       0.493 -19.525  13.071  1.00  0.00    -0.504 OA
ATOM     19  H   UNL     1       0.556 -20.151  12.277  1.00  0.00     0.293 HD
ENDBRANCH  14  18
BRANCH  16  20
ATOM     20  O   UNL     1       2.652 -17.875  13.711  1.00  0.00    -0.502 OA
ATOM     21  H   UNL     1       3.592 -17.533  13.577  1.00  0.00     0.293 HD
ENDBRANCH  16  20
BRANCH  17  22
ATOM     22  O   UNL     1       4.134 -18.411  16.165  1.00  0.00    -0.504 OA
ATOM     23  H   UNL     1       4.180 -17.404  16.106  1.00  0.00     0.293 HD
ENDBRANCH  17  22
ENDBRANCH   1  12
BRANCH   2  24
ATOM     24  O   UNL     1       2.612 -23.697  16.008  1.00  0.00    -0.502 OA
ATOM     25  H   UNL     1       2.781 -24.637  15.669  1.00  0.00     0.293 HD
ENDBRANCH   2  24
BRANCH   6  26
ATOM     26  O   UNL     1       0.536 -26.345  20.138  1.00  0.00    -0.507 OA
ATOM     27  H   UNL     1       1.489 -26.589  19.914  1.00  0.00     0.293 HD
ENDBRANCH   6  26
BRANCH   8  28
ATOM     28  O   UNL     1      -2.592 -23.106  21.757  1.00  0.00    -0.508 OA
ATOM     29  H   UNL     1      -3.522 -22.843  21.454  1.00  0.00     0.293 HD
ENDBRANCH   8  28
TORSDOF 7
ENDMDL
MODEL 4
REMARK VINA RESULT:    -8.227      1.591      7.130
REMARK INTER + INTRA:         -10.462
REMARK INTER:                 -10.098
REMARK INTRA:                  -0.364
REMARK UNBOUND:                -0.312
REMARK SMILES O=c1c(O)c(-c2cc(O)c(O)c(O)c2)oc2cc(O)cc(O)c12
REMARK SMILES IDX 5 1 3 2 2 3 1 4 23 5 21 6 20 7 18 8 17 9 16 10 15 11 6 12
REMARK SMILES IDX 7 13 8 14 14 15 10 16 12 17 9 18 11 20 13 22 4 24 22 26
REMARK SMILES IDX 19 28
REMARK H PARENT 9 19 11 21 13 23 4 25 22 27 19 29
REMARK Flexibility Score: inf
ROOT
ATOM      1  C   UNL     1       1.156 -22.207  17.226  1.00  0.00     0.180 A 
ATOM      2  C   UNL     1       1.682 -23.507  17.127  1.00  0.00     0.208 A 
ATOM      3  C   UNL     1       1.256 -24.485  18.040  1.00  0.00     0.238 A 
ATOM      4  O   UNL     1       1.688 -25.661  17.912  1.00  0.00    -0.285 OA
ATOM      5  C   UNL     1       0.322 -24.147  19.049  1.00  0.00     0.111 A 
ATOM      6  C   UNL     1      -0.149 -25.049  20.051  1.00  0.00     0.134 A 
ATOM      7  C   UNL     1      -1.169 -24.643  20.920  1.00  0.00     0.093 A 
ATOM      8  C   UNL     1      -1.690 -23.351  20.865  1.00  0.00     0.123 A 
ATOM      9  C   UNL     1      -1.195 -22.443  19.929  1.00  0.00     0.094 A 
ATOM     10  C   UNL     1      -0.202 -22.829  19.025  1.00  0.00     0.146 A 
ATOM     11  O   UNL     1       0.234 -21.938  18.142  1.00  0.00    -0.452 OA
ENDROOT
BRANCH   1  12
ATOM     12  C   UNL     1       1.576 -21.116  16.317  1.00  0.00     0.029 A 
ATOM     13  C   UNL     1       2.644 -20.267  16.639  1.00  0.00     0.062 A 
ATOM     14  C   UNL     1       3.013 -19.227  15.781  1.00  0.00     0.162 A 
ATOM     15  C   UNL     1       0.858 -20.889  15.135  1.00  0.00     0.062 A 
ATOM     16  C   UNL     1       2.308 -19.013  14.582  1.00  0.00     0.200 A 
ATOM     17  C   UNL     1       1.213 -19.854  14.262  1.00  0.00     0.162 A 
BRANCH  14  18
ATOM     18  O   UNL     1       4.087 -18.411  16.139  1.00  0.00    -0.504 OA
ATOM     19  H   UNL     1       5.050 -18.687  15.990  1.00  0.00     0.293 HD
ENDBRANCH  14  18
BRANCH  16  20
ATOM     20  O   UNL     1       2.714 -17.969  13.748  1.00  0.00    -0.502 OA
ATOM     21  H   UNL     1       2.431 -17.007  13.863  1.00  0.00     0.293 HD
ENDBRANCH  16  20
BRANCH  17  22
ATOM     22  O   UNL     1       0.456 -19.697  13.099  1.00  0.00    -0.504 OA
ATOM     23  H   UNL     1       0.840 -19.432  12.204  1.00  0.00     0.293 HD
ENDBRANCH  17  22
ENDBRANCH   1  12
BRANCH   2  24
ATOM     24  O   UNL     1       2.586 -23.824  16.109  1.00  0.00    -0.502 OA
ATOM     25  H   UNL     1       3.156 -24.660  16.130  1.00  0.00     0.293 HD
ENDBRANCH   2  24
BRANCH   6  26
ATOM     26  O   UNL     1       0.368 -26.331  20.252  1.00  0.00    -0.507 OA
ATOM     27  H   UNL     1       0.675 -26.949  19.516  1.00  0.00     0.293 HD
ENDBRANCH   6  26
BRANCH   8  28
ATOM     28  O   UNL     1      -2.695 -22.976  21.755  1.00  0.00    -0.508 OA
ATOM     29  H   UNL     1      -2.480 -22.653  22.691  1.00  0.00     0.293 HD
ENDBRANCH   8  28
TORSDOF 7
ENDMDL
MODEL 5
REMARK VINA RESULT:    -7.658      1.911      3.625
REMARK INTER + INTRA:          -9.761
REMARK INTER:                  -9.429
REMARK INTRA:                  -0.332
REMARK UNBOUND:                -0.312
REMARK SMILES O=c1c(O)c(-c2cc(O)c(O)c(O)c2)oc2cc(O)cc(O)c12
REMARK SMILES IDX 5 1 3 2 2 3 1 4 23 5 21 6 20 7 18 8 17 9 16 10 15 11 6 12
REMARK SMILES IDX 7 13 8 14 14 15 10 16 12 17 9 18 11 20 13 22 4 24 22 26
REMARK SMILES IDX 19 28
REMARK H PARENT 9 19 11 21 13 23 4 25 22 27 19 29
REMARK Flexibility Score: inf
ROOT
ATOM      1  C   UNL     1       0.161 -21.907  17.111  1.00  0.00     0.180 A 
ATOM      2  C   UNL     1       1.458 -21.437  16.842  1.00  0.00     0.208 A 
ATOM      3  C   UNL     1       1.634 -20.450  15.859  1.00  0.00     0.238 A 
ATOM      4  O   UNL     1       2.791 -19.994  15.661  1.00  0.00    -0.285 OA
ATOM      5  C   UNL     1       0.514 -19.959  15.147  1.00  0.00     0.111 A 
ATOM      6  C   UNL     1       0.581 -18.987  14.103  1.00  0.00     0.134 A 
ATOM      7  C   UNL     1      -0.604 -18.478  13.556  1.00  0.00     0.093 A 
ATOM      8  C   UNL     1      -1.849 -18.951  13.970  1.00  0.00     0.123 A 
ATOM      9  C   UNL     1      -1.924 -19.942  14.948  1.00  0.00     0.094 A 
ATOM     10  C   UNL     1      -0.760 -20.444  15.538  1.00  0.00     0.146 A 
ATOM     11  O   UNL     1      -0.876 -21.380  16.472  1.00  0.00    -0.452 OA
ENDROOT
BRANCH   1  12
ATOM     12  C   UNL     1      -0.101 -22.964  18.115  1.00  0.00     0.029 A 
ATOM     13  C   UNL     1      -0.512 -22.648  19.418  1.00  0.00     0.062 A 
ATOM     14  C   UNL     1      -0.732 -23.657  20.361  1.00  0.00     0.162 A 
ATOM     15  C   UNL     1       0.120 -24.306  17.778  1.00  0.00     0.062 A 
ATOM     16  C   UNL     1      -0.534 -25.006  20.015  1.00  0.00     0.200 A 
ATOM     17  C   UNL     1      -0.097 -25.330  18.707  1.00  0.00     0.162 A 
BRANCH  14  18
ATOM     18  O   UNL     1      -1.147 -23.296  21.644  1.00  0.00    -0.504 OA
ATOM     19  H   UNL     1      -1.119 -23.942  22.424  1.00  0.00     0.293 HD
ENDBRANCH  14  18
BRANCH  16  20
ATOM     20  O   UNL     1      -0.774 -25.983  20.984  1.00  0.00    -0.502 OA
ATOM     21  H   UNL     1      -0.217 -26.108  21.816  1.00  0.00     0.293 HD
ENDBRANCH  16  20
BRANCH  17  22
ATOM     22  O   UNL     1       0.134 -26.643  18.293  1.00  0.00    -0.504 OA
ATOM     23  H   UNL     1       0.054 -26.959  17.338  1.00  0.00     0.293 HD
ENDBRANCH  17  22
ENDBRANCH   1  12
BRANCH   2  24
ATOM     24  O   UNL     1       2.547 -21.921  17.573  1.00  0.00    -0.502 OA
ATOM     25  H   UNL     1       2.569 -22.857  17.961  1.00  0.00     0.293 HD
ENDBRANCH   2  24
BRANCH   6  26
ATOM     26  O   UNL     1       1.775 -18.515  13.551  1.00  0.00    -0.507 OA
ATOM     27  H   UNL     1       2.281 -17.708  13.882  1.00  0.00     0.293 HD
ENDBRANCH   6  26
BRANCH   8  28
ATOM     28  O   UNL     1      -3.007 -18.432  13.394  1.00  0.00    -0.508 OA
ATOM     29  H   UNL     1      -3.897 -18.910  13.470  1.00  0.00     0.293 HD
ENDBRANCH   8  28
TORSDOF 7
ENDMDL
MODEL 6
REMARK VINA RESULT:    -7.649      2.944      7.986
REMARK INTER + INTRA:          -9.749
REMARK INTER:                  -9.564
REMARK INTRA:                  -0.185
REMARK UNBOUND:                -0.312
REMARK SMILES O=c1c(O)c(-c2cc(O)c(O)c(O)c2)oc2cc(O)cc(O)c12
REMARK SMILES IDX 5 1 3 2 2 3 1 4 23 5 21 6 20 7 18 8 17 9 16 10 15 11 6 12
REMARK SMILES IDX 7 13 8 14 14 15 10 16 12 17 9 18 11 20 13 22 4 24 22 26
REMARK SMILES IDX 19 28
REMARK H PARENT 9 19 11 21 13 23 4 25 22 27 19 29
REMARK Flexibility Score: inf
ROOT
ATOM      1  C   UNL     1       1.131 -25.281  17.816  1.00  0.00     0.180 A 
ATOM      2  C   UNL     1       2.386 -25.675  17.320  1.00  0.00     0.208 A 
ATOM      3  C   UNL     1       3.025 -26.787  17.890  1.00  0.00     0.238 A 
ATOM      4  O   UNL     1       4.123 -27.168  17.405  1.00  0.00    -0.285 OA
ATOM      5  C   UNL     1       2.410 -27.480  18.960  1.00  0.00     0.111 A 
ATOM      6  C   UNL     1       2.986 -28.596  19.639  1.00  0.00     0.134 A 
ATOM      7  C   UNL     1       2.232 -29.286  20.597  1.00  0.00     0.093 A 
ATOM      8  C   UNL     1       0.950 -28.863  20.945  1.00  0.00     0.123 A 
ATOM      9  C   UNL     1       0.400 -27.738  20.330  1.00  0.00     0.094 A 
ATOM     10  C   UNL     1       1.114 -27.050  19.345  1.00  0.00     0.146 A 
ATOM     11  O   UNL     1       0.551 -25.991  18.776  1.00  0.00    -0.452 OA
ENDROOT
BRANCH   1  12
ATOM     12  C   UNL     1       0.408 -24.104  17.283  1.00  0.00     0.029 A 
ATOM     13  C   UNL     1       0.956 -22.815  17.358  1.00  0.00     0.062 A 
ATOM     14  C   UNL     1       0.249 -21.711  16.871  1.00  0.00     0.162 A 
ATOM     15  C   UNL     1      -0.875 -24.268  16.744  1.00  0.00     0.062 A 
ATOM     16  C   UNL     1      -1.029 -21.879  16.308  1.00  0.00     0.200 A 
ATOM     17  C   UNL     1      -1.597 -23.175  16.251  1.00  0.00     0.162 A 
BRANCH  14  18
ATOM     18  O   UNL     1       0.836 -20.448  16.959  1.00  0.00    -0.504 OA
ATOM     19  H   UNL     1       0.331 -19.638  17.298  1.00  0.00     0.293 HD
ENDBRANCH  14  18
BRANCH  16  20
ATOM     20  O   UNL     1      -1.697 -20.751  15.825  1.00  0.00    -0.502 OA
ATOM     21  H   UNL     1      -2.701 -20.651  15.805  1.00  0.00     0.293 HD
ENDBRANCH  16  20
BRANCH  17  22
ATOM     22  O   UNL     1      -2.865 -23.421  15.719  1.00  0.00    -0.504 OA
ATOM     23  H   UNL     1      -3.209 -23.014  14.863  1.00  0.00     0.293 HD
ENDBRANCH  17  22
ENDBRANCH   1  12
BRANCH   2  24
ATOM     24  O   UNL     1       2.965 -24.989  16.248  1.00  0.00    -0.502 OA
ATOM     25  H   UNL     1       2.609 -25.060  15.302  1.00  0.00     0.293 HD
ENDBRANCH   2  24
BRANCH   6  26
ATOM     26  O   UNL     1       4.293 -29.046  19.433  1.00  0.00    -0.507 OA
ATOM     27  H   UNL     1       4.830 -28.886  18.595  1.00  0.00     0.293 HD
ENDBRANCH   6  26
BRANCH   8  28
ATOM     28  O   UNL     1       0.233 -29.564  21.913  1.00  0.00    -0.508 OA
ATOM     29  H   UNL     1       0.454 -29.482  22.899  1.00  0.00     0.293 HD
ENDBRANCH   8  28
TORSDOF 7
ENDMDL
MODEL 7
REMARK VINA RESULT:    -7.577      2.174      7.653
REMARK INTER + INTRA:          -9.660
REMARK INTER:                  -9.373
REMARK INTRA:                  -0.287
REMARK UNBOUND:                -0.312
REMARK SMILES O=c1c(O)c(-c2cc(O)c(O)c(O)c2)oc2cc(O)cc(O)c12
REMARK SMILES IDX 5 1 3 2 2 3 1 4 23 5 21 6 20 7 18 8 17 9 16 10 15 11 6 12
REMARK SMILES IDX 7 13 8 14 14 15 10 16 12 17 9 18 11 20 13 22 4 24 22 26
REMARK SMILES IDX 19 28
REMARK H PARENT 9 19 11 21 13 23 4 25 22 27 19 29
REMARK Flexibility Score: inf
ROOT
ATOM      1  C   UNL     1       1.050 -24.595  17.273  1.00  0.00     0.180 A 
ATOM      2  C   UNL     1       0.115 -24.645  18.321  1.00  0.00     0.208 A 
ATOM      3  C   UNL     1       0.247 -25.639  19.304  1.00  0.00     0.238 A 
ATOM      4  O   UNL     1      -0.561 -25.645  20.270  1.00  0.00    -0.285 OA
ATOM      5  C   UNL     1       1.301 -26.580  19.217  1.00  0.00     0.111 A 
ATOM      6  C   UNL     1       1.506 -27.653  20.136  1.00  0.00     0.134 A 
ATOM      7  C   UNL     1       2.657 -28.445  20.027  1.00  0.00     0.093 A 
ATOM      8  C   UNL     1       3.575 -28.242  18.997  1.00  0.00     0.123 A 
ATOM      9  C   UNL     1       3.353 -27.234  18.059  1.00  0.00     0.094 A 
ATOM     10  C   UNL     1       2.233 -26.405  18.162  1.00  0.00     0.146 A 
ATOM     11  O   UNL     1       2.065 -25.450  17.255  1.00  0.00    -0.452 OA
ENDROOT
BRANCH   1  12
ATOM     12  C   UNL     1       0.963 -23.592  16.187  1.00  0.00     0.029 A 
ATOM     13  C   UNL     1       1.304 -22.249  16.403  1.00  0.00     0.062 A 
ATOM     14  C   UNL     1       1.194 -21.310  15.373  1.00  0.00     0.162 A 
ATOM     15  C   UNL     1       0.475 -23.977  14.931  1.00  0.00     0.062 A 
ATOM     16  C   UNL     1       0.727 -21.701  14.105  1.00  0.00     0.200 A 
ATOM     17  C   UNL     1       0.359 -23.051  13.887  1.00  0.00     0.162 A 
BRANCH  14  18
ATOM     18  O   UNL     1       1.551 -19.987  15.632  1.00  0.00    -0.504 OA
ATOM     19  H   UNL     1       2.237 -19.738  16.334  1.00  0.00     0.293 HD
ENDBRANCH  14  18
BRANCH  16  20
ATOM     20  O   UNL     1       0.640 -20.734  13.101  1.00  0.00    -0.502 OA
ATOM     21  H   UNL     1       0.678 -20.936  12.113  1.00  0.00     0.293 HD
ENDBRANCH  16  20
BRANCH  17  22
ATOM     22  O   UNL     1      -0.126 -23.513  12.661  1.00  0.00    -0.504 OA
ATOM     23  H   UNL     1       0.444 -23.957  11.957  1.00  0.00     0.293 HD
ENDBRANCH  17  22
ENDBRANCH   1  12
BRANCH   2  24
ATOM     24  O   UNL     1      -0.905 -23.692  18.399  1.00  0.00    -0.502 OA
ATOM     25  H   UNL     1      -0.746 -22.710  18.211  1.00  0.00     0.293 HD
ENDBRANCH   2  24
BRANCH   6  26
ATOM     26  O   UNL     1       0.605 -27.999  21.146  1.00  0.00    -0.507 OA
ATOM     27  H   UNL     1       0.832 -28.047  22.127  1.00  0.00     0.293 HD
ENDBRANCH   6  26
BRANCH   8  28
ATOM     28  O   UNL     1       4.701 -29.059  18.911  1.00  0.00    -0.508 OA
ATOM     29  H   UNL     1       5.107 -29.491  19.732  1.00  0.00     0.293 HD
ENDBRANCH   8  28
TORSDOF 7
ENDMDL
MODEL 8
REMARK VINA RESULT:    -7.524      1.571      2.745
REMARK INTER + INTRA:          -9.595
REMARK INTER:                  -9.228
REMARK INTRA:                  -0.367
REMARK UNBOUND:                -0.312
REMARK SMILES O=c1c(O)c(-c2cc(O)c(O)c(O)c2)oc2cc(O)cc(O)c12
REMARK SMILES IDX 5 1 3 2 2 3 1 4 23 5 21 6 20 7 18 8 17 9 16 10 15 11 6 12
REMARK SMILES IDX 7 13 8 14 14 15 10 16 12 17 9 18 11 20 13 22 4 24 22 26
REMARK SMILES IDX 19 28
REMARK H PARENT 9 19 11 21 13 23 4 25 22 27 19 29
REMARK Flexibility Score: inf
ROOT
ATOM      1  C   UNL     1       1.106 -20.506  15.427  1.00  0.00     0.180 A 
ATOM      2  C   UNL     1       0.219 -20.037  14.443  1.00  0.00     0.208 A 
ATOM      3  C   UNL     1       0.459 -18.786  13.852  1.00  0.00     0.238 A 
ATOM      4  O   UNL     1      -0.307 -18.395  12.931  1.00  0.00    -0.285 OA
ATOM      5  C   UNL     1       1.571 -18.013  14.265  1.00  0.00     0.111 A 
ATOM      6  C   UNL     1       1.886 -16.715  13.762  1.00  0.00     0.134 A 
ATOM      7  C   UNL     1       3.083 -16.098  14.147  1.00  0.00     0.093 A 
ATOM      8  C   UNL     1       3.942 -16.702  15.064  1.00  0.00     0.123 A 
ATOM      9  C   UNL     1       3.615 -17.945  15.606  1.00  0.00     0.094 A 
ATOM     10  C   UNL     1       2.445 -18.602  15.214  1.00  0.00     0.146 A 
ATOM     11  O   UNL     1       2.175 -19.788  15.746  1.00  0.00    -0.452 OA
ENDROOT
BRANCH   1  12
ATOM     12  C   UNL     1       0.905 -21.803  16.114  1.00  0.00     0.029 A 
ATOM     13  C   UNL     1       0.099 -21.908  17.257  1.00  0.00     0.062 A 
ATOM     14  C   UNL     1      -0.061 -23.135  17.907  1.00  0.00     0.162 A 
ATOM     15  C   UNL     1       1.578 -22.941  15.649  1.00  0.00     0.062 A 
ATOM     16  C   UNL     1       0.595 -24.283  17.426  1.00  0.00     0.200 A 
ATOM     17  C   UNL     1       1.429 -24.179  16.285  1.00  0.00     0.162 A 
BRANCH  14  18
ATOM     18  O   UNL     1      -0.879 -23.194  19.036  1.00  0.00    -0.504 OA
ATOM     19  H   UNL     1      -0.590 -22.825  19.934  1.00  0.00     0.293 HD
ENDBRANCH  14  18
BRANCH  16  20
ATOM     20  O   UNL     1       0.401 -25.491  18.099  1.00  0.00    -0.502 OA
ATOM     21  H   UNL     1       0.556 -26.401  17.689  1.00  0.00     0.293 HD
ENDBRANCH  16  20
BRANCH  17  22
ATOM     22  O   UNL     1       2.124 -25.268  15.757  1.00  0.00    -0.504 OA
ATOM     23  H   UNL     1       2.569 -25.982  16.314  1.00  0.00     0.293 HD
ENDBRANCH  17  22
ENDBRANCH   1  12
BRANCH   2  24
ATOM     24  O   UNL     1      -0.860 -20.826  14.034  1.00  0.00    -0.502 OA
ATOM     25  H   UNL     1      -1.032 -21.749  14.414  1.00  0.00     0.293 HD
ENDBRANCH   2  24
BRANCH   6  26
ATOM     26  O   UNL     1       1.052 -15.983  12.913  1.00  0.00    -0.507 OA
ATOM     27  H   UNL     1       1.374 -15.329  12.216  1.00  0.00     0.293 HD
ENDBRANCH   6  26
BRANCH   8  28
ATOM     28  O   UNL     1       5.118 -16.052  15.436  1.00  0.00    -0.508 OA
ATOM     29  H   UNL     1       5.453 -15.236  14.938  1.00  0.00     0.293 HD
ENDBRANCH   8  28
TORSDOF 7
ENDMDL
MODEL 9
REMARK VINA RESULT:    -7.492      1.814      3.424
REMARK INTER + INTRA:          -9.555
REMARK INTER:                  -9.199
REMARK INTRA:                  -0.357
REMARK UNBOUND:                -0.312
REMARK SMILES O=c1c(O)c(-c2cc(O)c(O)c(O)c2)oc2cc(O)cc(O)c12
REMARK SMILES IDX 5 1 3 2 2 3 1 4 23 5 21 6 20 7 18 8 17 9 16 10 15 11 6 12
REMARK SMILES IDX 7 13 8 14 14 15 10 16 12 17 9 18 11 20 13 22 4 24 22 26
REMARK SMILES IDX 19 28
REMARK H PARENT 9 19 11 21 13 23 4 25 22 27 19 29
REMARK Flexibility Score: inf
ROOT
ATOM      1  C   UNL     1       1.530 -20.385  15.668  1.00  0.00     0.180 A 
ATOM      2  C   UNL     1       2.703 -19.659  15.934  1.00  0.00     0.208 A 
ATOM      3  C   UNL     1       2.894 -18.420  15.302  1.00  0.00     0.238 A 
ATOM      4  O   UNL     1       3.921 -17.748  15.586  1.00  0.00    -0.285 OA
ATOM      5  C   UNL     1       1.919 -17.932  14.399  1.00  0.00     0.111 A 
ATOM      6  C   UNL     1       2.029 -16.708  13.673  1.00  0.00     0.134 A 
ATOM      7  C   UNL     1       0.945 -16.260  12.907  1.00  0.00     0.093 A 
ATOM      8  C   UNL     1      -0.217 -17.021  12.790  1.00  0.00     0.123 A 
ATOM      9  C   UNL     1      -0.312 -18.247  13.449  1.00  0.00     0.094 A 
ATOM     10  C   UNL     1       0.738 -18.704  14.249  1.00  0.00     0.146 A 
ATOM     11  O   UNL     1       0.604 -19.871  14.867  1.00  0.00    -0.452 OA
ENDROOT
BRANCH   1  12
ATOM     12  C   UNL     1       1.269 -21.710  16.277  1.00  0.00     0.029 A 
ATOM     13  C   UNL     1       1.809 -22.884  15.731  1.00  0.00     0.062 A 
ATOM     14  C   UNL     1       1.534 -24.129  16.303  1.00  0.00     0.162 A 
ATOM     15  C   UNL     1       0.419 -21.804  17.387  1.00  0.00     0.062 A 
ATOM     16  C   UNL     1       0.701 -24.221  17.433  1.00  0.00     0.200 A 
ATOM     17  C   UNL     1       0.134 -23.041  17.976  1.00  0.00     0.162 A 
BRANCH  14  18
ATOM     18  O   UNL     1       2.098 -25.269  15.731  1.00  0.00    -0.504 OA
ATOM     19  H   UNL     1       2.647 -25.930  16.268  1.00  0.00     0.293 HD
ENDBRANCH  14  18
BRANCH  16  20
ATOM     20  O   UNL     1       0.458 -25.483  17.981  1.00  0.00    -0.502 OA
ATOM     21  H   UNL     1      -0.172 -26.163  17.583  1.00  0.00     0.293 HD
ENDBRANCH  16  20
BRANCH  17  22
ATOM     22  O   UNL     1      -0.713 -23.052  19.086  1.00  0.00    -0.504 OA
ATOM     23  H   UNL     1      -1.624 -23.485  19.100  1.00  0.00     0.293 HD
ENDBRANCH  17  22
ENDBRANCH   1  12
BRANCH   2  24
ATOM     24  O   UNL     1       3.643 -20.150  16.846  1.00  0.00    -0.502 OA
ATOM     25  H   UNL     1       3.488 -20.134  17.846  1.00  0.00     0.293 HD
ENDBRANCH   2  24
BRANCH   6  26
ATOM     26  O   UNL     1       3.180 -15.916  13.646  1.00  0.00    -0.507 OA
ATOM     27  H   UNL     1       3.743 -15.749  12.826  1.00  0.00     0.293 HD
ENDBRANCH   6  26
BRANCH   8  28
ATOM     28  O   UNL     1      -1.271 -16.552  12.007  1.00  0.00    -0.508 OA
ATOM     29  H   UNL     1      -2.036 -17.156  11.732  1.00  0.00     0.293 HD
ENDBRANCH   8  28
TORSDOF 7
ENDMDL
