MODEL 1
REMARK VINA RESULT:    -1.947      0.000      0.000
REMARK INTER + INTRA:          -7.755
REMARK INTER:                  -5.133
REMARK INTRA:                  -2.621
REMARK UNBOUND:                -2.621
REMARK SMILES CCCCCCCCCCCCCCCCCCCCCCCCCCCCCC(=O)[O-]
REMARK SMILES IDX 16 1 17 2 18 3 19 4 20 5 21 6 22 7 23 8 24 9 25 10 26 11
REMARK SMILES IDX 27 12 28 13 29 14 30 15 31 16 32 17 15 18 14 19 13 20 12 21
REMARK SMILES IDX 11 22 10 23 9 24 8 25 7 26 6 27 5 28 4 29 3 30 2 31 1 32
REMARK H PARENT
REMARK Flexibility Score: inf
ROOT
ATOM      1  C   UNL     1      10.009  -6.416   4.287  1.00  0.00     0.000 C 
ENDROOT
BRANCH   1   2
ATOM      2  C   UNL     1       9.243  -5.963   3.032  1.00  0.00     0.000 C 
BRANCH   2   3
ATOM      3  C   UNL     1       8.190  -4.885   3.338  1.00  0.00     0.000 C 
BRANCH   3   4
ATOM      4  C   UNL     1       6.775  -5.287   2.890  1.00  0.00     0.000 C 
BRANCH   4   5
ATOM      5  C   UNL     1       6.171  -6.452   3.702  1.00  0.00     0.000 C 
BRANCH   5   6
ATOM      6  C   UNL     1       6.145  -7.767   2.902  1.00  0.00     0.000 C 
BRANCH   6   7
ATOM      7  C   UNL     1       6.787  -8.943   3.660  1.00  0.00     0.000 C 
BRANCH   7   8
ATOM      8  C   UNL     1       5.894  -9.598   4.735  1.00  0.00     0.000 C 
BRANCH   8   9
ATOM      9  C   UNL     1       5.226  -8.622   5.721  1.00  0.00     0.000 C 
BRANCH   9  10
ATOM     10  C   UNL     1       3.715  -8.472   5.478  1.00  0.00     0.000 C 
BRANCH  10  11
ATOM     11  C   UNL     1       3.317  -8.769   4.023  1.00  0.00     0.000 C 
BRANCH  11  12
ATOM     12  C   UNL     1       2.503  -7.634   3.380  1.00  0.00     0.000 C 
BRANCH  12  13
ATOM     13  C   UNL     1       2.530  -6.341   4.211  1.00  0.00     0.006 C 
BRANCH  13  14
ATOM     14  C   UNL     1       2.780  -5.091   3.353  1.00  0.00     0.053 C 
BRANCH  14  15
ATOM     15  C   UNL     1       3.033  -3.888   4.208  1.00  0.00     0.041 C 
ATOM     16  O   UNL     1       4.016  -3.870   4.996  1.00  0.00    -0.550 OA
ATOM     17  O   UNL     1       2.224  -2.764   4.095  1.00  0.00    -0.550 OA
ENDBRANCH  14  15
ENDBRANCH  13  14
ENDBRANCH  12  13
ENDBRANCH  11  12
ENDBRANCH  10  11
ENDBRANCH   9  10
ENDBRANCH   8   9
ENDBRANCH   7   8
ENDBRANCH   6   7
ENDBRANCH   5   6
ENDBRANCH   4   5
ENDBRANCH   3   4
ENDBRANCH   2   3
ENDBRANCH   1   2
BRANCH   1  18
ATOM     18  C   UNL     1      11.261  -5.561   4.552  1.00  0.00     0.000 C 
BRANCH  18  19
ATOM     19  C   UNL     1      12.033  -5.222   3.268  1.00  0.00     0.000 C 
BRANCH  19  20
ATOM     20  C   UNL     1      13.559  -5.278   3.463  1.00  0.00     0.000 C 
BRANCH  20  21
ATOM     21  C   UNL     1      14.174  -6.568   2.894  1.00  0.00     0.000 C 
BRANCH  21  22
ATOM     22  C   UNL     1      13.253  -7.786   3.086  1.00  0.00     0.000 C 
BRANCH  22  23
ATOM     23  C   UNL     1      13.610  -8.619   4.330  1.00  0.00     0.000 C 
BRANCH  23  24
ATOM     24  C   UNL     1      14.175 -10.023   4.034  1.00  0.00    -0.000 C 
BRANCH  24  25
ATOM     25  C   UNL     1      15.713 -10.125   4.063  1.00  0.00    -0.000 C 
BRANCH  25  26
ATOM     26  C   UNL     1      16.436  -9.458   2.876  1.00  0.00    -0.000 C 
BRANCH  26  27
ATOM     27  C   UNL     1      17.770  -8.772   3.220  1.00  0.00    -0.000 C 
BRANCH  27  28
ATOM     28  C   UNL     1      17.595  -7.542   4.125  1.00  0.00    -0.000 C 
BRANCH  28  29
ATOM     29  C   UNL     1      17.302  -6.253   3.334  1.00  0.00    -0.000 C 
BRANCH  29  30
ATOM     30  C   UNL     1      17.195  -4.974   4.186  1.00  0.00    -0.000 C 
BRANCH  30  31
ATOM     31  C   UNL     1      17.055  -5.265   5.686  1.00  0.00    -0.003 C 
ATOM     32  C   UNL     1      15.600  -5.148   6.134  1.00  0.00     0.004 C 
ENDBRANCH  30  31
ENDBRANCH  29  30
ENDBRANCH  28  29
ENDBRANCH  27  28
ENDBRANCH  26  27
ENDBRANCH  25  26
ENDBRANCH  24  25
ENDBRANCH  23  24
ENDBRANCH  22  23
ENDBRANCH  21  22
ENDBRANCH  20  21
ENDBRANCH  19  20
ENDBRANCH  18  19
ENDBRANCH   1  18
TORSDOF 28
ENDMDL
MODEL 2
REMARK VINA RESULT:    -1.208      3.614     11.149
REMARK INTER + INTRA:          -5.806
REMARK INTER:                  -4.427
REMARK INTRA:                  -1.379
REMARK UNBOUND:                -2.621
REMARK SMILES CCCCCCCCCCCCCCCCCCCCCCCCCCCCCC(=O)[O-]
REMARK SMILES IDX 16 1 17 2 18 3 19 4 20 5 21 6 22 7 23 8 24 9 25 10 26 11
REMARK SMILES IDX 27 12 28 13 29 14 30 15 31 16 32 17 15 18 14 19 13 20 12 21
REMARK SMILES IDX 11 22 10 23 9 24 8 25 7 26 6 27 5 28 4 29 3 30 2 31 1 32
REMARK H PARENT
REMARK Flexibility Score: inf
ROOT
ATOM      1  C   UNL     1      10.198  -5.398   2.937  1.00  0.00     0.000 C 
ENDROOT
BRANCH   1   2
ATOM      2  C   UNL     1      10.356  -6.204   4.238  1.00  0.00     0.000 C 
BRANCH   2   3
ATOM      3  C   UNL     1      11.656  -7.025   4.271  1.00  0.00     0.000 C 
BRANCH   3   4
ATOM      4  C   UNL     1      12.327  -7.137   2.892  1.00  0.00     0.000 C 
BRANCH   4   5
ATOM      5  C   UNL     1      13.831  -6.793   2.899  1.00  0.00     0.000 C 
BRANCH   5   6
ATOM      6  C   UNL     1      14.081  -5.275   2.930  1.00  0.00     0.000 C 
BRANCH   6   7
ATOM      7  C   UNL     1      14.446  -4.757   4.334  1.00  0.00     0.000 C 
BRANCH   7   8
ATOM      8  C   UNL     1      15.129  -5.787   5.258  1.00  0.00     0.000 C 
BRANCH   8   9
ATOM      9  C   UNL     1      16.549  -5.415   5.723  1.00  0.00     0.000 C 
BRANCH   9  10
ATOM     10  C   UNL     1      17.531  -6.594   5.641  1.00  0.00     0.000 C 
BRANCH  10  11
ATOM     11  C   UNL     1      17.182  -7.723   6.624  1.00  0.00     0.000 C 
BRANCH  11  12
ATOM     12  C   UNL     1      17.991  -9.007   6.374  1.00  0.00     0.000 C 
BRANCH  12  13
ATOM     13  C   UNL     1      17.149 -10.123   5.734  1.00  0.00     0.006 C 
BRANCH  13  14
ATOM     14  C   UNL     1      17.193 -10.091   4.198  1.00  0.00     0.053 C 
BRANCH  14  15
ATOM     15  C   UNL     1      15.933  -9.512   3.632  1.00  0.00     0.041 C 
ATOM     16  O   UNL     1      15.984  -8.496   2.888  1.00  0.00    -0.550 OA
ATOM     17  O   UNL     1      14.709 -10.125   3.873  1.00  0.00    -0.550 OA
ENDBRANCH  14  15
ENDBRANCH  13  14
ENDBRANCH  12  13
ENDBRANCH  11  12
ENDBRANCH  10  11
ENDBRANCH   9  10
ENDBRANCH   8   9
ENDBRANCH   7   8
ENDBRANCH   6   7
ENDBRANCH   5   6
ENDBRANCH   4   5
ENDBRANCH   3   4
ENDBRANCH   2   3
ENDBRANCH   1   2
BRANCH   1  18
ATOM     18  C   UNL     1       8.863  -4.633   2.878  1.00  0.00     0.000 C 
BRANCH  18  19
ATOM     19  C   UNL     1       7.643  -5.555   3.016  1.00  0.00     0.000 C 
BRANCH  19  20
ATOM     20  C   UNL     1       8.035  -7.019   3.288  1.00  0.00     0.000 C 
BRANCH  20  21
ATOM     21  C   UNL     1       7.003  -7.746   4.167  1.00  0.00     0.000 C 
BRANCH  21  22
ATOM     22  C   UNL     1       5.872  -8.379   3.337  1.00  0.00     0.000 C 
BRANCH  22  23
ATOM     23  C   UNL     1       4.761  -8.994   4.206  1.00  0.00     0.000 C 
BRANCH  23  24
ATOM     24  C   UNL     1       3.366  -9.030   3.551  1.00  0.00    -0.000 C 
BRANCH  24  25
ATOM     25  C   UNL     1       2.928  -7.715   2.879  1.00  0.00    -0.000 C 
BRANCH  25  26
ATOM     26  C   UNL     1       2.024  -6.808   3.739  1.00  0.00    -0.000 C 
BRANCH  26  27
ATOM     27  C   UNL     1       2.194  -5.297   3.503  1.00  0.00    -0.000 C 
BRANCH  27  28
ATOM     28  C   UNL     1       3.596  -4.924   2.995  1.00  0.00    -0.000 C 
BRANCH  28  29
ATOM     29  C   UNL     1       4.617  -4.740   4.134  1.00  0.00    -0.000 C 
BRANCH  29  30
ATOM     30  C   UNL     1       4.176  -5.296   5.501  1.00  0.00    -0.000 C 
BRANCH  30  31
ATOM     31  C   UNL     1       5.332  -5.402   6.504  1.00  0.00    -0.003 C 
ATOM     32  C   UNL     1       5.594  -6.856   6.888  1.00  0.00     0.004 C 
ENDBRANCH  30  31
ENDBRANCH  29  30
ENDBRANCH  28  29
ENDBRANCH  27  28
ENDBRANCH  26  27
ENDBRANCH  25  26
ENDBRANCH  24  25
ENDBRANCH  23  24
ENDBRANCH  22  23
ENDBRANCH  21  22
ENDBRANCH  20  21
ENDBRANCH  19  20
ENDBRANCH  18  19
ENDBRANCH   1  18
TORSDOF 28
ENDMDL
MODEL 3
REMARK VINA RESULT:    -0.077      3.754     11.446
REMARK INTER + INTRA:          -2.825
REMARK INTER:                  -0.766
REMARK INTRA:                  -2.059
REMARK UNBOUND:                -2.621
REMARK SMILES CCCCCCCCCCCCCCCCCCCCCCCCCCCCCC(=O)[O-]
REMARK SMILES IDX 16 1 17 2 18 3 19 4 20 5 21 6 22 7 23 8 24 9 25 10 26 11
REMARK SMILES IDX 27 12 28 13 29 14 30 15 31 16 32 17 15 18 14 19 13 20 12 21
REMARK SMILES IDX 11 22 10 23 9 24 8 25 7 26 6 27 5 28 4 29 3 30 2 31 1 32
REMARK H PARENT
REMARK Flexibility Score: inf
ROOT
ATOM      1  C   UNL     1      12.627  -5.913   5.716  1.00  0.00     0.000 C 
ENDROOT
BRANCH   1   2
ATOM      2  C   UNL     1      13.501  -5.266   4.628  1.00  0.00     0.000 C 
BRANCH   2   3
ATOM      3  C   UNL     1      14.611  -6.204   4.127  1.00  0.00     0.000 C 
BRANCH   3   4
ATOM      4  C   UNL     1      14.115  -7.209   3.073  1.00  0.00     0.000 C 
BRANCH   4   5
ATOM      5  C   UNL     1      15.034  -8.435   2.898  1.00  0.00     0.000 C 
BRANCH   5   6
ATOM      6  C   UNL     1      14.601  -9.618   3.783  1.00  0.00     0.000 C 
BRANCH   6   7
ATOM      7  C   UNL     1      15.729 -10.125   4.700  1.00  0.00     0.000 C 
BRANCH   7   8
ATOM      8  C   UNL     1      16.747  -9.053   5.145  1.00  0.00     0.000 C 
BRANCH   8   9
ATOM      9  C   UNL     1      18.200  -9.300   4.699  1.00  0.00     0.000 C 
BRANCH   9  10
ATOM     10  C   UNL     1      18.771  -8.144   3.862  1.00  0.00     0.000 C 
BRANCH  10  11
ATOM     11  C   UNL     1      17.744  -7.562   2.878  1.00  0.00     0.000 C 
BRANCH  11  12
ATOM     12  C   UNL     1      17.606  -6.035   2.989  1.00  0.00     0.000 C 
BRANCH  12  13
ATOM     13  C   UNL     1      18.260  -5.471   4.260  1.00  0.00     0.006 C 
BRANCH  13  14
ATOM     14  C   UNL     1      17.456  -4.315   4.876  1.00  0.00     0.053 C 
BRANCH  14  15
ATOM     15  C   UNL     1      17.375  -4.445   6.366  1.00  0.00     0.041 C 
ATOM     16  O   UNL     1      17.790  -3.512   7.105  1.00  0.00    -0.550 OA
ATOM     17  O   UNL     1      16.788  -5.565   6.941  1.00  0.00    -0.550 OA
ENDBRANCH  14  15
ENDBRANCH  13  14
ENDBRANCH  12  13
ENDBRANCH  11  12
ENDBRANCH  10  11
ENDBRANCH   9  10
ENDBRANCH   8   9
ENDBRANCH   7   8
ENDBRANCH   6   7
ENDBRANCH   5   6
ENDBRANCH   4   5
ENDBRANCH   3   4
ENDBRANCH   2   3
ENDBRANCH   1   2
BRANCH   1  18
ATOM     18  C   UNL     1      11.469  -6.739   5.127  1.00  0.00     0.000 C 
BRANCH  18  19
ATOM     19  C   UNL     1      10.989  -6.206   3.769  1.00  0.00     0.000 C 
BRANCH  19  20
ATOM     20  C   UNL     1       9.468  -6.350   3.580  1.00  0.00     0.000 C 
BRANCH  20  21
ATOM     21  C   UNL     1       8.685  -5.211   4.255  1.00  0.00     0.000 C 
BRANCH  21  22
ATOM     22  C   UNL     1       7.843  -4.407   3.248  1.00  0.00     0.000 C 
BRANCH  22  23
ATOM     23  C   UNL     1       6.404  -4.935   3.111  1.00  0.00     0.000 C 
BRANCH  23  24
ATOM     24  C   UNL     1       5.303  -3.862   3.225  1.00  0.00    -0.000 C 
BRANCH  24  25
ATOM     25  C   UNL     1       4.031  -4.311   3.971  1.00  0.00    -0.000 C 
BRANCH  25  26
ATOM     26  C   UNL     1       2.815  -4.608   3.071  1.00  0.00    -0.000 C 
BRANCH  26  27
ATOM     27  C   UNL     1       2.481  -6.100   2.889  1.00  0.00    -0.000 C 
BRANCH  27  28
ATOM     28  C   UNL     1       2.592  -6.903   4.196  1.00  0.00    -0.000 C 
BRANCH  28  29
ATOM     29  C   UNL     1       3.833  -7.813   4.236  1.00  0.00    -0.000 C 
BRANCH  29  30
ATOM     30  C   UNL     1       3.893  -8.784   5.431  1.00  0.00    -0.000 C 
BRANCH  30  31
ATOM     31  C   UNL     1       4.978  -8.412   6.450  1.00  0.00    -0.003 C 
ATOM     32  C   UNL     1       5.792  -7.211   5.972  1.00  0.00     0.004 C 
ENDBRANCH  30  31
ENDBRANCH  29  30
ENDBRANCH  28  29
ENDBRANCH  27  28
ENDBRANCH  26  27
ENDBRANCH  25  26
ENDBRANCH  24  25
ENDBRANCH  23  24
ENDBRANCH  22  23
ENDBRANCH  21  22
ENDBRANCH  20  21
ENDBRANCH  19  20
ENDBRANCH  18  19
ENDBRANCH   1  18
TORSDOF 28
ENDMDL
MODEL 4
REMARK VINA RESULT:     0.049      3.103     11.229
REMARK INTER + INTRA:          -2.492
REMARK INTER:                  -0.328
REMARK INTRA:                  -2.164
REMARK UNBOUND:                -2.621
REMARK SMILES CCCCCCCCCCCCCCCCCCCCCCCCCCCCCC(=O)[O-]
REMARK SMILES IDX 16 1 17 2 18 3 19 4 20 5 21 6 22 7 23 8 24 9 25 10 26 11
REMARK SMILES IDX 27 12 28 13 29 14 30 15 31 16 32 17 15 18 14 19 13 20 12 21
REMARK SMILES IDX 11 22 10 23 9 24 8 25 7 26 6 27 5 28 4 29 3 30 2 31 1 32
REMARK H PARENT
REMARK Flexibility Score: inf
ROOT
ATOM      1  C   UNL     1      13.813  -5.770   5.393  1.00  0.00     0.000 C 
ENDROOT
BRANCH   1   2
ATOM      2  C   UNL     1      14.375  -5.253   6.729  1.00  0.00     0.000 C 
BRANCH   2   3
ATOM      3  C   UNL     1      15.911  -5.297   6.780  1.00  0.00     0.000 C 
BRANCH   3   4
ATOM      4  C   UNL     1      16.563  -3.995   6.287  1.00  0.00     0.000 C 
BRANCH   4   5
ATOM      5  C   UNL     1      18.041  -4.155   5.872  1.00  0.00     0.000 C 
BRANCH   5   6
ATOM      6  C   UNL     1      18.300  -3.655   4.440  1.00  0.00     0.000 C 
BRANCH   6   7
ATOM      7  C   UNL     1      17.810  -4.641   3.363  1.00  0.00     0.000 C 
BRANCH   7   8
ATOM      8  C   UNL     1      18.863  -5.659   2.875  1.00  0.00     0.000 C 
BRANCH   8   9
ATOM      9  C   UNL     1      18.554  -7.132   3.201  1.00  0.00     0.000 C 
BRANCH   9  10
ATOM     10  C   UNL     1      17.476  -7.289   4.285  1.00  0.00     0.000 C 
BRANCH  10  11
ATOM     11  C   UNL     1      17.644  -8.578   5.105  1.00  0.00     0.000 C 
BRANCH  11  12
ATOM     12  C   UNL     1      16.510  -9.590   4.870  1.00  0.00     0.000 C 
BRANCH  12  13
ATOM     13  C   UNL     1      16.435 -10.067   3.410  1.00  0.00     0.006 C 
BRANCH  13  14
ATOM     14  C   UNL     1      14.994 -10.125   2.880  1.00  0.00     0.053 C 
BRANCH  14  15
ATOM     15  C   UNL     1      14.230  -8.892   3.253  1.00  0.00     0.041 C 
ATOM     16  O   UNL     1      14.664  -7.756   2.922  1.00  0.00    -0.550 OA
ATOM     17  O   UNL     1      13.010  -8.995   3.911  1.00  0.00    -0.550 OA
ENDBRANCH  14  15
ENDBRANCH  13  14
ENDBRANCH  12  13
ENDBRANCH  11  12
ENDBRANCH  10  11
ENDBRANCH   9  10
ENDBRANCH   8   9
ENDBRANCH   7   8
ENDBRANCH   6   7
ENDBRANCH   5   6
ENDBRANCH   4   5
ENDBRANCH   3   4
ENDBRANCH   2   3
ENDBRANCH   1   2
BRANCH   1  18
ATOM     18  C   UNL     1      14.358  -4.989   4.184  1.00  0.00     0.000 C 
BRANCH  18  19
ATOM     19  C   UNL     1      13.251  -4.536   3.221  1.00  0.00     0.000 C 
BRANCH  19  20
ATOM     20  C   UNL     1      12.224  -5.647   2.934  1.00  0.00     0.000 C 
BRANCH  20  21
ATOM     21  C   UNL     1      10.777  -5.126   2.960  1.00  0.00     0.000 C 
BRANCH  21  22
ATOM     22  C   UNL     1       9.745  -6.266   2.882  1.00  0.00     0.000 C 
BRANCH  22  23
ATOM     23  C   UNL     1       8.484  -5.992   3.719  1.00  0.00     0.000 C 
BRANCH  23  24
ATOM     24  C   UNL     1       7.177  -5.877   2.909  1.00  0.00    -0.000 C 
BRANCH  24  25
ATOM     25  C   UNL     1       6.015  -5.179   3.642  1.00  0.00    -0.000 C 
BRANCH  25  26
ATOM     26  C   UNL     1       4.643  -5.287   2.947  1.00  0.00    -0.000 C 
BRANCH  26  27
ATOM     27  C   UNL     1       3.426  -5.003   3.845  1.00  0.00    -0.000 C 
BRANCH  27  28
ATOM     28  C   UNL     1       2.706  -6.284   4.301  1.00  0.00    -0.000 C 
BRANCH  28  29
ATOM     29  C   UNL     1       3.361  -7.566   3.753  1.00  0.00    -0.000 C 
BRANCH  29  30
ATOM     30  C   UNL     1       3.496  -8.715   4.770  1.00  0.00    -0.000 C 
BRANCH  30  31
ATOM     31  C   UNL     1       4.703  -9.621   4.492  1.00  0.00    -0.003 C 
ATOM     32  C   UNL     1       5.939  -9.137   5.245  1.00  0.00     0.004 C 
ENDBRANCH  30  31
ENDBRANCH  29  30
ENDBRANCH  28  29
ENDBRANCH  27  28
ENDBRANCH  26  27
ENDBRANCH  25  26
ENDBRANCH  24  25
ENDBRANCH  23  24
ENDBRANCH  22  23
ENDBRANCH  21  22
ENDBRANCH  20  21
ENDBRANCH  19  20
ENDBRANCH  18  19
ENDBRANCH   1  18
TORSDOF 28
ENDMDL
MODEL 5
REMARK VINA RESULT:     0.056      1.441      2.167
REMARK INTER + INTRA:          -2.474
REMARK INTER:                  -0.346
REMARK INTRA:                  -2.128
REMARK UNBOUND:                -2.621
REMARK SMILES CCCCCCCCCCCCCCCCCCCCCCCCCCCCCC(=O)[O-]
REMARK SMILES IDX 16 1 17 2 18 3 19 4 20 5 21 6 22 7 23 8 24 9 25 10 26 11
REMARK SMILES IDX 27 12 28 13 29 14 30 15 31 16 32 17 15 18 14 19 13 20 12 21
REMARK SMILES IDX 11 22 10 23 9 24 8 25 7 26 6 27 5 28 4 29 3 30 2 31 1 32
REMARK H PARENT
REMARK Flexibility Score: inf
ROOT
ATOM      1  C   UNL     1      10.036  -6.382   5.492  1.00  0.00     0.000 C 
ENDROOT
BRANCH   1   2
ATOM      2  C   UNL     1       9.176  -7.282   4.589  1.00  0.00     0.000 C 
BRANCH   2   3
ATOM      3  C   UNL     1       8.275  -6.478   3.638  1.00  0.00     0.000 C 
BRANCH   3   4
ATOM      4  C   UNL     1       6.843  -6.309   4.171  1.00  0.00     0.000 C 
BRANCH   4   5
ATOM      5  C   UNL     1       6.702  -6.590   5.682  1.00  0.00     0.000 C 
BRANCH   5   6
ATOM      6  C   UNL     1       5.282  -7.051   6.058  1.00  0.00     0.000 C 
BRANCH   6   7
ATOM      7  C   UNL     1       5.243  -7.862   7.366  1.00  0.00     0.000 C 
BRANCH   7   8
ATOM      8  C   UNL     1       4.754  -9.319   7.224  1.00  0.00     0.000 C 
BRANCH   8   9
ATOM      9  C   UNL     1       3.255  -9.482   6.909  1.00  0.00     0.000 C 
BRANCH   9  10
ATOM     10  C   UNL     1       2.996  -9.934   5.463  1.00  0.00     0.000 C 
BRANCH  10  11
ATOM     11  C   UNL     1       4.279  -9.981   4.618  1.00  0.00     0.000 C 
BRANCH  11  12
ATOM     12  C   UNL     1       4.093  -9.386   3.213  1.00  0.00     0.000 C 
BRANCH  12  13
ATOM     13  C   UNL     1       4.361  -7.873   3.170  1.00  0.00     0.006 C 
BRANCH  13  14
ATOM     14  C   UNL     1       3.094  -7.055   2.875  1.00  0.00     0.053 C 
BRANCH  14  15
ATOM     15  C   UNL     1       2.570  -6.402   4.117  1.00  0.00     0.041 C 
ATOM     16  O   UNL     1       1.887  -7.068   4.940  1.00  0.00    -0.550 OA
ATOM     17  O   UNL     1       2.886  -5.079   4.400  1.00  0.00    -0.550 OA
ENDBRANCH  14  15
ENDBRANCH  13  14
ENDBRANCH  12  13
ENDBRANCH  11  12
ENDBRANCH  10  11
ENDBRANCH   9  10
ENDBRANCH   8   9
ENDBRANCH   7   8
ENDBRANCH   6   7
ENDBRANCH   5   6
ENDBRANCH   4   5
ENDBRANCH   3   4
ENDBRANCH   2   3
ENDBRANCH   1   2
BRANCH   1  18
ATOM     18  C   UNL     1      11.062  -5.557   4.694  1.00  0.00     0.000 C 
BRANCH  18  19
ATOM     19  C   UNL     1      11.626  -6.319   3.486  1.00  0.00     0.000 C 
BRANCH  19  20
ATOM     20  C   UNL     1      13.002  -5.789   3.041  1.00  0.00     0.000 C 
BRANCH  20  21
ATOM     21  C   UNL     1      14.042  -6.913   2.897  1.00  0.00     0.000 C 
BRANCH  21  22
ATOM     22  C   UNL     1      13.401  -8.312   2.962  1.00  0.00     0.000 C 
BRANCH  22  23
ATOM     23  C   UNL     1      14.057  -9.224   4.013  1.00  0.00     0.000 C 
BRANCH  23  24
ATOM     24  C   UNL     1      15.289 -10.008   3.517  1.00  0.00    -0.000 C 
BRANCH  24  25
ATOM     25  C   UNL     1      16.618  -9.633   4.201  1.00  0.00    -0.000 C 
BRANCH  25  26
ATOM     26  C   UNL     1      17.567  -8.762   3.353  1.00  0.00    -0.000 C 
BRANCH  26  27
ATOM     27  C   UNL     1      17.705  -7.300   3.813  1.00  0.00    -0.000 C 
BRANCH  27  28
ATOM     28  C   UNL     1      16.979  -7.019   5.140  1.00  0.00    -0.000 C 
BRANCH  28  29
ATOM     29  C   UNL     1      16.380  -5.601   5.206  1.00  0.00    -0.000 C 
BRANCH  29  30
ATOM     30  C   UNL     1      16.740  -4.685   4.022  1.00  0.00    -0.000 C 
BRANCH  30  31
ATOM     31  C   UNL     1      17.991  -3.834   4.282  1.00  0.00    -0.003 C 
ATOM     32  C   UNL     1      18.351  -2.998   3.057  1.00  0.00     0.004 C 
ENDBRANCH  30  31
ENDBRANCH  29  30
ENDBRANCH  28  29
ENDBRANCH  27  28
ENDBRANCH  26  27
ENDBRANCH  25  26
ENDBRANCH  24  25
ENDBRANCH  23  24
ENDBRANCH  22  23
ENDBRANCH  21  22
ENDBRANCH  20  21
ENDBRANCH  19  20
ENDBRANCH  18  19
ENDBRANCH   1  18
TORSDOF 28
ENDMDL
MODEL 6
REMARK VINA RESULT:     0.162      1.920      4.086
REMARK INTER + INTRA:          -2.193
REMARK INTER:                  -2.064
REMARK INTRA:                  -0.129
REMARK UNBOUND:                -2.621
REMARK SMILES CCCCCCCCCCCCCCCCCCCCCCCCCCCCCC(=O)[O-]
REMARK SMILES IDX 16 1 17 2 18 3 19 4 20 5 21 6 22 7 23 8 24 9 25 10 26 11
REMARK SMILES IDX 27 12 28 13 29 14 30 15 31 16 32 17 15 18 14 19 13 20 12 21
REMARK SMILES IDX 11 22 10 23 9 24 8 25 7 26 6 27 5 28 4 29 3 30 2 31 1 32
REMARK H PARENT
REMARK Flexibility Score: inf
ROOT
ATOM      1  C   UNL     1      12.861  -5.881   6.466  1.00  0.00     0.000 C 
ENDROOT
BRANCH   1   2
ATOM      2  C   UNL     1      11.749  -6.517   5.614  1.00  0.00     0.000 C 
BRANCH   2   3
ATOM      3  C   UNL     1      11.328  -5.628   4.432  1.00  0.00     0.000 C 
BRANCH   3   4
ATOM      4  C   UNL     1      10.668  -6.422   3.293  1.00  0.00     0.000 C 
BRANCH   4   5
ATOM      5  C   UNL     1       9.282  -5.886   2.879  1.00  0.00     0.000 C 
BRANCH   5   6
ATOM      6  C   UNL     1       8.140  -6.814   3.330  1.00  0.00     0.000 C 
BRANCH   6   7
ATOM      7  C   UNL     1       7.186  -6.144   4.337  1.00  0.00     0.000 C 
BRANCH   7   8
ATOM      8  C   UNL     1       5.780  -5.815   3.791  1.00  0.00     0.000 C 
BRANCH   8   9
ATOM      9  C   UNL     1       5.059  -6.979   3.085  1.00  0.00     0.000 C 
BRANCH   9  10
ATOM     10  C   UNL     1       3.531  -6.812   3.071  1.00  0.00     0.000 C 
BRANCH  10  11
ATOM     11  C   UNL     1       2.872  -7.284   4.376  1.00  0.00     0.000 C 
BRANCH  11  12
ATOM     12  C   UNL     1       2.145  -8.631   4.227  1.00  0.00     0.000 C 
BRANCH  12  13
ATOM     13  C   UNL     1       2.909  -9.793   4.881  1.00  0.00     0.006 C 
BRANCH  13  14
ATOM     14  C   UNL     1       4.380  -9.449   5.164  1.00  0.00     0.053 C 
BRANCH  14  15
ATOM     15  C   UNL     1       4.529  -8.756   6.483  1.00  0.00     0.041 C 
ATOM     16  O   UNL     1       4.191  -9.342   7.546  1.00  0.00    -0.550 OA
ATOM     17  O   UNL     1       5.098  -7.489   6.550  1.00  0.00    -0.550 OA
ENDBRANCH  14  15
ENDBRANCH  13  14
ENDBRANCH  12  13
ENDBRANCH  11  12
ENDBRANCH  10  11
ENDBRANCH   9  10
ENDBRANCH   8   9
ENDBRANCH   7   8
ENDBRANCH   6   7
ENDBRANCH   5   6
ENDBRANCH   4   5
ENDBRANCH   3   4
ENDBRANCH   2   3
ENDBRANCH   1   2
BRANCH   1  18
ATOM     18  C   UNL     1      13.961  -5.230   5.607  1.00  0.00     0.000 C 
BRANCH  18  19
ATOM     19  C   UNL     1      15.360  -5.785   5.911  1.00  0.00     0.000 C 
BRANCH  19  20
ATOM     20  C   UNL     1      16.480  -4.963   5.248  1.00  0.00     0.000 C 
BRANCH  20  21
ATOM     21  C   UNL     1      16.333  -4.902   3.718  1.00  0.00     0.000 C 
BRANCH  21  22
ATOM     22  C   UNL     1      17.682  -4.670   3.012  1.00  0.00     0.000 C 
BRANCH  22  23
ATOM     23  C   UNL     1      18.812  -5.549   3.574  1.00  0.00     0.000 C 
BRANCH  23  24
ATOM     24  C   UNL     1      18.463  -7.044   3.722  1.00  0.00    -0.000 C 
BRANCH  24  25
ATOM     25  C   UNL     1      17.866  -7.442   5.086  1.00  0.00    -0.000 C 
BRANCH  25  26
ATOM     26  C   UNL     1      17.427  -8.915   5.204  1.00  0.00    -0.000 C 
BRANCH  26  27
ATOM     27  C   UNL     1      17.825  -9.816   4.022  1.00  0.00    -0.000 C 
BRANCH  27  28
ATOM     28  C   UNL     1      16.649 -10.125   3.081  1.00  0.00    -0.000 C 
BRANCH  28  29
ATOM     29  C   UNL     1      15.711  -8.920   2.880  1.00  0.00    -0.000 C 
BRANCH  29  30
ATOM     30  C   UNL     1      14.656  -8.723   3.985  1.00  0.00    -0.000 C 
BRANCH  30  31
ATOM     31  C   UNL     1      13.682  -9.904   4.098  1.00  0.00    -0.003 C 
ATOM     32  C   UNL     1      12.509  -9.742   3.134  1.00  0.00     0.004 C 
ENDBRANCH  30  31
ENDBRANCH  29  30
ENDBRANCH  28  29
ENDBRANCH  27  28
ENDBRANCH  26  27
ENDBRANCH  25  26
ENDBRANCH  24  25
ENDBRANCH  23  24
ENDBRANCH  22  23
ENDBRANCH  21  22
ENDBRANCH  20  21
ENDBRANCH  19  20
ENDBRANCH  18  19
ENDBRANCH   1  18
TORSDOF 28
ENDMDL
