MODEL 1
REMARK VINA RESULT:    -8.152      0.000      0.000
REMARK INTER + INTRA:         -11.631
REMARK INTER:                 -10.773
REMARK INTRA:                  -0.858
REMARK UNBOUND:                -0.858
REMARK SMILES CC[C@@H](C=C[C@H](C)[C@@H]1CC[C@H]2[C@H]3CC=C4C[C@@H](O)CC[C@]4(C)[C@H]3CC[C@]21C)C(C)C
REMARK SMILES IDX 6 1 7 2 5 3 4 4 3 5 2 6 1 7 28 8 29 9 30 10 8 11 9 12 26 13
REMARK SMILES IDX 10 14 11 15 25 16 27 17 12 18 24 19 23 20 13 21 21 22 14 23
REMARK SMILES IDX 15 24 20 25 22 26 16 27 19 28 17 29 18 30
REMARK H PARENT 18 31
REMARK Flexibility Score: inf
ROOT
ATOM      1  C   UNL     1      -5.535  26.724  48.808  1.00  0.00     0.012 C 
ATOM      2  C   UNL     1      -5.055  27.942  49.624  1.00  0.00     0.012 C 
ENDROOT
BRANCH   1   3
ATOM      3  C   UNL     1      -6.271  27.285  47.605  1.00  0.00    -0.028 C 
ATOM      4  C   UNL     1      -7.302  28.136  47.740  1.00  0.00    -0.027 C 
BRANCH   4   5
ATOM      5  C   UNL     1      -8.107  28.665  46.567  1.00  0.00     0.014 C 
BRANCH   5   6
ATOM      6  C   UNL     1      -7.882  30.193  46.411  1.00  0.00     0.004 C 
ATOM      7  C   UNL     1      -7.031  30.805  47.523  1.00  0.00     0.004 C 
ENDBRANCH   5   6
BRANCH   5   8
ATOM      8  C   UNL     1      -9.598  28.177  46.630  1.00  0.00    -0.011 C 
ATOM      9  C   UNL     1     -10.014  27.514  47.957  1.00  0.00     0.008 C 
ATOM     10  C   UNL     1     -10.578  29.308  46.283  1.00  0.00     0.008 C 
ENDBRANCH   5   8
ENDBRANCH   4   5
ENDBRANCH   1   3
BRANCH   1  11
ATOM     11  C   UNL     1      -4.348  25.774  48.373  1.00  0.00     0.002 C 
ATOM     12  C   UNL     1      -4.302  25.576  46.844  1.00  0.00     0.005 C 
ATOM     13  C   UNL     1      -4.382  24.282  48.905  1.00  0.00    -0.026 C 
ATOM     14  C   UNL     1      -5.247  24.430  46.575  1.00  0.00     0.005 C 
ATOM     15  C   UNL     1      -5.022  23.452  47.733  1.00  0.00    -0.001 C 
ATOM     16  C   UNL     1      -2.921  23.828  49.191  1.00  0.00     0.007 C 
ATOM     17  C   UNL     1      -5.190  24.083  50.216  1.00  0.00     0.012 C 
ATOM     18  C   UNL     1      -4.271  22.134  47.328  1.00  0.00     0.000 C 
ATOM     19  C   UNL     1      -2.717  22.302  49.336  1.00  0.00     0.005 C 
ATOM     20  C   UNL     1      -3.756  21.407  48.588  1.00  0.00     0.003 C 
ATOM     21  C   UNL     1      -3.116  22.263  46.303  1.00  0.00     0.031 C 
ATOM     22  C   UNL     1      -3.228  19.954  48.254  1.00  0.00    -0.008 C 
ATOM     23  C   UNL     1      -2.428  20.947  46.068  1.00  0.00    -0.027 C 
ATOM     24  C   UNL     1      -2.425  19.922  46.951  1.00  0.00    -0.065 C 
ATOM     25  C   UNL     1      -4.436  18.978  48.066  1.00  0.00     0.014 C 
ATOM     26  C   UNL     1      -2.355  19.428  49.432  1.00  0.00     0.016 C 
ATOM     27  C   UNL     1      -1.942  18.568  46.483  1.00  0.00     0.063 C 
ATOM     28  C   UNL     1      -4.040  17.580  47.534  1.00  0.00     0.033 C 
ATOM     29  C   UNL     1      -3.163  17.651  46.268  1.00  0.00     0.118 C 
BRANCH  29  30
ATOM     30  O   UNL     1      -2.740  16.354  45.936  1.00  0.00    -0.393 OA
ATOM     31  H   UNL     1      -3.540  15.763  45.985  1.00  0.00     0.210 HD
ENDBRANCH  29  30
ENDBRANCH   1  11
TORSDOF 6
ENDMDL
MODEL 2
REMARK VINA RESULT:    -7.867      2.956      9.066
REMARK INTER + INTRA:         -11.254
REMARK INTER:                 -10.107
REMARK INTRA:                  -1.147
REMARK UNBOUND:                -0.858
REMARK SMILES CC[C@@H](C=C[C@H](C)[C@@H]1CC[C@H]2[C@H]3CC=C4C[C@@H](O)CC[C@]4(C)[C@H]3CC[C@]21C)C(C)C
REMARK SMILES IDX 6 1 7 2 5 3 4 4 3 5 2 6 1 7 28 8 29 9 30 10 8 11 9 12 26 13
REMARK SMILES IDX 10 14 11 15 25 16 27 17 12 18 24 19 23 20 13 21 21 22 14 23
REMARK SMILES IDX 15 24 20 25 22 26 16 27 19 28 17 29 18 30
REMARK H PARENT 18 31
REMARK Flexibility Score: inf
ROOT
ATOM      1  C   UNL     1      -0.934  21.345  47.423  1.00  0.00     0.012 C 
ATOM      2  C   UNL     1       0.562  21.478  47.775  1.00  0.00     0.012 C 
ENDROOT
BRANCH   1   3
ATOM      3  C   UNL     1      -1.278  19.876  47.586  1.00  0.00    -0.028 C 
ATOM      4  C   UNL     1      -1.748  19.141  46.563  1.00  0.00    -0.027 C 
BRANCH   4   5
ATOM      5  C   UNL     1      -2.169  17.690  46.702  1.00  0.00     0.014 C 
BRANCH   5   6
ATOM      6  C   UNL     1      -3.138  17.303  45.553  1.00  0.00     0.004 C 
ATOM      7  C   UNL     1      -2.450  16.614  44.375  1.00  0.00     0.004 C 
ENDBRANCH   5   6
BRANCH   5   8
ATOM      8  C   UNL     1      -2.647  17.370  48.163  1.00  0.00    -0.011 C 
ATOM      9  C   UNL     1      -4.075  17.840  48.501  1.00  0.00     0.008 C 
ATOM     10  C   UNL     1      -2.498  15.877  48.493  1.00  0.00     0.008 C 
ENDBRANCH   5   8
ENDBRANCH   4   5
ENDBRANCH   1   3
BRANCH   1  11
ATOM     11  C   UNL     1      -1.857  22.262  48.322  1.00  0.00     0.002 C 
ATOM     12  C   UNL     1      -3.193  21.572  48.665  1.00  0.00     0.005 C 
ATOM     13  C   UNL     1      -2.338  23.637  47.700  1.00  0.00    -0.026 C 
ATOM     14  C   UNL     1      -4.101  21.891  47.502  1.00  0.00     0.005 C 
ATOM     15  C   UNL     1      -3.772  23.341  47.129  1.00  0.00    -0.001 C 
ATOM     16  C   UNL     1      -2.386  24.701  48.836  1.00  0.00     0.007 C 
ATOM     17  C   UNL     1      -1.415  24.198  46.584  1.00  0.00     0.012 C 
ATOM     18  C   UNL     1      -4.894  24.373  47.506  1.00  0.00     0.000 C 
ATOM     19  C   UNL     1      -3.196  25.979  48.513  1.00  0.00     0.005 C 
ATOM     20  C   UNL     1      -4.333  25.809  47.455  1.00  0.00     0.003 C 
ATOM     21  C   UNL     1      -5.632  24.158  48.852  1.00  0.00     0.031 C 
ATOM     22  C   UNL     1      -5.479  26.893  47.567  1.00  0.00    -0.008 C 
ATOM     23  C   UNL     1      -6.617  25.260  49.130  1.00  0.00    -0.027 C 
ATOM     24  C   UNL     1      -6.535  26.504  48.604  1.00  0.00    -0.065 C 
ATOM     25  C   UNL     1      -6.219  27.030  46.195  1.00  0.00     0.014 C 
ATOM     26  C   UNL     1      -4.862  28.277  47.928  1.00  0.00     0.016 C 
ATOM     27  C   UNL     1      -7.729  27.423  48.738  1.00  0.00     0.063 C 
ATOM     28  C   UNL     1      -7.490  27.911  46.250  1.00  0.00     0.033 C 
ATOM     29  C   UNL     1      -8.455  27.496  47.379  1.00  0.00     0.118 C 
BRANCH  29  30
ATOM     30  O   UNL     1      -9.505  28.425  47.443  1.00  0.00    -0.393 OA
ATOM     31  H   UNL     1      -9.239  29.208  46.888  1.00  0.00     0.210 HD
ENDBRANCH  29  30
ENDBRANCH   1  11
TORSDOF 6
ENDMDL
MODEL 3
REMARK VINA RESULT:    -7.530      0.780      1.752
REMARK INTER + INTRA:         -10.809
REMARK INTER:                  -9.758
REMARK INTRA:                  -1.052
REMARK UNBOUND:                -0.858
REMARK SMILES CC[C@@H](C=C[C@H](C)[C@@H]1CC[C@H]2[C@H]3CC=C4C[C@@H](O)CC[C@]4(C)[C@H]3CC[C@]21C)C(C)C
REMARK SMILES IDX 6 1 7 2 5 3 4 4 3 5 2 6 1 7 28 8 29 9 30 10 8 11 9 12 26 13
REMARK SMILES IDX 10 14 11 15 25 16 27 17 12 18 24 19 23 20 13 21 21 22 14 23
REMARK SMILES IDX 15 24 20 25 22 26 16 27 19 28 17 29 18 30
REMARK H PARENT 18 31
REMARK Flexibility Score: inf
ROOT
ATOM      1  C   UNL     1      -5.135  26.487  49.737  1.00  0.00     0.012 C 
ATOM      2  C   UNL     1      -4.609  27.255  50.967  1.00  0.00     0.012 C 
ENDROOT
BRANCH   1   3
ATOM      3  C   UNL     1      -5.641  27.538  48.767  1.00  0.00    -0.028 C 
ATOM      4  C   UNL     1      -6.946  27.845  48.673  1.00  0.00    -0.027 C 
BRANCH   4   5
ATOM      5  C   UNL     1      -7.499  28.839  47.668  1.00  0.00     0.014 C 
BRANCH   5   6
ATOM      6  C   UNL     1      -8.191  28.087  46.499  1.00  0.00     0.004 C 
ATOM      7  C   UNL     1      -9.663  28.456  46.318  1.00  0.00     0.004 C 
ENDBRANCH   5   6
BRANCH   5   8
ATOM      8  C   UNL     1      -6.424  29.913  47.274  1.00  0.00    -0.011 C 
ATOM      9  C   UNL     1      -6.172  30.062  45.762  1.00  0.00     0.008 C 
ATOM     10  C   UNL     1      -6.743  31.285  47.888  1.00  0.00     0.008 C 
ENDBRANCH   5   8
ENDBRANCH   4   5
ENDBRANCH   1   3
BRANCH   1  11
ATOM     11  C   UNL     1      -4.033  25.566  49.075  1.00  0.00     0.002 C 
ATOM     12  C   UNL     1      -4.168  25.521  47.539  1.00  0.00     0.005 C 
ATOM     13  C   UNL     1      -4.048  24.029  49.459  1.00  0.00    -0.026 C 
ATOM     14  C   UNL     1      -5.170  24.424  47.272  1.00  0.00     0.005 C 
ATOM     15  C   UNL     1      -4.841  23.331  48.295  1.00  0.00    -0.001 C 
ATOM     16  C   UNL     1      -2.577  23.524  49.526  1.00  0.00     0.007 C 
ATOM     17  C   UNL     1      -4.705  23.712  50.830  1.00  0.00     0.012 C 
ATOM     18  C   UNL     1      -4.179  22.049  47.677  1.00  0.00     0.000 C 
ATOM     19  C   UNL     1      -2.401  21.988  49.497  1.00  0.00     0.005 C 
ATOM     20  C   UNL     1      -3.544  21.190  48.792  1.00  0.00     0.003 C 
ATOM     21  C   UNL     1      -3.146  22.260  46.542  1.00  0.00     0.031 C 
ATOM     22  C   UNL     1      -3.098  19.769  48.257  1.00  0.00    -0.008 C 
ATOM     23  C   UNL     1      -2.527  20.963  46.101  1.00  0.00    -0.027 C 
ATOM     24  C   UNL     1      -2.451  19.855  46.873  1.00  0.00    -0.065 C 
ATOM     25  C   UNL     1      -4.347  18.837  48.118  1.00  0.00     0.014 C 
ATOM     26  C   UNL     1      -2.111  19.114  49.268  1.00  0.00     0.016 C 
ATOM     27  C   UNL     1      -2.063  18.547  46.221  1.00  0.00     0.063 C 
ATOM     28  C   UNL     1      -4.054  17.493  47.409  1.00  0.00     0.033 C 
ATOM     29  C   UNL     1      -3.326  17.676  46.062  1.00  0.00     0.118 C 
BRANCH  29  30
ATOM     30  O   UNL     1      -2.981  16.413  45.558  1.00  0.00    -0.393 OA
ATOM     31  H   UNL     1      -2.475  15.940  46.273  1.00  0.00     0.210 HD
ENDBRANCH  29  30
ENDBRANCH   1  11
TORSDOF 6
ENDMDL
MODEL 4
REMARK VINA RESULT:    -7.479      3.923      9.851
REMARK INTER + INTRA:         -10.741
REMARK INTER:                  -9.786
REMARK INTRA:                  -0.956
REMARK UNBOUND:                -0.858
REMARK SMILES CC[C@@H](C=C[C@H](C)[C@@H]1CC[C@H]2[C@H]3CC=C4C[C@@H](O)CC[C@]4(C)[C@H]3CC[C@]21C)C(C)C
REMARK SMILES IDX 6 1 7 2 5 3 4 4 3 5 2 6 1 7 28 8 29 9 30 10 8 11 9 12 26 13
REMARK SMILES IDX 10 14 11 15 25 16 27 17 12 18 24 19 23 20 13 21 21 22 14 23
REMARK SMILES IDX 15 24 20 25 22 26 16 27 19 28 17 29 18 30
REMARK H PARENT 18 31
REMARK Flexibility Score: inf
ROOT
ATOM      1  C   UNL     1      -0.930  19.147  47.377  1.00  0.00     0.012 C 
ATOM      2  C   UNL     1      -1.473  17.724  47.134  1.00  0.00     0.012 C 
ENDROOT
BRANCH   1   3
ATOM      3  C   UNL     1       0.424  19.206  46.695  1.00  0.00    -0.028 C 
ATOM      4  C   UNL     1       1.562  19.363  47.394  1.00  0.00    -0.027 C 
BRANCH   4   5
ATOM      5  C   UNL     1       2.927  19.495  46.745  1.00  0.00     0.014 C 
BRANCH   5   6
ATOM      6  C   UNL     1       3.062  18.484  45.574  1.00  0.00     0.004 C 
ATOM      7  C   UNL     1       3.507  19.124  44.259  1.00  0.00     0.004 C 
ENDBRANCH   5   6
BRANCH   5   8
ATOM      8  C   UNL     1       4.074  19.485  47.817  1.00  0.00    -0.011 C 
ATOM      9  C   UNL     1       5.247  18.534  47.512  1.00  0.00     0.008 C 
ATOM     10  C   UNL     1       4.607  20.900  48.089  1.00  0.00     0.008 C 
ENDBRANCH   5   8
ENDBRANCH   4   5
ENDBRANCH   1   3
BRANCH   1  11
ATOM     11  C   UNL     1      -1.903  20.272  46.838  1.00  0.00     0.002 C 
ATOM     12  C   UNL     1      -1.129  21.434  46.181  1.00  0.00     0.005 C 
ATOM     13  C   UNL     1      -2.801  21.025  47.903  1.00  0.00    -0.026 C 
ATOM     14  C   UNL     1      -0.780  22.358  47.323  1.00  0.00     0.005 C 
ATOM     15  C   UNL     1      -2.013  22.345  48.234  1.00  0.00    -0.001 C 
ATOM     16  C   UNL     1      -4.181  21.335  47.252  1.00  0.00     0.007 C 
ATOM     17  C   UNL     1      -3.076  20.218  49.201  1.00  0.00     0.012 C 
ATOM     18  C   UNL     1      -2.848  23.674  48.208  1.00  0.00     0.000 C 
ATOM     19  C   UNL     1      -5.036  22.395  47.985  1.00  0.00     0.005 C 
ATOM     20  C   UNL     1      -4.240  23.439  48.831  1.00  0.00     0.003 C 
ATOM     21  C   UNL     1      -3.011  24.383  46.840  1.00  0.00     0.031 C 
ATOM     22  C   UNL     1      -5.014  24.797  49.068  1.00  0.00    -0.008 C 
ATOM     23  C   UNL     1      -3.900  25.592  46.940  1.00  0.00    -0.027 C 
ATOM     24  C   UNL     1      -4.836  25.770  47.900  1.00  0.00    -0.065 C 
ATOM     25  C   UNL     1      -4.458  25.513  50.344  1.00  0.00     0.014 C 
ATOM     26  C   UNL     1      -6.528  24.507  49.294  1.00  0.00     0.016 C 
ATOM     27  C   UNL     1      -5.461  27.139  48.053  1.00  0.00     0.063 C 
ATOM     28  C   UNL     1      -5.003  26.946  50.551  1.00  0.00     0.033 C 
ATOM     29  C   UNL     1      -4.855  27.827  49.294  1.00  0.00     0.118 C 
BRANCH  29  30
ATOM     30  O   UNL     1      -5.493  29.056  49.523  1.00  0.00    -0.393 OA
ATOM     31  H   UNL     1      -4.868  29.770  49.224  1.00  0.00     0.210 HD
ENDBRANCH  29  30
ENDBRANCH   1  11
TORSDOF 6
ENDMDL
MODEL 5
REMARK VINA RESULT:    -7.423      2.343      4.763
REMARK INTER + INTRA:         -10.667
REMARK INTER:                  -9.628
REMARK INTRA:                  -1.040
REMARK UNBOUND:                -0.858
REMARK SMILES CC[C@@H](C=C[C@H](C)[C@@H]1CC[C@H]2[C@H]3CC=C4C[C@@H](O)CC[C@]4(C)[C@H]3CC[C@]21C)C(C)C
REMARK SMILES IDX 6 1 7 2 5 3 4 4 3 5 2 6 1 7 28 8 29 9 30 10 8 11 9 12 26 13
REMARK SMILES IDX 10 14 11 15 25 16 27 17 12 18 24 19 23 20 13 21 21 22 14 23
REMARK SMILES IDX 15 24 20 25 22 26 16 27 19 28 17 29 18 30
REMARK H PARENT 18 31
REMARK Flexibility Score: inf
ROOT
ATOM      1  C   UNL     1      -4.016  28.489  48.430  1.00  0.00     0.012 C 
ATOM      2  C   UNL     1      -4.911  29.696  48.080  1.00  0.00     0.012 C 
ENDROOT
BRANCH   1   3
ATOM      3  C   UNL     1      -4.064  28.349  49.940  1.00  0.00    -0.028 C 
ATOM      4  C   UNL     1      -2.964  28.490  50.699  1.00  0.00    -0.027 C 
BRANCH   4   5
ATOM      5  C   UNL     1      -2.957  28.290  52.203  1.00  0.00     0.014 C 
BRANCH   5   6
ATOM      6  C   UNL     1      -1.643  28.853  52.810  1.00  0.00     0.004 C 
ATOM      7  C   UNL     1      -1.454  30.352  52.580  1.00  0.00     0.004 C 
ENDBRANCH   5   6
BRANCH   5   8
ATOM      8  C   UNL     1      -3.333  26.814  52.586  1.00  0.00    -0.011 C 
ATOM      9  C   UNL     1      -2.349  25.739  52.089  1.00  0.00     0.008 C 
ATOM     10  C   UNL     1      -3.551  26.661  54.099  1.00  0.00     0.008 C 
ENDBRANCH   5   8
ENDBRANCH   4   5
ENDBRANCH   1   3
BRANCH   1  11
ATOM     11  C   UNL     1      -4.476  27.159  47.708  1.00  0.00     0.002 C 
ATOM     12  C   UNL     1      -5.753  26.572  48.343  1.00  0.00     0.005 C 
ATOM     13  C   UNL     1      -3.481  25.928  47.755  1.00  0.00    -0.026 C 
ATOM     14  C   UNL     1      -5.258  25.718  49.485  1.00  0.00     0.005 C 
ATOM     15  C   UNL     1      -3.987  25.046  48.954  1.00  0.00    -0.001 C 
ATOM     16  C   UNL     1      -3.581  25.161  46.403  1.00  0.00     0.007 C 
ATOM     17  C   UNL     1      -1.989  26.311  47.955  1.00  0.00     0.012 C 
ATOM     18  C   UNL     1      -4.141  23.510  48.667  1.00  0.00     0.000 C 
ATOM     19  C   UNL     1      -2.992  23.731  46.408  1.00  0.00     0.005 C 
ATOM     20  C   UNL     1      -2.969  23.013  47.795  1.00  0.00     0.003 C 
ATOM     21  C   UNL     1      -5.480  23.035  48.048  1.00  0.00     0.031 C 
ATOM     22  C   UNL     1      -2.937  21.434  47.699  1.00  0.00    -0.008 C 
ATOM     23  C   UNL     1      -5.463  21.562  47.746  1.00  0.00    -0.027 C 
ATOM     24  C   UNL     1      -4.338  20.841  47.537  1.00  0.00    -0.065 C 
ATOM     25  C   UNL     1      -2.338  20.833  49.014  1.00  0.00     0.014 C 
ATOM     26  C   UNL     1      -2.032  20.999  46.508  1.00  0.00     0.016 C 
ATOM     27  C   UNL     1      -4.441  19.332  47.522  1.00  0.00     0.063 C 
ATOM     28  C   UNL     1      -2.450  19.293  49.111  1.00  0.00     0.033 C 
ATOM     29  C   UNL     1      -3.882  18.782  48.851  1.00  0.00     0.118 C 
BRANCH  29  30
ATOM     30  O   UNL     1      -3.865  17.380  48.823  1.00  0.00    -0.393 OA
ATOM     31  H   UNL     1      -3.252  17.079  49.547  1.00  0.00     0.210 HD
ENDBRANCH  29  30
ENDBRANCH   1  11
TORSDOF 6
ENDMDL
MODEL 6
REMARK VINA RESULT:    -7.410      3.802      9.596
REMARK INTER + INTRA:         -10.650
REMARK INTER:                  -9.527
REMARK INTRA:                  -1.124
REMARK UNBOUND:                -0.858
REMARK SMILES CC[C@@H](C=C[C@H](C)[C@@H]1CC[C@H]2[C@H]3CC=C4C[C@@H](O)CC[C@]4(C)[C@H]3CC[C@]21C)C(C)C
REMARK SMILES IDX 6 1 7 2 5 3 4 4 3 5 2 6 1 7 28 8 29 9 30 10 8 11 9 12 26 13
REMARK SMILES IDX 10 14 11 15 25 16 27 17 12 18 24 19 23 20 13 21 21 22 14 23
REMARK SMILES IDX 15 24 20 25 22 26 16 27 19 28 17 29 18 30
REMARK H PARENT 18 31
REMARK Flexibility Score: inf
ROOT
ATOM      1  C   UNL     1      -1.124  19.041  47.344  1.00  0.00     0.012 C 
ATOM      2  C   UNL     1      -1.580  17.635  46.902  1.00  0.00     0.012 C 
ENDROOT
BRANCH   1   3
ATOM      3  C   UNL     1       0.296  19.205  46.834  1.00  0.00    -0.028 C 
ATOM      4  C   UNL     1       1.337  19.345  47.673  1.00  0.00    -0.027 C 
BRANCH   4   5
ATOM      5  C   UNL     1       2.761  19.580  47.204  1.00  0.00     0.014 C 
BRANCH   5   6
ATOM      6  C   UNL     1       3.194  21.037  47.522  1.00  0.00     0.004 C 
ATOM      7  C   UNL     1       4.609  21.148  48.088  1.00  0.00     0.004 C 
ENDBRANCH   5   6
BRANCH   5   8
ATOM      8  C   UNL     1       2.964  19.094  45.725  1.00  0.00    -0.011 C 
ATOM      9  C   UNL     1       3.185  20.215  44.692  1.00  0.00     0.008 C 
ATOM     10  C   UNL     1       4.093  18.058  45.620  1.00  0.00     0.008 C 
ENDBRANCH   5   8
ENDBRANCH   4   5
ENDBRANCH   1   3
BRANCH   1  11
ATOM     11  C   UNL     1      -2.071  20.187  46.805  1.00  0.00     0.002 C 
ATOM     12  C   UNL     1      -1.274  21.324  46.133  1.00  0.00     0.005 C 
ATOM     13  C   UNL     1      -2.940  20.971  47.873  1.00  0.00    -0.026 C 
ATOM     14  C   UNL     1      -0.891  22.246  47.266  1.00  0.00     0.005 C 
ATOM     15  C   UNL     1      -2.115  22.272  48.187  1.00  0.00    -0.001 C 
ATOM     16  C   UNL     1      -4.318  21.313  47.232  1.00  0.00     0.007 C 
ATOM     17  C   UNL     1      -3.225  20.180  49.178  1.00  0.00     0.012 C 
ATOM     18  C   UNL     1      -2.915  23.622  48.159  1.00  0.00     0.000 C 
ATOM     19  C   UNL     1      -5.138  22.400  47.964  1.00  0.00     0.005 C 
ATOM     20  C   UNL     1      -4.307  23.428  48.797  1.00  0.00     0.003 C 
ATOM     21  C   UNL     1      -3.072  24.326  46.788  1.00  0.00     0.031 C 
ATOM     22  C   UNL     1      -5.044  24.808  49.031  1.00  0.00    -0.008 C 
ATOM     23  C   UNL     1      -3.928  25.559  46.888  1.00  0.00    -0.027 C 
ATOM     24  C   UNL     1      -4.850  25.767  47.855  1.00  0.00    -0.065 C 
ATOM     25  C   UNL     1      -4.457  25.517  50.297  1.00  0.00     0.014 C 
ATOM     26  C   UNL     1      -6.563  24.558  49.272  1.00  0.00     0.016 C 
ATOM     27  C   UNL     1      -5.438  27.153  48.003  1.00  0.00     0.063 C 
ATOM     28  C   UNL     1      -4.963  26.965  50.498  1.00  0.00     0.033 C 
ATOM     29  C   UNL     1      -4.804  27.833  49.234  1.00  0.00     0.118 C 
BRANCH  29  30
ATOM     30  O   UNL     1      -5.406  29.080  49.460  1.00  0.00    -0.393 OA
ATOM     31  H   UNL     1      -5.776  29.064  50.384  1.00  0.00     0.210 HD
ENDBRANCH  29  30
ENDBRANCH   1  11
TORSDOF 6
ENDMDL
MODEL 7
REMARK VINA RESULT:    -7.390      1.637      2.991
REMARK INTER + INTRA:         -10.623
REMARK INTER:                  -9.840
REMARK INTRA:                  -0.784
REMARK UNBOUND:                -0.858
REMARK SMILES CC[C@@H](C=C[C@H](C)[C@@H]1CC[C@H]2[C@H]3CC=C4C[C@@H](O)CC[C@]4(C)[C@H]3CC[C@]21C)C(C)C
REMARK SMILES IDX 6 1 7 2 5 3 4 4 3 5 2 6 1 7 28 8 29 9 30 10 8 11 9 12 26 13
REMARK SMILES IDX 10 14 11 15 25 16 27 17 12 18 24 19 23 20 13 21 21 22 14 23
REMARK SMILES IDX 15 24 20 25 22 26 16 27 19 28 17 29 18 30
REMARK H PARENT 18 31
REMARK Flexibility Score: inf
ROOT
ATOM      1  C   UNL     1      -6.338  29.668  48.137  1.00  0.00     0.012 C 
ATOM      2  C   UNL     1      -5.902  31.057  48.647  1.00  0.00     0.012 C 
ENDROOT
BRANCH   1   3
ATOM      3  C   UNL     1      -7.145  29.915  46.876  1.00  0.00    -0.028 C 
ATOM      4  C   UNL     1      -8.486  30.008  46.900  1.00  0.00    -0.027 C 
BRANCH   4   5
ATOM      5  C   UNL     1      -9.333  30.186  45.654  1.00  0.00     0.014 C 
BRANCH   5   6
ATOM      6  C   UNL     1      -9.593  31.695  45.395  1.00  0.00     0.004 C 
ATOM      7  C   UNL     1     -11.065  32.032  45.159  1.00  0.00     0.004 C 
ENDBRANCH   5   6
BRANCH   5   8
ATOM      8  C   UNL     1     -10.594  29.250  45.681  1.00  0.00    -0.011 C 
ATOM      9  C   UNL     1     -10.788  28.377  44.427  1.00  0.00     0.008 C 
ATOM     10  C   UNL     1     -10.616  28.367  46.938  1.00  0.00     0.008 C 
ENDBRANCH   5   8
ENDBRANCH   4   5
ENDBRANCH   1   3
BRANCH   1  11
ATOM     11  C   UNL     1      -5.113  28.706  47.864  1.00  0.00     0.002 C 
ATOM     12  C   UNL     1      -4.924  28.429  46.358  1.00  0.00     0.005 C 
ATOM     13  C   UNL     1      -5.193  27.244  48.468  1.00  0.00    -0.026 C 
ATOM     14  C   UNL     1      -5.837  27.263  46.064  1.00  0.00     0.005 C 
ATOM     15  C   UNL     1      -5.718  26.348  47.288  1.00  0.00    -0.001 C 
ATOM     16  C   UNL     1      -3.763  26.816  48.912  1.00  0.00     0.007 C 
ATOM     17  C   UNL     1      -6.119  27.107  49.707  1.00  0.00     0.012 C 
ATOM     18  C   UNL     1      -4.929  25.017  47.023  1.00  0.00     0.000 C 
ATOM     19  C   UNL     1      -3.570  25.301  49.156  1.00  0.00     0.005 C 
ATOM     20  C   UNL     1      -4.532  24.361  48.363  1.00  0.00     0.003 C 
ATOM     21  C   UNL     1      -3.684  25.101  46.105  1.00  0.00     0.031 C 
ATOM     22  C   UNL     1      -3.971  22.896  48.156  1.00  0.00    -0.008 C 
ATOM     23  C   UNL     1      -2.973  23.780  46.005  1.00  0.00    -0.027 C 
ATOM     24  C   UNL     1      -3.050  22.803  46.937  1.00  0.00    -0.065 C 
ATOM     25  C   UNL     1      -5.154  21.903  47.908  1.00  0.00     0.014 C 
ATOM     26  C   UNL     1      -3.210  22.439  49.436  1.00  0.00     0.016 C 
ATOM     27  C   UNL     1      -2.521  21.430  46.587  1.00  0.00     0.063 C 
ATOM     28  C   UNL     1      -4.706  20.482  47.490  1.00  0.00     0.033 C 
ATOM     29  C   UNL     1      -3.715  20.493  46.309  1.00  0.00     0.118 C 
BRANCH  29  30
ATOM     30  O   UNL     1      -3.259  19.185  46.086  1.00  0.00    -0.393 OA
ATOM     31  H   UNL     1      -3.528  18.642  46.876  1.00  0.00     0.210 HD
ENDBRANCH  29  30
ENDBRANCH   1  11
TORSDOF 6
ENDMDL
MODEL 8
REMARK VINA RESULT:    -7.167      3.112      8.933
REMARK INTER + INTRA:         -10.329
REMARK INTER:                 -10.056
REMARK INTRA:                  -0.274
REMARK UNBOUND:                -0.858
REMARK SMILES CC[C@@H](C=C[C@H](C)[C@@H]1CC[C@H]2[C@H]3CC=C4C[C@@H](O)CC[C@]4(C)[C@H]3CC[C@]21C)C(C)C
REMARK SMILES IDX 6 1 7 2 5 3 4 4 3 5 2 6 1 7 28 8 29 9 30 10 8 11 9 12 26 13
REMARK SMILES IDX 10 14 11 15 25 16 27 17 12 18 24 19 23 20 13 21 21 22 14 23
REMARK SMILES IDX 15 24 20 25 22 26 16 27 19 28 17 29 18 30
REMARK H PARENT 18 31
REMARK Flexibility Score: inf
ROOT
ATOM      1  C   UNL     1      -0.510  20.861  46.696  1.00  0.00     0.012 C 
ATOM      2  C   UNL     1       0.181  21.573  47.878  1.00  0.00     0.012 C 
ENDROOT
BRANCH   1   3
ATOM      3  C   UNL     1      -0.681  19.414  47.116  1.00  0.00    -0.028 C 
ATOM      4  C   UNL     1      -1.834  18.751  46.918  1.00  0.00    -0.027 C 
BRANCH   4   5
ATOM      5  C   UNL     1      -2.068  17.326  47.384  1.00  0.00     0.014 C 
BRANCH   5   6
ATOM      6  C   UNL     1      -2.545  16.447  46.196  1.00  0.00     0.004 C 
ATOM      7  C   UNL     1      -2.960  17.252  44.965  1.00  0.00     0.004 C 
ENDBRANCH   5   6
BRANCH   5   8
ATOM      8  C   UNL     1      -2.947  17.287  48.684  1.00  0.00    -0.011 C 
ATOM      9  C   UNL     1      -2.175  17.014  49.989  1.00  0.00     0.008 C 
ATOM     10  C   UNL     1      -3.791  18.562  48.835  1.00  0.00     0.008 C 
ENDBRANCH   5   8
ENDBRANCH   4   5
ENDBRANCH   1   3
BRANCH   1  11
ATOM     11  C   UNL     1      -1.893  21.523  46.310  1.00  0.00     0.002 C 
ATOM     12  C   UNL     1      -1.744  22.535  45.156  1.00  0.00     0.005 C 
ATOM     13  C   UNL     1      -2.619  22.386  47.423  1.00  0.00    -0.026 C 
ATOM     14  C   UNL     1      -1.372  23.834  45.828  1.00  0.00     0.005 C 
ATOM     15  C   UNL     1      -2.211  23.872  47.110  1.00  0.00    -0.001 C 
ATOM     16  C   UNL     1      -4.156  22.177  47.284  1.00  0.00     0.007 C 
ATOM     17  C   UNL     1      -2.235  22.014  48.881  1.00  0.00     0.012 C 
ATOM     18  C   UNL     1      -3.380  24.920  47.084  1.00  0.00     0.000 C 
ATOM     19  C   UNL     1      -5.035  23.223  48.009  1.00  0.00     0.005 C 
ATOM     20  C   UNL     1      -4.381  24.626  48.221  1.00  0.00     0.003 C 
ATOM     21  C   UNL     1      -4.152  25.089  45.751  1.00  0.00     0.031 C 
ATOM     22  C   UNL     1      -5.427  25.799  48.401  1.00  0.00    -0.008 C 
ATOM     23  C   UNL     1      -5.295  26.057  45.887  1.00  0.00    -0.027 C 
ATOM     24  C   UNL     1      -5.910  26.347  47.056  1.00  0.00    -0.065 C 
ATOM     25  C   UNL     1      -4.762  26.992  49.165  1.00  0.00     0.014 C 
ATOM     26  C   UNL     1      -6.640  25.298  49.240  1.00  0.00     0.016 C 
ATOM     27  C   UNL     1      -6.848  27.533  47.102  1.00  0.00     0.063 C 
ATOM     28  C   UNL     1      -5.632  28.271  49.214  1.00  0.00     0.033 C 
ATOM     29  C   UNL     1      -6.142  28.698  47.823  1.00  0.00     0.118 C 
BRANCH  29  30
ATOM     30  O   UNL     1      -7.025  29.778  47.976  1.00  0.00    -0.393 OA
ATOM     31  H   UNL     1      -6.905  30.370  47.185  1.00  0.00     0.210 HD
ENDBRANCH  29  30
ENDBRANCH   1  11
TORSDOF 6
ENDMDL
MODEL 9
REMARK VINA RESULT:    -7.148      1.273      2.573
REMARK INTER + INTRA:         -10.304
REMARK INTER:                 -10.400
REMARK INTRA:                   0.096
REMARK UNBOUND:                -0.858
REMARK SMILES CC[C@@H](C=C[C@H](C)[C@@H]1CC[C@H]2[C@H]3CC=C4C[C@@H](O)CC[C@]4(C)[C@H]3CC[C@]21C)C(C)C
REMARK SMILES IDX 6 1 7 2 5 3 4 4 3 5 2 6 1 7 28 8 29 9 30 10 8 11 9 12 26 13
REMARK SMILES IDX 10 14 11 15 25 16 27 17 12 18 24 19 23 20 13 21 21 22 14 23
REMARK SMILES IDX 15 24 20 25 22 26 16 27 19 28 17 29 18 30
REMARK H PARENT 18 31
REMARK Flexibility Score: inf
ROOT
ATOM      1  C   UNL     1      -5.781  27.290  49.666  1.00  0.00     0.012 C 
ATOM      2  C   UNL     1      -4.336  27.600  50.106  1.00  0.00     0.012 C 
ENDROOT
BRANCH   1   3
ATOM      3  C   UNL     1      -6.229  28.468  48.821  1.00  0.00    -0.028 C 
ATOM      4  C   UNL     1      -6.916  28.299  47.678  1.00  0.00    -0.027 C 
BRANCH   4   5
ATOM      5  C   UNL     1      -7.321  29.446  46.770  1.00  0.00     0.014 C 
BRANCH   5   6
ATOM      6  C   UNL     1      -7.102  30.802  47.494  1.00  0.00     0.004 C 
ATOM      7  C   UNL     1      -5.954  31.628  46.915  1.00  0.00     0.004 C 
ENDBRANCH   5   6
BRANCH   5   8
ATOM      8  C   UNL     1      -8.740  29.205  46.144  1.00  0.00    -0.011 C 
ATOM      9  C   UNL     1      -9.696  28.349  46.996  1.00  0.00     0.008 C 
ATOM     10  C   UNL     1      -9.423  30.529  45.766  1.00  0.00     0.008 C 
ENDBRANCH   5   8
ENDBRANCH   4   5
ENDBRANCH   1   3
BRANCH   1  11
ATOM     11  C   UNL     1      -5.899  25.927  48.872  1.00  0.00     0.002 C 
ATOM     12  C   UNL     1      -6.330  24.764  49.789  1.00  0.00     0.005 C 
ATOM     13  C   UNL     1      -4.577  25.360  48.208  1.00  0.00    -0.026 C 
ATOM     14  C   UNL     1      -5.044  24.245  50.384  1.00  0.00     0.005 C 
ATOM     15  C   UNL     1      -4.023  24.314  49.243  1.00  0.00    -0.001 C 
ATOM     16  C   UNL     1      -4.956  24.679  46.860  1.00  0.00     0.007 C 
ATOM     17  C   UNL     1      -3.500  26.434  47.894  1.00  0.00     0.012 C 
ATOM     18  C   UNL     1      -3.612  22.915  48.661  1.00  0.00     0.000 C 
ATOM     19  C   UNL     1      -3.882  23.737  46.268  1.00  0.00     0.005 C 
ATOM     20  C   UNL     1      -2.903  23.094  47.301  1.00  0.00     0.003 C 
ATOM     21  C   UNL     1      -4.727  21.848  48.522  1.00  0.00     0.031 C 
ATOM     22  C   UNL     1      -2.240  21.747  46.803  1.00  0.00    -0.008 C 
ATOM     23  C   UNL     1      -4.218  20.590  47.875  1.00  0.00    -0.027 C 
ATOM     24  C   UNL     1      -3.138  20.536  47.063  1.00  0.00    -0.065 C 
ATOM     25  C   UNL     1      -0.903  21.494  47.575  1.00  0.00     0.014 C 
ATOM     26  C   UNL     1      -1.913  21.853  45.284  1.00  0.00     0.016 C 
ATOM     27  C   UNL     1      -2.571  19.179  46.707  1.00  0.00     0.063 C 
ATOM     28  C   UNL     1      -0.277  20.104  47.314  1.00  0.00     0.033 C 
ATOM     29  C   UNL     1      -1.280  18.951  47.519  1.00  0.00     0.118 C 
BRANCH  29  30
ATOM     30  O   UNL     1      -0.673  17.746  47.132  1.00  0.00    -0.393 OA
ATOM     31  H   UNL     1       0.187  17.679  47.628  1.00  0.00     0.210 HD
ENDBRANCH  29  30
ENDBRANCH   1  11
TORSDOF 6
ENDMDL
