MODEL 1
REMARK VINA RESULT:    -4.963      0.000      0.000
REMARK INTER + INTRA:          -9.803
REMARK INTER:                  -8.736
REMARK INTRA:                  -1.067
REMARK UNBOUND:                -1.067
REMARK SMILES CCCCCCCCCCCCCCC(=O)[O-]
REMARK SMILES IDX 9 1 10 2 11 3 12 4 13 5 14 6 15 7 16 8 17 9 8 10 7 11 6 12
REMARK SMILES IDX 5 13 4 14 3 15 2 16 1 17
REMARK H PARENT
REMARK Flexibility Score: inf
ROOT
ATOM      1  C   UNL     1       7.428   2.886  16.408  1.00  0.00     0.000 C 
ENDROOT
BRANCH   1   2
ATOM      2  C   UNL     1       6.369   3.308  17.443  1.00  0.00     0.000 C 
BRANCH   2   3
ATOM      3  C   UNL     1       6.977   4.018  18.663  1.00  0.00     0.000 C 
BRANCH   3   4
ATOM      4  C   UNL     1       7.005   3.125  19.914  1.00  0.00     0.000 C 
BRANCH   4   5
ATOM      5  C   UNL     1       8.256   3.360  20.780  1.00  0.00     0.006 C 
BRANCH   5   6
ATOM      6  C   UNL     1       8.511   4.853  21.033  1.00  0.00     0.053 C 
BRANCH   6   7
ATOM      7  C   UNL     1       7.522   5.432  21.998  1.00  0.00     0.041 C 
ATOM      8  O   UNL     1       7.413   4.952  23.157  1.00  0.00    -0.550 OA
ATOM      9  O   UNL     1       6.741   6.520  21.628  1.00  0.00    -0.550 OA
ENDBRANCH   6   7
ENDBRANCH   5   6
ENDBRANCH   4   5
ENDBRANCH   3   4
ENDBRANCH   2   3
ENDBRANCH   1   2
BRANCH   1  10
ATOM     10  C   UNL     1       7.993   1.470  16.643  1.00  0.00     0.000 C 
BRANCH  10  11
ATOM     11  C   UNL     1       6.919   0.499  17.165  1.00  0.00    -0.000 C 
BRANCH  11  12
ATOM     12  C   UNL     1       7.447  -0.418  18.279  1.00  0.00    -0.000 C 
BRANCH  12  13
ATOM     13  C   UNL     1       8.759  -1.119  17.885  1.00  0.00    -0.000 C 
BRANCH  13  14
ATOM     14  C   UNL     1       8.575  -2.134  16.744  1.00  0.00    -0.000 C 
BRANCH  14  15
ATOM     15  C   UNL     1       8.643  -3.617  17.167  1.00  0.00    -0.000 C 
BRANCH  15  16
ATOM     16  C   UNL     1       9.832  -4.403  16.589  1.00  0.00    -0.003 C 
ATOM     17  C   UNL     1      10.527  -3.673  15.441  1.00  0.00     0.004 C 
ENDBRANCH  15  16
ENDBRANCH  14  15
ENDBRANCH  13  14
ENDBRANCH  12  13
ENDBRANCH  11  12
ENDBRANCH  10  11
ENDBRANCH   1  10
TORSDOF 13
ENDMDL
MODEL 2
REMARK VINA RESULT:    -4.846     10.281     12.275
REMARK INTER + INTRA:          -9.596
REMARK INTER:                  -8.038
REMARK INTRA:                  -1.559
REMARK UNBOUND:                -1.067
REMARK SMILES CCCCCCCCCCCCCCC(=O)[O-]
REMARK SMILES IDX 9 1 10 2 11 3 12 4 13 5 14 6 15 7 16 8 17 9 8 10 7 11 6 12
REMARK SMILES IDX 5 13 4 14 3 15 2 16 1 17
REMARK H PARENT
REMARK Flexibility Score: inf
ROOT
ATOM      1  C   UNL     1      14.423   1.402   8.002  1.00  0.00     0.000 C 
ENDROOT
BRANCH   1   2
ATOM      2  C   UNL     1      14.722   2.231   9.264  1.00  0.00     0.000 C 
BRANCH   2   3
ATOM      3  C   UNL     1      16.069   1.869   9.911  1.00  0.00     0.000 C 
BRANCH   3   4
ATOM      4  C   UNL     1      16.054   2.037  11.440  1.00  0.00     0.000 C 
BRANCH   4   5
ATOM      5  C   UNL     1      15.624   3.449  11.874  1.00  0.00     0.006 C 
BRANCH   5   6
ATOM      6  C   UNL     1      15.542   3.584  13.402  1.00  0.00     0.053 C 
BRANCH   6   7
ATOM      7  C   UNL     1      16.788   4.186  13.976  1.00  0.00     0.041 C 
ATOM      8  O   UNL     1      17.701   4.599  13.213  1.00  0.00    -0.550 OA
ATOM      9  O   UNL     1      16.928   4.320  15.352  1.00  0.00    -0.550 OA
ENDBRANCH   6   7
ENDBRANCH   5   6
ENDBRANCH   4   5
ENDBRANCH   3   4
ENDBRANCH   2   3
ENDBRANCH   1   2
BRANCH   1  10
ATOM     10  C   UNL     1      13.847   2.233   6.838  1.00  0.00     0.000 C 
BRANCH  10  11
ATOM     11  C   UNL     1      14.762   3.413   6.461  1.00  0.00    -0.000 C 
BRANCH  11  12
ATOM     12  C   UNL     1      13.972   4.694   6.153  1.00  0.00    -0.000 C 
BRANCH  12  13
ATOM     13  C   UNL     1      12.772   4.882   7.099  1.00  0.00    -0.000 C 
BRANCH  13  14
ATOM     14  C   UNL     1      12.993   6.003   8.128  1.00  0.00    -0.000 C 
BRANCH  14  15
ATOM     15  C   UNL     1      13.243   5.526   9.574  1.00  0.00    -0.000 C 
BRANCH  15  16
ATOM     16  C   UNL     1      12.186   4.557  10.131  1.00  0.00    -0.003 C 
ATOM     17  C   UNL     1      12.022   4.660  11.646  1.00  0.00     0.004 C 
ENDBRANCH  15  16
ENDBRANCH  14  15
ENDBRANCH  13  14
ENDBRANCH  12  13
ENDBRANCH  11  12
ENDBRANCH  10  11
ENDBRANCH   1  10
TORSDOF 13
ENDMDL
MODEL 3
REMARK VINA RESULT:    -4.838      9.518     11.173
REMARK INTER + INTRA:          -9.581
REMARK INTER:                  -8.355
REMARK INTRA:                  -1.227
REMARK UNBOUND:                -1.067
REMARK SMILES CCCCCCCCCCCCCCC(=O)[O-]
REMARK SMILES IDX 9 1 10 2 11 3 12 4 13 5 14 6 15 7 16 8 17 9 8 10 7 11 6 12
REMARK SMILES IDX 5 13 4 14 3 15 2 16 1 17
REMARK H PARENT
REMARK Flexibility Score: inf
ROOT
ATOM      1  C   UNL     1      13.696   4.473   7.107  1.00  0.00     0.000 C 
ENDROOT
BRANCH   1   2
ATOM      2  C   UNL     1      12.883   5.746   7.402  1.00  0.00     0.000 C 
BRANCH   2   3
ATOM      3  C   UNL     1      13.010   6.210   8.863  1.00  0.00     0.000 C 
BRANCH   3   4
ATOM      4  C   UNL     1      12.960   5.041   9.861  1.00  0.00     0.000 C 
BRANCH   4   5
ATOM      5  C   UNL     1      12.054   5.335  11.069  1.00  0.00     0.006 C 
BRANCH   5   6
ATOM      6  C   UNL     1      10.847   6.204  10.688  1.00  0.00     0.053 C 
BRANCH   6   7
ATOM      7  C   UNL     1      10.298   6.944  11.869  1.00  0.00     0.041 C 
ATOM      8  O   UNL     1       9.183   6.619  12.358  1.00  0.00    -0.550 OA
ATOM      9  O   UNL     1      11.029   7.973  12.450  1.00  0.00    -0.550 OA
ENDBRANCH   6   7
ENDBRANCH   5   6
ENDBRANCH   4   5
ENDBRANCH   3   4
ENDBRANCH   2   3
ENDBRANCH   1   2
BRANCH   1  10
ATOM     10  C   UNL     1      12.823   3.226   6.860  1.00  0.00     0.000 C 
BRANCH  10  11
ATOM     11  C   UNL     1      13.526   1.930   7.304  1.00  0.00    -0.000 C 
BRANCH  11  12
ATOM     12  C   UNL     1      14.831   2.202   8.068  1.00  0.00    -0.000 C 
BRANCH  12  13
ATOM     13  C   UNL     1      14.721   1.834   9.559  1.00  0.00    -0.000 C 
BRANCH  13  14
ATOM     14  C   UNL     1      16.049   2.007  10.316  1.00  0.00    -0.000 C 
BRANCH  14  15
ATOM     15  C   UNL     1      15.911   2.253  11.834  1.00  0.00    -0.000 C 
BRANCH  15  16
ATOM     16  C   UNL     1      15.589   3.705  12.229  1.00  0.00    -0.003 C 
ATOM     17  C   UNL     1      16.694   4.356  13.059  1.00  0.00     0.004 C 
ENDBRANCH  15  16
ENDBRANCH  14  15
ENDBRANCH  13  14
ENDBRANCH  12  13
ENDBRANCH  11  12
ENDBRANCH  10  11
ENDBRANCH   1  10
TORSDOF 13
ENDMDL
MODEL 4
REMARK VINA RESULT:    -4.768     10.707     13.587
REMARK INTER + INTRA:          -9.459
REMARK INTER:                  -8.533
REMARK INTRA:                  -0.926
REMARK UNBOUND:                -1.067
REMARK SMILES CCCCCCCCCCCCCCC(=O)[O-]
REMARK SMILES IDX 9 1 10 2 11 3 12 4 13 5 14 6 15 7 16 8 17 9 8 10 7 11 6 12
REMARK SMILES IDX 5 13 4 14 3 15 2 16 1 17
REMARK H PARENT
REMARK Flexibility Score: inf
ROOT
ATOM      1  C   UNL     1      15.614   0.331  10.121  1.00  0.00     0.000 C 
ENDROOT
BRANCH   1   2
ATOM      2  C   UNL     1      14.905  -0.552   9.078  1.00  0.00     0.000 C 
BRANCH   2   3
ATOM      3  C   UNL     1      15.622  -1.892   8.844  1.00  0.00     0.000 C 
BRANCH   3   4
ATOM      4  C   UNL     1      15.461  -2.405   7.404  1.00  0.00     0.000 C 
BRANCH   4   5
ATOM      5  C   UNL     1      14.402  -3.515   7.287  1.00  0.00     0.006 C 
BRANCH   5   6
ATOM      6  C   UNL     1      13.250  -3.118   6.353  1.00  0.00     0.053 C 
BRANCH   6   7
ATOM      7  C   UNL     1      11.970  -2.909   7.103  1.00  0.00     0.041 C 
ATOM      8  O   UNL     1      11.010  -3.709   6.952  1.00  0.00    -0.550 OA
ATOM      9  O   UNL     1      11.849  -1.849   7.993  1.00  0.00    -0.550 OA
ENDBRANCH   6   7
ENDBRANCH   5   6
ENDBRANCH   4   5
ENDBRANCH   3   4
ENDBRANCH   2   3
ENDBRANCH   1   2
BRANCH   1  10
ATOM     10  C   UNL     1      15.890   1.767   9.630  1.00  0.00     0.000 C 
BRANCH  10  11
ATOM     11  C   UNL     1      14.661   2.389   8.943  1.00  0.00    -0.000 C 
BRANCH  11  12
ATOM     12  C   UNL     1      13.675   3.006   9.947  1.00  0.00    -0.000 C 
BRANCH  12  13
ATOM     13  C   UNL     1      14.358   4.011  10.892  1.00  0.00    -0.000 C 
BRANCH  13  14
ATOM     14  C   UNL     1      14.325   3.565  12.363  1.00  0.00    -0.000 C 
BRANCH  14  15
ATOM     15  C   UNL     1      15.681   3.112  12.942  1.00  0.00    -0.000 C 
BRANCH  15  16
ATOM     16  C   UNL     1      16.497   4.221  13.630  1.00  0.00    -0.003 C 
ATOM     17  C   UNL     1      16.401   4.173  15.154  1.00  0.00     0.004 C 
ENDBRANCH  15  16
ENDBRANCH  14  15
ENDBRANCH  13  14
ENDBRANCH  12  13
ENDBRANCH  11  12
ENDBRANCH  10  11
ENDBRANCH   1  10
TORSDOF 13
ENDMDL
MODEL 5
REMARK VINA RESULT:    -4.733     11.511     13.645
REMARK INTER + INTRA:          -9.397
REMARK INTER:                  -7.119
REMARK INTRA:                  -2.278
REMARK UNBOUND:                -1.067
REMARK SMILES CCCCCCCCCCCCCCC(=O)[O-]
REMARK SMILES IDX 9 1 10 2 11 3 12 4 13 5 14 6 15 7 16 8 17 9 8 10 7 11 6 12
REMARK SMILES IDX 5 13 4 14 3 15 2 16 1 17
REMARK H PARENT
REMARK Flexibility Score: inf
ROOT
ATOM      1  C   UNL     1      18.995  -5.246  22.914  1.00  0.00     0.000 C 
ENDROOT
BRANCH   1   2
ATOM      2  C   UNL     1      20.385  -4.698  23.282  1.00  0.00     0.000 C 
BRANCH   2   3
ATOM      3  C   UNL     1      20.405  -3.166  23.421  1.00  0.00     0.000 C 
BRANCH   3   4
ATOM      4  C   UNL     1      21.396  -2.497  22.455  1.00  0.00     0.000 C 
BRANCH   4   5
ATOM      5  C   UNL     1      20.696  -1.833  21.257  1.00  0.00     0.006 C 
BRANCH   5   6
ATOM      6  C   UNL     1      21.026  -2.537  19.933  1.00  0.00     0.053 C 
BRANCH   6   7
ATOM      7  C   UNL     1      20.268  -1.947  18.783  1.00  0.00     0.041 C 
ATOM      8  O   UNL     1      19.449  -1.010  18.979  1.00  0.00    -0.550 OA
ATOM      9  O   UNL     1      20.487  -2.409  17.492  1.00  0.00    -0.550 OA
ENDBRANCH   6   7
ENDBRANCH   5   6
ENDBRANCH   4   5
ENDBRANCH   3   4
ENDBRANCH   2   3
ENDBRANCH   1   2
BRANCH   1  10
ATOM     10  C   UNL     1      18.452  -4.706  21.575  1.00  0.00     0.000 C 
BRANCH  10  11
ATOM     11  C   UNL     1      17.056  -4.075  21.729  1.00  0.00    -0.000 C 
BRANCH  11  12
ATOM     12  C   UNL     1      17.046  -2.578  21.381  1.00  0.00    -0.000 C 
BRANCH  12  13
ATOM     13  C   UNL     1      16.321  -1.737  22.447  1.00  0.00    -0.000 C 
BRANCH  13  14
ATOM     14  C   UNL     1      17.249  -1.290  23.589  1.00  0.00    -0.000 C 
BRANCH  14  15
ATOM     15  C   UNL     1      16.772  -1.665  25.008  1.00  0.00    -0.000 C 
BRANCH  15  16
ATOM     16  C   UNL     1      17.268  -3.029  25.520  1.00  0.00    -0.003 C 
ATOM     17  C   UNL     1      16.239  -4.144  25.339  1.00  0.00     0.004 C 
ENDBRANCH  15  16
ENDBRANCH  14  15
ENDBRANCH  13  14
ENDBRANCH  12  13
ENDBRANCH  11  12
ENDBRANCH  10  11
ENDBRANCH   1  10
TORSDOF 13
ENDMDL
MODEL 6
REMARK VINA RESULT:    -4.727      1.154      1.974
REMARK INTER + INTRA:          -9.387
REMARK INTER:                  -8.295
REMARK INTRA:                  -1.091
REMARK UNBOUND:                -1.067
REMARK SMILES CCCCCCCCCCCCCCC(=O)[O-]
REMARK SMILES IDX 9 1 10 2 11 3 12 4 13 5 14 6 15 7 16 8 17 9 8 10 7 11 6 12
REMARK SMILES IDX 5 13 4 14 3 15 2 16 1 17
REMARK H PARENT
REMARK Flexibility Score: inf
ROOT
ATOM      1  C   UNL     1       7.445   1.180  18.664  1.00  0.00     0.000 C 
ENDROOT
BRANCH   1   2
ATOM      2  C   UNL     1       6.828   2.240  17.734  1.00  0.00     0.000 C 
BRANCH   2   3
ATOM      3  C   UNL     1       7.848   3.293  17.269  1.00  0.00     0.000 C 
BRANCH   3   4
ATOM      4  C   UNL     1       7.418   4.727  17.619  1.00  0.00     0.000 C 
BRANCH   4   5
ATOM      5  C   UNL     1       6.958   4.865  19.081  1.00  0.00     0.006 C 
BRANCH   5   6
ATOM      6  C   UNL     1       8.142   4.899  20.058  1.00  0.00     0.053 C 
BRANCH   6   7
ATOM      7  C   UNL     1       7.712   5.278  21.442  1.00  0.00     0.041 C 
ATOM      8  O   UNL     1       8.079   4.589  22.430  1.00  0.00    -0.550 OA
ATOM      9  O   UNL     1       6.931   6.410  21.644  1.00  0.00    -0.550 OA
ENDBRANCH   6   7
ENDBRANCH   5   6
ENDBRANCH   4   5
ENDBRANCH   3   4
ENDBRANCH   2   3
ENDBRANCH   1   2
BRANCH   1  10
ATOM     10  C   UNL     1       7.043  -0.265  18.306  1.00  0.00     0.000 C 
BRANCH  10  11
ATOM     11  C   UNL     1       8.269  -1.164  18.066  1.00  0.00    -0.000 C 
BRANCH  11  12
ATOM     12  C   UNL     1       9.519  -0.361  17.672  1.00  0.00    -0.000 C 
BRANCH  12  13
ATOM     13  C   UNL     1      10.377  -1.094  16.625  1.00  0.00    -0.000 C 
BRANCH  13  14
ATOM     14  C   UNL     1       9.541  -1.691  15.480  1.00  0.00    -0.000 C 
BRANCH  14  15
ATOM     15  C   UNL     1       9.894  -3.144  15.100  1.00  0.00    -0.000 C 
BRANCH  15  16
ATOM     16  C   UNL     1      10.055  -4.106  16.289  1.00  0.00    -0.003 C 
ATOM     17  C   UNL     1       8.722  -4.501  16.921  1.00  0.00     0.004 C 
ENDBRANCH  15  16
ENDBRANCH  14  15
ENDBRANCH  13  14
ENDBRANCH  12  13
ENDBRANCH  11  12
ENDBRANCH  10  11
ENDBRANCH   1  10
TORSDOF 13
ENDMDL
MODEL 7
REMARK VINA RESULT:    -4.697      4.476      6.455
REMARK INTER + INTRA:          -9.334
REMARK INTER:                  -6.982
REMARK INTRA:                  -2.353
REMARK UNBOUND:                -1.067
REMARK SMILES CCCCCCCCCCCCCCC(=O)[O-]
REMARK SMILES IDX 9 1 10 2 11 3 12 4 13 5 14 6 15 7 16 8 17 9 8 10 7 11 6 12
REMARK SMILES IDX 5 13 4 14 3 15 2 16 1 17
REMARK H PARENT
REMARK Flexibility Score: inf
ROOT
ATOM      1  C   UNL     1       4.974   0.658  17.266  1.00  0.00     0.000 C 
ENDROOT
BRANCH   1   2
ATOM      2  C   UNL     1       6.030   1.730  17.588  1.00  0.00     0.000 C 
BRANCH   2   3
ATOM      3  C   UNL     1       7.384   1.129  18.001  1.00  0.00     0.000 C 
BRANCH   3   4
ATOM      4  C   UNL     1       7.304  -0.384  18.262  1.00  0.00     0.000 C 
BRANCH   4   5
ATOM      5  C   UNL     1       8.662  -1.086  18.084  1.00  0.00     0.006 C 
BRANCH   5   6
ATOM      6  C   UNL     1       8.514  -2.481  17.462  1.00  0.00     0.053 C 
BRANCH   6   7
ATOM      7  C   UNL     1       9.638  -2.795  16.522  1.00  0.00     0.041 C 
ATOM      8  O   UNL     1      10.173  -1.877  15.846  1.00  0.00    -0.550 OA
ATOM      9  O   UNL     1      10.115  -4.095  16.415  1.00  0.00    -0.550 OA
ENDBRANCH   6   7
ENDBRANCH   5   6
ENDBRANCH   4   5
ENDBRANCH   3   4
ENDBRANCH   2   3
ENDBRANCH   1   2
BRANCH   1  10
ATOM     10  C   UNL     1       3.765   1.200  16.476  1.00  0.00     0.000 C 
BRANCH  10  11
ATOM     11  C   UNL     1       3.764   0.716  15.014  1.00  0.00    -0.000 C 
BRANCH  11  12
ATOM     12  C   UNL     1       4.117  -0.775  14.888  1.00  0.00    -0.000 C 
BRANCH  12  13
ATOM     13  C   UNL     1       5.268  -1.020  13.897  1.00  0.00    -0.000 C 
BRANCH  13  14
ATOM     14  C   UNL     1       6.633  -1.167  14.590  1.00  0.00    -0.000 C 
BRANCH  14  15
ATOM     15  C   UNL     1       7.569   0.054  14.463  1.00  0.00    -0.000 C 
BRANCH  15  16
ATOM     16  C   UNL     1       7.076   1.153  13.505  1.00  0.00    -0.003 C 
ATOM     17  C   UNL     1       7.029   2.534  14.157  1.00  0.00     0.004 C 
ENDBRANCH  15  16
ENDBRANCH  14  15
ENDBRANCH  13  14
ENDBRANCH  12  13
ENDBRANCH  11  12
ENDBRANCH  10  11
ENDBRANCH   1  10
TORSDOF 13
ENDMDL
MODEL 8
REMARK VINA RESULT:    -4.685      2.076      3.417
REMARK INTER + INTRA:          -9.312
REMARK INTER:                  -7.803
REMARK INTRA:                  -1.509
REMARK UNBOUND:                -1.067
REMARK SMILES CCCCCCCCCCCCCCC(=O)[O-]
REMARK SMILES IDX 9 1 10 2 11 3 12 4 13 5 14 6 15 7 16 8 17 9 8 10 7 11 6 12
REMARK SMILES IDX 5 13 4 14 3 15 2 16 1 17
REMARK H PARENT
REMARK Flexibility Score: inf
ROOT
ATOM      1  C   UNL     1       6.999  -0.018  18.226  1.00  0.00     0.000 C 
ENDROOT
BRANCH   1   2
ATOM      2  C   UNL     1       6.471   1.341  17.731  1.00  0.00     0.000 C 
BRANCH   2   3
ATOM      3  C   UNL     1       7.508   2.119  16.904  1.00  0.00     0.000 C 
BRANCH   3   4
ATOM      4  C   UNL     1       7.476   3.630  17.187  1.00  0.00     0.000 C 
BRANCH   4   5
ATOM      5  C   UNL     1       6.701   3.974  18.471  1.00  0.00     0.006 C 
BRANCH   5   6
ATOM      6  C   UNL     1       7.221   5.258  19.133  1.00  0.00     0.053 C 
BRANCH   6   7
ATOM      7  C   UNL     1       7.976   4.968  20.394  1.00  0.00     0.041 C 
ATOM      8  O   UNL     1       8.870   4.081  20.408  1.00  0.00    -0.550 OA
ATOM      9  O   UNL     1       7.714   5.698  21.547  1.00  0.00    -0.550 OA
ENDBRANCH   6   7
ENDBRANCH   5   6
ENDBRANCH   4   5
ENDBRANCH   3   4
ENDBRANCH   2   3
ENDBRANCH   1   2
BRANCH   1  10
ATOM     10  C   UNL     1       8.539  -0.100  18.278  1.00  0.00     0.000 C 
BRANCH  10  11
ATOM     11  C   UNL     1       9.063  -1.461  17.787  1.00  0.00    -0.000 C 
BRANCH  11  12
ATOM     12  C   UNL     1       8.129  -2.113  16.755  1.00  0.00    -0.000 C 
BRANCH  12  13
ATOM     13  C   UNL     1       8.622  -1.910  15.311  1.00  0.00    -0.000 C 
BRANCH  13  14
ATOM     14  C   UNL     1       7.973  -0.696  14.624  1.00  0.00    -0.000 C 
BRANCH  14  15
ATOM     15  C   UNL     1       6.660  -0.993  13.870  1.00  0.00    -0.000 C 
BRANCH  15  16
ATOM     16  C   UNL     1       5.379  -0.811  14.702  1.00  0.00    -0.003 C 
ATOM     17  C   UNL     1       4.166  -1.507  14.087  1.00  0.00     0.004 C 
ENDBRANCH  15  16
ENDBRANCH  14  15
ENDBRANCH  13  14
ENDBRANCH  12  13
ENDBRANCH  11  12
ENDBRANCH  10  11
ENDBRANCH   1  10
TORSDOF 13
ENDMDL
MODEL 9
REMARK VINA RESULT:    -4.637     11.344     13.955
REMARK INTER + INTRA:          -9.228
REMARK INTER:                  -7.164
REMARK INTRA:                  -2.064
REMARK UNBOUND:                -1.067
REMARK SMILES CCCCCCCCCCCCCCC(=O)[O-]
REMARK SMILES IDX 9 1 10 2 11 3 12 4 13 5 14 6 15 7 16 8 17 9 8 10 7 11 6 12
REMARK SMILES IDX 5 13 4 14 3 15 2 16 1 17
REMARK H PARENT
REMARK Flexibility Score: inf
ROOT
ATOM      1  C   UNL     1      22.148  -3.277  21.303  1.00  0.00     0.000 C 
ENDROOT
BRANCH   1   2
ATOM      2  C   UNL     1      21.530  -4.423  22.124  1.00  0.00     0.000 C 
BRANCH   2   3
ATOM      3  C   UNL     1      20.516  -5.254  21.319  1.00  0.00     0.000 C 
BRANCH   3   4
ATOM      4  C   UNL     1      19.158  -5.377  22.028  1.00  0.00     0.000 C 
BRANCH   4   5
ATOM      5  C   UNL     1      18.828  -4.145  22.889  1.00  0.00     0.006 C 
BRANCH   5   6
ATOM      6  C   UNL     1      17.367  -4.145  23.362  1.00  0.00     0.053 C 
BRANCH   6   7
ATOM      7  C   UNL     1      16.474  -3.405  22.414  1.00  0.00     0.041 C 
ATOM      8  O   UNL     1      16.392  -3.765  21.210  1.00  0.00    -0.550 OA
ATOM      9  O   UNL     1      15.710  -2.336  22.865  1.00  0.00    -0.550 OA
ENDBRANCH   6   7
ENDBRANCH   5   6
ENDBRANCH   4   5
ENDBRANCH   3   4
ENDBRANCH   2   3
ENDBRANCH   1   2
BRANCH   1  10
ATOM     10  C   UNL     1      23.111  -3.758  20.198  1.00  0.00     0.000 C 
BRANCH  10  11
ATOM     11  C   UNL     1      23.125  -2.806  18.988  1.00  0.00    -0.000 C 
BRANCH  11  12
ATOM     12  C   UNL     1      22.468  -3.424  17.745  1.00  0.00    -0.000 C 
BRANCH  12  13
ATOM     13  C   UNL     1      21.064  -2.849  17.480  1.00  0.00    -0.000 C 
BRANCH  13  14
ATOM     14  C   UNL     1      19.953  -3.632  18.200  1.00  0.00    -0.000 C 
BRANCH  14  15
ATOM     15  C   UNL     1      18.957  -2.768  19.002  1.00  0.00    -0.000 C 
BRANCH  15  16
ATOM     16  C   UNL     1      19.486  -1.384  19.418  1.00  0.00    -0.003 C 
ATOM     17  C   UNL     1      19.299  -1.098  20.907  1.00  0.00     0.004 C 
ENDBRANCH  15  16
ENDBRANCH  14  15
ENDBRANCH  13  14
ENDBRANCH  12  13
ENDBRANCH  11  12
ENDBRANCH  10  11
ENDBRANCH   1  10
TORSDOF 13
ENDMDL
