MODEL 1
REMARK VINA RESULT:     4.322      0.000      0.000
REMARK INTER + INTRA:           7.116
REMARK INTER:                   7.353
REMARK INTRA:                  -0.237
REMARK UNBOUND:                -0.237
REMARK SMILES CCCCCCCCCCCCCC(=O)[O-]
REMARK SMILES IDX 8 1 9 2 10 3 11 4 12 5 13 6 14 7 15 8 16 9 7 10 6 11 5 12
REMARK SMILES IDX 4 13 3 14 2 15 1 16
REMARK H PARENT
REMARK Flexibility Score: inf
ROOT
ATOM      1  C   UNL     1      88.538  81.875  20.088  1.00  0.00     0.000 C 
ENDROOT
BRANCH   1   2
ATOM      2  C   UNL     1      87.246  82.274  19.356  1.00  0.00     0.000 C 
BRANCH   2   3
ATOM      3  C   UNL     1      86.818  81.242  18.300  1.00  0.00     0.000 C 
BRANCH   3   4
ATOM      4  C   UNL     1      85.305  80.983  18.370  1.00  0.00     0.000 C 
BRANCH   4   5
ATOM      5  C   UNL     1      84.785  80.888  19.813  1.00  0.00     0.006 C 
BRANCH   5   6
ATOM      6  C   UNL     1      83.296  81.238  19.929  1.00  0.00     0.053 C 
BRANCH   6   7
ATOM      7  C   UNL     1      83.028  82.584  19.336  1.00  0.00     0.041 C 
ATOM      8  O   UNL     1      82.895  83.590  20.081  1.00  0.00    -0.550 OA
ATOM      9  O   UNL     1      82.875  82.721  17.962  1.00  0.00    -0.550 OA
ENDBRANCH   6   7
ENDBRANCH   5   6
ENDBRANCH   4   5
ENDBRANCH   3   4
ENDBRANCH   2   3
ENDBRANCH   1   2
BRANCH   1  10
ATOM     10  C   UNL     1      89.776  81.932  19.176  1.00  0.00     0.000 C 
BRANCH  10  11
ATOM     11  C   UNL     1      90.655  83.162  19.455  1.00  0.00    -0.000 C 
BRANCH  11  12
ATOM     12  C   UNL     1      89.886  84.484  19.291  1.00  0.00    -0.000 C 
BRANCH  12  13
ATOM     13  C   UNL     1      90.812  85.688  19.038  1.00  0.00    -0.000 C 
BRANCH  13  14
ATOM     14  C   UNL     1      91.011  86.059  17.558  1.00  0.00    -0.000 C 
BRANCH  14  15
ATOM     15  C   UNL     1      91.974  87.239  17.361  1.00  0.00    -0.003 C 
ATOM     16  C   UNL     1      92.109  87.599  15.884  1.00  0.00     0.004 C 
ENDBRANCH  14  15
ENDBRANCH  13  14
ENDBRANCH  12  13
ENDBRANCH  11  12
ENDBRANCH  10  11
ENDBRANCH   1  10
TORSDOF 12
ENDMDL
MODEL 2
REMARK VINA RESULT:     4.559      2.483      3.331
REMARK INTER + INTRA:           7.521
REMARK INTER:                   8.196
REMARK INTRA:                  -0.676
REMARK UNBOUND:                -0.237
REMARK SMILES CCCCCCCCCCCCCC(=O)[O-]
REMARK SMILES IDX 8 1 9 2 10 3 11 4 12 5 13 6 14 7 15 8 16 9 7 10 6 11 5 12
REMARK SMILES IDX 4 13 3 14 2 15 1 16
REMARK H PARENT
REMARK Flexibility Score: inf
ROOT
ATOM      1  C   UNL     1      88.901  81.629  20.082  1.00  0.00     0.000 C 
ENDROOT
BRANCH   1   2
ATOM      2  C   UNL     1      87.764  82.092  19.156  1.00  0.00     0.000 C 
BRANCH   2   3
ATOM      3  C   UNL     1      87.113  80.931  18.388  1.00  0.00     0.000 C 
BRANCH   3   4
ATOM      4  C   UNL     1      85.583  80.976  18.520  1.00  0.00     0.000 C 
BRANCH   4   5
ATOM      5  C   UNL     1      85.116  81.840  19.702  1.00  0.00     0.006 C 
BRANCH   5   6
ATOM      6  C   UNL     1      83.590  81.995  19.754  1.00  0.00     0.053 C 
BRANCH   6   7
ATOM      7  C   UNL     1      83.180  83.317  19.188  1.00  0.00     0.041 C 
ATOM      8  O   UNL     1      83.058  83.463  17.943  1.00  0.00    -0.550 OA
ATOM      9  O   UNL     1      82.982  84.403  20.031  1.00  0.00    -0.550 OA
ENDBRANCH   6   7
ENDBRANCH   5   6
ENDBRANCH   4   5
ENDBRANCH   3   4
ENDBRANCH   2   3
ENDBRANCH   1   2
BRANCH   1  10
ATOM     10  C   UNL     1      90.252  82.275  19.729  1.00  0.00     0.000 C 
BRANCH  10  11
ATOM     11  C   UNL     1      90.466  82.396  18.212  1.00  0.00    -0.000 C 
BRANCH  11  12
ATOM     12  C   UNL     1      90.587  81.026  17.522  1.00  0.00    -0.000 C 
BRANCH  12  13
ATOM     13  C   UNL     1      89.799  80.949  16.202  1.00  0.00    -0.000 C 
BRANCH  13  14
ATOM     14  C   UNL     1      90.619  81.247  14.934  1.00  0.00    -0.000 C 
BRANCH  14  15
ATOM     15  C   UNL     1      92.131  81.083  15.146  1.00  0.00    -0.003 C 
ATOM     16  C   UNL     1      92.917  81.652  13.968  1.00  0.00     0.004 C 
ENDBRANCH  14  15
ENDBRANCH  13  14
ENDBRANCH  12  13
ENDBRANCH  11  12
ENDBRANCH  10  11
ENDBRANCH   1  10
TORSDOF 12
ENDMDL
MODEL 3
REMARK VINA RESULT:     4.950      3.428      7.880
REMARK INTER + INTRA:           8.185
REMARK INTER:                   8.497
REMARK INTRA:                  -0.313
REMARK UNBOUND:                -0.237
REMARK SMILES CCCCCCCCCCCCCC(=O)[O-]
REMARK SMILES IDX 8 1 9 2 10 3 11 4 12 5 13 6 14 7 15 8 16 9 7 10 6 11 5 12
REMARK SMILES IDX 4 13 3 14 2 15 1 16
REMARK H PARENT
REMARK Flexibility Score: inf
ROOT
ATOM      1  C   UNL     1      89.233  83.887  19.274  1.00  0.00     0.000 C 
ENDROOT
BRANCH   1   2
ATOM      2  C   UNL     1      90.321  84.947  19.512  1.00  0.00     0.000 C 
BRANCH   2   3
ATOM      3  C   UNL     1      91.073  85.326  18.227  1.00  0.00     0.000 C 
BRANCH   3   4
ATOM      4  C   UNL     1      92.306  86.186  18.546  1.00  0.00     0.000 C 
BRANCH   4   5
ATOM      5  C   UNL     1      92.251  87.571  17.883  1.00  0.00     0.006 C 
BRANCH   5   6
ATOM      6  C   UNL     1      92.480  87.509  16.367  1.00  0.00     0.053 C 
BRANCH   6   7
ATOM      7  C   UNL     1      91.185  87.292  15.651  1.00  0.00     0.041 C 
ATOM      8  O   UNL     1      91.124  86.492  14.681  1.00  0.00    -0.550 OA
ATOM      9  O   UNL     1      90.056  88.009  16.024  1.00  0.00    -0.550 OA
ENDBRANCH   6   7
ENDBRANCH   5   6
ENDBRANCH   4   5
ENDBRANCH   3   4
ENDBRANCH   2   3
ENDBRANCH   1   2
BRANCH   1  10
ATOM     10  C   UNL     1      89.656  82.487  19.755  1.00  0.00     0.000 C 
BRANCH  10  11
ATOM     11  C   UNL     1      89.159  81.370  18.822  1.00  0.00    -0.000 C 
BRANCH  11  12
ATOM     12  C   UNL     1      87.751  80.875  19.196  1.00  0.00    -0.000 C 
BRANCH  12  13
ATOM     13  C   UNL     1      86.701  81.182  18.113  1.00  0.00    -0.000 C 
BRANCH  13  14
ATOM     14  C   UNL     1      85.244  80.888  18.514  1.00  0.00    -0.000 C 
BRANCH  14  15
ATOM     15  C   UNL     1      84.619  82.005  19.361  1.00  0.00    -0.003 C 
ATOM     16  C   UNL     1      83.124  82.135  19.083  1.00  0.00     0.004 C 
ENDBRANCH  14  15
ENDBRANCH  13  14
ENDBRANCH  12  13
ENDBRANCH  11  12
ENDBRANCH  10  11
ENDBRANCH   1  10
TORSDOF 12
ENDMDL
MODEL 4
REMARK VINA RESULT:     6.794     16.953     20.239
REMARK INTER + INTRA:          11.323
REMARK INTER:                  11.834
REMARK INTRA:                  -0.511
REMARK UNBOUND:                -0.237
REMARK SMILES CCCCCCCCCCCCCC(=O)[O-]
REMARK SMILES IDX 8 1 9 2 10 3 11 4 12 5 13 6 14 7 15 8 16 9 7 10 6 11 5 12
REMARK SMILES IDX 4 13 3 14 2 15 1 16
REMARK H PARENT
REMARK Flexibility Score: inf
ROOT
ATOM      1  C   UNL     1     101.788  97.797  10.765  1.00  0.00     0.000 C 
ENDROOT
BRANCH   1   2
ATOM      2  C   UNL     1     102.207  96.375  10.352  1.00  0.00     0.000 C 
BRANCH   2   3
ATOM      3  C   UNL     1     101.036  95.381  10.378  1.00  0.00     0.000 C 
BRANCH   3   4
ATOM      4  C   UNL     1      99.689  96.121  10.415  1.00  0.00     0.000 C 
BRANCH   4   5
ATOM      5  C   UNL     1      98.515  95.196  10.772  1.00  0.00     0.006 C 
BRANCH   5   6
ATOM      6  C   UNL     1      98.923  94.063  11.723  1.00  0.00     0.053 C 
BRANCH   6   7
ATOM      7  C   UNL     1      98.519  94.388  13.126  1.00  0.00     0.041 C 
ATOM      8  O   UNL     1      98.222  95.570  13.442  1.00  0.00    -0.550 OA
ATOM      9  O   UNL     1      98.518  93.395  14.097  1.00  0.00    -0.550 OA
ENDBRANCH   6   7
ENDBRANCH   5   6
ENDBRANCH   4   5
ENDBRANCH   3   4
ENDBRANCH   2   3
ENDBRANCH   1   2
BRANCH   1  10
ATOM     10  C   UNL     1     102.068  98.837   9.666  1.00  0.00     0.000 C 
BRANCH  10  11
ATOM     11  C   UNL     1     101.653 100.258  10.083  1.00  0.00    -0.000 C 
BRANCH  11  12
ATOM     12  C   UNL     1     100.520 100.260  11.123  1.00  0.00    -0.000 C 
BRANCH  12  13
ATOM     13  C   UNL     1      99.217  99.638  10.590  1.00  0.00    -0.000 C 
BRANCH  13  14
ATOM     14  C   UNL     1      98.444  98.773  11.602  1.00  0.00    -0.000 C 
BRANCH  14  15
ATOM     15  C   UNL     1      97.422  99.576  12.418  1.00  0.00    -0.003 C 
ATOM     16  C   UNL     1      96.893  98.760  13.595  1.00  0.00     0.004 C 
ENDBRANCH  14  15
ENDBRANCH  13  14
ENDBRANCH  12  13
ENDBRANCH  11  12
ENDBRANCH  10  11
ENDBRANCH   1  10
TORSDOF 12
ENDMDL
MODEL 5
REMARK VINA RESULT:     7.228     17.607     20.487
REMARK INTER + INTRA:          12.062
REMARK INTER:                  12.662
REMARK INTRA:                  -0.600
REMARK UNBOUND:                -0.237
REMARK SMILES CCCCCCCCCCCCCC(=O)[O-]
REMARK SMILES IDX 8 1 9 2 10 3 11 4 12 5 13 6 14 7 15 8 16 9 7 10 6 11 5 12
REMARK SMILES IDX 4 13 3 14 2 15 1 16
REMARK H PARENT
REMARK Flexibility Score: inf
ROOT
ATOM      1  C   UNL     1      98.758  95.148  11.193  1.00  0.00     0.000 C 
ENDROOT
BRANCH   1   2
ATOM      2  C   UNL     1     100.147  94.490  11.126  1.00  0.00     0.000 C 
BRANCH   2   3
ATOM      3  C   UNL     1     101.076  95.166  10.106  1.00  0.00     0.000 C 
BRANCH   3   4
ATOM      4  C   UNL     1     101.811  96.357  10.741  1.00  0.00     0.000 C 
BRANCH   4   5
ATOM      5  C   UNL     1     101.082  97.692  10.516  1.00  0.00     0.006 C 
BRANCH   5   6
ATOM      6  C   UNL     1     101.973  98.746   9.846  1.00  0.00     0.053 C 
BRANCH   6   7
ATOM      7  C   UNL     1     101.568 100.121  10.274  1.00  0.00     0.041 C 
ATOM      8  O   UNL     1     102.421 101.044  10.329  1.00  0.00    -0.550 OA
ATOM      9  O   UNL     1     100.257 100.370  10.659  1.00  0.00    -0.550 OA
ENDBRANCH   6   7
ENDBRANCH   5   6
ENDBRANCH   4   5
ENDBRANCH   3   4
ENDBRANCH   2   3
ENDBRANCH   1   2
BRANCH   1  10
ATOM     10  C   UNL     1      98.291  95.397  12.638  1.00  0.00     0.000 C 
BRANCH  10  11
ATOM     11  C   UNL     1      98.633  94.227  13.576  1.00  0.00    -0.000 C 
BRANCH  11  12
ATOM     12  C   UNL     1      98.407  94.575  15.057  1.00  0.00    -0.000 C 
BRANCH  12  13
ATOM     13  C   UNL     1      99.664  95.152  15.735  1.00  0.00    -0.000 C 
BRANCH  13  14
ATOM     14  C   UNL     1      99.479  95.575  17.203  1.00  0.00    -0.000 C 
BRANCH  14  15
ATOM     15  C   UNL     1     100.046  96.971  17.499  1.00  0.00    -0.003 C 
ATOM     16  C   UNL     1      98.940  97.939  17.909  1.00  0.00     0.004 C 
ENDBRANCH  14  15
ENDBRANCH  13  14
ENDBRANCH  12  13
ENDBRANCH  11  12
ENDBRANCH  10  11
ENDBRANCH   1  10
TORSDOF 12
ENDMDL
