MODEL 1
REMARK VINA RESULT:    -7.187      0.000      0.000
REMARK INTER + INTRA:         -10.705
REMARK INTER:                  -9.918
REMARK INTRA:                  -0.787
REMARK UNBOUND:                -0.787
REMARK SMILES O=C([O-])[C@H]1O[C@H](Oc2cc3oc(-c4ccccc4)cc(=O)c3c(O)c2O)[C@@H](O)[C@@H](O)[C@@H]1O
REMARK SMILES IDX 7 1 6 2 4 3 31 4 5 5 29 6 27 7 2 8 1 9 3 10 32 11 30 13
REMARK SMILES IDX 28 15 8 17 25 18 9 19 23 20 10 21 22 22 11 23 20 24 12 25
REMARK SMILES IDX 19 26 21 27 26 28 24 30 13 32 14 33 18 34 15 35 17 36 16 37
REMARK H PARENT 32 12 30 14 28 16 26 29 24 31
REMARK Flexibility Score: inf
ROOT
ATOM      1  O   UNL     1     -46.597  29.162  18.411  1.00  0.00    -0.458 OA
ENDROOT
BRANCH   1   2
ATOM      2  C   UNL     1     -47.536  29.309  19.484  1.00  0.00     0.339 C 
ATOM      3  C   UNL     1     -48.371  27.135  19.189  1.00  0.00     0.199 C 
ATOM      4  C   UNL     1     -47.751  26.626  20.515  1.00  0.00     0.180 C 
ATOM      5  O   UNL     1     -48.695  28.516  19.272  1.00  0.00    -0.328 OA
ATOM      6  C   UNL     1     -46.517  27.474  20.885  1.00  0.00     0.181 C 
ATOM      7  C   UNL     1     -46.867  28.968  20.830  1.00  0.00     0.214 C 
BRANCH   3   8
ATOM      8  C   UNL     1     -49.619  26.355  18.884  1.00  0.00     0.073 C 
ATOM      9  O   UNL     1     -50.301  26.610  17.856  1.00  0.00    -0.547 OA
ATOM     10  O   UNL     1     -50.049  25.368  19.763  1.00  0.00    -0.547 OA
ENDBRANCH   3   8
BRANCH   4  11
ATOM     11  O   UNL     1     -47.408  25.263  20.422  1.00  0.00    -0.387 OA
ATOM     12  H   UNL     1     -47.879  24.893  19.627  1.00  0.00     0.211 HD
ENDBRANCH   4  11
BRANCH   6  13
ATOM     13  O   UNL     1     -46.070  27.147  22.177  1.00  0.00    -0.387 OA
ATOM     14  H   UNL     1     -45.653  26.242  22.117  1.00  0.00     0.211 HD
ENDBRANCH   6  13
BRANCH   7  15
ATOM     15  O   UNL     1     -47.729  29.294  21.893  1.00  0.00    -0.384 OA
ATOM     16  H   UNL     1     -48.653  29.074  21.596  1.00  0.00     0.211 HD
ENDBRANCH   7  15
ENDBRANCH   1   2
BRANCH   1  17
ATOM     17  C   UNL     1     -46.880  29.390  17.055  1.00  0.00     0.172 A 
ATOM     18  C   UNL     1     -47.250  30.685  16.665  1.00  0.00     0.201 A 
ATOM     19  C   UNL     1     -46.814  28.366  16.097  1.00  0.00     0.098 A 
ATOM     20  C   UNL     1     -47.532  30.970  15.304  1.00  0.00     0.176 A 
ATOM     21  C   UNL     1     -47.135  28.618  14.765  1.00  0.00     0.146 A 
ATOM     22  C   UNL     1     -47.485  29.924  14.350  1.00  0.00     0.111 A 
ATOM     23  O   UNL     1     -47.113  27.611  13.893  1.00  0.00    -0.456 OA
ATOM     24  C   UNL     1     -47.763  30.116  12.979  1.00  0.00     0.197 A 
ATOM     25  C   UNL     1     -47.413  27.750  12.605  1.00  0.00     0.138 A 
ATOM     26  C   UNL     1     -47.725  29.025  12.106  1.00  0.00     0.100 A 
ATOM     27  O   UNL     1     -48.048  31.255  12.518  1.00  0.00    -0.289 OA
BRANCH  18  28
ATOM     28  O   UNL     1     -47.334  31.658  17.665  1.00  0.00    -0.502 OA
ATOM     29  H   UNL     1     -46.808  31.639  18.522  1.00  0.00     0.293 HD
ENDBRANCH  18  28
BRANCH  20  30
ATOM     30  O   UNL     1     -47.853  32.265  14.885  1.00  0.00    -0.504 OA
ATOM     31  H   UNL     1     -48.771  32.555  14.583  1.00  0.00     0.293 HD
ENDBRANCH  20  30
BRANCH  25  32
ATOM     32  C   UNL     1     -47.399  26.547  11.732  1.00  0.00     0.017 A 
ATOM     33  C   UNL     1     -47.264  26.649  10.332  1.00  0.00     0.012 A 
ATOM     34  C   UNL     1     -47.574  25.273  12.305  1.00  0.00     0.012 A 
ATOM     35  C   UNL     1     -47.273  25.499   9.534  1.00  0.00     0.001 A 
ATOM     36  C   UNL     1     -47.590  24.128  11.501  1.00  0.00     0.001 A 
ATOM     37  C   UNL     1     -47.431  24.241  10.118  1.00  0.00     0.000 A 
ENDBRANCH  25  32
ENDBRANCH   1  17
TORSDOF 9
ENDMDL
MODEL 2
REMARK VINA RESULT:    -7.087      3.686      6.091
REMARK INTER + INTRA:         -10.566
REMARK INTER:                  -9.476
REMARK INTRA:                  -1.091
REMARK UNBOUND:                -0.787
REMARK SMILES O=C([O-])[C@H]1O[C@H](Oc2cc3oc(-c4ccccc4)cc(=O)c3c(O)c2O)[C@@H](O)[C@@H](O)[C@@H]1O
REMARK SMILES IDX 7 1 6 2 4 3 31 4 5 5 29 6 27 7 2 8 1 9 3 10 32 11 30 13
REMARK SMILES IDX 28 15 8 17 25 18 9 19 23 20 10 21 22 22 11 23 20 24 12 25
REMARK SMILES IDX 19 26 21 27 26 28 24 30 13 32 14 33 18 34 15 35 17 36 16 37
REMARK H PARENT 32 12 30 14 28 16 26 29 24 31
REMARK Flexibility Score: inf
ROOT
ATOM      1  O   UNL     1     -47.045  28.087  14.312  1.00  0.00    -0.458 OA
ENDROOT
BRANCH   1   2
ATOM      2  C   UNL     1     -46.808  29.346  13.671  1.00  0.00     0.339 C 
ATOM      3  C   UNL     1     -48.510  30.405  14.896  1.00  0.00     0.199 C 
ATOM      4  C   UNL     1     -47.506  31.245  15.725  1.00  0.00     0.180 C 
ATOM      5  O   UNL     1     -47.995  30.124  13.601  1.00  0.00    -0.328 OA
ATOM      6  C   UNL     1     -46.145  30.524  15.803  1.00  0.00     0.181 C 
ATOM      7  C   UNL     1     -45.684  30.112  14.397  1.00  0.00     0.214 C 
BRANCH   3   8
ATOM      8  C   UNL     1     -49.803  31.157  14.757  1.00  0.00     0.073 C 
ATOM      9  O   UNL     1     -50.875  30.549  14.498  1.00  0.00    -0.547 OA
ATOM     10  O   UNL     1     -49.814  32.542  14.878  1.00  0.00    -0.547 OA
ENDBRANCH   3   8
BRANCH   4  11
ATOM     11  O   UNL     1     -48.008  31.501  17.016  1.00  0.00    -0.387 OA
ATOM     12  H   UNL     1     -48.065  32.489  17.120  1.00  0.00     0.211 HD
ENDBRANCH   4  11
BRANCH   6  13
ATOM     13  O   UNL     1     -45.180  31.365  16.382  1.00  0.00    -0.387 OA
ATOM     14  H   UNL     1     -45.543  31.655  17.265  1.00  0.00     0.211 HD
ENDBRANCH   6  13
BRANCH   7  15
ATOM     15  O   UNL     1     -45.326  31.255  13.660  1.00  0.00    -0.384 OA
ATOM     16  H   UNL     1     -44.350  31.193  13.481  1.00  0.00     0.211 HD
ENDBRANCH   7  15
ENDBRANCH   1   2
BRANCH   1  17
ATOM     17  C   UNL     1     -46.771  26.830  13.748  1.00  0.00     0.172 A 
ATOM     18  C   UNL     1     -45.654  26.124  14.216  1.00  0.00     0.201 A 
ATOM     19  C   UNL     1     -47.568  26.279  12.732  1.00  0.00     0.098 A 
ATOM     20  C   UNL     1     -45.342  24.845  13.687  1.00  0.00     0.176 A 
ATOM     21  C   UNL     1     -47.249  25.045  12.169  1.00  0.00     0.146 A 
ATOM     22  C   UNL     1     -46.141  24.308  12.647  1.00  0.00     0.111 A 
ATOM     23  O   UNL     1     -47.997  24.577  11.172  1.00  0.00    -0.456 OA
ATOM     24  C   UNL     1     -45.895  23.050  12.056  1.00  0.00     0.197 A 
ATOM     25  C   UNL     1     -47.766  23.417  10.564  1.00  0.00     0.138 A 
ATOM     26  C   UNL     1     -46.711  22.605  11.013  1.00  0.00     0.100 A 
ATOM     27  O   UNL     1     -44.950  22.312  12.447  1.00  0.00    -0.289 OA
BRANCH  18  28
ATOM     28  O   UNL     1     -44.874  26.735  15.202  1.00  0.00    -0.502 OA
ATOM     29  H   UNL     1     -45.221  27.406  15.866  1.00  0.00     0.293 HD
ENDBRANCH  18  28
BRANCH  20  30
ATOM     30  O   UNL     1     -44.263  24.101  14.175  1.00  0.00    -0.504 OA
ATOM     31  H   UNL     1     -44.343  23.361  14.855  1.00  0.00     0.293 HD
ENDBRANCH  20  30
BRANCH  25  32
ATOM     32  C   UNL     1     -48.640  23.015   9.430  1.00  0.00     0.017 A 
ATOM     33  C   UNL     1     -48.872  23.872   8.334  1.00  0.00     0.012 A 
ATOM     34  C   UNL     1     -49.294  21.768   9.468  1.00  0.00     0.012 A 
ATOM     35  C   UNL     1     -49.715  23.473   7.291  1.00  0.00     0.001 A 
ATOM     36  C   UNL     1     -50.141  21.379   8.425  1.00  0.00     0.001 A 
ATOM     37  C   UNL     1     -50.345  22.227   7.333  1.00  0.00     0.000 A 
ENDBRANCH  25  32
ENDBRANCH   1  17
TORSDOF 9
ENDMDL
MODEL 3
REMARK VINA RESULT:    -6.994      3.053      5.942
REMARK INTER + INTRA:         -10.438
REMARK INTER:                  -9.374
REMARK INTRA:                  -1.064
REMARK UNBOUND:                -0.787
REMARK SMILES O=C([O-])[C@H]1O[C@H](Oc2cc3oc(-c4ccccc4)cc(=O)c3c(O)c2O)[C@@H](O)[C@@H](O)[C@@H]1O
REMARK SMILES IDX 7 1 6 2 4 3 31 4 5 5 29 6 27 7 2 8 1 9 3 10 32 11 30 13
REMARK SMILES IDX 28 15 8 17 25 18 9 19 23 20 10 21 22 22 11 23 20 24 12 25
REMARK SMILES IDX 19 26 21 27 26 28 24 30 13 32 14 33 18 34 15 35 17 36 16 37
REMARK H PARENT 32 12 30 14 28 16 26 29 24 31
REMARK Flexibility Score: inf
ROOT
ATOM      1  O   UNL     1     -46.622  28.659  13.031  1.00  0.00    -0.458 OA
ENDROOT
BRANCH   1   2
ATOM      2  C   UNL     1     -47.481  29.804  13.094  1.00  0.00     0.339 C 
ATOM      3  C   UNL     1     -48.759  28.876  14.832  1.00  0.00     0.199 C 
ATOM      4  C   UNL     1     -48.225  29.888  15.877  1.00  0.00     0.180 C 
ATOM      5  O   UNL     1     -48.785  29.450  13.532  1.00  0.00    -0.328 OA
ATOM      6  C   UNL     1     -46.832  30.401  15.459  1.00  0.00     0.181 C 
ATOM      7  C   UNL     1     -46.864  30.886  14.003  1.00  0.00     0.214 C 
BRANCH   3   8
ATOM      8  C   UNL     1     -50.150  28.449  15.208  1.00  0.00     0.073 C 
ATOM      9  O   UNL     1     -51.152  29.095  14.803  1.00  0.00    -0.547 OA
ATOM     10  O   UNL     1     -50.334  27.353  16.043  1.00  0.00    -0.547 OA
ENDBRANCH   3   8
BRANCH   4  11
ATOM     11  O   UNL     1     -48.177  29.309  17.161  1.00  0.00    -0.387 OA
ATOM     12  H   UNL     1     -48.267  30.047  17.822  1.00  0.00     0.211 HD
ENDBRANCH   4  11
BRANCH   6  13
ATOM     13  O   UNL     1     -46.431  31.458  16.294  1.00  0.00    -0.387 OA
ATOM     14  H   UNL     1     -46.188  32.220  15.697  1.00  0.00     0.211 HD
ENDBRANCH   6  13
BRANCH   7  15
ATOM     15  O   UNL     1     -47.612  32.073  13.913  1.00  0.00    -0.384 OA
ATOM     16  H   UNL     1     -48.569  31.811  13.856  1.00  0.00     0.211 HD
ENDBRANCH   7  15
ENDBRANCH   1   2
BRANCH   1  17
ATOM     17  C   UNL     1     -46.391  27.885  11.882  1.00  0.00     0.172 A 
ATOM     18  C   UNL     1     -45.264  28.178  11.102  1.00  0.00     0.201 A 
ATOM     19  C   UNL     1     -47.258  26.850  11.495  1.00  0.00     0.098 A 
ATOM     20  C   UNL     1     -44.982  27.416   9.939  1.00  0.00     0.176 A 
ATOM     21  C   UNL     1     -47.020  26.124  10.330  1.00  0.00     0.146 A 
ATOM     22  C   UNL     1     -45.874  26.388   9.545  1.00  0.00     0.111 A 
ATOM     23  O   UNL     1     -47.891  25.185   9.965  1.00  0.00    -0.456 OA
ATOM     24  C   UNL     1     -45.676  25.591   8.397  1.00  0.00     0.197 A 
ATOM     25  C   UNL     1     -47.757  24.447   8.866  1.00  0.00     0.138 A 
ATOM     26  C   UNL     1     -46.620  24.618   8.060  1.00  0.00     0.100 A 
ATOM     27  O   UNL     1     -44.662  25.736   7.662  1.00  0.00    -0.289 OA
BRANCH  18  28
ATOM     28  O   UNL     1     -44.456  29.240  11.513  1.00  0.00    -0.502 OA
ATOM     29  H   UNL     1     -43.484  29.340  11.275  1.00  0.00     0.293 HD
ENDBRANCH  18  28
BRANCH  20  30
ATOM     30  O   UNL     1     -43.835  27.657   9.174  1.00  0.00    -0.504 OA
ATOM     31  H   UNL     1     -43.713  27.354   8.220  1.00  0.00     0.293 HD
ENDBRANCH  20  30
BRANCH  25  32
ATOM     32  C   UNL     1     -48.816  23.458   8.534  1.00  0.00     0.017 A 
ATOM     33  C   UNL     1     -48.955  22.252   9.252  1.00  0.00     0.012 A 
ATOM     34  C   UNL     1     -49.674  23.701   7.444  1.00  0.00     0.012 A 
ATOM     35  C   UNL     1     -49.949  21.331   8.904  1.00  0.00     0.001 A 
ATOM     36  C   UNL     1     -50.661  22.772   7.097  1.00  0.00     0.001 A 
ATOM     37  C   UNL     1     -50.804  21.593   7.831  1.00  0.00     0.000 A 
ENDBRANCH  25  32
ENDBRANCH   1  17
TORSDOF 9
ENDMDL
MODEL 4
REMARK VINA RESULT:    -6.924      1.428      2.265
REMARK INTER + INTRA:         -10.342
REMARK INTER:                  -9.259
REMARK INTRA:                  -1.083
REMARK UNBOUND:                -0.787
REMARK SMILES O=C([O-])[C@H]1O[C@H](Oc2cc3oc(-c4ccccc4)cc(=O)c3c(O)c2O)[C@@H](O)[C@@H](O)[C@@H]1O
REMARK SMILES IDX 7 1 6 2 4 3 31 4 5 5 29 6 27 7 2 8 1 9 3 10 32 11 30 13
REMARK SMILES IDX 28 15 8 17 25 18 9 19 23 20 10 21 22 22 11 23 20 24 12 25
REMARK SMILES IDX 19 26 21 27 26 28 24 30 13 32 14 33 18 34 15 35 17 36 16 37
REMARK H PARENT 32 12 30 14 28 16 26 29 24 31
REMARK Flexibility Score: inf
ROOT
ATOM      1  O   UNL     1     -46.967  28.525  18.358  1.00  0.00    -0.458 OA
ENDROOT
BRANCH   1   2
ATOM      2  C   UNL     1     -47.611  27.376  18.921  1.00  0.00     0.339 C 
ATOM      3  C   UNL     1     -45.562  26.330  19.391  1.00  0.00     0.199 C 
ATOM      4  C   UNL     1     -45.727  26.507  20.921  1.00  0.00     0.180 C 
ATOM      5  O   UNL     1     -46.825  26.205  18.751  1.00  0.00    -0.328 OA
ATOM      6  C   UNL     1     -46.635  27.716  21.223  1.00  0.00     0.181 C 
ATOM      7  C   UNL     1     -47.933  27.618  20.410  1.00  0.00     0.214 C 
BRANCH   3   8
ATOM      8  C   UNL     1     -44.745  25.100  19.110  1.00  0.00     0.073 C 
ATOM      9  O   UNL     1     -43.597  24.964  19.611  1.00  0.00    -0.547 OA
ATOM     10  O   UNL     1     -45.243  24.120  18.260  1.00  0.00    -0.547 OA
ENDBRANCH   3   8
BRANCH   4  11
ATOM     11  O   UNL     1     -44.474  26.655  21.550  1.00  0.00    -0.387 OA
ATOM     12  H   UNL     1     -44.180  25.750  21.840  1.00  0.00     0.211 HD
ENDBRANCH   4  11
BRANCH   6  13
ATOM     13  O   UNL     1     -46.945  27.763  22.593  1.00  0.00    -0.387 OA
ATOM     14  H   UNL     1     -47.153  26.828  22.874  1.00  0.00     0.211 HD
ENDBRANCH   6  13
BRANCH   7  15
ATOM     15  O   UNL     1     -48.728  26.570  20.907  1.00  0.00    -0.384 OA
ATOM     16  H   UNL     1     -49.677  26.850  20.804  1.00  0.00     0.211 HD
ENDBRANCH   7  15
ENDBRANCH   1   2
BRANCH   1  17
ATOM     17  C   UNL     1     -47.158  28.997  17.049  1.00  0.00     0.172 A 
ATOM     18  C   UNL     1     -47.471  30.352  16.873  1.00  0.00     0.201 A 
ATOM     19  C   UNL     1     -47.058  28.153  15.932  1.00  0.00     0.098 A 
ATOM     20  C   UNL     1     -47.660  30.879  15.569  1.00  0.00     0.176 A 
ATOM     21  C   UNL     1     -47.287  28.645  14.648  1.00  0.00     0.146 A 
ATOM     22  C   UNL     1     -47.578  30.014  14.450  1.00  0.00     0.111 A 
ATOM     23  O   UNL     1     -47.235  27.805  13.616  1.00  0.00    -0.456 OA
ATOM     24  C   UNL     1     -47.764  30.452  13.121  1.00  0.00     0.197 A 
ATOM     25  C   UNL     1     -47.450  28.177  12.357  1.00  0.00     0.138 A 
ATOM     26  C   UNL     1     -47.699  29.530  12.074  1.00  0.00     0.100 A 
ATOM     27  O   UNL     1     -47.992  31.663  12.852  1.00  0.00    -0.289 OA
BRANCH  18  28
ATOM     28  O   UNL     1     -47.593  31.138  18.022  1.00  0.00    -0.502 OA
ATOM     29  H   UNL     1     -46.963  31.102  18.805  1.00  0.00     0.293 HD
ENDBRANCH  18  28
BRANCH  20  30
ATOM     30  O   UNL     1     -47.922  32.238  15.367  1.00  0.00    -0.504 OA
ATOM     31  H   UNL     1     -48.819  32.611  15.099  1.00  0.00     0.293 HD
ENDBRANCH  20  30
BRANCH  25  32
ATOM     32  C   UNL     1     -47.411  27.144  11.288  1.00  0.00     0.017 A 
ATOM     33  C   UNL     1     -47.486  27.489   9.922  1.00  0.00     0.012 A 
ATOM     34  C   UNL     1     -47.346  25.783  11.642  1.00  0.00     0.012 A 
ATOM     35  C   UNL     1     -47.466  26.493   8.939  1.00  0.00     0.001 A 
ATOM     36  C   UNL     1     -47.334  24.792  10.654  1.00  0.00     0.001 A 
ATOM     37  C   UNL     1     -47.385  25.148   9.304  1.00  0.00     0.000 A 
ENDBRANCH  25  32
ENDBRANCH   1  17
TORSDOF 9
ENDMDL
MODEL 5
REMARK VINA RESULT:    -6.852      3.242      6.380
REMARK INTER + INTRA:         -10.243
REMARK INTER:                  -9.148
REMARK INTRA:                  -1.095
REMARK UNBOUND:                -0.787
REMARK SMILES O=C([O-])[C@H]1O[C@H](Oc2cc3oc(-c4ccccc4)cc(=O)c3c(O)c2O)[C@@H](O)[C@@H](O)[C@@H]1O
REMARK SMILES IDX 7 1 6 2 4 3 31 4 5 5 29 6 27 7 2 8 1 9 3 10 32 11 30 13
REMARK SMILES IDX 28 15 8 17 25 18 9 19 23 20 10 21 22 22 11 23 20 24 12 25
REMARK SMILES IDX 19 26 21 27 26 28 24 30 13 32 14 33 18 34 15 35 17 36 16 37
REMARK H PARENT 32 12 30 14 28 16 26 29 24 31
REMARK Flexibility Score: inf
ROOT
ATOM      1  O   UNL     1     -46.819  28.753  12.763  1.00  0.00    -0.458 OA
ENDROOT
BRANCH   1   2
ATOM      2  C   UNL     1     -47.604  29.951  12.822  1.00  0.00     0.339 C 
ATOM      3  C   UNL     1     -48.964  29.098  14.535  1.00  0.00     0.199 C 
ATOM      4  C   UNL     1     -48.382  30.066  15.595  1.00  0.00     0.180 C 
ATOM      5  O   UNL     1     -48.934  29.679  13.239  1.00  0.00    -0.328 OA
ATOM      6  C   UNL     1     -46.953  30.491  15.200  1.00  0.00     0.181 C 
ATOM      7  C   UNL     1     -46.932  30.986  13.747  1.00  0.00     0.214 C 
BRANCH   3   8
ATOM      8  C   UNL     1     -50.385  28.759  14.889  1.00  0.00     0.073 C 
ATOM      9  O   UNL     1     -51.323  29.551  14.607  1.00  0.00    -0.547 OA
ATOM     10  O   UNL     1     -50.666  27.578  15.567  1.00  0.00    -0.547 OA
ENDBRANCH   3   8
BRANCH   4  11
ATOM     11  O   UNL     1     -48.390  29.478  16.875  1.00  0.00    -0.387 OA
ATOM     12  H   UNL     1     -48.021  28.559  16.780  1.00  0.00     0.211 HD
ENDBRANCH   4  11
BRANCH   6  13
ATOM     13  O   UNL     1     -46.496  31.515  16.047  1.00  0.00    -0.387 OA
ATOM     14  H   UNL     1     -45.733  31.139  16.569  1.00  0.00     0.211 HD
ENDBRANCH   6  13
BRANCH   7  15
ATOM     15  O   UNL     1     -47.600  32.220  13.654  1.00  0.00    -0.384 OA
ATOM     16  H   UNL     1     -48.397  32.077  13.076  1.00  0.00     0.211 HD
ENDBRANCH   7  15
ENDBRANCH   1   2
BRANCH   1  17
ATOM     17  C   UNL     1     -47.090  27.651  11.937  1.00  0.00     0.172 A 
ATOM     18  C   UNL     1     -47.200  26.387  12.535  1.00  0.00     0.201 A 
ATOM     19  C   UNL     1     -47.238  27.780  10.547  1.00  0.00     0.098 A 
ATOM     20  C   UNL     1     -47.486  25.244  11.744  1.00  0.00     0.176 A 
ATOM     21  C   UNL     1     -47.472  26.660   9.751  1.00  0.00     0.146 A 
ATOM     22  C   UNL     1     -47.611  25.383  10.340  1.00  0.00     0.111 A 
ATOM     23  O   UNL     1     -47.554  26.813   8.430  1.00  0.00    -0.456 OA
ATOM     24  C   UNL     1     -47.883  24.297   9.478  1.00  0.00     0.197 A 
ATOM     25  C   UNL     1     -47.764  25.805   7.588  1.00  0.00     0.138 A 
ATOM     26  C   UNL     1     -47.960  24.512   8.100  1.00  0.00     0.100 A 
ATOM     27  O   UNL     1     -48.057  23.130   9.924  1.00  0.00    -0.289 OA
BRANCH  18  28
ATOM     28  O   UNL     1     -47.009  26.311  13.916  1.00  0.00    -0.502 OA
ATOM     29  H   UNL     1     -47.701  25.983  14.569  1.00  0.00     0.293 HD
ENDBRANCH  18  28
BRANCH  20  30
ATOM     30  O   UNL     1     -47.651  23.983  12.325  1.00  0.00    -0.504 OA
ATOM     31  H   UNL     1     -48.299  23.284  11.995  1.00  0.00     0.293 HD
ENDBRANCH  20  30
BRANCH  25  32
ATOM     32  C   UNL     1     -47.793  26.085   6.128  1.00  0.00     0.017 A 
ATOM     33  C   UNL     1     -48.001  25.061   5.181  1.00  0.00     0.012 A 
ATOM     34  C   UNL     1     -47.559  27.396   5.669  1.00  0.00     0.012 A 
ATOM     35  C   UNL     1     -48.004  25.352   3.813  1.00  0.00     0.001 A 
ATOM     36  C   UNL     1     -47.556  27.679   4.299  1.00  0.00     0.001 A 
ATOM     37  C   UNL     1     -47.787  26.659   3.372  1.00  0.00     0.000 A 
ENDBRANCH  25  32
ENDBRANCH   1  17
TORSDOF 9
ENDMDL
MODEL 6
REMARK VINA RESULT:    -6.849      3.992      6.921
REMARK INTER + INTRA:         -10.238
REMARK INTER:                  -8.948
REMARK INTRA:                  -1.290
REMARK UNBOUND:                -0.787
REMARK SMILES O=C([O-])[C@H]1O[C@H](Oc2cc3oc(-c4ccccc4)cc(=O)c3c(O)c2O)[C@@H](O)[C@@H](O)[C@@H]1O
REMARK SMILES IDX 7 1 6 2 4 3 31 4 5 5 29 6 27 7 2 8 1 9 3 10 32 11 30 13
REMARK SMILES IDX 28 15 8 17 25 18 9 19 23 20 10 21 22 22 11 23 20 24 12 25
REMARK SMILES IDX 19 26 21 27 26 28 24 30 13 32 14 33 18 34 15 35 17 36 16 37
REMARK H PARENT 32 12 30 14 28 16 26 29 24 31
REMARK Flexibility Score: inf
ROOT
ATOM      1  O   UNL     1     -45.279  24.172  18.404  1.00  0.00    -0.458 OA
ENDROOT
BRANCH   1   2
ATOM      2  C   UNL     1     -43.918  23.727  18.351  1.00  0.00     0.339 C 
ATOM      3  C   UNL     1     -44.255  22.163  20.070  1.00  0.00     0.199 C 
ATOM      4  C   UNL     1     -44.124  20.955  19.110  1.00  0.00     0.180 C 
ATOM      5  O   UNL     1     -43.475  23.262  19.618  1.00  0.00    -0.328 OA
ATOM      6  C   UNL     1     -44.511  21.369  17.676  1.00  0.00     0.181 C 
ATOM      7  C   UNL     1     -43.751  22.640  17.271  1.00  0.00     0.214 C 
BRANCH   3   8
ATOM      8  C   UNL     1     -43.795  21.768  21.446  1.00  0.00     0.073 C 
ATOM      9  O   UNL     1     -44.219  22.376  22.464  1.00  0.00    -0.547 OA
ATOM     10  O   UNL     1     -42.865  20.746  21.595  1.00  0.00    -0.547 OA
ENDBRANCH   3   8
BRANCH   4  11
ATOM     11  O   UNL     1     -44.918  19.875  19.547  1.00  0.00    -0.387 OA
ATOM     12  H   UNL     1     -44.793  19.796  20.531  1.00  0.00     0.211 HD
ENDBRANCH   4  11
BRANCH   6  13
ATOM     13  O   UNL     1     -44.209  20.337  16.772  1.00  0.00    -0.387 OA
ATOM     14  H   UNL     1     -43.995  20.772  15.899  1.00  0.00     0.211 HD
ENDBRANCH   6  13
BRANCH   7  15
ATOM     15  O   UNL     1     -42.388  22.343  17.093  1.00  0.00    -0.384 OA
ATOM     16  H   UNL     1     -41.871  23.073  17.528  1.00  0.00     0.211 HD
ENDBRANCH   7  15
ENDBRANCH   1   2
BRANCH   1  17
ATOM     17  C   UNL     1     -45.688  25.493  18.648  1.00  0.00     0.172 A 
ATOM     18  C   UNL     1     -45.875  25.893  19.978  1.00  0.00     0.201 A 
ATOM     19  C   UNL     1     -45.923  26.404  17.606  1.00  0.00     0.098 A 
ATOM     20  C   UNL     1     -46.275  27.221  20.277  1.00  0.00     0.176 A 
ATOM     21  C   UNL     1     -46.362  27.698  17.880  1.00  0.00     0.146 A 
ATOM     22  C   UNL     1     -46.531  28.126  19.217  1.00  0.00     0.111 A 
ATOM     23  O   UNL     1     -46.626  28.519  16.865  1.00  0.00    -0.456 OA
ATOM     24  C   UNL     1     -46.944  29.460  19.424  1.00  0.00     0.197 A 
ATOM     25  C   UNL     1     -47.059  29.767  17.025  1.00  0.00     0.138 A 
ATOM     26  C   UNL     1     -47.207  30.281  18.324  1.00  0.00     0.100 A 
ATOM     27  O   UNL     1     -47.083  29.934  20.584  1.00  0.00    -0.289 OA
BRANCH  18  28
ATOM     28  O   UNL     1     -45.661  24.936  20.973  1.00  0.00    -0.502 OA
ATOM     29  H   UNL     1     -45.315  25.141  21.895  1.00  0.00     0.293 HD
ENDBRANCH  18  28
BRANCH  20  30
ATOM     30  O   UNL     1     -46.417  27.656  21.598  1.00  0.00    -0.504 OA
ATOM     31  H   UNL     1     -46.813  28.545  21.866  1.00  0.00     0.293 HD
ENDBRANCH  20  30
BRANCH  25  32
ATOM     32  C   UNL     1     -47.365  30.579  15.819  1.00  0.00     0.017 A 
ATOM     33  C   UNL     1     -48.348  31.592  15.837  1.00  0.00     0.012 A 
ATOM     34  C   UNL     1     -46.696  30.306  14.611  1.00  0.00     0.012 A 
ATOM     35  C   UNL     1     -48.627  32.328  14.681  1.00  0.00     0.001 A 
ATOM     36  C   UNL     1     -46.986  31.040  13.456  1.00  0.00     0.001 A 
ATOM     37  C   UNL     1     -47.944  32.056  13.493  1.00  0.00     0.000 A 
ENDBRANCH  25  32
ENDBRANCH   1  17
TORSDOF 9
ENDMDL
MODEL 7
REMARK VINA RESULT:    -6.820      2.276      4.952
REMARK INTER + INTRA:         -10.198
REMARK INTER:                  -9.036
REMARK INTRA:                  -1.162
REMARK UNBOUND:                -0.787
REMARK SMILES O=C([O-])[C@H]1O[C@H](Oc2cc3oc(-c4ccccc4)cc(=O)c3c(O)c2O)[C@@H](O)[C@@H](O)[C@@H]1O
REMARK SMILES IDX 7 1 6 2 4 3 31 4 5 5 29 6 27 7 2 8 1 9 3 10 32 11 30 13
REMARK SMILES IDX 28 15 8 17 25 18 9 19 23 20 10 21 22 22 11 23 20 24 12 25
REMARK SMILES IDX 19 26 21 27 26 28 24 30 13 32 14 33 18 34 15 35 17 36 16 37
REMARK H PARENT 32 12 30 14 28 16 26 29 24 31
REMARK Flexibility Score: inf
ROOT
ATOM      1  O   UNL     1     -46.939  28.103  14.850  1.00  0.00    -0.458 OA
ENDROOT
BRANCH   1   2
ATOM      2  C   UNL     1     -48.229  28.522  15.312  1.00  0.00     0.339 C 
ATOM      3  C   UNL     1     -47.365  29.266  17.365  1.00  0.00     0.199 C 
ATOM      4  C   UNL     1     -47.598  30.758  17.018  1.00  0.00     0.180 C 
ATOM      5  O   UNL     1     -48.326  28.436  16.727  1.00  0.00    -0.328 OA
ATOM      6  C   UNL     1     -47.589  30.957  15.489  1.00  0.00     0.181 C 
ATOM      7  C   UNL     1     -48.536  29.951  14.820  1.00  0.00     0.214 C 
BRANCH   3   8
ATOM      8  C   UNL     1     -47.460  29.073  18.853  1.00  0.00     0.073 C 
ATOM      9  O   UNL     1     -46.463  29.285  19.593  1.00  0.00    -0.547 OA
ATOM     10  O   UNL     1     -48.647  28.621  19.416  1.00  0.00    -0.547 OA
ENDBRANCH   3   8
BRANCH   4  11
ATOM     11  O   UNL     1     -46.629  31.576  17.633  1.00  0.00    -0.387 OA
ATOM     12  H   UNL     1     -46.994  32.502  17.653  1.00  0.00     0.211 HD
ENDBRANCH   4  11
BRANCH   6  13
ATOM     13  O   UNL     1     -47.993  32.264  15.165  1.00  0.00    -0.387 OA
ATOM     14  H   UNL     1     -48.824  32.447  15.686  1.00  0.00     0.211 HD
ENDBRANCH   6  13
BRANCH   7  15
ATOM     15  O   UNL     1     -49.870  30.285  15.114  1.00  0.00    -0.384 OA
ATOM     16  H   UNL     1     -50.446  29.750  14.505  1.00  0.00     0.211 HD
ENDBRANCH   7  15
ENDBRANCH   1   2
BRANCH   1  17
ATOM     17  C   UNL     1     -46.639  27.723  13.532  1.00  0.00     0.172 A 
ATOM     18  C   UNL     1     -45.655  28.446  12.843  1.00  0.00     0.201 A 
ATOM     19  C   UNL     1     -47.299  26.662  12.893  1.00  0.00     0.098 A 
ATOM     20  C   UNL     1     -45.306  28.093  11.514  1.00  0.00     0.176 A 
ATOM     21  C   UNL     1     -47.002  26.333  11.572  1.00  0.00     0.146 A 
ATOM     22  C   UNL     1     -45.995  27.034  10.872  1.00  0.00     0.111 A 
ATOM     23  O   UNL     1     -47.686  25.355  10.981  1.00  0.00    -0.456 OA
ATOM     24  C   UNL     1     -45.720  26.625   9.548  1.00  0.00     0.197 A 
ATOM     25  C   UNL     1     -47.483  24.975   9.723  1.00  0.00     0.138 A 
ATOM     26  C   UNL     1     -46.466  25.592   8.975  1.00  0.00     0.100 A 
ATOM     27  O   UNL     1     -44.813  27.173   8.864  1.00  0.00    -0.289 OA
BRANCH  18  28
ATOM     28  O   UNL     1     -45.054  29.515  13.514  1.00  0.00    -0.502 OA
ATOM     29  H   UNL     1     -44.821  29.513  14.492  1.00  0.00     0.293 HD
ENDBRANCH  18  28
BRANCH  20  30
ATOM     30  O   UNL     1     -44.292  28.767  10.826  1.00  0.00    -0.504 OA
ATOM     31  H   UNL     1     -44.062  29.740  10.960  1.00  0.00     0.293 HD
ENDBRANCH  20  30
BRANCH  25  32
ATOM     32  C   UNL     1     -48.336  23.900   9.151  1.00  0.00     0.017 A 
ATOM     33  C   UNL     1     -49.010  24.064   7.923  1.00  0.00     0.012 A 
ATOM     34  C   UNL     1     -48.521  22.705   9.872  1.00  0.00     0.012 A 
ATOM     35  C   UNL     1     -49.822  23.042   7.419  1.00  0.00     0.001 A 
ATOM     36  C   UNL     1     -49.340  21.689   9.366  1.00  0.00     0.001 A 
ATOM     37  C   UNL     1     -49.983  21.855   8.137  1.00  0.00     0.000 A 
ENDBRANCH  25  32
ENDBRANCH   1  17
TORSDOF 9
ENDMDL
MODEL 8
REMARK VINA RESULT:    -6.774      2.441      4.062
REMARK INTER + INTRA:         -10.135
REMARK INTER:                  -9.032
REMARK INTRA:                  -1.104
REMARK UNBOUND:                -0.787
REMARK SMILES O=C([O-])[C@H]1O[C@H](Oc2cc3oc(-c4ccccc4)cc(=O)c3c(O)c2O)[C@@H](O)[C@@H](O)[C@@H]1O
REMARK SMILES IDX 7 1 6 2 4 3 31 4 5 5 29 6 27 7 2 8 1 9 3 10 32 11 30 13
REMARK SMILES IDX 28 15 8 17 25 18 9 19 23 20 10 21 22 22 11 23 20 24 12 25
REMARK SMILES IDX 19 26 21 27 26 28 24 30 13 32 14 33 18 34 15 35 17 36 16 37
REMARK H PARENT 32 12 30 14 28 16 26 29 24 31
REMARK Flexibility Score: inf
ROOT
ATOM      1  O   UNL     1     -47.378  29.789  15.912  1.00  0.00    -0.458 OA
ENDROOT
BRANCH   1   2
ATOM      2  C   UNL     1     -47.469  29.072  17.150  1.00  0.00     0.339 C 
ATOM      3  C   UNL     1     -45.222  29.498  17.681  1.00  0.00     0.199 C 
ATOM      4  C   UNL     1     -45.590  30.467  18.832  1.00  0.00     0.180 C 
ATOM      5  O   UNL     1     -46.220  28.501  17.512  1.00  0.00    -0.328 OA
ATOM      6  C   UNL     1     -46.976  31.093  18.579  1.00  0.00     0.181 C 
ATOM      7  C   UNL     1     -48.002  29.996  18.264  1.00  0.00     0.214 C 
BRANCH   3   8
ATOM      8  C   UNL     1     -43.908  28.832  17.982  1.00  0.00     0.073 C 
ATOM      9  O   UNL     1     -43.871  27.636  18.376  1.00  0.00    -0.547 OA
ATOM     10  O   UNL     1     -42.725  29.551  17.861  1.00  0.00    -0.547 OA
ENDBRANCH   3   8
BRANCH   4  11
ATOM     11  O   UNL     1     -44.610  31.469  18.981  1.00  0.00    -0.387 OA
ATOM     12  H   UNL     1     -44.239  31.385  19.901  1.00  0.00     0.211 HD
ENDBRANCH   4  11
BRANCH   6  13
ATOM     13  O   UNL     1     -47.398  31.817  19.707  1.00  0.00    -0.387 OA
ATOM     14  H   UNL     1     -46.933  31.418  20.496  1.00  0.00     0.211 HD
ENDBRANCH   6  13
BRANCH   7  15
ATOM     15  O   UNL     1     -48.268  29.246  19.424  1.00  0.00    -0.384 OA
ATOM     16  H   UNL     1     -48.426  29.896  20.160  1.00  0.00     0.211 HD
ENDBRANCH   7  15
ENDBRANCH   1   2
BRANCH   1  17
ATOM     17  C   UNL     1     -46.858  29.269  14.716  1.00  0.00     0.172 A 
ATOM     18  C   UNL     1     -45.844  29.988  14.067  1.00  0.00     0.201 A 
ATOM     19  C   UNL     1     -47.331  28.072  14.155  1.00  0.00     0.098 A 
ATOM     20  C   UNL     1     -45.277  29.497  12.863  1.00  0.00     0.176 A 
ATOM     21  C   UNL     1     -46.819  27.601  12.948  1.00  0.00     0.146 A 
ATOM     22  C   UNL     1     -45.778  28.300  12.294  1.00  0.00     0.111 A 
ATOM     23  O   UNL     1     -47.328  26.490  12.420  1.00  0.00    -0.456 OA
ATOM     24  C   UNL     1     -45.281  27.748  11.093  1.00  0.00     0.197 A 
ATOM     25  C   UNL     1     -46.913  25.969  11.268  1.00  0.00     0.138 A 
ATOM     26  C   UNL     1     -45.851  26.579  10.582  1.00  0.00     0.100 A 
ATOM     27  O   UNL     1     -44.329  28.287  10.465  1.00  0.00    -0.289 OA
BRANCH  18  28
ATOM     28  O   UNL     1     -45.435  31.190  14.650  1.00  0.00    -0.502 OA
ATOM     29  H   UNL     1     -45.461  31.381  15.637  1.00  0.00     0.293 HD
ENDBRANCH  18  28
BRANCH  20  30
ATOM     30  O   UNL     1     -44.230  30.171  12.226  1.00  0.00    -0.504 OA
ATOM     31  H   UNL     1     -44.138  30.266  11.226  1.00  0.00     0.293 HD
ENDBRANCH  20  30
BRANCH  25  32
ATOM     32  C   UNL     1     -47.586  24.749  10.750  1.00  0.00     0.017 A 
ATOM     33  C   UNL     1     -47.859  23.643  11.582  1.00  0.00     0.012 A 
ATOM     34  C   UNL     1     -47.919  24.668   9.384  1.00  0.00     0.012 A 
ATOM     35  C   UNL     1     -48.477  22.501  11.062  1.00  0.00     0.001 A 
ATOM     36  C   UNL     1     -48.530  23.520   8.868  1.00  0.00     0.001 A 
ATOM     37  C   UNL     1     -48.816  22.441   9.708  1.00  0.00     0.000 A 
ENDBRANCH  25  32
ENDBRANCH   1  17
TORSDOF 9
ENDMDL
MODEL 9
REMARK VINA RESULT:    -6.764      3.793      7.610
REMARK INTER + INTRA:         -10.122
REMARK INTER:                  -9.186
REMARK INTRA:                  -0.936
REMARK UNBOUND:                -0.787
REMARK SMILES O=C([O-])[C@H]1O[C@H](Oc2cc3oc(-c4ccccc4)cc(=O)c3c(O)c2O)[C@@H](O)[C@@H](O)[C@@H]1O
REMARK SMILES IDX 7 1 6 2 4 3 31 4 5 5 29 6 27 7 2 8 1 9 3 10 32 11 30 13
REMARK SMILES IDX 28 15 8 17 25 18 9 19 23 20 10 21 22 22 11 23 20 24 12 25
REMARK SMILES IDX 19 26 21 27 26 28 24 30 13 32 14 33 18 34 15 35 17 36 16 37
REMARK H PARENT 32 12 30 14 28 16 26 29 24 31
REMARK Flexibility Score: inf
ROOT
ATOM      1  O   UNL     1     -46.410  29.824  16.363  1.00  0.00    -0.458 OA
ENDROOT
BRANCH   1   2
ATOM      2  C   UNL     1     -47.751  29.494  16.745  1.00  0.00     0.339 C 
ATOM      3  C   UNL     1     -48.666  30.672  14.931  1.00  0.00     0.199 C 
ATOM      4  C   UNL     1     -49.123  29.377  14.213  1.00  0.00     0.180 C 
ATOM      5  O   UNL     1     -48.668  30.502  16.342  1.00  0.00    -0.328 OA
ATOM      6  C   UNL     1     -48.235  28.191  14.639  1.00  0.00     0.181 C 
ATOM      7  C   UNL     1     -48.148  28.120  16.170  1.00  0.00     0.214 C 
BRANCH   3   8
ATOM      8  C   UNL     1     -49.591  31.801  14.572  1.00  0.00     0.073 C 
ATOM      9  O   UNL     1     -50.837  31.624  14.533  1.00  0.00    -0.547 OA
ATOM     10  O   UNL     1     -49.066  33.045  14.241  1.00  0.00    -0.547 OA
ENDBRANCH   3   8
BRANCH   4  11
ATOM     11  O   UNL     1     -49.097  29.541  12.813  1.00  0.00    -0.387 OA
ATOM     12  H   UNL     1     -50.036  29.478  12.491  1.00  0.00     0.211 HD
ENDBRANCH   4  11
BRANCH   6  13
ATOM     13  O   UNL     1     -48.763  26.985  14.146  1.00  0.00    -0.387 OA
ATOM     14  H   UNL     1     -49.662  27.198  13.765  1.00  0.00     0.211 HD
ENDBRANCH   6  13
BRANCH   7  15
ATOM     15  O   UNL     1     -49.387  27.716  16.699  1.00  0.00    -0.384 OA
ATOM     16  H   UNL     1     -49.903  27.309  15.954  1.00  0.00     0.211 HD
ENDBRANCH   7  15
ENDBRANCH   1   2
BRANCH   1  17
ATOM     17  C   UNL     1     -45.268  29.590  17.145  1.00  0.00     0.172 A 
ATOM     18  C   UNL     1     -44.352  30.639  17.310  1.00  0.00     0.201 A 
ATOM     19  C   UNL     1     -45.017  28.346  17.745  1.00  0.00     0.098 A 
ATOM     20  C   UNL     1     -43.189  30.456  18.102  1.00  0.00     0.176 A 
ATOM     21  C   UNL     1     -43.856  28.136  18.486  1.00  0.00     0.146 A 
ATOM     22  C   UNL     1     -42.935  29.190  18.684  1.00  0.00     0.111 A 
ATOM     23  O   UNL     1     -43.626  26.927  18.997  1.00  0.00    -0.456 OA
ATOM     24  C   UNL     1     -41.798  28.918  19.475  1.00  0.00     0.197 A 
ATOM     25  C   UNL     1     -42.543  26.626  19.709  1.00  0.00     0.138 A 
ATOM     26  C   UNL     1     -41.604  27.633  19.988  1.00  0.00     0.100 A 
ATOM     27  O   UNL     1     -40.945  29.811  19.731  1.00  0.00    -0.289 OA
BRANCH  18  28
ATOM     28  O   UNL     1     -44.632  31.845  16.662  1.00  0.00    -0.502 OA
ATOM     29  H   UNL     1     -45.499  32.051  16.194  1.00  0.00     0.293 HD
ENDBRANCH  18  28
BRANCH  20  30
ATOM     30  O   UNL     1     -42.289  31.504  18.322  1.00  0.00    -0.504 OA
ATOM     31  H   UNL     1     -41.636  31.542  19.090  1.00  0.00     0.293 HD
ENDBRANCH  20  30
BRANCH  25  32
ATOM     32  C   UNL     1     -42.368  25.231  20.192  1.00  0.00     0.017 A 
ATOM     33  C   UNL     1     -41.748  24.948  21.427  1.00  0.00     0.012 A 
ATOM     34  C   UNL     1     -42.786  24.159  19.380  1.00  0.00     0.012 A 
ATOM     35  C   UNL     1     -41.580  23.624  21.847  1.00  0.00     0.001 A 
ATOM     36  C   UNL     1     -42.608  22.837  19.803  1.00  0.00     0.001 A 
ATOM     37  C   UNL     1     -42.014  22.570  21.039  1.00  0.00     0.000 A 
ENDBRANCH  25  32
ENDBRANCH   1  17
TORSDOF 9
ENDMDL
