MODEL 1
REMARK VINA RESULT:     6.982      0.000      0.000
REMARK INTER + INTRA:           8.708
REMARK INTER:                   8.411
REMARK INTRA:                   0.297
REMARK UNBOUND:                 0.297
REMARK SMILES O=c1c(O)c(-c2ccc(O)c(O)c2)oc2cc(O)cc(O)c12
REMARK SMILES IDX 5 1 3 2 2 3 1 4 22 5 20 6 19 7 17 8 16 9 15 10 14 11 6 12
REMARK SMILES IDX 7 13 8 14 9 15 13 16 11 17 10 18 12 20 4 22 21 24 18 26
REMARK H PARENT 10 19 12 21 4 23 21 25 18 27
REMARK Flexibility Score: inf
ROOT
ATOM      1  C   UNL     1     -22.398  11.507   5.231  1.00  0.00     0.180 A 
ATOM      2  C   UNL     1     -21.167  11.206   4.619  1.00  0.00     0.208 A 
ATOM      3  C   UNL     1     -20.831   9.861   4.397  1.00  0.00     0.238 A 
ATOM      4  O   UNL     1     -19.735   9.579   3.840  1.00  0.00    -0.285 OA
ATOM      5  C   UNL     1     -21.718   8.844   4.807  1.00  0.00     0.111 A 
ATOM      6  C   UNL     1     -21.453   7.466   4.624  1.00  0.00     0.134 A 
ATOM      7  C   UNL     1     -22.382   6.513   5.069  1.00  0.00     0.093 A 
ATOM      8  C   UNL     1     -23.568   6.911   5.691  1.00  0.00     0.123 A 
ATOM      9  C   UNL     1     -23.835   8.272   5.874  1.00  0.00     0.094 A 
ATOM     10  C   UNL     1     -22.922   9.236   5.437  1.00  0.00     0.146 A 
ATOM     11  O   UNL     1     -23.203  10.522   5.618  1.00  0.00    -0.452 OA
ENDROOT
BRANCH   1  12
ATOM     12  C   UNL     1     -22.833  12.900   5.482  1.00  0.00     0.025 A 
ATOM     13  C   UNL     1     -24.201  13.211   5.466  1.00  0.00     0.016 A 
ATOM     14  C   UNL     1     -24.633  14.523   5.680  1.00  0.00     0.051 A 
ATOM     15  C   UNL     1     -23.700  15.546   5.897  1.00  0.00     0.157 A 
ATOM     16  C   UNL     1     -21.899  13.934   5.681  1.00  0.00     0.062 A 
ATOM     17  C   UNL     1     -22.331  15.252   5.894  1.00  0.00     0.158 A 
BRANCH  15  18
ATOM     18  O   UNL     1     -24.125  16.855   6.112  1.00  0.00    -0.504 OA
ATOM     19  H   UNL     1     -23.663  17.459   6.783  1.00  0.00     0.293 HD
ENDBRANCH  15  18
BRANCH  17  20
ATOM     20  O   UNL     1     -21.405  16.273   6.097  1.00  0.00    -0.504 OA
ATOM     21  H   UNL     1     -21.656  17.129   6.579  1.00  0.00     0.293 HD
ENDBRANCH  17  20
ENDBRANCH   1  12
BRANCH   2  22
ATOM     22  O   UNL     1     -20.284  12.229   4.267  1.00  0.00    -0.502 OA
ATOM     23  H   UNL     1     -20.009  12.404   3.308  1.00  0.00     0.293 HD
ENDBRANCH   2  22
BRANCH   6  24
ATOM     24  O   UNL     1     -20.277   7.036   4.007  1.00  0.00    -0.507 OA
ATOM     25  H   UNL     1     -20.188   6.104   3.619  1.00  0.00     0.293 HD
ENDBRANCH   6  24
BRANCH   8  26
ATOM     26  O   UNL     1     -24.474   5.946   6.124  1.00  0.00    -0.508 OA
ATOM     27  H   UNL     1     -24.266   4.957   6.060  1.00  0.00     0.293 HD
ENDBRANCH   8  26
TORSDOF 6
ENDMDL
MODEL 2
REMARK VINA RESULT:     7.484      0.850      1.480
REMARK INTER + INTRA:           9.313
REMARK INTER:                   9.324
REMARK INTRA:                  -0.011
REMARK UNBOUND:                 0.297
REMARK SMILES O=c1c(O)c(-c2ccc(O)c(O)c2)oc2cc(O)cc(O)c12
REMARK SMILES IDX 5 1 3 2 2 3 1 4 22 5 20 6 19 7 17 8 16 9 15 10 14 11 6 12
REMARK SMILES IDX 7 13 8 14 9 15 13 16 11 17 10 18 12 20 4 22 21 24 18 26
REMARK H PARENT 10 19 12 21 4 23 21 25 18 27
REMARK Flexibility Score: inf
ROOT
ATOM      1  C   UNL     1     -22.245  11.941   5.087  1.00  0.00     0.180 A 
ATOM      2  C   UNL     1     -21.024  11.454   4.583  1.00  0.00     0.208 A 
ATOM      3  C   UNL     1     -20.847  10.067   4.459  1.00  0.00     0.238 A 
ATOM      4  O   UNL     1     -19.761   9.619   3.998  1.00  0.00    -0.285 OA
ATOM      5  C   UNL     1     -21.880   9.194   4.857  1.00  0.00     0.111 A 
ATOM      6  C   UNL     1     -21.780   7.785   4.768  1.00  0.00     0.134 A 
ATOM      7  C   UNL     1     -22.849   6.983   5.194  1.00  0.00     0.093 A 
ATOM      8  C   UNL     1     -24.013   7.561   5.707  1.00  0.00     0.123 A 
ATOM      9  C   UNL     1     -24.118   8.953   5.797  1.00  0.00     0.094 A 
ATOM     10  C   UNL     1     -23.064   9.769   5.376  1.00  0.00     0.146 A 
ATOM     11  O   UNL     1     -23.191  11.088   5.467  1.00  0.00    -0.452 OA
ENDROOT
BRANCH   1  12
ATOM     12  C   UNL     1     -22.515  13.390   5.231  1.00  0.00     0.025 A 
ATOM     13  C   UNL     1     -21.621  14.190   5.959  1.00  0.00     0.016 A 
ATOM     14  C   UNL     1     -21.866  15.557   6.125  1.00  0.00     0.051 A 
ATOM     15  C   UNL     1     -23.017  16.138   5.578  1.00  0.00     0.157 A 
ATOM     16  C   UNL     1     -23.680  13.975   4.700  1.00  0.00     0.062 A 
ATOM     17  C   UNL     1     -23.928  15.345   4.868  1.00  0.00     0.158 A 
BRANCH  15  18
ATOM     18  O   UNL     1     -23.266  17.499   5.739  1.00  0.00    -0.504 OA
ATOM     19  H   UNL     1     -23.122  17.963   6.629  1.00  0.00     0.293 HD
ENDBRANCH  15  18
BRANCH  17  20
ATOM     20  O   UNL     1     -25.079  15.923   4.336  1.00  0.00    -0.504 OA
ATOM     21  H   UNL     1     -25.626  16.595   4.862  1.00  0.00     0.293 HD
ENDBRANCH  17  20
ENDBRANCH   1  12
BRANCH   2  22
ATOM     22  O   UNL     1     -19.998  12.338   4.242  1.00  0.00    -0.502 OA
ATOM     23  H   UNL     1     -20.115  13.064   3.545  1.00  0.00     0.293 HD
ENDBRANCH   2  22
BRANCH   6  24
ATOM     24  O   UNL     1     -20.630   7.177   4.261  1.00  0.00    -0.507 OA
ATOM     25  H   UNL     1     -19.734   7.649   4.259  1.00  0.00     0.293 HD
ENDBRANCH   6  24
BRANCH   8  26
ATOM     26  O   UNL     1     -25.060   6.743   6.124  1.00  0.00    -0.508 OA
ATOM     27  H   UNL     1     -25.982   7.116   6.312  1.00  0.00     0.293 HD
ENDBRANCH   8  26
TORSDOF 6
ENDMDL
