MODEL 1
REMARK VINA RESULT:    -4.166      0.000      0.000
REMARK INTER + INTRA:          -6.683
REMARK INTER:                  -6.358
REMARK INTRA:                  -0.325
REMARK UNBOUND:                -0.325
REMARK SMILES O=C([O-])CCCCCCCCC(=O)[O-]
REMARK SMILES IDX 7 1 6 2 5 3 4 4 2 5 1 6 3 7 8 8 9 9 10 10 11 11 12 12 13 13
REMARK SMILES IDX 14 14
REMARK H PARENT
REMARK Flexibility Score: inf
ROOT
ATOM      1  C   UNL     1     -33.984 -51.964  26.523  1.00  0.00     0.000 C 
ENDROOT
BRANCH   1   2
ATOM      2  C   UNL     1     -34.835 -53.000  27.280  1.00  0.00     0.000 C 
BRANCH   2   3
ATOM      3  C   UNL     1     -35.245 -52.592  28.707  1.00  0.00     0.006 C 
BRANCH   3   4
ATOM      4  C   UNL     1     -34.867 -53.639  29.762  1.00  0.00     0.053 C 
BRANCH   4   5
ATOM      5  C   UNL     1     -35.720 -54.860  29.616  1.00  0.00     0.041 C 
ATOM      6  O   UNL     1     -35.196 -56.005  29.646  1.00  0.00    -0.550 OA
ATOM      7  O   UNL     1     -37.097 -54.735  29.498  1.00  0.00    -0.550 OA
ENDBRANCH   4   5
ENDBRANCH   3   4
ENDBRANCH   2   3
ENDBRANCH   1   2
BRANCH   1   8
ATOM      8  C   UNL     1     -34.236 -51.977  25.005  1.00  0.00     0.000 C 
BRANCH   8   9
ATOM      9  C   UNL     1     -33.069 -51.368  24.209  1.00  0.00     0.000 C 
BRANCH   9  10
ATOM     10  C   UNL     1     -33.352 -49.925  23.755  1.00  0.00     0.006 C 
BRANCH  10  11
ATOM     11  C   UNL     1     -34.849 -49.591  23.789  1.00  0.00     0.053 C 
BRANCH  11  12
ATOM     12  C   UNL     1     -35.091 -48.117  23.898  1.00  0.00     0.041 C 
ATOM     13  O   UNL     1     -36.233 -47.683  24.199  1.00  0.00    -0.550 OA
ATOM     14  O   UNL     1     -34.046 -47.223  23.699  1.00  0.00    -0.550 OA
ENDBRANCH  11  12
ENDBRANCH  10  11
ENDBRANCH   9  10
ENDBRANCH   8   9
ENDBRANCH   1   8
TORSDOF 9
ENDMDL
MODEL 2
REMARK VINA RESULT:    -4.163      5.513      8.013
REMARK INTER + INTRA:          -6.678
REMARK INTER:                  -6.349
REMARK INTRA:                  -0.329
REMARK UNBOUND:                -0.325
REMARK SMILES O=C([O-])CCCCCCCCC(=O)[O-]
REMARK SMILES IDX 7 1 6 2 5 3 4 4 2 5 1 6 3 7 8 8 9 9 10 10 11 11 12 12 13 13
REMARK SMILES IDX 14 14
REMARK H PARENT
REMARK Flexibility Score: inf
ROOT
ATOM      1  C   UNL     1     -32.978 -53.255  32.612  1.00  0.00     0.000 C 
ENDROOT
BRANCH   1   2
ATOM      2  C   UNL     1     -31.977 -52.493  33.501  1.00  0.00     0.000 C 
BRANCH   2   3
ATOM      3  C   UNL     1     -30.726 -53.292  33.911  1.00  0.00     0.006 C 
BRANCH   3   4
ATOM      4  C   UNL     1     -29.416 -52.566  33.582  1.00  0.00     0.053 C 
BRANCH   4   5
ATOM      5  C   UNL     1     -28.243 -53.369  34.048  1.00  0.00     0.041 C 
ATOM      6  O   UNL     1     -28.216 -54.615  33.868  1.00  0.00    -0.550 OA
ATOM      7  O   UNL     1     -27.157 -52.734  34.636  1.00  0.00    -0.550 OA
ENDBRANCH   4   5
ENDBRANCH   3   4
ENDBRANCH   2   3
ENDBRANCH   1   2
BRANCH   1   8
ATOM      8  C   UNL     1     -32.806 -52.944  31.115  1.00  0.00     0.000 C 
BRANCH   8   9
ATOM      9  C   UNL     1     -34.030 -53.360  30.283  1.00  0.00     0.000 C 
BRANCH   9  10
ATOM     10  C   UNL     1     -33.881 -54.764  29.670  1.00  0.00     0.006 C 
BRANCH  10  11
ATOM     11  C   UNL     1     -35.173 -55.584  29.784  1.00  0.00     0.053 C 
BRANCH  11  12
ATOM     12  C   UNL     1     -36.328 -54.903  29.116  1.00  0.00     0.041 C 
ATOM     13  O   UNL     1     -37.373 -54.643  29.767  1.00  0.00    -0.550 OA
ATOM     14  O   UNL     1     -36.238 -54.527  27.781  1.00  0.00    -0.550 OA
ENDBRANCH  11  12
ENDBRANCH  10  11
ENDBRANCH   9  10
ENDBRANCH   8   9
ENDBRANCH   1   8
TORSDOF 9
ENDMDL
MODEL 3
REMARK VINA RESULT:    -4.145      6.749      7.631
REMARK INTER + INTRA:          -6.651
REMARK INTER:                  -6.057
REMARK INTRA:                  -0.594
REMARK UNBOUND:                -0.325
REMARK SMILES O=C([O-])CCCCCCCCC(=O)[O-]
REMARK SMILES IDX 7 1 6 2 5 3 4 4 2 5 1 6 3 7 8 8 9 9 10 10 11 11 12 12 13 13
REMARK SMILES IDX 14 14
REMARK H PARENT
REMARK Flexibility Score: inf
ROOT
ATOM      1  C   UNL     1     -34.543 -46.929  25.690  1.00  0.00     0.000 C 
ENDROOT
BRANCH   1   2
ATOM      2  C   UNL     1     -35.390 -45.847  26.386  1.00  0.00     0.000 C 
BRANCH   2   3
ATOM      3  C   UNL     1     -35.199 -45.749  27.911  1.00  0.00     0.006 C 
BRANCH   3   4
ATOM      4  C   UNL     1     -36.182 -44.778  28.577  1.00  0.00     0.053 C 
BRANCH   4   5
ATOM      5  C   UNL     1     -35.440 -43.698  29.300  1.00  0.00     0.041 C 
ATOM      6  O   UNL     1     -35.337 -43.731  30.555  1.00  0.00    -0.550 OA
ATOM      7  O   UNL     1     -34.822 -42.681  28.585  1.00  0.00    -0.550 OA
ENDBRANCH   4   5
ENDBRANCH   3   4
ENDBRANCH   2   3
ENDBRANCH   1   2
BRANCH   1   8
ATOM      8  C   UNL     1     -34.874 -47.077  24.194  1.00  0.00     0.000 C 
BRANCH   8   9
ATOM      9  C   UNL     1     -34.049 -46.125  23.312  1.00  0.00     0.000 C 
BRANCH   9  10
ATOM     10  C   UNL     1     -32.565 -46.076  23.721  1.00  0.00     0.006 C 
BRANCH  10  11
ATOM     11  C   UNL     1     -31.938 -44.702  23.454  1.00  0.00     0.053 C 
BRANCH  11  12
ATOM     12  C   UNL     1     -32.768 -43.589  24.017  1.00  0.00     0.041 C 
ATOM     13  O   UNL     1     -33.281 -42.732  23.251  1.00  0.00    -0.550 OA
ATOM     14  O   UNL     1     -33.001 -43.517  25.384  1.00  0.00    -0.550 OA
ENDBRANCH  11  12
ENDBRANCH  10  11
ENDBRANCH   9  10
ENDBRANCH   8   9
ENDBRANCH   1   8
TORSDOF 9
ENDMDL
MODEL 4
REMARK VINA RESULT:    -4.119      5.451      8.792
REMARK INTER + INTRA:          -6.611
REMARK INTER:                  -6.284
REMARK INTRA:                  -0.328
REMARK UNBOUND:                -0.325
REMARK SMILES O=C([O-])CCCCCCCCC(=O)[O-]
REMARK SMILES IDX 7 1 6 2 5 3 4 4 2 5 1 6 3 7 8 8 9 9 10 10 11 11 12 12 13 13
REMARK SMILES IDX 14 14
REMARK H PARENT
REMARK Flexibility Score: inf
ROOT
ATOM      1  C   UNL     1     -33.182 -53.253  32.856  1.00  0.00     0.000 C 
ENDROOT
BRANCH   1   2
ATOM      2  C   UNL     1     -33.082 -53.147  31.322  1.00  0.00     0.000 C 
BRANCH   2   3
ATOM      3  C   UNL     1     -33.612 -54.368  30.547  1.00  0.00     0.006 C 
BRANCH   3   4
ATOM      4  C   UNL     1     -34.470 -53.982  29.336  1.00  0.00     0.053 C 
BRANCH   4   5
ATOM      5  C   UNL     1     -35.539 -55.003  29.107  1.00  0.00     0.041 C 
ATOM      6  O   UNL     1     -35.237 -56.159  28.708  1.00  0.00    -0.550 OA
ATOM      7  O   UNL     1     -36.865 -54.695  29.381  1.00  0.00    -0.550 OA
ENDBRANCH   4   5
ENDBRANCH   3   4
ENDBRANCH   2   3
ENDBRANCH   1   2
BRANCH   1   8
ATOM      8  C   UNL     1     -31.830 -53.562  33.523  1.00  0.00     0.000 C 
BRANCH   8   9
ATOM      9  C   UNL     1     -31.250 -52.348  34.268  1.00  0.00     0.000 C 
BRANCH   9  10
ATOM     10  C   UNL     1     -29.757 -52.516  34.601  1.00  0.00     0.006 C 
BRANCH  10  11
ATOM     11  C   UNL     1     -28.877 -52.484  33.345  1.00  0.00     0.053 C 
BRANCH  11  12
ATOM     12  C   UNL     1     -27.921 -53.637  33.302  1.00  0.00     0.041 C 
ATOM     13  O   UNL     1     -28.167 -54.688  33.949  1.00  0.00    -0.550 OA
ATOM     14  O   UNL     1     -26.773 -53.562  32.523  1.00  0.00    -0.550 OA
ENDBRANCH  11  12
ENDBRANCH  10  11
ENDBRANCH   9  10
ENDBRANCH   8   9
ENDBRANCH   1   8
TORSDOF 9
ENDMDL
MODEL 5
REMARK VINA RESULT:    -4.037      1.345      7.452
REMARK INTER + INTRA:          -6.486
REMARK INTER:                  -5.996
REMARK INTRA:                  -0.490
REMARK UNBOUND:                -0.325
REMARK SMILES O=C([O-])CCCCCCCCC(=O)[O-]
REMARK SMILES IDX 7 1 6 2 5 3 4 4 2 5 1 6 3 7 8 8 9 9 10 10 11 11 12 12 13 13
REMARK SMILES IDX 14 14
REMARK H PARENT
REMARK Flexibility Score: inf
ROOT
ATOM      1  C   UNL     1     -33.255 -51.507  26.098  1.00  0.00     0.000 C 
ENDROOT
BRANCH   1   2
ATOM      2  C   UNL     1     -34.252 -51.821  24.967  1.00  0.00     0.000 C 
BRANCH   2   3
ATOM      3  C   UNL     1     -34.751 -50.597  24.177  1.00  0.00     0.006 C 
BRANCH   3   4
ATOM      4  C   UNL     1     -33.954 -49.323  24.479  1.00  0.00     0.053 C 
BRANCH   4   5
ATOM      5  C   UNL     1     -33.843 -48.472  23.254  1.00  0.00     0.041 C 
ATOM      6  O   UNL     1     -33.500 -48.984  22.156  1.00  0.00    -0.550 OA
ATOM      7  O   UNL     1     -34.166 -47.123  23.313  1.00  0.00    -0.550 OA
ENDBRANCH   4   5
ENDBRANCH   3   4
ENDBRANCH   2   3
ENDBRANCH   1   2
BRANCH   1   8
ATOM      8  C   UNL     1     -33.552 -52.286  27.391  1.00  0.00     0.000 C 
BRANCH   8   9
ATOM      9  C   UNL     1     -34.921 -52.986  27.355  1.00  0.00     0.000 C 
BRANCH   9  10
ATOM     10  C   UNL     1     -35.658 -52.916  28.705  1.00  0.00     0.006 C 
BRANCH  10  11
ATOM     11  C   UNL     1     -36.234 -54.276  29.120  1.00  0.00     0.053 C 
BRANCH  11  12
ATOM     12  C   UNL     1     -35.161 -55.306  29.300  1.00  0.00     0.041 C 
ATOM     13  O   UNL     1     -34.246 -55.126  30.145  1.00  0.00    -0.550 OA
ATOM     14  O   UNL     1     -35.190 -56.480  28.557  1.00  0.00    -0.550 OA
ENDBRANCH  11  12
ENDBRANCH  10  11
ENDBRANCH   9  10
ENDBRANCH   8   9
ENDBRANCH   1   8
TORSDOF 9
ENDMDL
MODEL 6
REMARK VINA RESULT:    -4.023      7.411     10.028
REMARK INTER + INTRA:          -6.465
REMARK INTER:                  -5.832
REMARK INTRA:                  -0.634
REMARK UNBOUND:                -0.325
REMARK SMILES O=C([O-])CCCCCCCCC(=O)[O-]
REMARK SMILES IDX 7 1 6 2 5 3 4 4 2 5 1 6 3 7 8 8 9 9 10 10 11 11 12 12 13 13
REMARK SMILES IDX 14 14
REMARK H PARENT
REMARK Flexibility Score: inf
ROOT
ATOM      1  C   UNL     1     -34.019 -44.898  31.691  1.00  0.00     0.000 C 
ENDROOT
BRANCH   1   2
ATOM      2  C   UNL     1     -35.226 -44.045  31.261  1.00  0.00     0.000 C 
BRANCH   2   3
ATOM      3  C   UNL     1     -35.269 -43.680  29.765  1.00  0.00     0.006 C 
BRANCH   3   4
ATOM      4  C   UNL     1     -34.248 -44.461  28.929  1.00  0.00     0.053 C 
BRANCH   4   5
ATOM      5  C   UNL     1     -34.934 -45.199  27.822  1.00  0.00     0.041 C 
ATOM      6  O   UNL     1     -34.918 -46.458  27.796  1.00  0.00    -0.550 OA
ATOM      7  O   UNL     1     -35.631 -44.498  26.847  1.00  0.00    -0.550 OA
ENDBRANCH   4   5
ENDBRANCH   3   4
ENDBRANCH   2   3
ENDBRANCH   1   2
BRANCH   1   8
ATOM      8  C   UNL     1     -33.477 -44.512  33.079  1.00  0.00     0.000 C 
BRANCH   8   9
ATOM      9  C   UNL     1     -33.705 -45.614  34.127  1.00  0.00     0.000 C 
BRANCH   9  10
ATOM     10  C   UNL     1     -33.615 -47.029  33.528  1.00  0.00     0.006 C 
BRANCH  10  11
ATOM     11  C   UNL     1     -34.718 -47.953  34.061  1.00  0.00     0.053 C 
BRANCH  11  12
ATOM     12  C   UNL     1     -36.085 -47.443  33.723  1.00  0.00     0.041 C 
ATOM     13  O   UNL     1     -36.431 -47.305  32.520  1.00  0.00    -0.550 OA
ATOM     14  O   UNL     1     -36.990 -47.150  34.736  1.00  0.00    -0.550 OA
ENDBRANCH  11  12
ENDBRANCH  10  11
ENDBRANCH   9  10
ENDBRANCH   8   9
ENDBRANCH   1   8
TORSDOF 9
ENDMDL
MODEL 7
REMARK VINA RESULT:    -4.018      9.390     11.087
REMARK INTER + INTRA:          -6.456
REMARK INTER:                  -6.091
REMARK INTRA:                  -0.365
REMARK UNBOUND:                -0.325
REMARK SMILES O=C([O-])CCCCCCCCC(=O)[O-]
REMARK SMILES IDX 7 1 6 2 5 3 4 4 2 5 1 6 3 7 8 8 9 9 10 10 11 11 12 12 13 13
REMARK SMILES IDX 14 14
REMARK H PARENT
REMARK Flexibility Score: inf
ROOT
ATOM      1  C   UNL     1     -24.724 -53.167  27.488  1.00  0.00     0.000 C 
ENDROOT
BRANCH   1   2
ATOM      2  C   UNL     1     -26.070 -53.881  27.263  1.00  0.00     0.000 C 
BRANCH   2   3
ATOM      3  C   UNL     1     -26.862 -53.408  26.031  1.00  0.00     0.006 C 
BRANCH   3   4
ATOM      4  C   UNL     1     -27.829 -54.471  25.496  1.00  0.00     0.053 C 
BRANCH   4   5
ATOM      5  C   UNL     1     -27.756 -54.540  24.003  1.00  0.00     0.041 C 
ATOM      6  O   UNL     1     -27.824 -55.653  23.416  1.00  0.00    -0.550 OA
ATOM      7  O   UNL     1     -27.661 -53.373  23.257  1.00  0.00    -0.550 OA
ENDBRANCH   4   5
ENDBRANCH   3   4
ENDBRANCH   2   3
ENDBRANCH   1   2
BRANCH   1   8
ATOM      8  C   UNL     1     -24.461 -52.838  28.968  1.00  0.00     0.000 C 
BRANCH   8   9
ATOM      9  C   UNL     1     -25.711 -53.024  29.844  1.00  0.00     0.000 C 
BRANCH   9  10
ATOM     10  C   UNL     1     -25.370 -53.194  31.335  1.00  0.00     0.006 C 
BRANCH  10  11
ATOM     11  C   UNL     1     -25.886 -52.023  32.183  1.00  0.00     0.053 C 
BRANCH  11  12
ATOM     12  C   UNL     1     -24.802 -51.038  32.494  1.00  0.00     0.041 C 
ATOM     13  O   UNL     1     -24.320 -50.317  31.581  1.00  0.00    -0.550 OA
ATOM     14  O   UNL     1     -24.345 -50.893  33.798  1.00  0.00    -0.550 OA
ENDBRANCH  11  12
ENDBRANCH  10  11
ENDBRANCH   9  10
ENDBRANCH   8   9
ENDBRANCH   1   8
TORSDOF 9
ENDMDL
MODEL 8
REMARK VINA RESULT:    -4.014      5.446      8.397
REMARK INTER + INTRA:          -6.450
REMARK INTER:                  -5.874
REMARK INTRA:                  -0.576
REMARK UNBOUND:                -0.325
REMARK SMILES O=C([O-])CCCCCCCCC(=O)[O-]
REMARK SMILES IDX 7 1 6 2 5 3 4 4 2 5 1 6 3 7 8 8 9 9 10 10 11 11 12 12 13 13
REMARK SMILES IDX 14 14
REMARK H PARENT
REMARK Flexibility Score: inf
ROOT
ATOM      1  C   UNL     1     -32.532 -52.261  32.104  1.00  0.00     0.000 C 
ENDROOT
BRANCH   1   2
ATOM      2  C   UNL     1     -33.004 -52.641  30.688  1.00  0.00     0.000 C 
BRANCH   2   3
ATOM      3  C   UNL     1     -33.636 -54.039  30.564  1.00  0.00     0.006 C 
BRANCH   3   4
ATOM      4  C   UNL     1     -33.662 -54.559  29.121  1.00  0.00     0.053 C 
BRANCH   4   5
ATOM      5  C   UNL     1     -34.987 -55.183  28.814  1.00  0.00     0.041 C 
ATOM      6  O   UNL     1     -35.077 -56.428  28.648  1.00  0.00    -0.550 OA
ATOM      7  O   UNL     1     -36.130 -54.397  28.760  1.00  0.00    -0.550 OA
ENDBRANCH   4   5
ENDBRANCH   3   4
ENDBRANCH   2   3
ENDBRANCH   1   2
BRANCH   1   8
ATOM      8  C   UNL     1     -32.875 -53.330  33.156  1.00  0.00     0.000 C 
BRANCH   8   9
ATOM      9  C   UNL     1     -31.625 -53.904  33.843  1.00  0.00     0.000 C 
BRANCH   9  10
ATOM     10  C   UNL     1     -30.457 -52.902  33.880  1.00  0.00     0.006 C 
BRANCH  10  11
ATOM     11  C   UNL     1     -30.287 -52.264  35.265  1.00  0.00     0.053 C 
BRANCH  11  12
ATOM     12  C   UNL     1     -30.681 -50.819  35.268  1.00  0.00     0.041 C 
ATOM     13  O   UNL     1     -29.800 -49.922  35.210  1.00  0.00    -0.550 OA
ATOM     14  O   UNL     1     -32.024 -50.463  35.303  1.00  0.00    -0.550 OA
ENDBRANCH  11  12
ENDBRANCH  10  11
ENDBRANCH   9  10
ENDBRANCH   8   9
ENDBRANCH   1   8
TORSDOF 9
ENDMDL
MODEL 9
REMARK VINA RESULT:    -3.967      6.443      7.314
REMARK INTER + INTRA:          -6.380
REMARK INTER:                  -5.574
REMARK INTRA:                  -0.806
REMARK UNBOUND:                -0.325
REMARK SMILES O=C([O-])CCCCCCCCC(=O)[O-]
REMARK SMILES IDX 7 1 6 2 5 3 4 4 2 5 1 6 3 7 8 8 9 9 10 10 11 11 12 12 13 13
REMARK SMILES IDX 14 14
REMARK H PARENT
REMARK Flexibility Score: inf
ROOT
ATOM      1  C   UNL     1     -34.269 -46.361  27.299  1.00  0.00     0.000 C 
ENDROOT
BRANCH   1   2
ATOM      2  C   UNL     1     -33.792 -45.155  28.130  1.00  0.00     0.000 C 
BRANCH   2   3
ATOM      3  C   UNL     1     -34.772 -43.968  28.181  1.00  0.00     0.006 C 
BRANCH   3   4
ATOM      4  C   UNL     1     -35.383 -43.754  29.572  1.00  0.00     0.053 C 
BRANCH   4   5
ATOM      5  C   UNL     1     -36.202 -44.941  29.971  1.00  0.00     0.041 C 
ATOM      6  O   UNL     1     -37.169 -45.313  29.255  1.00  0.00    -0.550 OA
ATOM      7  O   UNL     1     -35.868 -45.666  31.107  1.00  0.00    -0.550 OA
ENDBRANCH   4   5
ENDBRANCH   3   4
ENDBRANCH   2   3
ENDBRANCH   1   2
BRANCH   1   8
ATOM      8  C   UNL     1     -35.221 -45.961  26.157  1.00  0.00     0.000 C 
BRANCH   8   9
ATOM      9  C   UNL     1     -34.857 -46.635  24.824  1.00  0.00     0.000 C 
BRANCH   9  10
ATOM     10  C   UNL     1     -33.441 -46.270  24.343  1.00  0.00     0.006 C 
BRANCH  10  11
ATOM     11  C   UNL     1     -33.442 -45.047  23.418  1.00  0.00     0.053 C 
BRANCH  11  12
ATOM     12  C   UNL     1     -32.932 -43.821  24.111  1.00  0.00     0.041 C 
ATOM     13  O   UNL     1     -32.349 -43.918  25.222  1.00  0.00    -0.550 OA
ATOM     14  O   UNL     1     -33.074 -42.573  23.516  1.00  0.00    -0.550 OA
ENDBRANCH  11  12
ENDBRANCH  10  11
ENDBRANCH   9  10
ENDBRANCH   8   9
ENDBRANCH   1   8
TORSDOF 9
ENDMDL
