MODEL 1
REMARK VINA RESULT:    -4.842      0.000      0.000
REMARK INTER + INTRA:          -5.980
REMARK INTER:                  -5.691
REMARK INTRA:                  -0.289
REMARK UNBOUND:                -0.289
REMARK SMILES COc1cc2ccc(=O)oc2c(OC)c1OC
REMARK SMILES IDX 3 1 15 2 12 3 11 4 5 5 4 6 6 7 7 8 8 9 9 10 10 11 2 12 1 13
REMARK SMILES IDX 16 14 17 15 13 16 14 17
REMARK H PARENT
REMARK Flexibility Score: inf
ROOT
ATOM      1  C   UNL     1     -15.525 -19.097  21.409  1.00  0.00     0.165 A 
ATOM      2  C   UNL     1     -14.773 -18.111  20.750  1.00  0.00     0.207 A 
ATOM      3  C   UNL     1     -15.149 -17.677  19.447  1.00  0.00     0.208 A 
ATOM      4  C   UNL     1     -16.289 -18.255  18.831  1.00  0.00     0.184 A 
ATOM      5  C   UNL     1     -17.031 -19.245  19.511  1.00  0.00     0.025 A 
ATOM      6  C   UNL     1     -16.650 -19.659  20.787  1.00  0.00     0.062 A 
ATOM      7  C   UNL     1     -18.152 -19.801  18.883  1.00  0.00     0.020 A 
ATOM      8  C   UNL     1     -18.510 -19.368  17.610  1.00  0.00     0.094 A 
ATOM      9  C   UNL     1     -17.735 -18.387  16.991  1.00  0.00     0.336 A 
ATOM     10  O   UNL     1     -18.037 -17.978  15.840  1.00  0.00    -0.246 OA
ATOM     11  O   UNL     1     -16.675 -17.877  17.613  1.00  0.00    -0.419 OA
ENDROOT
BRANCH   1  12
ATOM     12  O   UNL     1     -15.116 -19.493  22.693  1.00  0.00    -0.493 OA
ATOM     13  C   UNL     1     -14.892 -20.841  23.093  1.00  0.00     0.278 C 
ENDBRANCH   1  12
BRANCH   2  14
ATOM     14  O   UNL     1     -13.662 -17.605  21.452  1.00  0.00    -0.490 OA
ATOM     15  C   UNL     1     -12.319 -18.074  21.384  1.00  0.00     0.278 C 
ENDBRANCH   2  14
BRANCH   3  16
ATOM     16  O   UNL     1     -14.371 -16.686  18.816  1.00  0.00    -0.490 OA
ATOM     17  C   UNL     1     -13.278 -16.890  17.928  1.00  0.00     0.278 C 
ENDBRANCH   3  16
TORSDOF 3
ENDMDL
MODEL 2
REMARK VINA RESULT:    -4.789      7.208     10.604
REMARK INTER + INTRA:          -5.918
REMARK INTER:                  -5.651
REMARK INTRA:                  -0.267
REMARK UNBOUND:                -0.289
REMARK SMILES COc1cc2ccc(=O)oc2c(OC)c1OC
REMARK SMILES IDX 3 1 15 2 12 3 11 4 5 5 4 6 6 7 7 8 8 9 9 10 10 11 2 12 1 13
REMARK SMILES IDX 16 14 17 15 13 16 14 17
REMARK H PARENT
REMARK Flexibility Score: inf
ROOT
ATOM      1  C   UNL     1      -9.945 -13.991  21.560  1.00  0.00     0.165 A 
ATOM      2  C   UNL     1      -8.669 -14.431  21.171  1.00  0.00     0.207 A 
ATOM      3  C   UNL     1      -7.507 -13.743  21.622  1.00  0.00     0.208 A 
ATOM      4  C   UNL     1      -7.660 -12.613  22.465  1.00  0.00     0.184 A 
ATOM      5  C   UNL     1      -8.952 -12.187  22.844  1.00  0.00     0.025 A 
ATOM      6  C   UNL     1     -10.080 -12.871  22.394  1.00  0.00     0.062 A 
ATOM      7  C   UNL     1      -9.078 -11.069  23.677  1.00  0.00     0.020 A 
ATOM      8  C   UNL     1      -7.935 -10.404  24.112  1.00  0.00     0.094 A 
ATOM      9  C   UNL     1      -6.688 -10.876  23.702  1.00  0.00     0.336 A 
ATOM     10  O   UNL     1      -5.638 -10.293  24.081  1.00  0.00    -0.246 OA
ATOM     11  O   UNL     1      -6.599 -11.941  22.910  1.00  0.00    -0.419 OA
ENDROOT
BRANCH   1  12
ATOM     12  O   UNL     1     -11.061 -14.702  21.089  1.00  0.00    -0.493 OA
ATOM     13  C   UNL     1     -12.098 -14.146  20.287  1.00  0.00     0.278 C 
ENDBRANCH   1  12
BRANCH   2  14
ATOM     14  O   UNL     1      -8.632 -15.563  20.332  1.00  0.00    -0.490 OA
ATOM     15  C   UNL     1      -8.420 -16.914  20.725  1.00  0.00     0.278 C 
ENDBRANCH   2  14
BRANCH   3  16
ATOM     16  O   UNL     1      -6.244 -14.213  21.211  1.00  0.00    -0.490 OA
ATOM     17  C   UNL     1      -5.515 -13.815  20.056  1.00  0.00     0.278 C 
ENDBRANCH   3  16
TORSDOF 3
ENDMDL
MODEL 3
REMARK VINA RESULT:    -4.673      1.281      4.708
REMARK INTER + INTRA:          -5.782
REMARK INTER:                  -5.526
REMARK INTRA:                  -0.256
REMARK UNBOUND:                -0.289
REMARK SMILES COc1cc2ccc(=O)oc2c(OC)c1OC
REMARK SMILES IDX 3 1 15 2 12 3 11 4 5 5 4 6 6 7 7 8 8 9 9 10 10 11 2 12 1 13
REMARK SMILES IDX 16 14 17 15 13 16 14 17
REMARK H PARENT
REMARK Flexibility Score: inf
ROOT
ATOM      1  C   UNL     1     -17.582 -19.031  18.693  1.00  0.00     0.165 A 
ATOM      2  C   UNL     1     -16.850 -17.926  18.229  1.00  0.00     0.207 A 
ATOM      3  C   UNL     1     -15.649 -17.538  18.886  1.00  0.00     0.208 A 
ATOM      4  C   UNL     1     -15.208 -18.282  20.010  1.00  0.00     0.184 A 
ATOM      5  C   UNL     1     -15.959 -19.389  20.461  1.00  0.00     0.025 A 
ATOM      6  C   UNL     1     -17.134 -19.757  19.806  1.00  0.00     0.062 A 
ATOM      7  C   UNL     1     -15.504 -20.108  21.573  1.00  0.00     0.020 A 
ATOM      8  C   UNL     1     -14.328 -19.719  22.207  1.00  0.00     0.094 A 
ATOM      9  C   UNL     1     -13.632 -18.616  21.713  1.00  0.00     0.336 A 
ATOM     10  O   UNL     1     -12.565 -18.243  22.269  1.00  0.00    -0.246 OA
ATOM     11  O   UNL     1     -14.089 -17.952  20.655  1.00  0.00    -0.419 OA
ENDROOT
BRANCH   1  12
ATOM     12  O   UNL     1     -18.761 -19.376  18.012  1.00  0.00    -0.493 OA
ATOM     13  C   UNL     1     -19.822 -20.149  18.566  1.00  0.00     0.278 C 
ENDBRANCH   1  12
BRANCH   2  14
ATOM     14  O   UNL     1     -17.378 -17.260  17.106  1.00  0.00    -0.490 OA
ATOM     15  C   UNL     1     -16.986 -17.425  15.748  1.00  0.00     0.278 C 
ENDBRANCH   2  14
BRANCH   3  16
ATOM     16  O   UNL     1     -14.941 -16.424  18.394  1.00  0.00    -0.490 OA
ATOM     17  C   UNL     1     -13.797 -16.441  17.547  1.00  0.00     0.278 C 
ENDBRANCH   3  16
TORSDOF 3
ENDMDL
MODEL 4
REMARK VINA RESULT:    -4.661      7.009     10.224
REMARK INTER + INTRA:          -5.767
REMARK INTER:                  -5.486
REMARK INTRA:                  -0.281
REMARK UNBOUND:                -0.289
REMARK SMILES COc1cc2ccc(=O)oc2c(OC)c1OC
REMARK SMILES IDX 3 1 15 2 12 3 11 4 5 5 4 6 6 7 7 8 8 9 9 10 10 11 2 12 1 13
REMARK SMILES IDX 16 14 17 15 13 16 14 17
REMARK H PARENT
REMARK Flexibility Score: inf
ROOT
ATOM      1  C   UNL     1      -9.924 -13.479  19.346  1.00  0.00     0.165 A 
ATOM      2  C   UNL     1      -9.217 -13.571  20.556  1.00  0.00     0.207 A 
ATOM      3  C   UNL     1      -7.794 -13.619  20.550  1.00  0.00     0.208 A 
ATOM      4  C   UNL     1      -7.109 -13.572  19.310  1.00  0.00     0.184 A 
ATOM      5  C   UNL     1      -7.839 -13.479  18.104  1.00  0.00     0.025 A 
ATOM      6  C   UNL     1      -9.233 -13.434  18.127  1.00  0.00     0.062 A 
ATOM      7  C   UNL     1      -7.141 -13.434  16.892  1.00  0.00     0.020 A 
ATOM      8  C   UNL     1      -5.750 -13.481  16.899  1.00  0.00     0.094 A 
ATOM      9  C   UNL     1      -5.087 -13.573  18.123  1.00  0.00     0.336 A 
ATOM     10  O   UNL     1      -3.830 -13.617  18.157  1.00  0.00    -0.246 OA
ATOM     11  O   UNL     1      -5.778 -13.614  19.259  1.00  0.00    -0.419 OA
ENDROOT
BRANCH   1  12
ATOM     12  O   UNL     1     -11.327 -13.435  19.403  1.00  0.00    -0.493 OA
ATOM     13  C   UNL     1     -12.187 -14.521  19.072  1.00  0.00     0.278 C 
ENDBRANCH   1  12
BRANCH   2  14
ATOM     14  O   UNL     1      -9.996 -13.612  21.729  1.00  0.00    -0.490 OA
ATOM     15  C   UNL     1     -10.353 -12.512  22.559  1.00  0.00     0.278 C 
ENDBRANCH   2  14
BRANCH   3  16
ATOM     16  O   UNL     1      -7.118 -13.712  21.783  1.00  0.00    -0.490 OA
ATOM     17  C   UNL     1      -6.562 -12.643  22.539  1.00  0.00     0.278 C 
ENDBRANCH   3  16
TORSDOF 3
ENDMDL
MODEL 5
REMARK VINA RESULT:    -4.652      3.933      7.516
REMARK INTER + INTRA:          -5.757
REMARK INTER:                  -5.477
REMARK INTRA:                  -0.280
REMARK UNBOUND:                -0.289
REMARK SMILES COc1cc2ccc(=O)oc2c(OC)c1OC
REMARK SMILES IDX 3 1 15 2 12 3 11 4 5 5 4 6 6 7 7 8 8 9 9 10 10 11 2 12 1 13
REMARK SMILES IDX 16 14 17 15 13 16 14 17
REMARK H PARENT
REMARK Flexibility Score: inf
ROOT
ATOM      1  C   UNL     1     -12.959 -15.848  20.046  1.00  0.00     0.165 A 
ATOM      2  C   UNL     1     -12.188 -16.772  20.770  1.00  0.00     0.207 A 
ATOM      3  C   UNL     1     -10.981 -16.358  21.400  1.00  0.00     0.208 A 
ATOM      4  C   UNL     1     -10.574 -15.004  21.285  1.00  0.00     0.184 A 
ATOM      5  C   UNL     1     -11.364 -14.091  20.552  1.00  0.00     0.025 A 
ATOM      6  C   UNL     1     -12.544 -14.512  19.940  1.00  0.00     0.062 A 
ATOM      7  C   UNL     1     -10.941 -12.760  20.452  1.00  0.00     0.020 A 
ATOM      8  C   UNL     1      -9.760 -12.366  21.073  1.00  0.00     0.094 A 
ATOM      9  C   UNL     1      -9.025 -13.317  21.782  1.00  0.00     0.336 A 
ATOM     10  O   UNL     1      -7.952 -12.987  22.353  1.00  0.00    -0.246 OA
ATOM     11  O   UNL     1      -9.451 -14.574  21.860  1.00  0.00    -0.419 OA
ENDROOT
BRANCH   1  12
ATOM     12  O   UNL     1     -14.142 -16.304  19.441  1.00  0.00    -0.493 OA
ATOM     13  C   UNL     1     -14.390 -16.300  18.039  1.00  0.00     0.278 C 
ENDBRANCH   1  12
BRANCH   2  14
ATOM     14  O   UNL     1     -12.685 -18.090  20.820  1.00  0.00    -0.490 OA
ATOM     15  C   UNL     1     -13.465 -18.673  21.858  1.00  0.00     0.278 C 
ENDBRANCH   2  14
BRANCH   3  16
ATOM     16  O   UNL     1     -10.233 -17.312  22.117  1.00  0.00    -0.490 OA
ATOM     17  C   UNL     1     -10.309 -17.591  23.511  1.00  0.00     0.278 C 
ENDBRANCH   3  16
TORSDOF 3
ENDMDL
MODEL 6
REMARK VINA RESULT:    -4.643      5.031      7.696
REMARK INTER + INTRA:          -5.746
REMARK INTER:                  -5.485
REMARK INTRA:                  -0.261
REMARK UNBOUND:                -0.289
REMARK SMILES COc1cc2ccc(=O)oc2c(OC)c1OC
REMARK SMILES IDX 3 1 15 2 12 3 11 4 5 5 4 6 6 7 7 8 8 9 9 10 10 11 2 12 1 13
REMARK SMILES IDX 16 14 17 15 13 16 14 17
REMARK H PARENT
REMARK Flexibility Score: inf
ROOT
ATOM      1  C   UNL     1      -9.161 -13.668  21.678  1.00  0.00     0.165 A 
ATOM      2  C   UNL     1     -10.362 -13.423  20.993  1.00  0.00     0.207 A 
ATOM      3  C   UNL     1     -11.323 -14.463  20.841  1.00  0.00     0.208 A 
ATOM      4  C   UNL     1     -11.047 -15.740  21.391  1.00  0.00     0.184 A 
ATOM      5  C   UNL     1      -9.832 -15.965  22.076  1.00  0.00     0.025 A 
ATOM      6  C   UNL     1      -8.901 -14.937  22.216  1.00  0.00     0.062 A 
ATOM      7  C   UNL     1      -9.582 -17.235  22.611  1.00  0.00     0.020 A 
ATOM      8  C   UNL     1     -10.529 -18.243  22.457  1.00  0.00     0.094 A 
ATOM      9  C   UNL     1     -11.709 -17.957  21.769  1.00  0.00     0.336 A 
ATOM     10  O   UNL     1     -12.581 -18.851  21.616  1.00  0.00    -0.246 OA
ATOM     11  O   UNL     1     -11.919 -16.741  21.273  1.00  0.00    -0.419 OA
ENDROOT
BRANCH   1  12
ATOM     12  O   UNL     1      -8.243 -12.611  21.801  1.00  0.00    -0.493 OA
ATOM     13  C   UNL     1      -7.999 -11.885  23.002  1.00  0.00     0.278 C 
ENDBRANCH   1  12
BRANCH   2  14
ATOM     14  O   UNL     1     -10.533 -12.119  20.487  1.00  0.00    -0.490 OA
ATOM     15  C   UNL     1     -10.353 -11.691  19.142  1.00  0.00     0.278 C 
ENDBRANCH   2  14
BRANCH   3  16
ATOM     16  O   UNL     1     -12.516 -14.181  20.148  1.00  0.00    -0.490 OA
ATOM     17  C   UNL     1     -12.832 -14.535  18.806  1.00  0.00     0.278 C 
ENDBRANCH   3  16
TORSDOF 3
ENDMDL
MODEL 7
REMARK VINA RESULT:    -4.614      8.691     10.331
REMARK INTER + INTRA:          -5.712
REMARK INTER:                  -5.421
REMARK INTRA:                  -0.291
REMARK UNBOUND:                -0.289
REMARK SMILES COc1cc2ccc(=O)oc2c(OC)c1OC
REMARK SMILES IDX 3 1 15 2 12 3 11 4 5 5 4 6 6 7 7 8 8 9 9 10 10 11 2 12 1 13
REMARK SMILES IDX 16 14 17 15 13 16 14 17
REMARK H PARENT
REMARK Flexibility Score: inf
ROOT
ATOM      1  C   UNL     1      -7.208 -13.998  17.667  1.00  0.00     0.165 A 
ATOM      2  C   UNL     1      -6.536 -14.386  18.838  1.00  0.00     0.207 A 
ATOM      3  C   UNL     1      -7.113 -14.125  20.113  1.00  0.00     0.208 A 
ATOM      4  C   UNL     1      -8.370 -13.472  20.179  1.00  0.00     0.184 A 
ATOM      5  C   UNL     1      -9.029 -13.090  18.989  1.00  0.00     0.025 A 
ATOM      6  C   UNL     1      -8.450 -13.352  17.748  1.00  0.00     0.062 A 
ATOM      7  C   UNL     1     -10.269 -12.446  19.079  1.00  0.00     0.020 A 
ATOM      8  C   UNL     1     -10.824 -12.197  20.331  1.00  0.00     0.094 A 
ATOM      9  C   UNL     1     -10.122 -12.599  21.469  1.00  0.00     0.336 A 
ATOM     10  O   UNL     1     -10.602 -12.386  22.613  1.00  0.00    -0.246 OA
ATOM     11  O   UNL     1      -8.946 -13.209  21.351  1.00  0.00    -0.419 OA
ENDROOT
BRANCH   1  12
ATOM     12  O   UNL     1      -6.599 -14.277  16.433  1.00  0.00    -0.493 OA
ATOM     13  C   UNL     1      -6.374 -13.318  15.404  1.00  0.00     0.278 C 
ENDBRANCH   1  12
BRANCH   2  14
ATOM     14  O   UNL     1      -5.295 -15.028  18.658  1.00  0.00    -0.490 OA
ATOM     15  C   UNL     1      -4.008 -14.420  18.657  1.00  0.00     0.278 C 
ENDBRANCH   2  14
BRANCH   3  16
ATOM     16  O   UNL     1      -6.411 -14.528  21.266  1.00  0.00    -0.490 OA
ATOM     17  C   UNL     1      -5.497 -13.749  22.030  1.00  0.00     0.278 C 
ENDBRANCH   3  16
TORSDOF 3
ENDMDL
MODEL 8
REMARK VINA RESULT:    -4.587      2.649      4.565
REMARK INTER + INTRA:          -5.680
REMARK INTER:                  -5.430
REMARK INTRA:                  -0.250
REMARK UNBOUND:                -0.289
REMARK SMILES COc1cc2ccc(=O)oc2c(OC)c1OC
REMARK SMILES IDX 3 1 15 2 12 3 11 4 5 5 4 6 6 7 7 8 8 9 9 10 10 11 2 12 1 13
REMARK SMILES IDX 16 14 17 15 13 16 14 17
REMARK H PARENT
REMARK Flexibility Score: inf
ROOT
ATOM      1  C   UNL     1     -10.685 -17.273  22.033  1.00  0.00     0.165 A 
ATOM      2  C   UNL     1     -10.880 -16.196  21.153  1.00  0.00     0.207 A 
ATOM      3  C   UNL     1     -12.113 -16.058  20.455  1.00  0.00     0.208 A 
ATOM      4  C   UNL     1     -13.133 -17.021  20.664  1.00  0.00     0.184 A 
ATOM      5  C   UNL     1     -12.917 -18.096  21.554  1.00  0.00     0.025 A 
ATOM      6  C   UNL     1     -11.703 -18.217  22.230  1.00  0.00     0.062 A 
ATOM      7  C   UNL     1     -13.939 -19.034  21.744  1.00  0.00     0.020 A 
ATOM      8  C   UNL     1     -15.140 -18.888  21.057  1.00  0.00     0.094 A 
ATOM      9  C   UNL     1     -15.292 -17.804  20.192  1.00  0.00     0.336 A 
ATOM     10  O   UNL     1     -16.369 -17.649  19.558  1.00  0.00    -0.246 OA
ATOM     11  O   UNL     1     -14.303 -16.929  20.032  1.00  0.00    -0.419 OA
ENDROOT
BRANCH   1  12
ATOM     12  O   UNL     1      -9.451 -17.367  22.699  1.00  0.00    -0.493 OA
ATOM     13  C   UNL     1      -9.159 -18.295  23.739  1.00  0.00     0.278 C 
ENDBRANCH   1  12
BRANCH   2  14
ATOM     14  O   UNL     1      -9.801 -15.300  21.020  1.00  0.00    -0.490 OA
ATOM     15  C   UNL     1      -9.647 -14.043  21.669  1.00  0.00     0.278 C 
ENDBRANCH   2  14
BRANCH   3  16
ATOM     16  O   UNL     1     -12.274 -14.966  19.580  1.00  0.00    -0.490 OA
ATOM     17  C   UNL     1     -12.004 -14.940  18.183  1.00  0.00     0.278 C 
ENDBRANCH   3  16
TORSDOF 3
ENDMDL
MODEL 9
REMARK VINA RESULT:    -4.568      7.217      8.604
REMARK INTER + INTRA:          -5.659
REMARK INTER:                  -5.378
REMARK INTRA:                  -0.281
REMARK UNBOUND:                -0.289
REMARK SMILES COc1cc2ccc(=O)oc2c(OC)c1OC
REMARK SMILES IDX 3 1 15 2 12 3 11 4 5 5 4 6 6 7 7 8 8 9 9 10 10 11 2 12 1 13
REMARK SMILES IDX 16 14 17 15 13 16 14 17
REMARK H PARENT
REMARK Flexibility Score: inf
ROOT
ATOM      1  C   UNL     1      -9.174 -13.875  22.120  1.00  0.00     0.165 A 
ATOM      2  C   UNL     1      -8.943 -14.197  20.772  1.00  0.00     0.207 A 
ATOM      3  C   UNL     1      -8.823 -15.558  20.373  1.00  0.00     0.208 A 
ATOM      4  C   UNL     1      -8.941 -16.576  21.354  1.00  0.00     0.184 A 
ATOM      5  C   UNL     1      -9.173 -16.230  22.704  1.00  0.00     0.025 A 
ATOM      6  C   UNL     1      -9.288 -14.892  23.079  1.00  0.00     0.062 A 
ATOM      7  C   UNL     1      -9.286 -17.252  23.654  1.00  0.00     0.020 A 
ATOM      8  C   UNL     1      -9.168 -18.579  23.252  1.00  0.00     0.094 A 
ATOM      9  C   UNL     1      -8.938 -18.854  21.904  1.00  0.00     0.336 A 
ATOM     10  O   UNL     1      -8.826 -20.046  21.514  1.00  0.00    -0.246 OA
ATOM     11  O   UNL     1      -8.835 -17.862  21.024  1.00  0.00    -0.419 OA
ENDROOT
BRANCH   1  12
ATOM     12  O   UNL     1      -9.285 -12.518  22.465  1.00  0.00    -0.493 OA
ATOM     13  C   UNL     1      -8.253 -11.749  23.075  1.00  0.00     0.278 C 
ENDBRANCH   1  12
BRANCH   2  14
ATOM     14  O   UNL     1      -8.842 -13.109  19.883  1.00  0.00    -0.490 OA
ATOM     15  C   UNL     1      -9.883 -12.555  19.085  1.00  0.00     0.278 C 
ENDBRANCH   2  14
BRANCH   3  16
ATOM     16  O   UNL     1      -8.590 -15.844  19.014  1.00  0.00    -0.490 OA
ATOM     17  C   UNL     1      -9.567 -16.118  18.015  1.00  0.00     0.278 C 
ENDBRANCH   3  16
TORSDOF 3
ENDMDL
