MODEL 1
REMARK VINA RESULT:    -3.992      0.000      0.000
REMARK INTER + INTRA:          -5.109
REMARK INTER:                  -4.926
REMARK INTRA:                  -0.183
REMARK UNBOUND:                -0.183
REMARK SMILES CCCCC=CC(C)=O
REMARK SMILES IDX 4 1 3 2 2 3 1 4 5 5 6 6 7 7 9 8 8 9
REMARK H PARENT
REMARK Flexibility Score: inf
ROOT
ATOM      1  C   UNL     1       8.461   4.756   6.324  1.00  0.00     0.027 C 
ENDROOT
BRANCH   1   2
ATOM      2  C   UNL     1       9.025   5.751   5.299  1.00  0.00     0.004 C 
BRANCH   2   3
ATOM      3  C   UNL     1       9.158   7.167   5.879  1.00  0.00    -0.003 C 
ATOM      4  C   UNL     1       9.896   7.146   7.215  1.00  0.00     0.004 C 
ENDBRANCH   2   3
ENDBRANCH   1   2
BRANCH   1   5
ATOM      5  C   UNL     1       7.035   5.062   6.692  1.00  0.00    -0.023 C 
ATOM      6  C   UNL     1       6.018   4.714   5.897  1.00  0.00     0.042 C 
BRANCH   6   7
ATOM      7  C   UNL     1       4.614   5.011   6.236  1.00  0.00     0.152 C 
ATOM      8  O   UNL     1       3.804   5.397   5.349  1.00  0.00    -0.295 OA
ATOM      9  C   UNL     1       4.143   4.858   7.646  1.00  0.00     0.093 C 
ENDBRANCH   6   7
ENDBRANCH   1   5
TORSDOF 4
ENDMDL
MODEL 2
REMARK VINA RESULT:    -3.847     14.493     14.911
REMARK INTER + INTRA:          -4.929
REMARK INTER:                  -4.728
REMARK INTRA:                  -0.201
REMARK UNBOUND:                -0.183
REMARK SMILES CCCCC=CC(C)=O
REMARK SMILES IDX 4 1 3 2 2 3 1 4 5 5 6 6 7 7 9 8 8 9
REMARK H PARENT
REMARK Flexibility Score: inf
ROOT
ATOM      1  C   UNL     1      -2.785  -4.379   3.269  1.00  0.00     0.027 C 
ENDROOT
BRANCH   1   2
ATOM      2  C   UNL     1      -2.765  -3.634   1.925  1.00  0.00     0.004 C 
BRANCH   2   3
ATOM      3  C   UNL     1      -4.127  -3.011   1.588  1.00  0.00    -0.003 C 
ATOM      4  C   UNL     1      -3.957  -1.675   0.869  1.00  0.00     0.004 C 
ENDBRANCH   2   3
ENDBRANCH   1   2
BRANCH   1   5
ATOM      5  C   UNL     1      -3.839  -3.849   4.200  1.00  0.00    -0.023 C 
ATOM      6  C   UNL     1      -4.343  -4.599   5.186  1.00  0.00     0.042 C 
BRANCH   6   7
ATOM      7  C   UNL     1      -5.382  -4.100   6.106  1.00  0.00     0.152 C 
ATOM      8  O   UNL     1      -6.603  -4.329   5.885  1.00  0.00    -0.295 OA
ATOM      9  C   UNL     1      -4.987  -3.310   7.311  1.00  0.00     0.093 C 
ENDBRANCH   6   7
ENDBRANCH   1   5
TORSDOF 4
ENDMDL
MODEL 3
REMARK VINA RESULT:    -3.767      1.454      2.357
REMARK INTER + INTRA:          -4.831
REMARK INTER:                  -4.656
REMARK INTRA:                  -0.175
REMARK UNBOUND:                -0.183
REMARK SMILES CCCCC=CC(C)=O
REMARK SMILES IDX 4 1 3 2 2 3 1 4 5 5 6 6 7 7 9 8 8 9
REMARK H PARENT
REMARK Flexibility Score: inf
ROOT
ATOM      1  C   UNL     1       8.637   5.292   6.291  1.00  0.00     0.027 C 
ENDROOT
BRANCH   1   2
ATOM      2  C   UNL     1       9.030   3.815   6.142  1.00  0.00     0.004 C 
BRANCH   2   3
ATOM      3  C   UNL     1      10.045   3.376   7.209  1.00  0.00    -0.003 C 
ATOM      4  C   UNL     1       9.979   1.869   7.443  1.00  0.00     0.004 C 
ENDBRANCH   2   3
ENDBRANCH   1   2
BRANCH   1   5
ATOM      5  C   UNL     1       7.192   5.464   6.670  1.00  0.00    -0.023 C 
ATOM      6  C   UNL     1       6.214   4.857   5.990  1.00  0.00     0.042 C 
BRANCH   6   7
ATOM      7  C   UNL     1       4.791   5.017   6.340  1.00  0.00     0.152 C 
ATOM      8  O   UNL     1       3.941   5.326   5.460  1.00  0.00    -0.295 OA
ATOM      9  C   UNL     1       4.349   4.818   7.754  1.00  0.00     0.093 C 
ENDBRANCH   6   7
ENDBRANCH   1   5
TORSDOF 4
ENDMDL
MODEL 4
REMARK VINA RESULT:    -3.698     14.144     14.736
REMARK INTER + INTRA:          -4.746
REMARK INTER:                  -4.612
REMARK INTRA:                  -0.134
REMARK UNBOUND:                -0.183
REMARK SMILES CCCCC=CC(C)=O
REMARK SMILES IDX 4 1 3 2 2 3 1 4 5 5 6 6 7 7 9 8 8 9
REMARK H PARENT
REMARK Flexibility Score: inf
ROOT
ATOM      1  C   UNL     1      -3.154  -3.939   3.746  1.00  0.00     0.027 C 
ENDROOT
BRANCH   1   2
ATOM      2  C   UNL     1      -3.919  -3.700   2.435  1.00  0.00     0.004 C 
BRANCH   2   3
ATOM      3  C   UNL     1      -3.170  -2.746   1.493  1.00  0.00    -0.003 C 
ATOM      4  C   UNL     1      -4.120  -1.718   0.884  1.00  0.00     0.004 C 
ENDBRANCH   2   3
ENDBRANCH   1   2
BRANCH   1   5
ATOM      5  C   UNL     1      -3.836  -3.308   4.928  1.00  0.00    -0.023 C 
ATOM      6  C   UNL     1      -4.650  -4.010   5.723  1.00  0.00     0.042 C 
BRANCH   6   7
ATOM      7  C   UNL     1      -5.335  -3.409   6.882  1.00  0.00     0.152 C 
ATOM      8  O   UNL     1      -4.676  -2.985   7.871  1.00  0.00    -0.295 OA
ATOM      9  C   UNL     1      -6.826  -3.304   6.891  1.00  0.00     0.093 C 
ENDBRANCH   6   7
ENDBRANCH   1   5
TORSDOF 4
ENDMDL
MODEL 5
REMARK VINA RESULT:    -3.648     14.243     16.005
REMARK INTER + INTRA:          -4.685
REMARK INTER:                  -4.403
REMARK INTRA:                  -0.282
REMARK UNBOUND:                -0.183
REMARK SMILES CCCCC=CC(C)=O
REMARK SMILES IDX 4 1 3 2 2 3 1 4 5 5 6 6 7 7 9 8 8 9
REMARK H PARENT
REMARK Flexibility Score: inf
ROOT
ATOM      1  C   UNL     1      -3.523  -3.598   3.346  1.00  0.00     0.027 C 
ENDROOT
BRANCH   1   2
ATOM      2  C   UNL     1      -2.808  -3.691   1.989  1.00  0.00     0.004 C 
BRANCH   2   3
ATOM      3  C   UNL     1      -2.755  -2.337   1.269  1.00  0.00    -0.003 C 
ATOM      4  C   UNL     1      -4.158  -1.822   0.960  1.00  0.00     0.004 C 
ENDBRANCH   2   3
ENDBRANCH   1   2
BRANCH   1   5
ATOM      5  C   UNL     1      -4.470  -4.744   3.573  1.00  0.00    -0.023 C 
ATOM      6  C   UNL     1      -5.414  -5.058   2.680  1.00  0.00     0.042 C 
BRANCH   6   7
ATOM      7  C   UNL     1      -6.357  -6.173   2.886  1.00  0.00     0.152 C 
ATOM      8  O   UNL     1      -7.587  -5.953   3.062  1.00  0.00    -0.295 OA
ATOM      9  C   UNL     1      -5.852  -7.579   2.893  1.00  0.00     0.093 C 
ENDBRANCH   6   7
ENDBRANCH   1   5
TORSDOF 4
ENDMDL
MODEL 6
REMARK VINA RESULT:    -3.633     14.497     16.688
REMARK INTER + INTRA:          -4.666
REMARK INTER:                  -4.453
REMARK INTRA:                  -0.213
REMARK UNBOUND:                -0.183
REMARK SMILES CCCCC=CC(C)=O
REMARK SMILES IDX 4 1 3 2 2 3 1 4 5 5 6 6 7 7 9 8 8 9
REMARK H PARENT
REMARK Flexibility Score: inf
ROOT
ATOM      1  C   UNL     1      -5.168  -5.749   4.101  1.00  0.00     0.027 C 
ENDROOT
BRANCH   1   2
ATOM      2  C   UNL     1      -6.106  -6.498   3.143  1.00  0.00     0.004 C 
BRANCH   2   3
ATOM      3  C   UNL     1      -5.488  -7.809   2.634  1.00  0.00    -0.003 C 
ATOM      4  C   UNL     1      -5.106  -8.723   3.795  1.00  0.00     0.004 C 
ENDBRANCH   2   3
ENDBRANCH   1   2
BRANCH   1   5
ATOM      5  C   UNL     1      -4.185  -4.875   3.372  1.00  0.00    -0.023 C 
ATOM      6  C   UNL     1      -4.571  -4.063   2.382  1.00  0.00     0.042 C 
BRANCH   6   7
ATOM      7  C   UNL     1      -3.623  -3.204   1.650  1.00  0.00     0.152 C 
ATOM      8  O   UNL     1      -2.413  -3.540   1.524  1.00  0.00    -0.295 OA
ATOM      9  C   UNL     1      -4.096  -1.917   1.055  1.00  0.00     0.093 C 
ENDBRANCH   6   7
ENDBRANCH   1   5
TORSDOF 4
ENDMDL
MODEL 7
REMARK VINA RESULT:    -3.552     14.353     15.315
REMARK INTER + INTRA:          -4.565
REMARK INTER:                  -4.380
REMARK INTRA:                  -0.186
REMARK UNBOUND:                -0.183
REMARK SMILES CCCCC=CC(C)=O
REMARK SMILES IDX 4 1 3 2 2 3 1 4 5 5 6 6 7 7 9 8 8 9
REMARK H PARENT
REMARK Flexibility Score: inf
ROOT
ATOM      1  C   UNL     1      -4.650  -5.486   3.946  1.00  0.00     0.027 C 
ENDROOT
BRANCH   1   2
ATOM      2  C   UNL     1      -5.416  -5.008   5.188  1.00  0.00     0.004 C 
BRANCH   2   3
ATOM      3  C   UNL     1      -4.731  -3.813   5.867  1.00  0.00    -0.003 C 
ATOM      4  C   UNL     1      -5.597  -3.249   6.991  1.00  0.00     0.004 C 
ENDBRANCH   2   3
ENDBRANCH   1   2
BRANCH   1   5
ATOM      5  C   UNL     1      -3.882  -4.374   3.286  1.00  0.00    -0.023 C 
ATOM      6  C   UNL     1      -4.247  -3.881   2.098  1.00  0.00     0.042 C 
BRANCH   6   7
ATOM      7  C   UNL     1      -3.504  -2.796   1.430  1.00  0.00     0.152 C 
ATOM      8  O   UNL     1      -2.247  -2.840   1.334  1.00  0.00    -0.295 OA
ATOM      9  C   UNL     1      -4.246  -1.628   0.865  1.00  0.00     0.093 C 
ENDBRANCH   6   7
ENDBRANCH   1   5
TORSDOF 4
ENDMDL
MODEL 8
REMARK VINA RESULT:    -3.511     14.675     16.408
REMARK INTER + INTRA:          -4.515
REMARK INTER:                  -4.290
REMARK INTRA:                  -0.226
REMARK UNBOUND:                -0.183
REMARK SMILES CCCCC=CC(C)=O
REMARK SMILES IDX 4 1 3 2 2 3 1 4 5 5 6 6 7 7 9 8 8 9
REMARK H PARENT
REMARK Flexibility Score: inf
ROOT
ATOM      1  C   UNL     1      -4.206  -4.544   5.028  1.00  0.00     0.027 C 
ENDROOT
BRANCH   1   2
ATOM      2  C   UNL     1      -3.469  -3.474   4.208  1.00  0.00     0.004 C 
BRANCH   2   3
ATOM      3  C   UNL     1      -2.721  -4.076   3.010  1.00  0.00    -0.003 C 
ATOM      4  C   UNL     1      -3.094  -3.363   1.713  1.00  0.00     0.004 C 
ENDBRANCH   2   3
ENDBRANCH   1   2
BRANCH   1   5
ATOM      5  C   UNL     1      -4.203  -5.886   4.349  1.00  0.00    -0.023 C 
ATOM      6  C   UNL     1      -5.337  -6.465   3.941  1.00  0.00     0.042 C 
BRANCH   6   7
ATOM      7  C   UNL     1      -5.357  -7.783   3.281  1.00  0.00     0.152 C 
ATOM      8  O   UNL     1      -5.749  -7.901   2.087  1.00  0.00    -0.295 OA
ATOM      9  C   UNL     1      -4.913  -8.996   4.033  1.00  0.00     0.093 C 
ENDBRANCH   6   7
ENDBRANCH   1   5
TORSDOF 4
ENDMDL
MODEL 9
REMARK VINA RESULT:    -3.382     13.611     15.465
REMARK INTER + INTRA:          -4.356
REMARK INTER:                  -4.206
REMARK INTRA:                  -0.150
REMARK UNBOUND:                -0.183
REMARK SMILES CCCCC=CC(C)=O
REMARK SMILES IDX 4 1 3 2 2 3 1 4 5 5 6 6 7 7 9 8 8 9
REMARK H PARENT
REMARK Flexibility Score: inf
ROOT
ATOM      1  C   UNL     1      -5.752   9.552   1.998  1.00  0.00     0.027 C 
ENDROOT
BRANCH   1   2
ATOM      2  C   UNL     1      -5.038  10.810   2.515  1.00  0.00     0.004 C 
BRANCH   2   3
ATOM      3  C   UNL     1      -4.796  10.756   4.031  1.00  0.00    -0.003 C 
ATOM      4  C   UNL     1      -6.116  10.748   4.798  1.00  0.00     0.004 C 
ENDBRANCH   2   3
ENDBRANCH   1   2
BRANCH   1   5
ATOM      5  C   UNL     1      -6.121   9.661   0.544  1.00  0.00    -0.023 C 
ATOM      6  C   UNL     1      -7.187  10.363   0.145  1.00  0.00     0.042 C 
BRANCH   6   7
ATOM      7  C   UNL     1      -7.571  10.477  -1.275  1.00  0.00     0.152 C 
ATOM      8  O   UNL     1      -6.705  10.377  -2.187  1.00  0.00    -0.295 OA
ATOM      9  C   UNL     1      -9.000  10.720  -1.639  1.00  0.00     0.093 C 
ENDBRANCH   6   7
ENDBRANCH   1   5
TORSDOF 4
ENDMDL
