MODEL 1
REMARK VINA RESULT:    -3.985      0.000      0.000
REMARK INTER + INTRA:          -5.097
REMARK INTER:                  -5.034
REMARK INTRA:                  -0.063
REMARK UNBOUND:                -0.063
REMARK SMILES CCCCCCO
REMARK SMILES IDX 4 1 3 2 2 3 1 4 5 5 6 6 7 7
REMARK H PARENT 7 8
REMARK Flexibility Score: inf
ROOT
ATOM      1  C   UNL     1     -33.335 -20.506  28.231  1.00  0.00     0.002 C 
ENDROOT
BRANCH   1   2
ATOM      2  C   UNL     1     -32.351 -20.184  29.361  1.00  0.00    -0.000 C 
BRANCH   2   3
ATOM      3  C   UNL     1     -32.336 -18.682  29.665  1.00  0.00    -0.003 C 
ATOM      4  C   UNL     1     -32.397 -17.859  28.381  1.00  0.00     0.004 C 
ENDBRANCH   2   3
ENDBRANCH   1   2
BRANCH   1   5
ATOM      5  C   UNL     1     -33.493 -22.021  28.053  1.00  0.00     0.028 C 
BRANCH   5   6
ATOM      6  C   UNL     1     -33.112 -22.454  26.635  1.00  0.00     0.156 C 
BRANCH   6   7
ATOM      7  O   UNL     1     -34.237 -22.423  25.800  1.00  0.00    -0.396 OA
ATOM      8  H   UNL     1     -34.556 -21.483  25.788  1.00  0.00     0.210 HD
ENDBRANCH   6   7
ENDBRANCH   5   6
ENDBRANCH   1   5
TORSDOF 5
ENDMDL
MODEL 2
REMARK VINA RESULT:    -3.931      1.181      1.194
REMARK INTER + INTRA:          -5.028
REMARK INTER:                  -4.945
REMARK INTRA:                  -0.083
REMARK UNBOUND:                -0.063
REMARK SMILES CCCCCCO
REMARK SMILES IDX 4 1 3 2 2 3 1 4 5 5 6 6 7 7
REMARK H PARENT 7 8
REMARK Flexibility Score: inf
ROOT
ATOM      1  C   UNL     1     -33.466 -20.925  28.638  1.00  0.00     0.002 C 
ENDROOT
BRANCH   1   2
ATOM      2  C   UNL     1     -32.165 -20.383  29.242  1.00  0.00    -0.000 C 
BRANCH   2   3
ATOM      3  C   UNL     1     -32.330 -18.926  29.685  1.00  0.00    -0.003 C 
ATOM      4  C   UNL     1     -32.415 -17.990  28.482  1.00  0.00     0.004 C 
ENDBRANCH   2   3
ENDBRANCH   1   2
BRANCH   1   5
ATOM      5  C   UNL     1     -33.181 -21.830  27.434  1.00  0.00     0.028 C 
BRANCH   5   6
ATOM      6  C   UNL     1     -34.002 -23.120  27.505  1.00  0.00     0.156 C 
BRANCH   6   7
ATOM      7  O   UNL     1     -33.162 -24.236  27.380  1.00  0.00    -0.396 OA
ATOM      8  H   UNL     1     -32.237 -23.887  27.299  1.00  0.00     0.210 HD
ENDBRANCH   6   7
ENDBRANCH   5   6
ENDBRANCH   1   5
TORSDOF 5
ENDMDL
MODEL 3
REMARK VINA RESULT:    -3.426      2.498      4.326
REMARK INTER + INTRA:          -4.390
REMARK INTER:                  -4.329
REMARK INTRA:                  -0.062
REMARK UNBOUND:                -0.063
REMARK SMILES CCCCCCO
REMARK SMILES IDX 4 1 3 2 2 3 1 4 5 5 6 6 7 7
REMARK H PARENT 7 8
REMARK Flexibility Score: inf
ROOT
ATOM      1  C   UNL     1     -33.159 -20.800  28.411  1.00  0.00     0.002 C 
ENDROOT
BRANCH   1   2
ATOM      2  C   UNL     1     -32.456 -22.155  28.265  1.00  0.00    -0.000 C 
BRANCH   2   3
ATOM      3  C   UNL     1     -33.339 -23.152  27.507  1.00  0.00    -0.003 C 
ATOM      4  C   UNL     1     -33.435 -22.789  26.028  1.00  0.00     0.004 C 
ENDBRANCH   2   3
ENDBRANCH   1   2
BRANCH   1   5
ATOM      5  C   UNL     1     -32.731 -20.093  29.703  1.00  0.00     0.028 C 
BRANCH   5   6
ATOM      6  C   UNL     1     -32.129 -18.717  29.407  1.00  0.00     0.156 C 
BRANCH   6   7
ATOM      7  O   UNL     1     -30.733 -18.764  29.526  1.00  0.00    -0.396 OA
ATOM      8  H   UNL     1     -30.462 -19.697  29.327  1.00  0.00     0.210 HD
ENDBRANCH   6   7
ENDBRANCH   5   6
ENDBRANCH   1   5
TORSDOF 5
ENDMDL
MODEL 4
REMARK VINA RESULT:    -3.325     11.893     13.327
REMARK INTER + INTRA:          -4.263
REMARK INTER:                  -4.147
REMARK INTRA:                  -0.116
REMARK UNBOUND:                -0.063
REMARK SMILES CCCCCCO
REMARK SMILES IDX 4 1 3 2 2 3 1 4 5 5 6 6 7 7
REMARK H PARENT 7 8
REMARK Flexibility Score: inf
ROOT
ATOM      1  C   UNL     1     -22.958 -28.505  27.292  1.00  0.00     0.002 C 
ENDROOT
BRANCH   1   2
ATOM      2  C   UNL     1     -23.723 -29.705  26.723  1.00  0.00    -0.000 C 
BRANCH   2   3
ATOM      3  C   UNL     1     -23.337 -29.960  25.262  1.00  0.00    -0.003 C 
ATOM      4  C   UNL     1     -23.432 -31.445  24.919  1.00  0.00     0.004 C 
ENDBRANCH   2   3
ENDBRANCH   1   2
BRANCH   1   5
ATOM      5  C   UNL     1     -22.465 -27.583  26.171  1.00  0.00     0.028 C 
BRANCH   5   6
ATOM      6  C   UNL     1     -23.031 -26.169  26.329  1.00  0.00     0.156 C 
BRANCH   6   7
ATOM      7  O   UNL     1     -23.703 -25.783  25.160  1.00  0.00    -0.396 OA
ATOM      8  H   UNL     1     -23.517 -24.817  25.031  1.00  0.00     0.210 HD
ENDBRANCH   6   7
ENDBRANCH   5   6
ENDBRANCH   1   5
TORSDOF 5
ENDMDL
MODEL 5
REMARK VINA RESULT:    -3.199      1.989      4.019
REMARK INTER + INTRA:          -4.104
REMARK INTER:                  -4.004
REMARK INTRA:                  -0.100
REMARK UNBOUND:                -0.063
REMARK SMILES CCCCCCO
REMARK SMILES IDX 4 1 3 2 2 3 1 4 5 5 6 6 7 7
REMARK H PARENT 7 8
REMARK Flexibility Score: inf
ROOT
ATOM      1  C   UNL     1     -32.719 -19.783  29.680  1.00  0.00     0.002 C 
ENDROOT
BRANCH   1   2
ATOM      2  C   UNL     1     -32.343 -21.104  28.998  1.00  0.00    -0.000 C 
BRANCH   2   3
ATOM      3  C   UNL     1     -33.495 -21.621  28.130  1.00  0.00    -0.003 C 
ATOM      4  C   UNL     1     -33.200 -23.022  27.601  1.00  0.00     0.004 C 
ENDBRANCH   2   3
ENDBRANCH   1   2
BRANCH   1   5
ATOM      5  C   UNL     1     -31.692 -18.689  29.366  1.00  0.00     0.028 C 
BRANCH   5   6
ATOM      6  C   UNL     1     -32.340 -17.521  28.619  1.00  0.00     0.156 C 
BRANCH   6   7
ATOM      7  O   UNL     1     -33.112 -17.998  27.550  1.00  0.00    -0.396 OA
ATOM      8  H   UNL     1     -32.539 -18.633  27.047  1.00  0.00     0.210 HD
ENDBRANCH   6   7
ENDBRANCH   5   6
ENDBRANCH   1   5
TORSDOF 5
ENDMDL
MODEL 6
REMARK VINA RESULT:    -2.983     11.974     12.734
REMARK INTER + INTRA:          -3.830
REMARK INTER:                  -3.752
REMARK INTRA:                  -0.078
REMARK UNBOUND:                -0.063
REMARK SMILES CCCCCCO
REMARK SMILES IDX 4 1 3 2 2 3 1 4 5 5 6 6 7 7
REMARK H PARENT 7 8
REMARK Flexibility Score: inf
ROOT
ATOM      1  C   UNL     1     -23.274 -28.460  27.421  1.00  0.00     0.002 C 
ENDROOT
BRANCH   1   2
ATOM      2  C   UNL     1     -22.456 -27.537  26.511  1.00  0.00    -0.000 C 
BRANCH   2   3
ATOM      3  C   UNL     1     -23.046 -26.123  26.490  1.00  0.00    -0.003 C 
ATOM      4  C   UNL     1     -22.333 -25.214  27.488  1.00  0.00     0.004 C 
ENDBRANCH   2   3
ENDBRANCH   1   2
BRANCH   1   5
ATOM      5  C   UNL     1     -23.399 -29.863  26.814  1.00  0.00     0.028 C 
BRANCH   5   6
ATOM      6  C   UNL     1     -23.422 -29.804  25.285  1.00  0.00     0.156 C 
BRANCH   6   7
ATOM      7  O   UNL     1     -23.686 -31.075  24.755  1.00  0.00    -0.396 OA
ATOM      8  H   UNL     1     -23.690 -31.706  25.520  1.00  0.00     0.210 HD
ENDBRANCH   6   7
ENDBRANCH   5   6
ENDBRANCH   1   5
TORSDOF 5
ENDMDL
MODEL 7
REMARK VINA RESULT:    -2.955      1.967      2.585
REMARK INTER + INTRA:          -3.796
REMARK INTER:                  -3.692
REMARK INTRA:                  -0.104
REMARK UNBOUND:                -0.063
REMARK SMILES CCCCCCO
REMARK SMILES IDX 4 1 3 2 2 3 1 4 5 5 6 6 7 7
REMARK H PARENT 7 8
REMARK Flexibility Score: inf
ROOT
ATOM      1  C   UNL     1     -33.823 -21.459  28.201  1.00  0.00     0.002 C 
ENDROOT
BRANCH   1   2
ATOM      2  C   UNL     1     -32.581 -20.990  28.968  1.00  0.00    -0.000 C 
BRANCH   2   3
ATOM      3  C   UNL     1     -31.403 -21.942  28.742  1.00  0.00    -0.003 C 
ATOM      4  C   UNL     1     -30.197 -21.537  29.584  1.00  0.00     0.004 C 
ENDBRANCH   2   3
ENDBRANCH   1   2
BRANCH   1   5
ATOM      5  C   UNL     1     -33.597 -22.843  27.580  1.00  0.00     0.028 C 
BRANCH   5   6
ATOM      6  C   UNL     1     -34.910 -23.437  27.062  1.00  0.00     0.156 C 
BRANCH   6   7
ATOM      7  O   UNL     1     -35.993 -22.928  27.793  1.00  0.00    -0.396 OA
ATOM      8  H   UNL     1     -36.508 -23.711  28.120  1.00  0.00     0.210 HD
ENDBRANCH   6   7
ENDBRANCH   5   6
ENDBRANCH   1   5
TORSDOF 5
ENDMDL
MODEL 8
REMARK VINA RESULT:    -2.936     11.522     12.791
REMARK INTER + INTRA:          -3.772
REMARK INTER:                  -3.641
REMARK INTRA:                  -0.130
REMARK UNBOUND:                -0.063
REMARK SMILES CCCCCCO
REMARK SMILES IDX 4 1 3 2 2 3 1 4 5 5 6 6 7 7
REMARK H PARENT 7 8
REMARK Flexibility Score: inf
ROOT
ATOM      1  C   UNL     1     -22.473 -27.629  26.387  1.00  0.00     0.002 C 
ENDROOT
BRANCH   1   2
ATOM      2  C   UNL     1     -23.052 -28.659  27.364  1.00  0.00    -0.000 C 
BRANCH   2   3
ATOM      3  C   UNL     1     -23.681 -29.836  26.611  1.00  0.00    -0.003 C 
ATOM      4  C   UNL     1     -23.303 -29.810  25.132  1.00  0.00     0.004 C 
ENDBRANCH   2   3
ENDBRANCH   1   2
BRANCH   1   5
ATOM      5  C   UNL     1     -22.964 -26.215  26.720  1.00  0.00     0.028 C 
BRANCH   5   6
ATOM      6  C   UNL     1     -23.043 -25.347  25.461  1.00  0.00     0.156 C 
BRANCH   6   7
ATOM      7  O   UNL     1     -23.749 -26.019  24.453  1.00  0.00    -0.396 OA
ATOM      8  H   UNL     1     -23.141 -26.718  24.099  1.00  0.00     0.210 HD
ENDBRANCH   6   7
ENDBRANCH   5   6
ENDBRANCH   1   5
TORSDOF 5
ENDMDL
MODEL 9
REMARK VINA RESULT:    -2.797      2.201      3.923
REMARK INTER + INTRA:          -3.596
REMARK INTER:                  -3.522
REMARK INTRA:                  -0.074
REMARK UNBOUND:                -0.063
REMARK SMILES CCCCCCO
REMARK SMILES IDX 4 1 3 2 2 3 1 4 5 5 6 6 7 7
REMARK H PARENT 7 8
REMARK Flexibility Score: inf
ROOT
ATOM      1  C   UNL     1     -33.181 -21.309  28.712  1.00  0.00     0.002 C 
ENDROOT
BRANCH   1   2
ATOM      2  C   UNL     1     -33.454 -21.046  27.226  1.00  0.00    -0.000 C 
BRANCH   2   3
ATOM      3  C   UNL     1     -33.483 -22.356  26.432  1.00  0.00    -0.003 C 
ATOM      4  C   UNL     1     -34.297 -23.423  27.159  1.00  0.00     0.004 C 
ENDBRANCH   2   3
ENDBRANCH   1   2
BRANCH   1   5
ATOM      5  C   UNL     1     -31.912 -20.585  29.176  1.00  0.00     0.028 C 
BRANCH   5   6
ATOM      6  C   UNL     1     -30.777 -21.576  29.444  1.00  0.00     0.156 C 
BRANCH   6   7
ATOM      7  O   UNL     1     -30.861 -22.659  28.558  1.00  0.00    -0.396 OA
ATOM      8  H   UNL     1     -31.165 -22.292  27.688  1.00  0.00     0.210 HD
ENDBRANCH   6   7
ENDBRANCH   5   6
ENDBRANCH   1   5
TORSDOF 5
ENDMDL
