MODEL 1
REMARK VINA RESULT:    -4.573      0.000      0.000
REMARK INTER + INTRA:          -5.583
REMARK INTER:                  -5.241
REMARK INTRA:                  -0.342
REMARK UNBOUND:                -0.342
REMARK SMILES COc1ccc(C(C)=O)c(O)c1
REMARK SMILES IDX 6 1 10 2 12 3 3 4 4 5 5 6 7 7 8 8 9 9 11 10 2 12 1 13
REMARK H PARENT 11 11
REMARK Flexibility Score: inf
ROOT
ATOM      1  C   UNL     1      17.074  19.235  17.355  1.00  0.00     0.059 A 
ATOM      2  C   UNL     1      15.917  18.455  17.123  1.00  0.00     0.130 A 
ATOM      3  C   UNL     1      15.126  18.690  15.989  1.00  0.00     0.093 A 
ATOM      4  C   UNL     1      15.459  19.693  15.075  1.00  0.00     0.122 A 
ATOM      5  C   UNL     1      16.605  20.472  15.304  1.00  0.00     0.047 A 
ATOM      6  C   UNL     1      17.402  20.245  16.429  1.00  0.00     0.019 A 
ENDROOT
BRANCH   1   7
ATOM      7  C   UNL     1      17.939  19.000  18.548  1.00  0.00     0.163 C 
ATOM      8  C   UNL     1      18.465  20.134  19.375  1.00  0.00     0.093 C 
ATOM      9  O   UNL     1      18.271  17.827  18.868  1.00  0.00    -0.294 OA
ENDBRANCH   1   7
BRANCH   2  10
ATOM     10  O   UNL     1      15.542  17.454  18.020  1.00  0.00    -0.507 OA
ATOM     11  H   UNL     1      16.203  17.046  18.672  1.00  0.00     0.293 HD
ENDBRANCH   2  10
BRANCH   4  12
ATOM     12  O   UNL     1      14.630  19.882  13.961  1.00  0.00    -0.497 OA
ATOM     13  C   UNL     1      13.518  19.054  13.636  1.00  0.00     0.278 C 
ENDBRANCH   4  12
TORSDOF 3
ENDMDL
MODEL 2
REMARK VINA RESULT:    -4.563      1.659      2.012
REMARK INTER + INTRA:          -5.572
REMARK INTER:                  -5.227
REMARK INTRA:                  -0.345
REMARK UNBOUND:                -0.342
REMARK SMILES COc1ccc(C(C)=O)c(O)c1
REMARK SMILES IDX 6 1 10 2 12 3 3 4 4 5 5 6 7 7 8 8 9 9 11 10 2 12 1 13
REMARK H PARENT 11 11
REMARK Flexibility Score: inf
ROOT
ATOM      1  C   UNL     1      17.321  18.542  17.407  1.00  0.00     0.059 A 
ATOM      2  C   UNL     1      16.546  19.660  17.018  1.00  0.00     0.130 A 
ATOM      3  C   UNL     1      15.833  19.636  15.811  1.00  0.00     0.093 A 
ATOM      4  C   UNL     1      15.875  18.518  14.973  1.00  0.00     0.122 A 
ATOM      5  C   UNL     1      16.647  17.408  15.353  1.00  0.00     0.047 A 
ATOM      6  C   UNL     1      17.359  17.420  16.555  1.00  0.00     0.019 A 
ENDROOT
BRANCH   1   7
ATOM      7  C   UNL     1      18.081  18.536  18.690  1.00  0.00     0.163 C 
ATOM      8  C   UNL     1      17.948  17.417  19.680  1.00  0.00     0.093 C 
ATOM      9  O   UNL     1      18.838  19.500  18.982  1.00  0.00    -0.294 OA
ENDBRANCH   1   7
BRANCH   2  10
ATOM     10  O   UNL     1      16.490  20.800  17.820  1.00  0.00    -0.507 OA
ATOM     11  H   UNL     1      16.017  21.644  17.516  1.00  0.00     0.293 HD
ENDBRANCH   2  10
BRANCH   4  12
ATOM     12  O   UNL     1      15.142  18.553  13.778  1.00  0.00    -0.497 OA
ATOM     13  C   UNL     1      14.051  19.433  13.529  1.00  0.00     0.278 C 
ENDBRANCH   4  12
TORSDOF 3
ENDMDL
MODEL 3
REMARK VINA RESULT:    -4.395      9.189      9.719
REMARK INTER + INTRA:          -5.380
REMARK INTER:                  -5.100
REMARK INTRA:                  -0.280
REMARK UNBOUND:                -0.342
REMARK SMILES COc1ccc(C(C)=O)c(O)c1
REMARK SMILES IDX 6 1 10 2 12 3 3 4 4 5 5 6 7 7 8 8 9 9 11 10 2 12 1 13
REMARK H PARENT 11 11
REMARK Flexibility Score: inf
ROOT
ATOM      1  C   UNL     1      19.360  12.774  11.119  1.00  0.00     0.059 A 
ATOM      2  C   UNL     1      19.464  11.363  11.077  1.00  0.00     0.130 A 
ATOM      3  C   UNL     1      18.347  10.568  11.369  1.00  0.00     0.093 A 
ATOM      4  C   UNL     1      17.121  11.146  11.709  1.00  0.00     0.122 A 
ATOM      5  C   UNL     1      17.015  12.546  11.756  1.00  0.00     0.047 A 
ATOM      6  C   UNL     1      18.121  13.348  11.464  1.00  0.00     0.019 A 
ENDROOT
BRANCH   1   7
ATOM      7  C   UNL     1      20.530  13.644  10.803  1.00  0.00     0.163 C 
ATOM      8  C   UNL     1      20.641  15.040  11.341  1.00  0.00     0.093 C 
ATOM      9  O   UNL     1      21.444  13.226  10.043  1.00  0.00    -0.294 OA
ENDBRANCH   1   7
BRANCH   2  10
ATOM     10  O   UNL     1      20.674  10.748  10.757  1.00  0.00    -0.507 OA
ATOM     11  H   UNL     1      20.710   9.890  10.217  1.00  0.00     0.293 HD
ENDBRANCH   2  10
BRANCH   4  12
ATOM     12  O   UNL     1      16.040  10.299  11.992  1.00  0.00    -0.497 OA
ATOM     13  C   UNL     1      15.823   9.664  13.248  1.00  0.00     0.278 C 
ENDBRANCH   4  12
TORSDOF 3
ENDMDL
MODEL 4
REMARK VINA RESULT:    -4.353      8.208      9.305
REMARK INTER + INTRA:          -5.331
REMARK INTER:                  -4.989
REMARK INTRA:                  -0.342
REMARK UNBOUND:                -0.342
REMARK SMILES COc1ccc(C(C)=O)c(O)c1
REMARK SMILES IDX 6 1 10 2 12 3 3 4 4 5 5 6 7 7 8 8 9 9 11 10 2 12 1 13
REMARK H PARENT 11 11
REMARK Flexibility Score: inf
ROOT
ATOM      1  C   UNL     1      19.820  16.807   9.291  1.00  0.00     0.059 A 
ATOM      2  C   UNL     1      20.625  16.630  10.441  1.00  0.00     0.130 A 
ATOM      3  C   UNL     1      20.600  15.412  11.136  1.00  0.00     0.093 A 
ATOM      4  C   UNL     1      19.783  14.360  10.714  1.00  0.00     0.122 A 
ATOM      5  C   UNL     1      18.979  14.534   9.576  1.00  0.00     0.047 A 
ATOM      6  C   UNL     1      18.998  15.741   8.874  1.00  0.00     0.019 A 
ENDROOT
BRANCH   1   7
ATOM      7  C   UNL     1      19.835  18.088   8.527  1.00  0.00     0.163 C 
ATOM      8  C   UNL     1      18.566  18.757   8.086  1.00  0.00     0.093 C 
ATOM      9  O   UNL     1      20.930  18.623   8.209  1.00  0.00    -0.294 OA
ENDBRANCH   1   7
BRANCH   2  10
ATOM     10  O   UNL     1      21.444  17.661  10.902  1.00  0.00    -0.507 OA
ATOM     11  H   UNL     1      21.103  18.364  11.549  1.00  0.00     0.293 HD
ENDBRANCH   2  10
BRANCH   4  12
ATOM     12  O   UNL     1      19.800  13.167  11.451  1.00  0.00    -0.497 OA
ATOM     13  C   UNL     1      19.078  11.992  11.094  1.00  0.00     0.278 C 
ENDBRANCH   4  12
TORSDOF 3
ENDMDL
MODEL 5
REMARK VINA RESULT:    -4.306     11.071     12.051
REMARK INTER + INTRA:          -5.277
REMARK INTER:                  -4.936
REMARK INTRA:                  -0.340
REMARK UNBOUND:                -0.342
REMARK SMILES COc1ccc(C(C)=O)c(O)c1
REMARK SMILES IDX 6 1 10 2 12 3 3 4 4 5 5 6 7 7 8 8 9 9 11 10 2 12 1 13
REMARK H PARENT 11 11
REMARK Flexibility Score: inf
ROOT
ATOM      1  C   UNL     1      15.874   9.491  11.483  1.00  0.00     0.059 A 
ATOM      2  C   UNL     1      14.606   8.950  11.165  1.00  0.00     0.130 A 
ATOM      3  C   UNL     1      14.456   8.124  10.042  1.00  0.00     0.093 A 
ATOM      4  C   UNL     1      15.544   7.824   9.219  1.00  0.00     0.122 A 
ATOM      5  C   UNL     1      16.804   8.363   9.529  1.00  0.00     0.047 A 
ATOM      6  C   UNL     1      16.966   9.184  10.647  1.00  0.00     0.019 A 
ENDROOT
BRANCH   1   7
ATOM      7  C   UNL     1      16.065  10.364  12.678  1.00  0.00     0.163 C 
ATOM      8  C   UNL     1      16.662  11.736  12.563  1.00  0.00     0.093 C 
ATOM      9  O   UNL     1      15.750   9.947  13.824  1.00  0.00    -0.294 OA
ENDBRANCH   1   7
BRANCH   2  10
ATOM     10  O   UNL     1      13.492   9.238  11.954  1.00  0.00    -0.507 OA
ATOM     11  H   UNL     1      12.998   8.514  12.464  1.00  0.00     0.293 HD
ENDBRANCH   2  10
BRANCH   4  12
ATOM     12  O   UNL     1      15.332   6.993   8.109  1.00  0.00    -0.497 OA
ATOM     13  C   UNL     1      14.055   6.713   7.547  1.00  0.00     0.278 C 
ENDBRANCH   4  12
TORSDOF 3
ENDMDL
MODEL 6
REMARK VINA RESULT:    -4.300      7.692      8.739
REMARK INTER + INTRA:          -5.270
REMARK INTER:                  -4.925
REMARK INTRA:                  -0.345
REMARK UNBOUND:                -0.342
REMARK SMILES COc1ccc(C(C)=O)c(O)c1
REMARK SMILES IDX 6 1 10 2 12 3 3 4 4 5 5 6 7 7 8 8 9 9 11 10 2 12 1 13
REMARK H PARENT 11 11
REMARK Flexibility Score: inf
ROOT
ATOM      1  C   UNL     1      20.193  17.414   9.848  1.00  0.00     0.059 A 
ATOM      2  C   UNL     1      20.883  18.456  10.511  1.00  0.00     0.130 A 
ATOM      3  C   UNL     1      21.026  19.707   9.896  1.00  0.00     0.093 A 
ATOM      4  C   UNL     1      20.498  19.949   8.625  1.00  0.00     0.122 A 
ATOM      5  C   UNL     1      19.815  18.915   7.962  1.00  0.00     0.047 A 
ATOM      6  C   UNL     1      19.665  17.666   8.567  1.00  0.00     0.019 A 
ENDROOT
BRANCH   1   7
ATOM      7  C   UNL     1      20.017  16.076  10.484  1.00  0.00     0.163 C 
ATOM      8  C   UNL     1      18.658  15.474  10.691  1.00  0.00     0.093 C 
ATOM      9  O   UNL     1      21.020  15.430  10.890  1.00  0.00    -0.294 OA
ENDBRANCH   1   7
BRANCH   2  10
ATOM     10  O   UNL     1      21.438  18.250  11.775  1.00  0.00    -0.507 OA
ATOM     11  H   UNL     1      22.364  17.854  11.894  1.00  0.00     0.293 HD
ENDBRANCH   2  10
BRANCH   4  12
ATOM     12  O   UNL     1      20.674  21.220   8.060  1.00  0.00    -0.497 OA
ATOM     13  C   UNL     1      21.486  22.245   8.623  1.00  0.00     0.278 C 
ENDBRANCH   4  12
TORSDOF 3
ENDMDL
MODEL 7
REMARK VINA RESULT:    -4.285     11.598     12.667
REMARK INTER + INTRA:          -5.253
REMARK INTER:                  -4.919
REMARK INTRA:                  -0.334
REMARK UNBOUND:                -0.342
REMARK SMILES COc1ccc(C(C)=O)c(O)c1
REMARK SMILES IDX 6 1 10 2 12 3 3 4 4 5 5 6 7 7 8 8 9 9 11 10 2 12 1 13
REMARK H PARENT 11 11
REMARK Flexibility Score: inf
ROOT
ATOM      1  C   UNL     1      16.085   9.251  10.807  1.00  0.00     0.059 A 
ATOM      2  C   UNL     1      16.794   8.623   9.756  1.00  0.00     0.130 A 
ATOM      3  C   UNL     1      16.127   7.759   8.876  1.00  0.00     0.093 A 
ATOM      4  C   UNL     1      14.762   7.499   9.021  1.00  0.00     0.122 A 
ATOM      5  C   UNL     1      14.055   8.117  10.066  1.00  0.00     0.047 A 
ATOM      6  C   UNL     1      14.709   8.981  10.946  1.00  0.00     0.019 A 
ENDROOT
BRANCH   1   7
ATOM      7  C   UNL     1      16.767  10.183  11.752  1.00  0.00     0.163 C 
ATOM      8  C   UNL     1      16.178  11.517  12.104  1.00  0.00     0.093 C 
ATOM      9  O   UNL     1      17.880   9.873  12.255  1.00  0.00    -0.294 OA
ENDBRANCH   1   7
BRANCH   2  10
ATOM     10  O   UNL     1      18.161   8.846   9.588  1.00  0.00    -0.507 OA
ATOM     11  H   UNL     1      18.828   8.083   9.569  1.00  0.00     0.293 HD
ENDBRANCH   2  10
BRANCH   4  12
ATOM     12  O   UNL     1      14.150   6.624   8.111  1.00  0.00    -0.497 OA
ATOM     13  C   UNL     1      13.949   6.911   6.731  1.00  0.00     0.278 C 
ENDBRANCH   4  12
TORSDOF 3
ENDMDL
MODEL 8
REMARK VINA RESULT:    -4.264      9.906     10.591
REMARK INTER + INTRA:          -5.228
REMARK INTER:                  -4.889
REMARK INTRA:                  -0.340
REMARK UNBOUND:                -0.342
REMARK SMILES COc1ccc(C(C)=O)c(O)c1
REMARK SMILES IDX 6 1 10 2 12 3 3 4 4 5 5 6 7 7 8 8 9 9 11 10 2 12 1 13
REMARK H PARENT 11 11
REMARK Flexibility Score: inf
ROOT
ATOM      1  C   UNL     1      17.620  11.436  11.760  1.00  0.00     0.059 A 
ATOM      2  C   UNL     1      18.602  10.709  11.046  1.00  0.00     0.130 A 
ATOM      3  C   UNL     1      18.226   9.624  10.243  1.00  0.00     0.093 A 
ATOM      4  C   UNL     1      16.887   9.238  10.135  1.00  0.00     0.122 A 
ATOM      5  C   UNL     1      15.910   9.954  10.846  1.00  0.00     0.047 A 
ATOM      6  C   UNL     1      16.273  11.039  11.646  1.00  0.00     0.019 A 
ENDROOT
BRANCH   1   7
ATOM      7  C   UNL     1      17.990  12.602  12.614  1.00  0.00     0.163 C 
ATOM      8  C   UNL     1      17.404  12.795  13.981  1.00  0.00     0.093 C 
ATOM      9  O   UNL     1      18.792  13.474  12.183  1.00  0.00    -0.294 OA
ENDBRANCH   1   7
BRANCH   2  10
ATOM     10  O   UNL     1      19.950  11.054  11.139  1.00  0.00    -0.507 OA
ATOM     11  H   UNL     1      20.411  11.171  12.034  1.00  0.00     0.293 HD
ENDBRANCH   2  10
BRANCH   4  12
ATOM     12  O   UNL     1      16.573   8.143   9.317  1.00  0.00    -0.497 OA
ATOM     13  C   UNL     1      15.261   7.615   9.149  1.00  0.00     0.278 C 
ENDBRANCH   4  12
TORSDOF 3
ENDMDL
MODEL 9
REMARK VINA RESULT:    -4.216      8.567      9.367
REMARK INTER + INTRA:          -5.174
REMARK INTER:                  -4.834
REMARK INTRA:                  -0.340
REMARK UNBOUND:                -0.342
REMARK SMILES COc1ccc(C(C)=O)c(O)c1
REMARK SMILES IDX 6 1 10 2 12 3 3 4 4 5 5 6 7 7 8 8 9 9 11 10 2 12 1 13
REMARK H PARENT 11 11
REMARK Flexibility Score: inf
ROOT
ATOM      1  C   UNL     1      18.111  11.040  11.916  1.00  0.00     0.059 A 
ATOM      2  C   UNL     1      17.399  11.586  13.010  1.00  0.00     0.130 A 
ATOM      3  C   UNL     1      17.551  12.939  13.344  1.00  0.00     0.093 A 
ATOM      4  C   UNL     1      18.405  13.769  12.613  1.00  0.00     0.122 A 
ATOM      5  C   UNL     1      19.118  13.230  11.529  1.00  0.00     0.047 A 
ATOM      6  C   UNL     1      18.971  11.884  11.185  1.00  0.00     0.019 A 
ENDROOT
BRANCH   1   7
ATOM      7  C   UNL     1      17.960   9.607  11.532  1.00  0.00     0.163 C 
ATOM      8  C   UNL     1      17.655   9.197  10.122  1.00  0.00     0.093 C 
ATOM      9  O   UNL     1      18.060   8.703  12.404  1.00  0.00    -0.294 OA
ENDBRANCH   1   7
BRANCH   2  10
ATOM     10  O   UNL     1      16.547  10.787  13.773  1.00  0.00    -0.507 OA
ATOM     11  H   UNL     1      16.305   9.843  13.492  1.00  0.00     0.293 HD
ENDBRANCH   2  10
BRANCH   4  12
ATOM     12  O   UNL     1      18.518  15.113  12.995  1.00  0.00    -0.497 OA
ATOM     13  C   UNL     1      19.745  15.832  13.055  1.00  0.00     0.278 C 
ENDBRANCH   4  12
TORSDOF 3
ENDMDL
