MODEL 1
REMARK VINA RESULT:    -7.280      0.000      0.000
REMARK INTER + INTRA:          -7.280
REMARK INTER:                  -7.280
REMARK INTRA:                   0.000
REMARK UNBOUND:                 0.000
REMARK SMILES C=C1CCC[C@@]2(C)CC(=O)C(=C(C)C)C[C@@H]12
REMARK SMILES IDX 13 1 12 2 11 3 15 4 16 5 2 6 1 7 3 8 4 9 5 10 6 11 8 12 9 13
REMARK SMILES IDX 10 14 7 15 14 16
REMARK H PARENT
REMARK Flexibility Score: inf
ROOT
ATOM      1  C   UNL     1      -6.458 -15.909  30.606  1.00  0.00     0.039 C 
ATOM      2  C   UNL     1      -6.156 -14.822  29.600  1.00  0.00    -0.070 C 
ATOM      3  C   UNL     1      -5.109 -13.964  29.772  1.00  0.00    -0.006 C 
ATOM      4  C   UNL     1      -4.771 -12.891  28.756  1.00  0.00     0.047 C 
ATOM      5  C   UNL     1      -3.250 -12.616  28.636  1.00  0.00     0.025 C 
ATOM      6  C   UNL     1      -3.046 -11.374  27.783  1.00  0.00    -0.073 C 
ATOM      7  C   UNL     1      -2.750 -11.482  26.478  1.00  0.00     0.008 C 
ATOM      8  C   UNL     1      -3.340 -10.018  28.390  1.00  0.00     0.031 C 
ATOM      9  C   UNL     1      -2.713  -9.875  29.783  1.00  0.00     0.005 C 
ATOM     10  C   UNL     1      -2.965 -11.102  30.678  1.00  0.00     0.008 C 
ATOM     11  C   UNL     1      -2.528 -12.439  30.009  1.00  0.00    -0.018 C 
ATOM     12  C   UNL     1      -2.850 -13.635  30.944  1.00  0.00     0.088 C 
ATOM     13  C   UNL     1      -4.314 -13.926  31.020  1.00  0.00     0.159 C 
ATOM     14  O   UNL     1      -4.846 -14.135  32.144  1.00  0.00    -0.295 OA
ATOM     15  C   UNL     1      -0.990 -12.441  29.794  1.00  0.00     0.012 C 
ATOM     16  C   UNL     1      -7.037 -14.750  28.375  1.00  0.00     0.039 C 
ENDROOT
TORSDOF 0
ENDMDL
MODEL 2
REMARK VINA RESULT:    -7.109      1.636      3.240
REMARK INTER + INTRA:          -7.109
REMARK INTER:                  -7.109
REMARK INTRA:                   0.000
REMARK UNBOUND:                 0.000
REMARK SMILES C=C1CCC[C@@]2(C)CC(=O)C(=C(C)C)C[C@@H]12
REMARK SMILES IDX 13 1 12 2 11 3 15 4 16 5 2 6 1 7 3 8 4 9 5 10 6 11 8 12 9 13
REMARK SMILES IDX 10 14 7 15 14 16
REMARK H PARENT
REMARK Flexibility Score: inf
ROOT
ATOM      1  C   UNL     1      -7.109 -15.140  29.100  1.00  0.00     0.039 C 
ATOM      2  C   UNL     1      -5.965 -14.770  30.017  1.00  0.00    -0.070 C 
ATOM      3  C   UNL     1      -4.880 -14.083  29.557  1.00  0.00    -0.006 C 
ATOM      4  C   UNL     1      -3.740 -13.674  30.470  1.00  0.00     0.047 C 
ATOM      5  C   UNL     1      -3.098 -12.317  30.081  1.00  0.00     0.025 C 
ATOM      6  C   UNL     1      -1.830 -12.126  30.898  1.00  0.00    -0.073 C 
ATOM      7  C   UNL     1      -1.842 -11.376  32.011  1.00  0.00     0.008 C 
ATOM      8  C   UNL     1      -0.598 -12.925  30.526  1.00  0.00     0.031 C 
ATOM      9  C   UNL     1      -0.329 -12.876  29.016  1.00  0.00     0.005 C 
ATOM     10  C   UNL     1      -1.595 -13.129  28.177  1.00  0.00     0.008 C 
ATOM     11  C   UNL     1      -2.773 -12.183  28.559  1.00  0.00    -0.018 C 
ATOM     12  C   UNL     1      -4.026 -12.522  27.709  1.00  0.00     0.088 C 
ATOM     13  C   UNL     1      -4.669 -13.807  28.118  1.00  0.00     0.159 C 
ATOM     14  O   UNL     1      -5.020 -14.633  27.234  1.00  0.00    -0.295 OA
ATOM     15  C   UNL     1      -2.394 -10.714  28.234  1.00  0.00     0.012 C 
ATOM     16  C   UNL     1      -6.092 -15.158  31.471  1.00  0.00     0.039 C 
ENDROOT
TORSDOF 0
ENDMDL
MODEL 3
REMARK VINA RESULT:    -6.156      1.660      4.293
REMARK INTER + INTRA:          -6.156
REMARK INTER:                  -6.156
REMARK INTRA:                   0.000
REMARK UNBOUND:                 0.000
REMARK SMILES C=C1CCC[C@@]2(C)CC(=O)C(=C(C)C)C[C@@H]12
REMARK SMILES IDX 13 1 12 2 11 3 15 4 16 5 2 6 1 7 3 8 4 9 5 10 6 11 8 12 9 13
REMARK SMILES IDX 10 14 7 15 14 16
REMARK H PARENT
REMARK Flexibility Score: inf
ROOT
ATOM      1  C   UNL     1       0.289 -12.583  31.903  1.00  0.00     0.039 C 
ATOM      2  C   UNL     1      -0.115 -12.809  30.464  1.00  0.00    -0.070 C 
ATOM      3  C   UNL     1      -1.424 -12.772  30.078  1.00  0.00    -0.006 C 
ATOM      4  C   UNL     1      -1.843 -12.962  28.634  1.00  0.00     0.047 C 
ATOM      5  C   UNL     1      -3.085 -12.122  28.240  1.00  0.00     0.025 C 
ATOM      6  C   UNL     1      -3.558 -12.568  26.865  1.00  0.00    -0.073 C 
ATOM      7  C   UNL     1      -3.208 -11.880  25.766  1.00  0.00     0.008 C 
ATOM      8  C   UNL     1      -4.293 -13.887  26.741  1.00  0.00     0.031 C 
ATOM      9  C   UNL     1      -5.389 -14.024  27.805  1.00  0.00     0.005 C 
ATOM     10  C   UNL     1      -4.904 -13.633  29.213  1.00  0.00     0.008 C 
ATOM     11  C   UNL     1      -4.263 -12.214  29.260  1.00  0.00    -0.018 C 
ATOM     12  C   UNL     1      -3.758 -11.904  30.695  1.00  0.00     0.088 C 
ATOM     13  C   UNL     1      -2.534 -12.682  31.054  1.00  0.00     0.159 C 
ATOM     14  O   UNL     1      -2.466 -13.247  32.178  1.00  0.00    -0.295 OA
ATOM     15  C   UNL     1      -5.333 -11.142  28.921  1.00  0.00     0.012 C 
ATOM     16  C   UNL     1       0.993 -13.039  29.463  1.00  0.00     0.039 C 
ENDROOT
TORSDOF 0
ENDMDL
MODEL 4
REMARK VINA RESULT:    -5.554      2.569      4.425
REMARK INTER + INTRA:          -5.554
REMARK INTER:                  -5.554
REMARK INTRA:                   0.000
REMARK UNBOUND:                 0.000
REMARK SMILES C=C1CCC[C@@]2(C)CC(=O)C(=C(C)C)C[C@@H]12
REMARK SMILES IDX 13 1 12 2 11 3 15 4 16 5 2 6 1 7 3 8 4 9 5 10 6 11 8 12 9 13
REMARK SMILES IDX 10 14 7 15 14 16
REMARK H PARENT
REMARK Flexibility Score: inf
ROOT
ATOM      1  C   UNL     1      -3.681 -11.422  25.370  1.00  0.00     0.039 C 
ATOM      2  C   UNL     1      -3.501 -12.398  26.510  1.00  0.00    -0.070 C 
ATOM      3  C   UNL     1      -3.167 -11.974  27.763  1.00  0.00    -0.006 C 
ATOM      4  C   UNL     1      -3.017 -12.935  28.926  1.00  0.00     0.047 C 
ATOM      5  C   UNL     1      -3.462 -12.332  30.283  1.00  0.00     0.025 C 
ATOM      6  C   UNL     1      -3.046 -13.280  31.397  1.00  0.00    -0.073 C 
ATOM      7  C   UNL     1      -3.927 -14.148  31.919  1.00  0.00     0.008 C 
ATOM      8  C   UNL     1      -1.586 -13.339  31.794  1.00  0.00     0.031 C 
ATOM      9  C   UNL     1      -0.992 -11.936  31.974  1.00  0.00     0.005 C 
ATOM     10  C   UNL     1      -1.356 -10.983  30.820  1.00  0.00     0.008 C 
ATOM     11  C   UNL     1      -2.890 -10.905  30.561  1.00  0.00    -0.018 C 
ATOM     12  C   UNL     1      -3.181  -9.966  29.360  1.00  0.00     0.088 C 
ATOM     13  C   UNL     1      -2.794 -10.570  28.050  1.00  0.00     0.159 C 
ATOM     14  O   UNL     1      -2.157  -9.876  27.212  1.00  0.00    -0.295 OA
ATOM     15  C   UNL     1      -3.601 -10.289  31.795  1.00  0.00     0.012 C 
ATOM     16  C   UNL     1      -3.746 -13.859  26.214  1.00  0.00     0.039 C 
ENDROOT
TORSDOF 0
ENDMDL
MODEL 5
REMARK VINA RESULT:    -5.542      1.816      2.651
REMARK INTER + INTRA:          -5.542
REMARK INTER:                  -5.542
REMARK INTRA:                   0.000
REMARK UNBOUND:                 0.000
REMARK SMILES C=C1CCC[C@@]2(C)CC(=O)C(=C(C)C)C[C@@H]12
REMARK SMILES IDX 13 1 12 2 11 3 15 4 16 5 2 6 1 7 3 8 4 9 5 10 6 11 8 12 9 13
REMARK SMILES IDX 10 14 7 15 14 16
REMARK H PARENT
REMARK Flexibility Score: inf
ROOT
ATOM      1  C   UNL     1      -5.452 -13.741  34.005  1.00  0.00     0.039 C 
ATOM      2  C   UNL     1      -5.039 -14.121  32.602  1.00  0.00    -0.070 C 
ATOM      3  C   UNL     1      -4.298 -13.278  31.826  1.00  0.00    -0.006 C 
ATOM      4  C   UNL     1      -3.846 -13.658  30.429  1.00  0.00     0.047 C 
ATOM      5  C   UNL     1      -2.457 -13.078  30.055  1.00  0.00     0.025 C 
ATOM      6  C   UNL     1      -2.216 -13.312  28.572  1.00  0.00    -0.073 C 
ATOM      7  C   UNL     1      -1.478 -14.353  28.156  1.00  0.00     0.008 C 
ATOM      8  C   UNL     1      -2.953 -12.448  27.570  1.00  0.00     0.031 C 
ATOM      9  C   UNL     1      -2.878 -10.961  27.943  1.00  0.00     0.005 C 
ATOM     10  C   UNL     1      -3.180 -10.705  29.431  1.00  0.00     0.008 C 
ATOM     11  C   UNL     1      -2.294 -11.560  30.384  1.00  0.00    -0.018 C 
ATOM     12  C   UNL     1      -2.682 -11.286  31.862  1.00  0.00     0.088 C 
ATOM     13  C   UNL     1      -3.999 -11.886  32.232  1.00  0.00     0.159 C 
ATOM     14  O   UNL     1      -4.832 -11.199  32.882  1.00  0.00    -0.295 OA
ATOM     15  C   UNL     1      -0.805 -11.149  30.228  1.00  0.00     0.012 C 
ATOM     16  C   UNL     1      -5.446 -15.490  32.108  1.00  0.00     0.039 C 
ENDROOT
TORSDOF 0
ENDMDL
MODEL 6
REMARK VINA RESULT:    -4.321      2.271      4.663
REMARK INTER + INTRA:          -4.321
REMARK INTER:                  -4.321
REMARK INTRA:                   0.000
REMARK UNBOUND:                 0.000
REMARK SMILES C=C1CCC[C@@]2(C)CC(=O)C(=C(C)C)C[C@@H]12
REMARK SMILES IDX 13 1 12 2 11 3 15 4 16 5 2 6 1 7 3 8 4 9 5 10 6 11 8 12 9 13
REMARK SMILES IDX 10 14 7 15 14 16
REMARK H PARENT
REMARK Flexibility Score: inf
ROOT
ATOM      1  C   UNL     1       1.266 -12.823  29.540  1.00  0.00     0.039 C 
ATOM      2  C   UNL     1      -0.060 -13.458  29.191  1.00  0.00    -0.070 C 
ATOM      3  C   UNL     1      -1.180 -13.221  29.934  1.00  0.00    -0.006 C 
ATOM      4  C   UNL     1      -2.525 -13.822  29.578  1.00  0.00     0.047 C 
ATOM      5  C   UNL     1      -3.721 -12.894  29.914  1.00  0.00     0.025 C 
ATOM      6  C   UNL     1      -5.011 -13.681  29.746  1.00  0.00    -0.073 C 
ATOM      7  C   UNL     1      -5.731 -13.580  28.617  1.00  0.00     0.008 C 
ATOM      8  C   UNL     1      -5.383 -14.701  30.802  1.00  0.00     0.031 C 
ATOM      9  C   UNL     1      -5.232 -14.128  32.218  1.00  0.00     0.005 C 
ATOM     10  C   UNL     1      -3.902 -13.380  32.419  1.00  0.00     0.008 C 
ATOM     11  C   UNL     1      -3.661 -12.276  31.347  1.00  0.00    -0.018 C 
ATOM     12  C   UNL     1      -2.286 -11.595  31.582  1.00  0.00     0.088 C 
ATOM     13  C   UNL     1      -1.137 -12.476  31.213  1.00  0.00     0.159 C 
ATOM     14  O   UNL     1      -0.154 -12.571  31.995  1.00  0.00    -0.295 OA
ATOM     15  C   UNL     1      -4.739 -11.167  31.482  1.00  0.00     0.012 C 
ATOM     16  C   UNL     1      -0.104 -14.335  27.962  1.00  0.00     0.039 C 
ENDROOT
TORSDOF 0
ENDMDL
