MODEL 1
REMARK VINA RESULT:    -2.692      0.000      0.000
REMARK INTER + INTRA:          -2.861
REMARK INTER:                  -2.849
REMARK INTRA:                  -0.011
REMARK UNBOUND:                -0.011
REMARK SMILES O=Cc1ccco1
REMARK SMILES IDX 5 1 6 2 7 3 3 4 4 5 2 6 1 7
REMARK H PARENT
REMARK Flexibility Score: inf
ROOT
ATOM      1  C   UNL     1      -4.480  -3.758   4.087  1.00  0.00     0.043 A 
ATOM      2  C   UNL     1      -3.952  -4.968   3.685  1.00  0.00     0.196 A 
ATOM      3  O   UNL     1      -3.013  -5.341   4.525  1.00  0.00    -0.462 OA
ATOM      4  C   UNL     1      -2.903  -4.428   5.461  1.00  0.00     0.166 A 
ATOM      5  C   UNL     1      -3.804  -3.406   5.235  1.00  0.00     0.054 A 
ENDROOT
BRANCH   4   6
ATOM      6  C   UNL     1      -1.951  -4.512   6.571  1.00  0.00     0.298 C 
ATOM      7  O   UNL     1      -0.722  -4.308   6.380  1.00  0.00    -0.294 OA
ENDBRANCH   4   6
TORSDOF 1
ENDMDL
MODEL 2
REMARK VINA RESULT:    -2.677     11.573     12.015
REMARK INTER + INTRA:          -2.844
REMARK INTER:                  -2.833
REMARK INTRA:                  -0.011
REMARK UNBOUND:                -0.011
REMARK SMILES O=Cc1ccco1
REMARK SMILES IDX 5 1 6 2 7 3 3 4 4 5 2 6 1 7
REMARK H PARENT
REMARK Flexibility Score: inf
ROOT
ATOM      1  C   UNL     1       6.197   3.163   0.423  1.00  0.00     0.043 A 
ATOM      2  C   UNL     1       7.110   2.352   1.067  1.00  0.00     0.196 A 
ATOM      3  O   UNL     1       6.919   1.101   0.713  1.00  0.00    -0.462 OA
ATOM      4  C   UNL     1       5.919   1.057  -0.137  1.00  0.00     0.166 A 
ATOM      5  C   UNL     1       5.426   2.327  -0.357  1.00  0.00     0.054 A 
ENDROOT
BRANCH   4   6
ATOM      6  C   UNL     1       5.425  -0.181  -0.746  1.00  0.00     0.298 C 
ATOM      7  O   UNL     1       4.735  -0.994  -0.076  1.00  0.00    -0.294 OA
ENDBRANCH   4   6
TORSDOF 1
ENDMDL
MODEL 3
REMARK VINA RESULT:    -2.666     10.120     10.553
REMARK INTER + INTRA:          -2.834
REMARK INTER:                  -2.818
REMARK INTRA:                  -0.016
REMARK UNBOUND:                -0.011
REMARK SMILES O=Cc1ccco1
REMARK SMILES IDX 5 1 6 2 7 3 3 4 4 5 2 6 1 7
REMARK H PARENT
REMARK Flexibility Score: inf
ROOT
ATOM      1  C   UNL     1      -3.249  -3.444  -6.429  1.00  0.00     0.043 A 
ATOM      2  C   UNL     1      -3.392  -2.589  -5.355  1.00  0.00     0.196 A 
ATOM      3  O   UNL     1      -2.286  -2.583  -4.645  1.00  0.00    -0.462 OA
ATOM      4  C   UNL     1      -1.424  -3.397  -5.208  1.00  0.00     0.166 A 
ATOM      5  C   UNL     1      -1.977  -3.968  -6.336  1.00  0.00     0.054 A 
ENDROOT
BRANCH   4   6
ATOM      6  C   UNL     1      -0.077  -3.641  -4.686  1.00  0.00     0.298 C 
ATOM      7  O   UNL     1       0.288  -3.135  -3.591  1.00  0.00    -0.294 OA
ENDBRANCH   4   6
TORSDOF 1
ENDMDL
MODEL 4
REMARK VINA RESULT:    -2.626     10.318     10.748
REMARK INTER + INTRA:          -2.791
REMARK INTER:                  -2.781
REMARK INTRA:                  -0.010
REMARK UNBOUND:                -0.011
REMARK SMILES O=Cc1ccco1
REMARK SMILES IDX 5 1 6 2 7 3 3 4 4 5 2 6 1 7
REMARK H PARENT
REMARK Flexibility Score: inf
ROOT
ATOM      1  C   UNL     1       0.185  -4.991  -5.162  1.00  0.00     0.043 A 
ATOM      2  C   UNL     1       0.695  -3.844  -4.588  1.00  0.00     0.196 A 
ATOM      3  O   UNL     1      -0.239  -2.920  -4.543  1.00  0.00    -0.462 OA
ATOM      4  C   UNL     1      -1.339  -3.412  -5.062  1.00  0.00     0.166 A 
ATOM      5  C   UNL     1      -1.130  -4.715  -5.469  1.00  0.00     0.054 A 
ENDROOT
BRANCH   4   6
ATOM      6  C   UNL     1      -2.591  -2.659  -5.177  1.00  0.00     0.298 C 
ATOM      7  O   UNL     1      -3.666  -3.127  -4.717  1.00  0.00    -0.294 OA
ENDBRANCH   4   6
TORSDOF 1
ENDMDL
MODEL 5
REMARK VINA RESULT:    -2.598     13.466     13.739
REMARK INTER + INTRA:          -2.761
REMARK INTER:                  -2.750
REMARK INTRA:                  -0.011
REMARK UNBOUND:                -0.011
REMARK SMILES O=Cc1ccco1
REMARK SMILES IDX 5 1 6 2 7 3 3 4 4 5 2 6 1 7
REMARK H PARENT
REMARK Flexibility Score: inf
ROOT
ATOM      1  C   UNL     1       5.315   3.068  -0.118  1.00  0.00     0.043 A 
ATOM      2  C   UNL     1       5.502   3.336  -1.459  1.00  0.00     0.196 A 
ATOM      3  O   UNL     1       6.777   3.228  -1.758  1.00  0.00    -0.462 OA
ATOM      4  C   UNL     1       7.434   2.898  -0.671  1.00  0.00     0.166 A 
ATOM      5  C   UNL     1       6.563   2.783   0.394  1.00  0.00     0.054 A 
ENDROOT
BRANCH   4   6
ATOM      6  C   UNL     1       8.884   2.690  -0.630  1.00  0.00     0.298 C 
ATOM      7  O   UNL     1       9.398   1.918   0.222  1.00  0.00    -0.294 OA
ENDBRANCH   4   6
TORSDOF 1
ENDMDL
MODEL 6
REMARK VINA RESULT:    -2.591      1.208      2.860
REMARK INTER + INTRA:          -2.753
REMARK INTER:                  -2.737
REMARK INTRA:                  -0.016
REMARK UNBOUND:                -0.011
REMARK SMILES O=Cc1ccco1
REMARK SMILES IDX 5 1 6 2 7 3 3 4 4 5 2 6 1 7
REMARK H PARENT
REMARK Flexibility Score: inf
ROOT
ATOM      1  C   UNL     1      -3.999  -3.387   4.978  1.00  0.00     0.043 A 
ATOM      2  C   UNL     1      -2.944  -4.069   5.551  1.00  0.00     0.196 A 
ATOM      3  O   UNL     1      -2.744  -5.196   4.907  1.00  0.00    -0.462 OA
ATOM      4  C   UNL     1      -3.623  -5.284   3.935  1.00  0.00     0.166 A 
ATOM      5  C   UNL     1      -4.440  -4.171   3.933  1.00  0.00     0.054 A 
ENDROOT
BRANCH   4   6
ATOM      6  C   UNL     1      -3.697  -6.414   3.006  1.00  0.00     0.298 C 
ATOM      7  O   UNL     1      -2.910  -7.391   3.120  1.00  0.00    -0.294 OA
ENDBRANCH   4   6
TORSDOF 1
ENDMDL
MODEL 7
REMARK VINA RESULT:    -2.526     10.451     10.770
REMARK INTER + INTRA:          -2.685
REMARK INTER:                  -2.674
REMARK INTRA:                  -0.010
REMARK UNBOUND:                -0.011
REMARK SMILES O=Cc1ccco1
REMARK SMILES IDX 5 1 6 2 7 3 3 4 4 5 2 6 1 7
REMARK H PARENT
REMARK Flexibility Score: inf
ROOT
ATOM      1  C   UNL     1      -0.083  -6.183  -5.262  1.00  0.00     0.043 A 
ATOM      2  C   UNL     1      -1.300  -6.831  -5.335  1.00  0.00     0.196 A 
ATOM      3  O   UNL     1      -2.271  -5.947  -5.364  1.00  0.00    -0.462 OA
ATOM      4  C   UNL     1      -1.744  -4.745  -5.315  1.00  0.00     0.166 A 
ATOM      5  C   UNL     1      -0.368  -4.834  -5.250  1.00  0.00     0.054 A 
ENDROOT
BRANCH   4   6
ATOM      6  C   UNL     1      -2.533  -3.511  -5.329  1.00  0.00     0.298 C 
ATOM      7  O   UNL     1      -2.272  -2.573  -4.530  1.00  0.00    -0.294 OA
ENDBRANCH   4   6
TORSDOF 1
ENDMDL
MODEL 8
REMARK VINA RESULT:    -2.518     12.174     12.414
REMARK INTER + INTRA:          -2.677
REMARK INTER:                  -2.666
REMARK INTRA:                  -0.011
REMARK UNBOUND:                -0.011
REMARK SMILES O=Cc1ccco1
REMARK SMILES IDX 5 1 6 2 7 3 3 4 4 5 2 6 1 7
REMARK H PARENT
REMARK Flexibility Score: inf
ROOT
ATOM      1  C   UNL     1       5.877   3.704  -0.224  1.00  0.00     0.043 A 
ATOM      2  C   UNL     1       5.669   3.468  -1.568  1.00  0.00     0.196 A 
ATOM      3  O   UNL     1       5.626   2.173  -1.788  1.00  0.00    -0.462 OA
ATOM      4  C   UNL     1       5.796   1.550  -0.645  1.00  0.00     0.166 A 
ATOM      5  C   UNL     1       5.960   2.465   0.375  1.00  0.00     0.054 A 
ENDROOT
BRANCH   4   6
ATOM      6  C   UNL     1       5.806   0.091  -0.509  1.00  0.00     0.298 C 
ATOM      7  O   UNL     1       6.431  -0.461   0.435  1.00  0.00    -0.294 OA
ENDBRANCH   4   6
TORSDOF 1
ENDMDL
MODEL 9
REMARK VINA RESULT:    -2.483     13.603     14.003
REMARK INTER + INTRA:          -2.639
REMARK INTER:                  -2.629
REMARK INTRA:                  -0.010
REMARK UNBOUND:                -0.011
REMARK SMILES O=Cc1ccco1
REMARK SMILES IDX 5 1 6 2 7 3 3 4 4 5 2 6 1 7
REMARK H PARENT
REMARK Flexibility Score: inf
ROOT
ATOM      1  C   UNL     1       6.598   2.753   0.581  1.00  0.00     0.043 A 
ATOM      2  C   UNL     1       7.665   2.616  -0.284  1.00  0.00     0.196 A 
ATOM      3  O   UNL     1       7.321   3.038  -1.480  1.00  0.00    -0.462 OA
ATOM      4  C   UNL     1       6.074   3.447  -1.436  1.00  0.00     0.166 A 
ATOM      5  C   UNL     1       5.568   3.291  -0.161  1.00  0.00     0.054 A 
ENDROOT
BRANCH   4   6
ATOM      6  C   UNL     1       5.355   3.986  -2.593  1.00  0.00     0.298 C 
ATOM      7  O   UNL     1       5.341   5.224  -2.820  1.00  0.00    -0.294 OA
ENDBRANCH   4   6
TORSDOF 1
ENDMDL
