MODEL 1
REMARK VINA RESULT:    -3.948      0.000      0.000
REMARK INTER + INTRA:          -6.303
REMARK INTER:                  -5.794
REMARK INTRA:                  -0.509
REMARK UNBOUND:                -0.509
REMARK SMILES O=C([O-])CCCCCCCC(=O)[O-]
REMARK SMILES IDX 7 1 6 2 5 3 4 4 2 5 1 6 3 7 8 8 9 9 10 10 11 11 12 12 13 13
REMARK H PARENT
REMARK Flexibility Score: inf
ROOT
ATOM      1  C   UNL     1      51.990  26.510  34.543  1.00  0.00     0.000 C 
ENDROOT
BRANCH   1   2
ATOM      2  C   UNL     1      51.163  26.080  33.319  1.00  0.00     0.000 C 
BRANCH   2   3
ATOM      3  C   UNL     1      49.716  26.595  33.370  1.00  0.00     0.006 C 
BRANCH   3   4
ATOM      4  C   UNL     1      49.002  26.094  34.630  1.00  0.00     0.053 C 
BRANCH   4   5
ATOM      5  C   UNL     1      48.747  24.623  34.536  1.00  0.00     0.041 C 
ATOM      6  O   UNL     1      47.904  24.178  33.713  1.00  0.00    -0.550 OA
ATOM      7  O   UNL     1      49.403  23.747  35.391  1.00  0.00    -0.550 OA
ENDBRANCH   4   5
ENDBRANCH   3   4
ENDBRANCH   2   3
ENDBRANCH   1   2
BRANCH   1   8
ATOM      8  C   UNL     1      53.361  27.089  34.155  1.00  0.00     0.000 C 
BRANCH   8   9
ATOM      9  C   UNL     1      53.435  28.616  34.339  1.00  0.00     0.006 C 
BRANCH   9  10
ATOM     10  C   UNL     1      52.672  29.147  35.564  1.00  0.00     0.053 C 
BRANCH  10  11
ATOM     11  C   UNL     1      53.597  29.653  36.627  1.00  0.00     0.041 C 
ATOM     12  O   UNL     1      54.823  29.367  36.590  1.00  0.00    -0.550 OA
ATOM     13  O   UNL     1      53.099  30.414  37.678  1.00  0.00    -0.550 OA
ENDBRANCH  10  11
ENDBRANCH   9  10
ENDBRANCH   8   9
ENDBRANCH   1   8
TORSDOF 8
ENDMDL
MODEL 2
REMARK VINA RESULT:    -3.946      1.777      2.844
REMARK INTER + INTRA:          -6.300
REMARK INTER:                  -5.549
REMARK INTRA:                  -0.751
REMARK UNBOUND:                -0.509
REMARK SMILES O=C([O-])CCCCCCCC(=O)[O-]
REMARK SMILES IDX 7 1 6 2 5 3 4 4 2 5 1 6 3 7 8 8 9 9 10 10 11 11 12 12 13 13
REMARK H PARENT
REMARK Flexibility Score: inf
ROOT
ATOM      1  C   UNL     1      49.512  26.772  33.952  1.00  0.00     0.000 C 
ENDROOT
BRANCH   1   2
ATOM      2  C   UNL     1      48.629  25.690  34.595  1.00  0.00     0.000 C 
BRANCH   2   3
ATOM      3  C   UNL     1      49.013  24.269  34.150  1.00  0.00     0.006 C 
BRANCH   3   4
ATOM      4  C   UNL     1      49.404  23.407  35.355  1.00  0.00     0.053 C 
BRANCH   4   5
ATOM      5  C   UNL     1      50.866  23.541  35.643  1.00  0.00     0.041 C 
ATOM      6  O   UNL     1      51.260  24.253  36.603  1.00  0.00    -0.550 OA
ATOM      7  O   UNL     1      51.796  22.919  34.819  1.00  0.00    -0.550 OA
ENDBRANCH   4   5
ENDBRANCH   3   4
ENDBRANCH   2   3
ENDBRANCH   1   2
BRANCH   1   8
ATOM      8  C   UNL     1      50.734  26.183  33.226  1.00  0.00     0.000 C 
BRANCH   8   9
ATOM      9  C   UNL     1      52.068  26.594  33.877  1.00  0.00     0.006 C 
BRANCH   9  10
ATOM     10  C   UNL     1      51.919  27.423  35.164  1.00  0.00     0.053 C 
BRANCH  10  11
ATOM     11  C   UNL     1      52.804  28.630  35.161  1.00  0.00     0.041 C 
ATOM     12  O   UNL     1      52.640  29.539  36.017  1.00  0.00    -0.550 OA
ATOM     13  O   UNL     1      53.791  28.767  34.193  1.00  0.00    -0.550 OA
ENDBRANCH  10  11
ENDBRANCH   9  10
ENDBRANCH   8   9
ENDBRANCH   1   8
TORSDOF 8
ENDMDL
MODEL 3
REMARK VINA RESULT:    -3.925      2.057      5.502
REMARK INTER + INTRA:          -6.269
REMARK INTER:                  -5.484
REMARK INTRA:                  -0.786
REMARK UNBOUND:                -0.509
REMARK SMILES O=C([O-])CCCCCCCC(=O)[O-]
REMARK SMILES IDX 7 1 6 2 5 3 4 4 2 5 1 6 3 7 8 8 9 9 10 10 11 11 12 12 13 13
REMARK H PARENT
REMARK Flexibility Score: inf
ROOT
ATOM      1  C   UNL     1      49.941  26.927  33.927  1.00  0.00     0.000 C 
ENDROOT
BRANCH   1   2
ATOM      2  C   UNL     1      51.046  26.243  33.105  1.00  0.00     0.000 C 
BRANCH   2   3
ATOM      3  C   UNL     1      52.449  26.474  33.689  1.00  0.00     0.006 C 
BRANCH   3   4
ATOM      4  C   UNL     1      52.388  27.408  34.902  1.00  0.00     0.053 C 
BRANCH   4   5
ATOM      5  C   UNL     1      53.199  28.640  34.654  1.00  0.00     0.041 C 
ATOM      6  O   UNL     1      54.408  28.546  34.316  1.00  0.00    -0.550 OA
ATOM      7  O   UNL     1      52.633  29.895  34.844  1.00  0.00    -0.550 OA
ENDBRANCH   4   5
ENDBRANCH   3   4
ENDBRANCH   2   3
ENDBRANCH   1   2
BRANCH   1   8
ATOM      8  C   UNL     1      48.934  25.924  34.513  1.00  0.00     0.000 C 
BRANCH   8   9
ATOM      9  C   UNL     1      49.411  25.309  35.843  1.00  0.00     0.006 C 
BRANCH   9  10
ATOM     10  C   UNL     1      49.914  23.861  35.729  1.00  0.00     0.053 C 
BRANCH  10  11
ATOM     11  C   UNL     1      51.397  23.765  35.913  1.00  0.00     0.041 C 
ATOM     12  O   UNL     1      51.946  24.286  36.919  1.00  0.00    -0.550 OA
ATOM     13  O   UNL     1      52.178  23.128  34.956  1.00  0.00    -0.550 OA
ENDBRANCH  10  11
ENDBRANCH   9  10
ENDBRANCH   8   9
ENDBRANCH   1   8
TORSDOF 8
ENDMDL
MODEL 4
REMARK VINA RESULT:    -3.907      0.901      1.576
REMARK INTER + INTRA:          -6.243
REMARK INTER:                  -5.645
REMARK INTRA:                  -0.598
REMARK UNBOUND:                -0.509
REMARK SMILES O=C([O-])CCCCCCCC(=O)[O-]
REMARK SMILES IDX 7 1 6 2 5 3 4 4 2 5 1 6 3 7 8 8 9 9 10 10 11 11 12 12 13 13
REMARK H PARENT
REMARK Flexibility Score: inf
ROOT
ATOM      1  C   UNL     1      52.213  26.184  33.444  1.00  0.00     0.000 C 
ENDROOT
BRANCH   1   2
ATOM      2  C   UNL     1      50.685  26.224  33.277  1.00  0.00     0.000 C 
BRANCH   2   3
ATOM      3  C   UNL     1      49.965  26.742  34.532  1.00  0.00     0.006 C 
BRANCH   3   4
ATOM      4  C   UNL     1      48.939  25.720  35.034  1.00  0.00     0.053 C 
BRANCH   4   5
ATOM      5  C   UNL     1      49.630  24.542  35.644  1.00  0.00     0.041 C 
ATOM      6  O   UNL     1      50.580  24.713  36.452  1.00  0.00    -0.550 OA
ATOM      7  O   UNL     1      49.257  23.253  35.282  1.00  0.00    -0.550 OA
ENDBRANCH   4   5
ENDBRANCH   3   4
ENDBRANCH   2   3
ENDBRANCH   1   2
BRANCH   1   8
ATOM      8  C   UNL     1      52.690  26.930  34.701  1.00  0.00     0.000 C 
BRANCH   8   9
ATOM      9  C   UNL     1      53.333  28.292  34.376  1.00  0.00     0.006 C 
BRANCH   9  10
ATOM     10  C   UNL     1      52.785  29.466  35.203  1.00  0.00     0.053 C 
BRANCH  10  11
ATOM     11  C   UNL     1      53.597  29.714  36.436  1.00  0.00     0.041 C 
ATOM     12  O   UNL     1      53.139  30.432  37.364  1.00  0.00    -0.550 OA
ATOM     13  O   UNL     1      54.875  29.179  36.548  1.00  0.00    -0.550 OA
ENDBRANCH  10  11
ENDBRANCH   9  10
ENDBRANCH   8   9
ENDBRANCH   1   8
TORSDOF 8
ENDMDL
MODEL 5
REMARK VINA RESULT:    -3.893      0.927      6.080
REMARK INTER + INTRA:          -6.222
REMARK INTER:                  -5.757
REMARK INTRA:                  -0.465
REMARK UNBOUND:                -0.509
REMARK SMILES O=C([O-])CCCCCCCC(=O)[O-]
REMARK SMILES IDX 7 1 6 2 5 3 4 4 2 5 1 6 3 7 8 8 9 9 10 10 11 11 12 12 13 13
REMARK H PARENT
REMARK Flexibility Score: inf
ROOT
ATOM      1  C   UNL     1      52.143  26.156  33.730  1.00  0.00     0.000 C 
ENDROOT
BRANCH   1   2
ATOM      2  C   UNL     1      51.987  27.275  34.773  1.00  0.00     0.000 C 
BRANCH   2   3
ATOM      3  C   UNL     1      53.114  28.318  34.697  1.00  0.00     0.006 C 
BRANCH   3   4
ATOM      4  C   UNL     1      52.710  29.610  35.414  1.00  0.00     0.053 C 
BRANCH   4   5
ATOM      5  C   UNL     1      53.568  29.829  36.620  1.00  0.00     0.041 C 
ATOM      6  O   UNL     1      53.091  30.386  37.644  1.00  0.00    -0.550 OA
ATOM      7  O   UNL     1      54.907  29.461  36.597  1.00  0.00    -0.550 OA
ENDBRANCH   4   5
ENDBRANCH   3   4
ENDBRANCH   2   3
ENDBRANCH   1   2
BRANCH   1   8
ATOM      8  C   UNL     1      50.860  25.924  32.915  1.00  0.00     0.000 C 
BRANCH   8   9
ATOM      9  C   UNL     1      49.582  26.258  33.709  1.00  0.00     0.006 C 
BRANCH   9  10
ATOM     10  C   UNL     1      48.710  25.038  34.050  1.00  0.00     0.053 C 
BRANCH  10  11
ATOM     11  C   UNL     1      49.283  24.234  35.175  1.00  0.00     0.041 C 
ATOM     12  O   UNL     1      49.202  22.977  35.162  1.00  0.00    -0.550 OA
ATOM     13  O   UNL     1      49.878  24.873  36.255  1.00  0.00    -0.550 OA
ENDBRANCH  10  11
ENDBRANCH   9  10
ENDBRANCH   8   9
ENDBRANCH   1   8
TORSDOF 8
ENDMDL
MODEL 6
REMARK VINA RESULT:    -3.874      1.572      5.375
REMARK INTER + INTRA:          -6.195
REMARK INTER:                  -5.573
REMARK INTRA:                  -0.623
REMARK UNBOUND:                -0.509
REMARK SMILES O=C([O-])CCCCCCCC(=O)[O-]
REMARK SMILES IDX 7 1 6 2 5 3 4 4 2 5 1 6 3 7 8 8 9 9 10 10 11 11 12 12 13 13
REMARK H PARENT
REMARK Flexibility Score: inf
ROOT
ATOM      1  C   UNL     1      51.872  24.725  33.095  1.00  0.00     0.000 C 
ENDROOT
BRANCH   1   2
ATOM      2  C   UNL     1      52.855  25.528  33.963  1.00  0.00     0.000 C 
BRANCH   2   3
ATOM      3  C   UNL     1      52.546  27.034  33.971  1.00  0.00     0.006 C 
BRANCH   3   4
ATOM      4  C   UNL     1      53.825  27.852  34.179  1.00  0.00     0.053 C 
BRANCH   4   5
ATOM      5  C   UNL     1      53.591  28.944  35.175  1.00  0.00     0.041 C 
ATOM      6  O   UNL     1      52.565  29.669  35.090  1.00  0.00    -0.550 OA
ATOM      7  O   UNL     1      54.531  29.194  36.166  1.00  0.00    -0.550 OA
ENDBRANCH   4   5
ENDBRANCH   3   4
ENDBRANCH   2   3
ENDBRANCH   1   2
BRANCH   1   8
ATOM      8  C   UNL     1      50.581  25.503  32.792  1.00  0.00     0.000 C 
BRANCH   8   9
ATOM      9  C   UNL     1      49.325  24.816  33.363  1.00  0.00     0.006 C 
BRANCH   9  10
ATOM     10  C   UNL     1      48.639  25.590  34.500  1.00  0.00     0.053 C 
BRANCH  10  11
ATOM     11  C   UNL     1      49.508  25.693  35.715  1.00  0.00     0.041 C 
ATOM     12  O   UNL     1      49.943  24.651  36.274  1.00  0.00    -0.550 OA
ATOM     13  O   UNL     1      49.813  26.939  36.250  1.00  0.00    -0.550 OA
ENDBRANCH  10  11
ENDBRANCH   9  10
ENDBRANCH   8   9
ENDBRANCH   1   8
TORSDOF 8
ENDMDL
MODEL 7
REMARK VINA RESULT:    -3.824      1.570      2.086
REMARK INTER + INTRA:          -6.121
REMARK INTER:                  -5.378
REMARK INTRA:                  -0.743
REMARK UNBOUND:                -0.509
REMARK SMILES O=C([O-])CCCCCCCC(=O)[O-]
REMARK SMILES IDX 7 1 6 2 5 3 4 4 2 5 1 6 3 7 8 8 9 9 10 10 11 11 12 12 13 13
REMARK H PARENT
REMARK Flexibility Score: inf
ROOT
ATOM      1  C   UNL     1      52.627  25.005  34.954  1.00  0.00     0.000 C 
ENDROOT
BRANCH   1   2
ATOM      2  C   UNL     1      51.526  25.425  35.942  1.00  0.00     0.000 C 
BRANCH   2   3
ATOM      3  C   UNL     1      50.705  26.624  35.441  1.00  0.00     0.006 C 
BRANCH   3   4
ATOM      4  C   UNL     1      49.235  26.236  35.248  1.00  0.00     0.053 C 
BRANCH   4   5
ATOM      5  C   UNL     1      48.999  25.760  33.849  1.00  0.00     0.041 C 
ATOM      6  O   UNL     1      49.403  26.442  32.871  1.00  0.00    -0.550 OA
ATOM      7  O   UNL     1      48.289  24.588  33.624  1.00  0.00    -0.550 OA
ENDBRANCH   4   5
ENDBRANCH   3   4
ENDBRANCH   2   3
ENDBRANCH   1   2
BRANCH   1   8
ATOM      8  C   UNL     1      52.930  26.093  33.910  1.00  0.00     0.000 C 
BRANCH   8   9
ATOM      9  C   UNL     1      54.368  26.637  34.017  1.00  0.00     0.006 C 
BRANCH   9  10
ATOM     10  C   UNL     1      54.467  28.171  34.034  1.00  0.00     0.053 C 
BRANCH  10  11
ATOM     11  C   UNL     1      53.696  28.772  35.169  1.00  0.00     0.041 C 
ATOM     12  O   UNL     1      53.945  28.431  36.355  1.00  0.00    -0.550 OA
ATOM     13  O   UNL     1      52.680  29.684  34.914  1.00  0.00    -0.550 OA
ENDBRANCH  10  11
ENDBRANCH   9  10
ENDBRANCH   8   9
ENDBRANCH   1   8
TORSDOF 8
ENDMDL
MODEL 8
REMARK VINA RESULT:    -3.815      1.117      5.992
REMARK INTER + INTRA:          -6.108
REMARK INTER:                  -5.528
REMARK INTRA:                  -0.580
REMARK UNBOUND:                -0.509
REMARK SMILES O=C([O-])CCCCCCCC(=O)[O-]
REMARK SMILES IDX 7 1 6 2 5 3 4 4 2 5 1 6 3 7 8 8 9 9 10 10 11 11 12 12 13 13
REMARK H PARENT
REMARK Flexibility Score: inf
ROOT
ATOM      1  C   UNL     1      53.071  26.096  35.001  1.00  0.00     0.000 C 
ENDROOT
BRANCH   1   2
ATOM      2  C   UNL     1      52.849  27.247  34.006  1.00  0.00     0.000 C 
BRANCH   2   3
ATOM      3  C   UNL     1      53.697  28.487  34.335  1.00  0.00     0.006 C 
BRANCH   3   4
ATOM      4  C   UNL     1      52.943  29.429  35.279  1.00  0.00     0.053 C 
BRANCH   4   5
ATOM      5  C   UNL     1      53.732  29.660  36.529  1.00  0.00     0.041 C 
ATOM      6  O   UNL     1      54.708  28.915  36.808  1.00  0.00    -0.550 OA
ATOM      7  O   UNL     1      53.360  30.667  37.410  1.00  0.00    -0.550 OA
ENDBRANCH   4   5
ENDBRANCH   3   4
ENDBRANCH   2   3
ENDBRANCH   1   2
BRANCH   1   8
ATOM      8  C   UNL     1      51.758  25.594  35.626  1.00  0.00     0.000 C 
BRANCH   8   9
ATOM      9  C   UNL     1      50.642  26.656  35.598  1.00  0.00     0.006 C 
BRANCH   9  10
ATOM     10  C   UNL     1      49.218  26.079  35.526  1.00  0.00     0.053 C 
BRANCH  10  11
ATOM     11  C   UNL     1      48.882  25.579  34.155  1.00  0.00     0.041 C 
ATOM     12  O   UNL     1      48.271  24.488  34.011  1.00  0.00    -0.550 OA
ATOM     13  O   UNL     1      49.273  26.303  33.035  1.00  0.00    -0.550 OA
ENDBRANCH  10  11
ENDBRANCH   9  10
ENDBRANCH   8   9
ENDBRANCH   1   8
TORSDOF 8
ENDMDL
MODEL 9
REMARK VINA RESULT:    -3.759      1.822      6.055
REMARK INTER + INTRA:          -6.027
REMARK INTER:                  -5.464
REMARK INTRA:                  -0.563
REMARK UNBOUND:                -0.509
REMARK SMILES O=C([O-])CCCCCCCC(=O)[O-]
REMARK SMILES IDX 7 1 6 2 5 3 4 4 2 5 1 6 3 7 8 8 9 9 10 10 11 11 12 12 13 13
REMARK H PARENT
REMARK Flexibility Score: inf
ROOT
ATOM      1  C   UNL     1      52.093  26.284  33.625  1.00  0.00     0.000 C 
ENDROOT
BRANCH   1   2
ATOM      2  C   UNL     1      51.848  27.375  34.680  1.00  0.00     0.000 C 
BRANCH   2   3
ATOM      3  C   UNL     1      53.153  27.955  35.249  1.00  0.00     0.006 C 
BRANCH   3   4
ATOM      4  C   UNL     1      54.043  28.498  34.127  1.00  0.00     0.053 C 
BRANCH   4   5
ATOM      5  C   UNL     1      55.425  27.936  34.236  1.00  0.00     0.041 C 
ATOM      6  O   UNL     1      55.760  26.941  33.541  1.00  0.00    -0.550 OA
ATOM      7  O   UNL     1      56.328  28.479  35.141  1.00  0.00    -0.550 OA
ENDBRANCH   4   5
ENDBRANCH   3   4
ENDBRANCH   2   3
ENDBRANCH   1   2
BRANCH   1   8
ATOM      8  C   UNL     1      50.790  25.786  32.977  1.00  0.00     0.000 C 
BRANCH   8   9
ATOM      9  C   UNL     1      49.531  26.339  33.671  1.00  0.00     0.006 C 
BRANCH   9  10
ATOM     10  C   UNL     1      48.614  25.262  34.275  1.00  0.00     0.053 C 
BRANCH  10  11
ATOM     11  C   UNL     1      49.367  24.311  35.153  1.00  0.00     0.041 C 
ATOM     12  O   UNL     1      49.372  23.078  34.894  1.00  0.00    -0.550 OA
ATOM     13  O   UNL     1      50.036  24.781  36.276  1.00  0.00    -0.550 OA
ENDBRANCH  10  11
ENDBRANCH   9  10
ENDBRANCH   8   9
ENDBRANCH   1   8
TORSDOF 8
ENDMDL
