MODEL 1
REMARK VINA RESULT:    -6.224      0.000      0.000
REMARK INTER + INTRA:          -6.769
REMARK INTER:                  -6.769
REMARK INTRA:                   0.000
REMARK UNBOUND:                 0.000
REMARK SMILES Cc1cc(O)c2c(c1)C(=O)c1cc(O)cc(O)c1C2=O
REMARK SMILES IDX 1 1 2 2 8 3 7 4 6 5 4 6 3 7 19 8 20 9 18 10 11 11 9 12 10 13
REMARK SMILES IDX 12 14 13 15 15 16 16 17 5 18 17 20 14 22
REMARK H PARENT 5 19 17 21 14 23
REMARK Flexibility Score: inf
ROOT
ATOM      1  C   UNL     1      11.104   3.962  57.123  1.00  0.00     0.044 C 
ATOM      2  C   UNL     1      11.239   4.699  55.823  1.00  0.00    -0.047 A 
ATOM      3  C   UNL     1      10.132   5.341  55.260  1.00  0.00     0.016 A 
ATOM      4  C   UNL     1      10.255   6.059  54.058  1.00  0.00     0.038 A 
ATOM      5  C   UNL     1      11.508   6.134  53.409  1.00  0.00     0.076 A 
ATOM      6  C   UNL     1      12.643   5.552  54.028  1.00  0.00     0.127 A 
ATOM      7  C   UNL     1      12.493   4.827  55.214  1.00  0.00     0.050 A 
ATOM      8  C   UNL     1      11.567   6.772  52.068  1.00  0.00     0.201 C 
ATOM      9  O   UNL     1      12.427   6.391  51.230  1.00  0.00    -0.288 OA
ATOM     10  C   UNL     1      10.500   7.720  51.654  1.00  0.00     0.076 A 
ATOM     11  C   UNL     1       9.249   7.644  52.308  1.00  0.00     0.041 A 
ATOM     12  C   UNL     1       9.078   6.742  53.472  1.00  0.00     0.194 C 
ATOM     13  O   UNL     1       7.934   6.577  53.978  1.00  0.00    -0.289 OA
ATOM     14  C   UNL     1       8.175   8.427  51.853  1.00  0.00     0.059 A 
ATOM     15  C   UNL     1       8.335   9.292  50.772  1.00  0.00     0.120 A 
ATOM     16  C   UNL     1       9.581   9.401  50.148  1.00  0.00     0.093 A 
ATOM     17  C   UNL     1      10.673   8.648  50.594  1.00  0.00     0.131 A 
ENDROOT
BRANCH   6  18
ATOM     18  O   UNL     1      13.938   5.700  53.524  1.00  0.00    -0.507 OA
ATOM     19  H   UNL     1      14.138   5.965  52.568  1.00  0.00     0.293 HD
ENDBRANCH   6  18
BRANCH  17  20
ATOM     20  O   UNL     1      11.907   8.877  49.981  1.00  0.00    -0.507 OA
ATOM     21  H   UNL     1      12.313   9.795  49.870  1.00  0.00     0.293 HD
ENDBRANCH  17  20
BRANCH  15  22
ATOM     22  O   UNL     1       7.253  10.049  50.330  1.00  0.00    -0.508 OA
ATOM     23  H   UNL     1       7.150  11.026  50.581  1.00  0.00     0.293 HD
ENDBRANCH  15  22
TORSDOF 3
ENDMDL
MODEL 2
REMARK VINA RESULT:    -5.591      1.288      3.494
REMARK INTER + INTRA:          -6.082
REMARK INTER:                  -6.082
REMARK INTRA:                   0.000
REMARK UNBOUND:                 0.000
REMARK SMILES Cc1cc(O)c2c(c1)C(=O)c1cc(O)cc(O)c1C2=O
REMARK SMILES IDX 1 1 2 2 8 3 7 4 6 5 4 6 3 7 19 8 20 9 18 10 11 11 9 12 10 13
REMARK SMILES IDX 12 14 13 15 15 16 16 17 5 18 17 20 14 22
REMARK H PARENT 5 19 17 21 14 23
REMARK Flexibility Score: inf
ROOT
ATOM      1  C   UNL     1      11.184   4.095  56.246  1.00  0.00     0.044 C 
ATOM      2  C   UNL     1      10.637   4.992  55.175  1.00  0.00    -0.047 A 
ATOM      3  C   UNL     1      11.504   5.640  54.290  1.00  0.00     0.016 A 
ATOM      4  C   UNL     1      11.001   6.459  53.265  1.00  0.00     0.038 A 
ATOM      5  C   UNL     1       9.606   6.632  53.124  1.00  0.00     0.076 A 
ATOM      6  C   UNL     1       8.730   5.907  53.972  1.00  0.00     0.127 A 
ATOM      7  C   UNL     1       9.254   5.113  54.996  1.00  0.00     0.050 A 
ATOM      8  C   UNL     1       9.118   7.621  52.127  1.00  0.00     0.201 C 
ATOM      9  O   UNL     1       8.032   8.228  52.327  1.00  0.00    -0.288 OA
ATOM     10  C   UNL     1       9.996   8.027  51.000  1.00  0.00     0.076 A 
ATOM     11  C   UNL     1      11.391   7.849  51.142  1.00  0.00     0.041 A 
ATOM     12  C   UNL     1      11.927   7.137  52.326  1.00  0.00     0.194 C 
ATOM     13  O   UNL     1      13.173   7.086  52.521  1.00  0.00    -0.289 OA
ATOM     14  C   UNL     1      12.262   8.345  50.158  1.00  0.00     0.059 A 
ATOM     15  C   UNL     1      11.763   8.998  49.033  1.00  0.00     0.120 A 
ATOM     16  C   UNL     1      10.383   9.141  48.867  1.00  0.00     0.093 A 
ATOM     17  C   UNL     1       9.493   8.638  49.821  1.00  0.00     0.131 A 
ENDROOT
BRANCH   6  18
ATOM     18  O   UNL     1       7.343   5.915  53.809  1.00  0.00    -0.507 OA
ATOM     19  H   UNL     1       6.790   5.077  53.686  1.00  0.00     0.293 HD
ENDBRANCH   6  18
BRANCH  17  20
ATOM     20  O   UNL     1       8.127   8.736  49.544  1.00  0.00    -0.507 OA
ATOM     21  H   UNL     1       7.749   8.781  48.608  1.00  0.00     0.293 HD
ENDBRANCH  17  20
BRANCH  15  22
ATOM     22  O   UNL     1      12.647   9.493  48.077  1.00  0.00    -0.508 OA
ATOM     23  H   UNL     1      12.405   9.519  47.093  1.00  0.00     0.293 HD
ENDBRANCH  15  22
TORSDOF 3
ENDMDL
MODEL 3
REMARK VINA RESULT:    -5.484      2.420      4.606
REMARK INTER + INTRA:          -5.965
REMARK INTER:                  -5.965
REMARK INTRA:                   0.000
REMARK UNBOUND:                 0.000
REMARK SMILES Cc1cc(O)c2c(c1)C(=O)c1cc(O)cc(O)c1C2=O
REMARK SMILES IDX 1 1 2 2 8 3 7 4 6 5 4 6 3 7 19 8 20 9 18 10 11 11 9 12 10 13
REMARK SMILES IDX 12 14 13 15 15 16 16 17 5 18 17 20 14 22
REMARK H PARENT 5 19 17 21 14 23
REMARK Flexibility Score: inf
ROOT
ATOM      1  C   UNL     1       7.371   5.526  53.877  1.00  0.00     0.044 C 
ATOM      2  C   UNL     1       8.864   5.651  53.964  1.00  0.00    -0.047 A 
ATOM      3  C   UNL     1       9.553   6.480  53.074  1.00  0.00     0.016 A 
ATOM      4  C   UNL     1      10.948   6.627  53.165  1.00  0.00     0.038 A 
ATOM      5  C   UNL     1      11.664   5.931  54.165  1.00  0.00     0.076 A 
ATOM      6  C   UNL     1      10.949   5.158  55.115  1.00  0.00     0.127 A 
ATOM      7  C   UNL     1       9.565   5.012  54.993  1.00  0.00     0.050 A 
ATOM      8  C   UNL     1      13.148   5.992  54.136  1.00  0.00     0.201 C 
ATOM      9  O   UNL     1      13.824   5.021  54.569  1.00  0.00    -0.288 OA
ATOM     10  C   UNL     1      13.828   7.110  53.432  1.00  0.00     0.076 A 
ATOM     11  C   UNL     1      13.107   7.807  52.435  1.00  0.00     0.041 A 
ATOM     12  C   UNL     1      11.669   7.514  52.223  1.00  0.00     0.194 C 
ATOM     13  O   UNL     1      11.056   8.040  51.254  1.00  0.00    -0.289 OA
ATOM     14  C   UNL     1      13.756   8.777  51.653  1.00  0.00     0.059 A 
ATOM     15  C   UNL     1      15.103   9.071  51.861  1.00  0.00     0.120 A 
ATOM     16  C   UNL     1      15.809   8.414  52.873  1.00  0.00     0.093 A 
ATOM     17  C   UNL     1      15.181   7.459  53.679  1.00  0.00     0.131 A 
ENDROOT
BRANCH   6  18
ATOM     18  O   UNL     1      11.566   4.552  56.213  1.00  0.00    -0.507 OA
ATOM     19  H   UNL     1      12.379   3.955  56.138  1.00  0.00     0.293 HD
ENDBRANCH   6  18
BRANCH  17  20
ATOM     20  O   UNL     1      15.924   6.911  54.727  1.00  0.00    -0.507 OA
ATOM     21  H   UNL     1      15.919   5.929  54.962  1.00  0.00     0.293 HD
ENDBRANCH  17  20
BRANCH  15  22
ATOM     22  O   UNL     1      15.729  10.027  51.065  1.00  0.00    -0.508 OA
ATOM     23  H   UNL     1      15.210  10.587  50.399  1.00  0.00     0.293 HD
ENDBRANCH  15  22
TORSDOF 3
ENDMDL
MODEL 4
REMARK VINA RESULT:    -5.442      2.141      3.990
REMARK INTER + INTRA:          -5.920
REMARK INTER:                  -5.920
REMARK INTRA:                   0.000
REMARK UNBOUND:                 0.000
REMARK SMILES Cc1cc(O)c2c(c1)C(=O)c1cc(O)cc(O)c1C2=O
REMARK SMILES IDX 1 1 2 2 8 3 7 4 6 5 4 6 3 7 19 8 20 9 18 10 11 11 9 12 10 13
REMARK SMILES IDX 12 14 13 15 15 16 16 17 5 18 17 20 14 22
REMARK H PARENT 5 19 17 21 14 23
REMARK Flexibility Score: inf
ROOT
ATOM      1  C   UNL     1       7.062   6.674  53.959  1.00  0.00     0.044 C 
ATOM      2  C   UNL     1       8.495   6.706  53.519  1.00  0.00    -0.047 A 
ATOM      3  C   UNL     1       8.871   7.457  52.400  1.00  0.00     0.016 A 
ATOM      4  C   UNL     1      10.216   7.517  51.997  1.00  0.00     0.038 A 
ATOM      5  C   UNL     1      11.201   6.815  52.726  1.00  0.00     0.076 A 
ATOM      6  C   UNL     1      10.826   6.124  53.907  1.00  0.00     0.127 A 
ATOM      7  C   UNL     1       9.479   6.062  54.277  1.00  0.00     0.050 A 
ATOM      8  C   UNL     1      12.584   6.780  52.185  1.00  0.00     0.201 C 
ATOM      9  O   UNL     1      13.322   5.784  52.412  1.00  0.00    -0.288 OA
ATOM     10  C   UNL     1      13.028   7.826  51.227  1.00  0.00     0.076 A 
ATOM     11  C   UNL     1      12.040   8.529  50.501  1.00  0.00     0.041 A 
ATOM     12  C   UNL     1      10.606   8.321  50.814  1.00  0.00     0.194 C 
ATOM     13  O   UNL     1       9.719   8.849  50.088  1.00  0.00    -0.289 OA
ATOM     14  C   UNL     1      12.422   9.426  49.490  1.00  0.00     0.059 A 
ATOM     15  C   UNL     1      13.769   9.641  49.204  1.00  0.00     0.120 A 
ATOM     16  C   UNL     1      14.751   8.979  49.946  1.00  0.00     0.093 A 
ATOM     17  C   UNL     1      14.398   8.096  50.972  1.00  0.00     0.131 A 
ENDROOT
BRANCH   6  18
ATOM     18  O   UNL     1      11.756   5.522  54.758  1.00  0.00    -0.507 OA
ATOM     19  H   UNL     1      11.552   5.261  55.713  1.00  0.00     0.293 HD
ENDBRANCH   6  18
BRANCH  17  20
ATOM     20  O   UNL     1      15.433   7.542  51.729  1.00  0.00    -0.507 OA
ATOM     21  H   UNL     1      15.380   6.632  52.165  1.00  0.00     0.293 HD
ENDBRANCH  17  20
BRANCH  15  22
ATOM     22  O   UNL     1      14.124  10.525  48.187  1.00  0.00    -0.508 OA
ATOM     23  H   UNL     1      14.619  10.212  47.360  1.00  0.00     0.293 HD
ENDBRANCH  15  22
TORSDOF 3
ENDMDL
MODEL 5
REMARK VINA RESULT:    -5.380      3.091      4.814
REMARK INTER + INTRA:          -5.851
REMARK INTER:                  -5.851
REMARK INTRA:                   0.000
REMARK UNBOUND:                 0.000
REMARK SMILES Cc1cc(O)c2c(c1)C(=O)c1cc(O)cc(O)c1C2=O
REMARK SMILES IDX 1 1 2 2 8 3 7 4 6 5 4 6 3 7 19 8 20 9 18 10 11 11 9 12 10 13
REMARK SMILES IDX 12 14 13 15 15 16 16 17 5 18 17 20 14 22
REMARK H PARENT 5 19 17 21 14 23
REMARK Flexibility Score: inf
ROOT
ATOM      1  C   UNL     1       8.807   5.920  53.323  1.00  0.00     0.044 C 
ATOM      2  C   UNL     1      10.253   6.283  53.157  1.00  0.00    -0.047 A 
ATOM      3  C   UNL     1      10.633   7.245  52.216  1.00  0.00     0.016 A 
ATOM      4  C   UNL     1      11.982   7.613  52.073  1.00  0.00     0.038 A 
ATOM      5  C   UNL     1      12.966   7.008  52.886  1.00  0.00     0.076 A 
ATOM      6  C   UNL     1      12.564   6.096  53.895  1.00  0.00     0.127 A 
ATOM      7  C   UNL     1      11.219   5.731  54.005  1.00  0.00     0.050 A 
ATOM      8  C   UNL     1      14.393   7.312  52.605  1.00  0.00     0.201 C 
ATOM      9  O   UNL     1      15.277   6.449  52.850  1.00  0.00    -0.288 OA
ATOM     10  C   UNL     1      14.753   8.550  51.866  1.00  0.00     0.076 A 
ATOM     11  C   UNL     1      13.764   9.154  51.056  1.00  0.00     0.041 A 
ATOM     12  C   UNL     1      12.375   8.639  51.077  1.00  0.00     0.194 C 
ATOM     13  O   UNL     1      11.522   9.092  50.266  1.00  0.00    -0.289 OA
ATOM     14  C   UNL     1      14.104  10.243  50.236  1.00  0.00     0.059 A 
ATOM     15  C   UNL     1      15.404  10.746  50.226  1.00  0.00     0.120 A 
ATOM     16  C   UNL     1      16.375  10.178  51.055  1.00  0.00     0.093 A 
ATOM     17  C   UNL     1      16.059   9.105  51.896  1.00  0.00     0.131 A 
ENDROOT
BRANCH   6  18
ATOM     18  O   UNL     1      13.455   5.561  54.828  1.00  0.00    -0.507 OA
ATOM     19  H   UNL     1      13.727   4.587  54.846  1.00  0.00     0.293 HD
ENDBRANCH   6  18
BRANCH  17  20
ATOM     20  O   UNL     1      17.055   8.650  52.762  1.00  0.00    -0.507 OA
ATOM     21  H   UNL     1      18.018   8.521  52.487  1.00  0.00     0.293 HD
ENDBRANCH  17  20
BRANCH  15  22
ATOM     22  O   UNL     1      15.721  11.818  49.396  1.00  0.00    -0.508 OA
ATOM     23  H   UNL     1      16.555  11.816  48.820  1.00  0.00     0.293 HD
ENDBRANCH  15  22
TORSDOF 3
ENDMDL
MODEL 6
REMARK VINA RESULT:    -5.371      3.121      5.855
REMARK INTER + INTRA:          -5.842
REMARK INTER:                  -5.842
REMARK INTRA:                   0.000
REMARK UNBOUND:                 0.000
REMARK SMILES Cc1cc(O)c2c(c1)C(=O)c1cc(O)cc(O)c1C2=O
REMARK SMILES IDX 1 1 2 2 8 3 7 4 6 5 4 6 3 7 19 8 20 9 18 10 11 11 9 12 10 13
REMARK SMILES IDX 12 14 13 15 15 16 16 17 5 18 17 20 14 22
REMARK H PARENT 5 19 17 21 14 23
REMARK Flexibility Score: inf
ROOT
ATOM      1  C   UNL     1      15.622  11.379  49.626  1.00  0.00     0.044 C 
ATOM      2  C   UNL     1      15.304  10.318  50.638  1.00  0.00    -0.047 A 
ATOM      3  C   UNL     1      14.016   9.779  50.712  1.00  0.00     0.016 A 
ATOM      4  C   UNL     1      13.716   8.763  51.636  1.00  0.00     0.038 A 
ATOM      5  C   UNL     1      14.724   8.279  52.500  1.00  0.00     0.076 A 
ATOM      6  C   UNL     1      16.047   8.770  52.362  1.00  0.00     0.127 A 
ATOM      7  C   UNL     1      16.317   9.794  51.449  1.00  0.00     0.050 A 
ATOM      8  C   UNL     1      14.334   7.315  53.562  1.00  0.00     0.201 C 
ATOM      9  O   UNL     1      14.969   7.290  54.649  1.00  0.00    -0.288 OA
ATOM     10  C   UNL     1      13.088   6.518  53.414  1.00  0.00     0.076 A 
ATOM     11  C   UNL     1      12.084   7.004  52.546  1.00  0.00     0.041 A 
ATOM     12  C   UNL     1      12.349   8.194  51.702  1.00  0.00     0.194 C 
ATOM     13  O   UNL     1      11.418   8.704  51.022  1.00  0.00    -0.289 OA
ATOM     14  C   UNL     1      10.840   6.354  52.485  1.00  0.00     0.059 A 
ATOM     15  C   UNL     1      10.591   5.223  53.261  1.00  0.00     0.120 A 
ATOM     16  C   UNL     1      11.595   4.715  54.090  1.00  0.00     0.093 A 
ATOM     17  C   UNL     1      12.849   5.331  54.155  1.00  0.00     0.131 A 
ENDROOT
BRANCH   6  18
ATOM     18  O   UNL     1      17.125   8.247  53.081  1.00  0.00    -0.507 OA
ATOM     19  H   UNL     1      17.653   8.777  53.761  1.00  0.00     0.293 HD
ENDBRANCH   6  18
BRANCH  17  20
ATOM     20  O   UNL     1      13.831   4.715  54.935  1.00  0.00    -0.507 OA
ATOM     21  H   UNL     1      13.732   4.547  55.926  1.00  0.00     0.293 HD
ENDBRANCH  17  20
BRANCH  15  22
ATOM     22  O   UNL     1       9.346   4.603  53.193  1.00  0.00    -0.508 OA
ATOM     23  H   UNL     1       9.133   3.778  53.742  1.00  0.00     0.293 HD
ENDBRANCH  15  22
TORSDOF 3
ENDMDL
MODEL 7
REMARK VINA RESULT:    -5.356      3.261      6.641
REMARK INTER + INTRA:          -5.825
REMARK INTER:                  -5.825
REMARK INTRA:                   0.000
REMARK UNBOUND:                 0.000
REMARK SMILES Cc1cc(O)c2c(c1)C(=O)c1cc(O)cc(O)c1C2=O
REMARK SMILES IDX 1 1 2 2 8 3 7 4 6 5 4 6 3 7 19 8 20 9 18 10 11 11 9 12 10 13
REMARK SMILES IDX 12 14 13 15 15 16 16 17 5 18 17 20 14 22
REMARK H PARENT 5 19 17 21 14 23
REMARK Flexibility Score: inf
ROOT
ATOM      1  C   UNL     1      16.682  11.753  49.602  1.00  0.00     0.044 C 
ATOM      2  C   UNL     1      15.631  10.720  49.881  1.00  0.00    -0.047 A 
ATOM      3  C   UNL     1      15.731   9.900  51.010  1.00  0.00     0.016 A 
ATOM      4  C   UNL     1      14.737   8.949  51.295  1.00  0.00     0.038 A 
ATOM      5  C   UNL     1      13.624   8.816  50.435  1.00  0.00     0.076 A 
ATOM      6  C   UNL     1      13.487   9.706  49.339  1.00  0.00     0.127 A 
ATOM      7  C   UNL     1      14.498  10.631  49.065  1.00  0.00     0.050 A 
ATOM      8  C   UNL     1      12.673   7.702  50.685  1.00  0.00     0.201 C 
ATOM      9  O   UNL     1      12.049   7.183  49.722  1.00  0.00    -0.288 OA
ATOM     10  C   UNL     1      12.601   7.082  52.034  1.00  0.00     0.076 A 
ATOM     11  C   UNL     1      13.715   7.220  52.893  1.00  0.00     0.041 A 
ATOM     12  C   UNL     1      14.848   8.090  52.498  1.00  0.00     0.194 C 
ATOM     13  O   UNL     1      15.896   8.118  53.200  1.00  0.00    -0.289 OA
ATOM     14  C   UNL     1      13.740   6.535  54.118  1.00  0.00     0.059 A 
ATOM     15  C   UNL     1      12.669   5.730  54.505  1.00  0.00     0.120 A 
ATOM     16  C   UNL     1      11.548   5.623  53.678  1.00  0.00     0.093 A 
ATOM     17  C   UNL     1      11.488   6.311  52.461  1.00  0.00     0.131 A 
ENDROOT
BRANCH   6  18
ATOM     18  O   UNL     1      12.351   9.732  48.525  1.00  0.00    -0.507 OA
ATOM     19  H   UNL     1      11.921   8.901  48.141  1.00  0.00     0.293 HD
ENDBRANCH   6  18
BRANCH  17  20
ATOM     20  O   UNL     1      10.299   6.228  51.732  1.00  0.00    -0.507 OA
ATOM     21  H   UNL     1       9.999   6.933  51.073  1.00  0.00     0.293 HD
ENDBRANCH  17  20
BRANCH  15  22
ATOM     22  O   UNL     1      12.723   5.050  55.719  1.00  0.00    -0.508 OA
ATOM     23  H   UNL     1      13.151   5.461  56.540  1.00  0.00     0.293 HD
ENDBRANCH  15  22
TORSDOF 3
ENDMDL
MODEL 8
REMARK VINA RESULT:    -4.280      2.413      4.448
REMARK INTER + INTRA:          -4.655
REMARK INTER:                  -4.655
REMARK INTRA:                   0.000
REMARK UNBOUND:                 0.000
REMARK SMILES Cc1cc(O)c2c(c1)C(=O)c1cc(O)cc(O)c1C2=O
REMARK SMILES IDX 1 1 2 2 8 3 7 4 6 5 4 6 3 7 19 8 20 9 18 10 11 11 9 12 10 13
REMARK SMILES IDX 12 14 13 15 15 16 16 17 5 18 17 20 14 22
REMARK H PARENT 5 19 17 21 14 23
REMARK Flexibility Score: inf
ROOT
ATOM      1  C   UNL     1      17.125   7.796  52.741  1.00  0.00     0.044 C 
ATOM      2  C   UNL     1      15.709   8.062  52.323  1.00  0.00    -0.047 A 
ATOM      3  C   UNL     1      14.671   7.257  52.801  1.00  0.00     0.016 A 
ATOM      4  C   UNL     1      13.338   7.516  52.438  1.00  0.00     0.038 A 
ATOM      5  C   UNL     1      13.041   8.600  51.582  1.00  0.00     0.076 A 
ATOM      6  C   UNL     1      14.088   9.463  51.168  1.00  0.00     0.127 A 
ATOM      7  C   UNL     1      15.408   9.173  51.527  1.00  0.00     0.050 A 
ATOM      8  C   UNL     1      11.642   8.752  51.102  1.00  0.00     0.201 C 
ATOM      9  O   UNL     1      11.420   9.270  49.975  1.00  0.00    -0.288 OA
ATOM     10  C   UNL     1      10.529   8.128  51.861  1.00  0.00     0.076 A 
ATOM     11  C   UNL     1      10.831   7.046  52.720  1.00  0.00     0.041 A 
ATOM     12  C   UNL     1      12.243   6.662  52.955  1.00  0.00     0.194 C 
ATOM     13  O   UNL     1      12.511   5.622  53.618  1.00  0.00    -0.289 OA
ATOM     14  C   UNL     1       9.790   6.342  53.348  1.00  0.00     0.059 A 
ATOM     15  C   UNL     1       8.461   6.710  53.146  1.00  0.00     0.120 A 
ATOM     16  C   UNL     1       8.159   7.804  52.331  1.00  0.00     0.093 A 
ATOM     17  C   UNL     1       9.177   8.535  51.710  1.00  0.00     0.131 A 
ENDROOT
BRANCH   6  18
ATOM     18  O   UNL     1      13.860  10.631  50.438  1.00  0.00    -0.507 OA
ATOM     19  H   UNL     1      13.411  10.645  49.532  1.00  0.00     0.293 HD
ENDBRANCH   6  18
BRANCH  17  20
ATOM     20  O   UNL     1       8.806   9.670  50.985  1.00  0.00    -0.507 OA
ATOM     21  H   UNL     1       8.119  10.337  51.306  1.00  0.00     0.293 HD
ENDBRANCH  17  20
BRANCH  15  22
ATOM     22  O   UNL     1       7.445   5.989  53.769  1.00  0.00    -0.508 OA
ATOM     23  H   UNL     1       6.504   6.356  53.847  1.00  0.00     0.293 HD
ENDBRANCH  15  22
TORSDOF 3
ENDMDL
