MODEL 1
REMARK VINA RESULT:    -4.481      0.000      0.000
REMARK INTER + INTRA:          -4.831
REMARK INTER:                  -4.743
REMARK INTRA:                  -0.088
REMARK UNBOUND:                -0.088
REMARK SMILES C=C(C)[C@@H]1CC=C(C)C(=O)C1
REMARK SMILES IDX 8 1 7 2 6 3 5 4 4 5 11 6 9 7 10 8 2 9 1 10 3 11
REMARK H PARENT
REMARK Flexibility Score: inf
ROOT
ATOM      1  C   UNL     1      28.466  13.874  22.548  1.00  0.00     0.048 C 
ATOM      2  C   UNL     1      28.645  12.554  23.246  1.00  0.00    -0.012 C 
ATOM      3  C   UNL     1      27.945  11.481  22.837  1.00  0.00    -0.019 C 
ATOM      4  C   UNL     1      28.099  10.132  23.489  1.00  0.00     0.036 C 
ATOM      5  C   UNL     1      28.414  10.274  24.990  1.00  0.00     0.025 C 
ATOM      6  C   UNL     1      29.653  11.164  25.193  1.00  0.00     0.089 C 
ATOM      7  C   UNL     1      29.495  12.467  24.460  1.00  0.00     0.158 C 
ATOM      8  O   UNL     1      30.124  13.482  24.866  1.00  0.00    -0.295 OA
ENDROOT
BRANCH   5   9
ATOM      9  C   UNL     1      28.590   8.915  25.653  1.00  0.00    -0.077 C 
ATOM     10  C   UNL     1      27.521   8.248  26.115  1.00  0.00     0.008 C 
ATOM     11  C   UNL     1      29.953   8.287  25.810  1.00  0.00     0.039 C 
ENDBRANCH   5   9
TORSDOF 1
ENDMDL
MODEL 2
REMARK VINA RESULT:    -4.429      1.463      2.083
REMARK INTER + INTRA:          -4.777
REMARK INTER:                  -4.678
REMARK INTRA:                  -0.099
REMARK UNBOUND:                -0.088
REMARK SMILES C=C(C)[C@@H]1CC=C(C)C(=O)C1
REMARK SMILES IDX 8 1 7 2 6 3 5 4 4 5 11 6 9 7 10 8 2 9 1 10 3 11
REMARK H PARENT
REMARK Flexibility Score: inf
ROOT
ATOM      1  C   UNL     1      29.720  14.404  22.755  1.00  0.00     0.048 C 
ATOM      2  C   UNL     1      29.317  13.129  23.444  1.00  0.00    -0.012 C 
ATOM      3  C   UNL     1      30.052  12.663  24.470  1.00  0.00    -0.019 C 
ATOM      4  C   UNL     1      29.684  11.402  25.207  1.00  0.00     0.036 C 
ATOM      5  C   UNL     1      29.009  10.387  24.266  1.00  0.00     0.025 C 
ATOM      6  C   UNL     1      27.797  11.029  23.568  1.00  0.00     0.089 C 
ATOM      7  C   UNL     1      28.187  12.326  22.915  1.00  0.00     0.158 C 
ATOM      8  O   UNL     1      27.519  12.744  21.931  1.00  0.00    -0.295 OA
ENDROOT
BRANCH   5   9
ATOM      9  C   UNL     1      28.617   9.116  25.007  1.00  0.00    -0.077 C 
ATOM     10  C   UNL     1      27.392   8.592  24.841  1.00  0.00     0.008 C 
ATOM     11  C   UNL     1      29.577   8.421  25.940  1.00  0.00     0.039 C 
ENDBRANCH   5   9
TORSDOF 1
ENDMDL
MODEL 3
REMARK VINA RESULT:    -4.397      1.465      2.314
REMARK INTER + INTRA:          -4.743
REMARK INTER:                  -4.649
REMARK INTRA:                  -0.094
REMARK UNBOUND:                -0.088
REMARK SMILES C=C(C)[C@@H]1CC=C(C)C(=O)C1
REMARK SMILES IDX 8 1 7 2 6 3 5 4 4 5 11 6 9 7 10 8 2 9 1 10 3 11
REMARK H PARENT
REMARK Flexibility Score: inf
ROOT
ATOM      1  C   UNL     1      29.655  14.474  22.752  1.00  0.00     0.048 C 
ATOM      2  C   UNL     1      29.287  13.185  23.433  1.00  0.00    -0.012 C 
ATOM      3  C   UNL     1      30.018  12.745  24.473  1.00  0.00    -0.019 C 
ATOM      4  C   UNL     1      29.684  11.471  25.202  1.00  0.00     0.036 C 
ATOM      5  C   UNL     1      29.065  10.432  24.248  1.00  0.00     0.025 C 
ATOM      6  C   UNL     1      27.843  11.030  23.528  1.00  0.00     0.089 C 
ATOM      7  C   UNL     1      28.198  12.340  22.882  1.00  0.00     0.158 C 
ATOM      8  O   UNL     1      27.533  12.735  21.886  1.00  0.00    -0.295 OA
ENDROOT
BRANCH   5   9
ATOM      9  C   UNL     1      28.705   9.147  24.982  1.00  0.00    -0.077 C 
ATOM     10  C   UNL     1      29.633   8.506  25.710  1.00  0.00     0.008 C 
ATOM     11  C   UNL     1      27.316   8.564  24.912  1.00  0.00     0.039 C 
ENDBRANCH   5   9
TORSDOF 1
ENDMDL
MODEL 4
REMARK VINA RESULT:    -3.845      2.001      4.675
REMARK INTER + INTRA:          -4.158
REMARK INTER:                  -4.060
REMARK INTRA:                  -0.099
REMARK UNBOUND:                -0.088
REMARK SMILES C=C(C)[C@@H]1CC=C(C)C(=O)C1
REMARK SMILES IDX 8 1 7 2 6 3 5 4 4 5 11 6 9 7 10 8 2 9 1 10 3 11
REMARK H PARENT
REMARK Flexibility Score: inf
ROOT
ATOM      1  C   UNL     1      29.142   8.071  26.125  1.00  0.00     0.048 C 
ATOM      2  C   UNL     1      29.094   9.242  25.182  1.00  0.00    -0.012 C 
ATOM      3  C   UNL     1      30.113  10.119  25.151  1.00  0.00    -0.019 C 
ATOM      4  C   UNL     1      30.125  11.297  24.214  1.00  0.00     0.036 C 
ATOM      5  C   UNL     1      28.698  11.822  23.965  1.00  0.00     0.025 C 
ATOM      6  C   UNL     1      27.792  10.684  23.461  1.00  0.00     0.089 C 
ATOM      7  C   UNL     1      27.872   9.496  24.379  1.00  0.00     0.158 C 
ATOM      8  O   UNL     1      26.901   8.694  24.433  1.00  0.00    -0.295 OA
ENDROOT
BRANCH   5   9
ATOM      9  C   UNL     1      28.698  13.002  23.003  1.00  0.00    -0.077 C 
ATOM     10  C   UNL     1      27.865  13.012  21.951  1.00  0.00     0.008 C 
ATOM     11  C   UNL     1      29.624  14.176  23.200  1.00  0.00     0.039 C 
ENDBRANCH   5   9
TORSDOF 1
ENDMDL
MODEL 5
REMARK VINA RESULT:    -3.747      1.731      4.891
REMARK INTER + INTRA:          -4.054
REMARK INTER:                  -3.956
REMARK INTRA:                  -0.098
REMARK UNBOUND:                -0.088
REMARK SMILES C=C(C)[C@@H]1CC=C(C)C(=O)C1
REMARK SMILES IDX 8 1 7 2 6 3 5 4 4 5 11 6 9 7 10 8 2 9 1 10 3 11
REMARK H PARENT
REMARK Flexibility Score: inf
ROOT
ATOM      1  C   UNL     1      27.975   9.853  23.885  1.00  0.00     0.048 C 
ATOM      2  C   UNL     1      28.371  11.291  23.691  1.00  0.00    -0.012 C 
ATOM      3  C   UNL     1      27.780  12.024  22.731  1.00  0.00    -0.019 C 
ATOM      4  C   UNL     1      28.125  13.472  22.505  1.00  0.00     0.036 C 
ATOM      5  C   UNL     1      29.605  13.747  22.832  1.00  0.00     0.025 C 
ATOM      6  C   UNL     1      29.930  13.286  24.264  1.00  0.00     0.089 C 
ATOM      7  C   UNL     1      29.496  11.862  24.474  1.00  0.00     0.158 C 
ATOM      8  O   UNL     1      30.074  11.166  25.351  1.00  0.00    -0.295 OA
ENDROOT
BRANCH   5   9
ATOM      9  C   UNL     1      29.958  15.214  22.625  1.00  0.00    -0.077 C 
ATOM     10  C   UNL     1      30.125  16.021  23.685  1.00  0.00     0.008 C 
ATOM     11  C   UNL     1      30.125  15.795  21.243  1.00  0.00     0.039 C 
ENDBRANCH   5   9
TORSDOF 1
ENDMDL
MODEL 6
REMARK VINA RESULT:    -3.665      1.766      4.254
REMARK INTER + INTRA:          -3.967
REMARK INTER:                  -3.871
REMARK INTRA:                  -0.096
REMARK UNBOUND:                -0.088
REMARK SMILES C=C(C)[C@@H]1CC=C(C)C(=O)C1
REMARK SMILES IDX 8 1 7 2 6 3 5 4 4 5 11 6 9 7 10 8 2 9 1 10 3 11
REMARK H PARENT
REMARK Flexibility Score: inf
ROOT
ATOM      1  C   UNL     1      27.475   8.626  26.024  1.00  0.00     0.048 C 
ATOM      2  C   UNL     1      27.970   9.706  25.102  1.00  0.00    -0.012 C 
ATOM      3  C   UNL     1      27.180  10.154  24.111  1.00  0.00    -0.019 C 
ATOM      4  C   UNL     1      27.619  11.245  23.171  1.00  0.00     0.036 C 
ATOM      5  C   UNL     1      29.139  11.191  22.930  1.00  0.00     0.025 C 
ATOM      6  C   UNL     1      29.894  11.238  24.270  1.00  0.00     0.089 C 
ATOM      7  C   UNL     1      29.370  10.187  25.210  1.00  0.00     0.158 C 
ATOM      8  O   UNL     1      30.125   9.743  26.117  1.00  0.00    -0.295 OA
ENDROOT
BRANCH   5   9
ATOM      9  C   UNL     1      29.594  12.304  21.995  1.00  0.00    -0.077 C 
ATOM     10  C   UNL     1      29.526  13.584  22.391  1.00  0.00     0.008 C 
ATOM     11  C   UNL     1      30.125  12.004  20.615  1.00  0.00     0.039 C 
ENDBRANCH   5   9
TORSDOF 1
ENDMDL
MODEL 7
REMARK VINA RESULT:    -3.569      2.141      3.018
REMARK INTER + INTRA:          -3.866
REMARK INTER:                  -3.767
REMARK INTRA:                  -0.099
REMARK UNBOUND:                -0.088
REMARK SMILES C=C(C)[C@@H]1CC=C(C)C(=O)C1
REMARK SMILES IDX 8 1 7 2 6 3 5 4 4 5 11 6 9 7 10 8 2 9 1 10 3 11
REMARK H PARENT
REMARK Flexibility Score: inf
ROOT
ATOM      1  C   UNL     1      30.123  11.957  20.260  1.00  0.00     0.048 C 
ATOM      2  C   UNL     1      29.516  11.940  21.636  1.00  0.00    -0.012 C 
ATOM      3  C   UNL     1      28.895  10.833  22.080  1.00  0.00    -0.019 C 
ATOM      4  C   UNL     1      28.286  10.755  23.455  1.00  0.00     0.036 C 
ATOM      5  C   UNL     1      27.747  12.128  23.900  1.00  0.00     0.025 C 
ATOM      6  C   UNL     1      28.855  13.192  23.812  1.00  0.00     0.089 C 
ATOM      7  C   UNL     1      29.493  13.180  22.451  1.00  0.00     0.158 C 
ATOM      8  O   UNL     1      30.044  14.230  22.021  1.00  0.00    -0.295 OA
ENDROOT
BRANCH   5   9
ATOM      9  C   UNL     1      27.146  12.063  25.298  1.00  0.00    -0.077 C 
ATOM     10  C   UNL     1      27.475  11.058  26.125  1.00  0.00     0.008 C 
ATOM     11  C   UNL     1      26.177  13.110  25.787  1.00  0.00     0.039 C 
ENDBRANCH   5   9
TORSDOF 1
ENDMDL
MODEL 8
REMARK VINA RESULT:    -3.033      1.418      2.159
REMARK INTER + INTRA:          -3.299
REMARK INTER:                  -3.201
REMARK INTRA:                  -0.098
REMARK UNBOUND:                -0.088
REMARK SMILES C=C(C)[C@@H]1CC=C(C)C(=O)C1
REMARK SMILES IDX 8 1 7 2 6 3 5 4 4 5 11 6 9 7 10 8 2 9 1 10 3 11
REMARK H PARENT
REMARK Flexibility Score: inf
ROOT
ATOM      1  C   UNL     1      29.925  15.499  22.129  1.00  0.00     0.048 C 
ATOM      2  C   UNL     1      29.869  14.129  22.747  1.00  0.00    -0.012 C 
ATOM      3  C   UNL     1      29.638  13.054  21.972  1.00  0.00    -0.019 C 
ATOM      4  C   UNL     1      29.589  11.659  22.536  1.00  0.00     0.036 C 
ATOM      5  C   UNL     1      29.033  11.661  23.973  1.00  0.00     0.025 C 
ATOM      6  C   UNL     1      29.849  12.620  24.859  1.00  0.00     0.089 C 
ATOM      7  C   UNL     1      29.944  13.978  24.221  1.00  0.00     0.158 C 
ATOM      8  O   UNL     1      30.125  14.989  24.953  1.00  0.00    -0.295 OA
ENDROOT
BRANCH   5   9
ATOM      9  C   UNL     1      28.999  10.256  24.558  1.00  0.00    -0.077 C 
ATOM     10  C   UNL     1      29.986   9.839  25.367  1.00  0.00     0.008 C 
ATOM     11  C   UNL     1      27.871   9.302  24.248  1.00  0.00     0.039 C 
ENDBRANCH   5   9
TORSDOF 1
ENDMDL
