MODEL 1
REMARK VINA RESULT:    -3.126      0.000      0.000
REMARK INTER + INTRA:          -3.708
REMARK INTER:                  -3.492
REMARK INTRA:                  -0.217
REMARK UNBOUND:                -0.217
REMARK SMILES O=C([O-])c1ccccc1C(=O)[O-]
REMARK SMILES IDX 4 1 9 2 5 3 8 4 6 5 7 6 2 7 1 8 3 9 10 10 11 11 12 12
REMARK H PARENT
REMARK Flexibility Score: inf
ROOT
ATOM      1  C   UNL     1      22.891  45.751  87.615  1.00  0.00     0.006 A 
ATOM      2  C   UNL     1      23.607  46.219  86.479  1.00  0.00     0.006 A 
ATOM      3  C   UNL     1      21.797  46.498  88.089  1.00  0.00     0.010 A 
ATOM      4  C   UNL     1      23.164  47.381  85.821  1.00  0.00     0.010 A 
ATOM      5  C   UNL     1      21.387  47.659  87.434  1.00  0.00     0.001 A 
ATOM      6  C   UNL     1      22.062  48.093  86.295  1.00  0.00     0.001 A 
ENDROOT
BRANCH   1   7
ATOM      7  C   UNL     1      23.201  44.467  88.284  1.00  0.00     0.072 C 
ATOM      8  O   UNL     1      23.773  44.458  89.406  1.00  0.00    -0.545 OA
ATOM      9  O   UNL     1      22.809  43.260  87.717  1.00  0.00    -0.545 OA
ENDBRANCH   1   7
BRANCH   2  10
ATOM     10  C   UNL     1      24.852  45.579  85.990  1.00  0.00     0.072 C 
ATOM     11  O   UNL     1      24.808  44.663  85.128  1.00  0.00    -0.545 OA
ATOM     12  O   UNL     1      26.080  45.941  86.531  1.00  0.00    -0.545 OA
ENDBRANCH   2  10
TORSDOF 2
ENDMDL
MODEL 2
REMARK VINA RESULT:    -3.125      0.109      3.005
REMARK INTER + INTRA:          -3.707
REMARK INTER:                  -3.480
REMARK INTRA:                  -0.227
REMARK UNBOUND:                -0.217
REMARK SMILES O=C([O-])c1ccccc1C(=O)[O-]
REMARK SMILES IDX 4 1 9 2 5 3 8 4 6 5 7 6 2 7 1 8 3 9 10 10 11 11 12 12
REMARK H PARENT
REMARK Flexibility Score: inf
ROOT
ATOM      1  C   UNL     1      23.632  46.140  86.504  1.00  0.00     0.006 A 
ATOM      2  C   UNL     1      22.898  45.667  87.626  1.00  0.00     0.006 A 
ATOM      3  C   UNL     1      23.197  47.303  85.842  1.00  0.00     0.010 A 
ATOM      4  C   UNL     1      21.793  46.408  88.084  1.00  0.00     0.010 A 
ATOM      5  C   UNL     1      22.086  48.011  86.300  1.00  0.00     0.001 A 
ATOM      6  C   UNL     1      21.392  47.571  87.426  1.00  0.00     0.001 A 
ENDROOT
BRANCH   1   7
ATOM      7  C   UNL     1      24.886  45.502  86.041  1.00  0.00     0.072 C 
ATOM      8  O   UNL     1      25.993  45.852  86.527  1.00  0.00    -0.545 OA
ATOM      9  O   UNL     1      24.854  44.466  85.114  1.00  0.00    -0.545 OA
ENDBRANCH   1   7
BRANCH   2  10
ATOM     10  C   UNL     1      23.196  44.381  88.302  1.00  0.00     0.072 C 
ATOM     11  O   UNL     1      23.841  44.356  89.383  1.00  0.00    -0.545 OA
ATOM     12  O   UNL     1      22.822  43.180  87.710  1.00  0.00    -0.545 OA
ENDBRANCH   2  10
TORSDOF 2
ENDMDL
MODEL 3
REMARK VINA RESULT:    -3.123      2.566      4.397
REMARK INTER + INTRA:          -3.705
REMARK INTER:                  -3.473
REMARK INTRA:                  -0.233
REMARK UNBOUND:                -0.217
REMARK SMILES O=C([O-])c1ccccc1C(=O)[O-]
REMARK SMILES IDX 4 1 9 2 5 3 8 4 6 5 7 6 2 7 1 8 3 9 10 10 11 11 12 12
REMARK H PARENT
REMARK Flexibility Score: inf
ROOT
ATOM      1  C   UNL     1      25.699  45.778  85.964  1.00  0.00     0.006 A 
ATOM      2  C   UNL     1      26.589  46.884  85.884  1.00  0.00     0.006 A 
ATOM      3  C   UNL     1      25.962  44.631  85.192  1.00  0.00     0.010 A 
ATOM      4  C   UNL     1      27.742  46.779  85.085  1.00  0.00     0.010 A 
ATOM      5  C   UNL     1      27.100  44.557  84.389  1.00  0.00     0.001 A 
ATOM      6  C   UNL     1      27.995  45.624  84.345  1.00  0.00     0.001 A 
ENDROOT
BRANCH   1   7
ATOM      7  C   UNL     1      24.539  45.748  86.884  1.00  0.00     0.072 C 
ATOM      8  O   UNL     1      24.685  45.370  88.077  1.00  0.00    -0.545 OA
ATOM      9  O   UNL     1      23.291  46.197  86.467  1.00  0.00    -0.545 OA
ENDBRANCH   1   7
BRANCH   2  10
ATOM     10  C   UNL     1      26.324  48.182  86.550  1.00  0.00     0.072 C 
ATOM     11  O   UNL     1      26.800  48.430  87.689  1.00  0.00    -0.545 OA
ATOM     12  O   UNL     1      25.490  49.117  85.949  1.00  0.00    -0.545 OA
ENDBRANCH   2  10
TORSDOF 2
ENDMDL
MODEL 4
REMARK VINA RESULT:    -3.081      2.506      4.893
REMARK INTER + INTRA:          -3.658
REMARK INTER:                  -3.434
REMARK INTRA:                  -0.224
REMARK UNBOUND:                -0.217
REMARK SMILES O=C([O-])c1ccccc1C(=O)[O-]
REMARK SMILES IDX 4 1 9 2 5 3 8 4 6 5 7 6 2 7 1 8 3 9 10 10 11 11 12 12
REMARK H PARENT
REMARK Flexibility Score: inf
ROOT
ATOM      1  C   UNL     1      26.521  46.844  85.959  1.00  0.00     0.006 A 
ATOM      2  C   UNL     1      25.605  45.757  86.009  1.00  0.00     0.006 A 
ATOM      3  C   UNL     1      27.692  46.718  85.189  1.00  0.00     0.010 A 
ATOM      4  C   UNL     1      25.863  44.609  85.237  1.00  0.00     0.010 A 
ATOM      5  C   UNL     1      27.939  45.562  84.449  1.00  0.00     0.001 A 
ATOM      6  C   UNL     1      27.020  44.514  84.464  1.00  0.00     0.001 A 
ENDROOT
BRANCH   1   7
ATOM      7  C   UNL     1      26.260  48.141  86.626  1.00  0.00     0.072 C 
ATOM      8  O   UNL     1      26.776  48.392  87.747  1.00  0.00    -0.545 OA
ATOM      9  O   UNL     1      25.501  49.121  85.998  1.00  0.00    -0.545 OA
ENDBRANCH   1   7
BRANCH   2  10
ATOM     10  C   UNL     1      24.418  45.742  86.896  1.00  0.00     0.072 C 
ATOM     11  O   UNL     1      23.299  46.143  86.481  1.00  0.00    -0.545 OA
ATOM     12  O   UNL     1      24.544  45.344  88.222  1.00  0.00    -0.545 OA
ENDBRANCH   2  10
TORSDOF 2
ENDMDL
MODEL 5
REMARK VINA RESULT:    -3.069      2.383      4.187
REMARK INTER + INTRA:          -3.644
REMARK INTER:                  -3.435
REMARK INTRA:                  -0.208
REMARK UNBOUND:                -0.217
REMARK SMILES O=C([O-])c1ccccc1C(=O)[O-]
REMARK SMILES IDX 4 1 9 2 5 3 8 4 6 5 7 6 2 7 1 8 3 9 10 10 11 11 12 12
REMARK H PARENT
REMARK Flexibility Score: inf
ROOT
ATOM      1  C   UNL     1      25.008  46.005  86.015  1.00  0.00     0.006 A 
ATOM      2  C   UNL     1      26.201  46.779  86.047  1.00  0.00     0.006 A 
ATOM      3  C   UNL     1      25.038  44.725  85.432  1.00  0.00     0.010 A 
ATOM      4  C   UNL     1      27.393  46.219  85.552  1.00  0.00     0.010 A 
ATOM      5  C   UNL     1      26.227  44.198  84.927  1.00  0.00     0.001 A 
ATOM      6  C   UNL     1      27.405  44.939  84.998  1.00  0.00     0.001 A 
ENDROOT
BRANCH   1   7
ATOM      7  C   UNL     1      23.743  46.458  86.638  1.00  0.00     0.072 C 
ATOM      8  O   UNL     1      22.918  47.139  85.974  1.00  0.00    -0.545 OA
ATOM      9  O   UNL     1      23.420  46.086  87.938  1.00  0.00    -0.545 OA
ENDBRANCH   1   7
BRANCH   2  10
ATOM     10  C   UNL     1      26.238  48.185  86.514  1.00  0.00     0.072 C 
ATOM     11  O   UNL     1      25.963  49.131  85.731  1.00  0.00    -0.545 OA
ATOM     12  O   UNL     1      26.643  48.477  87.812  1.00  0.00    -0.545 OA
ENDBRANCH   2  10
TORSDOF 2
ENDMDL
MODEL 6
REMARK VINA RESULT:    -3.069      3.026      4.192
REMARK INTER + INTRA:          -3.644
REMARK INTER:                  -3.435
REMARK INTRA:                  -0.209
REMARK UNBOUND:                -0.217
REMARK SMILES O=C([O-])c1ccccc1C(=O)[O-]
REMARK SMILES IDX 4 1 9 2 5 3 8 4 6 5 7 6 2 7 1 8 3 9 10 10 11 11 12 12
REMARK H PARENT
REMARK Flexibility Score: inf
ROOT
ATOM      1  C   UNL     1      26.044  45.404  85.647  1.00  0.00     0.006 A 
ATOM      2  C   UNL     1      26.028  46.735  86.148  1.00  0.00     0.006 A 
ATOM      3  C   UNL     1      24.892  44.608  85.784  1.00  0.00     0.010 A 
ATOM      4  C   UNL     1      24.842  47.241  86.709  1.00  0.00     0.010 A 
ATOM      5  C   UNL     1      23.733  45.123  86.364  1.00  0.00     0.001 A 
ATOM      6  C   UNL     1      23.704  46.441  86.815  1.00  0.00     0.001 A 
ENDROOT
BRANCH   1   7
ATOM      7  C   UNL     1      27.202  44.837  84.917  1.00  0.00     0.072 C 
ATOM      8  O   UNL     1      27.393  45.130  83.708  1.00  0.00    -0.545 OA
ATOM      9  O   UNL     1      28.125  44.029  85.570  1.00  0.00    -0.545 OA
ENDBRANCH   1   7
BRANCH   2  10
ATOM     10  C   UNL     1      27.231  47.601  86.174  1.00  0.00     0.072 C 
ATOM     11  O   UNL     1      28.077  47.502  87.100  1.00  0.00    -0.545 OA
ATOM     12  O   UNL     1      27.403  48.583  85.204  1.00  0.00    -0.545 OA
ENDBRANCH   2  10
TORSDOF 2
ENDMDL
MODEL 7
REMARK VINA RESULT:    -3.059      3.011      4.154
REMARK INTER + INTRA:          -3.634
REMARK INTER:                  -3.408
REMARK INTRA:                  -0.226
REMARK UNBOUND:                -0.217
REMARK SMILES O=C([O-])c1ccccc1C(=O)[O-]
REMARK SMILES IDX 4 1 9 2 5 3 8 4 6 5 7 6 2 7 1 8 3 9 10 10 11 11 12 12
REMARK H PARENT
REMARK Flexibility Score: inf
ROOT
ATOM      1  C   UNL     1      25.995  46.738  86.205  1.00  0.00     0.006 A 
ATOM      2  C   UNL     1      26.052  45.417  85.681  1.00  0.00     0.006 A 
ATOM      3  C   UNL     1      24.785  47.207  86.749  1.00  0.00     0.010 A 
ATOM      4  C   UNL     1      24.916  44.593  85.777  1.00  0.00     0.010 A 
ATOM      5  C   UNL     1      23.664  46.379  86.814  1.00  0.00     0.001 A 
ATOM      6  C   UNL     1      23.733  45.071  86.340  1.00  0.00     0.001 A 
ENDROOT
BRANCH   1   7
ATOM      7  C   UNL     1      27.180  47.625  86.273  1.00  0.00     0.072 C 
ATOM      8  O   UNL     1      27.987  47.532  87.235  1.00  0.00    -0.545 OA
ATOM      9  O   UNL     1      27.453  48.523  85.248  1.00  0.00    -0.545 OA
ENDBRANCH   1   7
BRANCH   2  10
ATOM     10  C   UNL     1      27.237  44.883  84.967  1.00  0.00     0.072 C 
ATOM     11  O   UNL     1      28.046  44.114  85.549  1.00  0.00    -0.545 OA
ATOM     12  O   UNL     1      27.502  45.281  83.662  1.00  0.00    -0.545 OA
ENDBRANCH   2  10
TORSDOF 2
ENDMDL
MODEL 8
REMARK VINA RESULT:    -2.997      1.958      2.927
REMARK INTER + INTRA:          -3.564
REMARK INTER:                  -3.434
REMARK INTRA:                  -0.130
REMARK UNBOUND:                -0.217
REMARK SMILES O=C([O-])c1ccccc1C(=O)[O-]
REMARK SMILES IDX 4 1 9 2 5 3 8 4 6 5 7 6 2 7 1 8 3 9 10 10 11 11 12 12
REMARK H PARENT
REMARK Flexibility Score: inf
ROOT
ATOM      1  C   UNL     1      24.742  46.217  86.166  1.00  0.00     0.006 A 
ATOM      2  C   UNL     1      26.029  46.787  86.376  1.00  0.00     0.006 A 
ATOM      3  C   UNL     1      23.631  47.069  86.030  1.00  0.00     0.010 A 
ATOM      4  C   UNL     1      26.165  48.187  86.379  1.00  0.00     0.010 A 
ATOM      5  C   UNL     1      23.785  48.455  86.058  1.00  0.00     0.001 A 
ATOM      6  C   UNL     1      25.052  49.013  86.220  1.00  0.00     0.001 A 
ENDROOT
BRANCH   1   7
ATOM      7  C   UNL     1      24.528  44.760  86.009  1.00  0.00     0.072 C 
ATOM      8  O   UNL     1      23.757  44.145  86.791  1.00  0.00    -0.545 OA
ATOM      9  O   UNL     1      25.121  44.065  84.962  1.00  0.00    -0.545 OA
ENDBRANCH   1   7
BRANCH   2  10
ATOM     10  C   UNL     1      27.233  45.974  86.666  1.00  0.00     0.072 C 
ATOM     11  O   UNL     1      27.583  45.741  87.853  1.00  0.00    -0.545 OA
ATOM     12  O   UNL     1      28.030  45.512  85.624  1.00  0.00    -0.545 OA
ENDBRANCH   2  10
TORSDOF 2
ENDMDL
MODEL 9
REMARK VINA RESULT:    -2.951      1.816      3.227
REMARK INTER + INTRA:          -3.512
REMARK INTER:                  -3.331
REMARK INTRA:                  -0.181
REMARK UNBOUND:                -0.217
REMARK SMILES O=C([O-])c1ccccc1C(=O)[O-]
REMARK SMILES IDX 4 1 9 2 5 3 8 4 6 5 7 6 2 7 1 8 3 9 10 10 11 11 12 12
REMARK H PARENT
REMARK Flexibility Score: inf
ROOT
ATOM      1  C   UNL     1      25.699  46.835  86.827  1.00  0.00     0.006 A 
ATOM      2  C   UNL     1      24.515  46.213  86.342  1.00  0.00     0.006 A 
ATOM      3  C   UNL     1      25.768  48.240  86.862  1.00  0.00     0.010 A 
ATOM      4  C   UNL     1      23.421  47.017  85.972  1.00  0.00     0.010 A 
ATOM      5  C   UNL     1      24.679  49.019  86.469  1.00  0.00     0.001 A 
ATOM      6  C   UNL     1      23.504  48.408  86.036  1.00  0.00     0.001 A 
ENDROOT
BRANCH   1   7
ATOM      7  C   UNL     1      26.843  46.066  87.368  1.00  0.00     0.072 C 
ATOM      8  O   UNL     1      27.759  45.668  86.601  1.00  0.00    -0.545 OA
ATOM      9  O   UNL     1      26.956  45.831  88.733  1.00  0.00    -0.545 OA
ENDBRANCH   1   7
BRANCH   2  10
ATOM     10  C   UNL     1      24.398  44.750  86.138  1.00  0.00     0.072 C 
ATOM     11  O   UNL     1      24.965  44.188  85.165  1.00  0.00    -0.545 OA
ATOM     12  O   UNL     1      23.604  43.989  86.988  1.00  0.00    -0.545 OA
ENDBRANCH   2  10
TORSDOF 2
ENDMDL
