MODEL 1
REMARK VINA RESULT:    -4.317      0.000      0.000
REMARK INTER + INTRA:          -7.533
REMARK INTER:                  -6.588
REMARK INTRA:                  -0.945
REMARK UNBOUND:                -0.945
REMARK SMILES CCCCCCCCCCC(=O)[O-]
REMARK SMILES IDX 7 1 8 2 9 3 10 4 11 5 12 6 13 7 6 8 5 9 4 10 3 11 2 12 1 13
REMARK H PARENT
REMARK Flexibility Score: inf
ROOT
ATOM      1  C   UNL     1       7.564   2.050  19.090  1.00  0.00     0.000 C 
ENDROOT
BRANCH   1   2
ATOM      2  C   UNL     1       8.130   2.640  17.789  1.00  0.00     0.000 C 
BRANCH   2   3
ATOM      3  C   UNL     1       7.131   3.564  17.073  1.00  0.00     0.006 C 
BRANCH   3   4
ATOM      4  C   UNL     1       7.732   4.935  16.737  1.00  0.00     0.053 C 
BRANCH   4   5
ATOM      5  C   UNL     1       7.100   6.002  17.573  1.00  0.00     0.041 C 
ATOM      6  O   UNL     1       7.683   7.105  17.740  1.00  0.00    -0.550 OA
ATOM      7  O   UNL     1       5.889   5.759  18.209  1.00  0.00    -0.550 OA
ENDBRANCH   4   5
ENDBRANCH   3   4
ENDBRANCH   2   3
ENDBRANCH   1   2
BRANCH   1   8
ATOM      8  C   UNL     1       7.485   3.122  20.187  1.00  0.00     0.000 C 
BRANCH   8   9
ATOM      9  C   UNL     1       8.774   3.953  20.301  1.00  0.00    -0.000 C 
BRANCH   9  10
ATOM     10  C   UNL     1       8.694   5.019  21.408  1.00  0.00    -0.000 C 
BRANCH  10  11
ATOM     11  C   UNL     1       7.385   5.824  21.357  1.00  0.00    -0.000 C 
BRANCH  11  12
ATOM     12  C   UNL     1       6.567   5.708  22.653  1.00  0.00    -0.003 C 
ATOM     13  C   UNL     1       7.180   4.680  23.599  1.00  0.00     0.004 C 
ENDBRANCH  11  12
ENDBRANCH  10  11
ENDBRANCH   9  10
ENDBRANCH   8   9
ENDBRANCH   1   8
TORSDOF 9
ENDMDL
MODEL 2
REMARK VINA RESULT:    -4.283      3.528      6.233
REMARK INTER + INTRA:          -7.482
REMARK INTER:                  -7.188
REMARK INTRA:                  -0.295
REMARK UNBOUND:                -0.945
REMARK SMILES CCCCCCCCCCC(=O)[O-]
REMARK SMILES IDX 7 1 8 2 9 3 10 4 11 5 12 6 13 7 6 8 5 9 4 10 3 11 2 12 1 13
REMARK H PARENT
REMARK Flexibility Score: inf
ROOT
ATOM      1  C   UNL     1       7.731   2.018  19.329  1.00  0.00     0.000 C 
ENDROOT
BRANCH   1   2
ATOM      2  C   UNL     1       7.040   3.321  19.759  1.00  0.00     0.000 C 
BRANCH   2   3
ATOM      3  C   UNL     1       7.990   4.529  19.746  1.00  0.00     0.006 C 
BRANCH   3   4
ATOM      4  C   UNL     1       8.647   4.777  21.110  1.00  0.00     0.053 C 
BRANCH   4   5
ATOM      5  C   UNL     1       7.651   5.340  22.075  1.00  0.00     0.041 C 
ATOM      6  O   UNL     1       7.528   4.839  23.223  1.00  0.00    -0.550 OA
ATOM      7  O   UNL     1       6.824   6.387  21.687  1.00  0.00    -0.550 OA
ENDBRANCH   4   5
ENDBRANCH   3   4
ENDBRANCH   2   3
ENDBRANCH   1   2
BRANCH   1   8
ATOM      8  C   UNL     1       6.899   1.283  18.267  1.00  0.00     0.000 C 
BRANCH   8   9
ATOM      9  C   UNL     1       7.059  -0.244  18.337  1.00  0.00    -0.000 C 
BRANCH   9  10
ATOM     10  C   UNL     1       8.507  -0.698  18.079  1.00  0.00    -0.000 C 
BRANCH  10  11
ATOM     11  C   UNL     1       8.628  -2.223  17.927  1.00  0.00    -0.000 C 
BRANCH  11  12
ATOM     12  C   UNL     1       9.181  -2.641  16.556  1.00  0.00    -0.003 C 
ATOM     13  C   UNL     1       9.358  -4.154  16.472  1.00  0.00     0.004 C 
ENDBRANCH  11  12
ENDBRANCH  10  11
ENDBRANCH   9  10
ENDBRANCH   8   9
ENDBRANCH   1   8
TORSDOF 9
ENDMDL
MODEL 3
REMARK VINA RESULT:    -4.206     12.135     14.642
REMARK INTER + INTRA:          -7.364
REMARK INTER:                  -6.943
REMARK INTRA:                  -0.422
REMARK UNBOUND:                -0.945
REMARK SMILES CCCCCCCCCCC(=O)[O-]
REMARK SMILES IDX 7 1 8 2 9 3 10 4 11 5 12 6 13 7 6 8 5 9 4 10 3 11 2 12 1 13
REMARK H PARENT
REMARK Flexibility Score: inf
ROOT
ATOM      1  C   UNL     1      10.692  -3.273   8.099  1.00  0.00     0.000 C 
ENDROOT
BRANCH   1   2
ATOM      2  C   UNL     1       9.819  -2.022   8.278  1.00  0.00     0.000 C 
BRANCH   2   3
ATOM      3  C   UNL     1       9.294  -1.866   9.715  1.00  0.00     0.006 C 
BRANCH   3   4
ATOM      4  C   UNL     1       8.779  -3.187  10.301  1.00  0.00     0.053 C 
BRANCH   4   5
ATOM      5  C   UNL     1       7.283  -3.221  10.275  1.00  0.00     0.041 C 
ATOM      6  O   UNL     1       6.624  -2.149  10.288  1.00  0.00    -0.550 OA
ATOM      7  O   UNL     1       6.616  -4.440  10.285  1.00  0.00    -0.550 OA
ENDBRANCH   4   5
ENDBRANCH   3   4
ENDBRANCH   2   3
ENDBRANCH   1   2
BRANCH   1   8
ATOM      8  C   UNL     1      11.137  -3.423   6.636  1.00  0.00     0.000 C 
BRANCH   8   9
ATOM      9  C   UNL     1      12.486  -2.742   6.352  1.00  0.00    -0.000 C 
BRANCH   9  10
ATOM     10  C   UNL     1      13.393  -2.686   7.594  1.00  0.00    -0.000 C 
BRANCH  10  11
ATOM     11  C   UNL     1      14.648  -3.562   7.448  1.00  0.00    -0.000 C 
BRANCH  11  12
ATOM     12  C   UNL     1      15.691  -3.290   8.542  1.00  0.00    -0.003 C 
ATOM     13  C   UNL     1      16.912  -4.190   8.372  1.00  0.00     0.004 C 
ENDBRANCH  11  12
ENDBRANCH  10  11
ENDBRANCH   9  10
ENDBRANCH   8   9
ENDBRANCH   1   8
TORSDOF 9
ENDMDL
MODEL 4
REMARK VINA RESULT:    -4.132      3.008      5.569
REMARK INTER + INTRA:          -7.252
REMARK INTER:                  -6.871
REMARK INTRA:                  -0.380
REMARK UNBOUND:                -0.945
REMARK SMILES CCCCCCCCCCC(=O)[O-]
REMARK SMILES IDX 7 1 8 2 9 3 10 4 11 5 12 6 13 7 6 8 5 9 4 10 3 11 2 12 1 13
REMARK H PARENT
REMARK Flexibility Score: inf
ROOT
ATOM      1  C   UNL     1       8.073   2.282  18.306  1.00  0.00     0.000 C 
ENDROOT
BRANCH   1   2
ATOM      2  C   UNL     1       7.539   3.111  19.484  1.00  0.00     0.000 C 
BRANCH   2   3
ATOM      3  C   UNL     1       7.675   4.625  19.255  1.00  0.00     0.006 C 
BRANCH   3   4
ATOM      4  C   UNL     1       7.515   5.015  17.780  1.00  0.00     0.053 C 
BRANCH   4   5
ATOM      5  C   UNL     1       7.071   6.438  17.661  1.00  0.00     0.041 C 
ATOM      6  O   UNL     1       7.845   7.305  17.175  1.00  0.00    -0.550 OA
ATOM      7  O   UNL     1       5.822   6.819  18.134  1.00  0.00    -0.550 OA
ENDBRANCH   4   5
ENDBRANCH   3   4
ENDBRANCH   2   3
ENDBRANCH   1   2
BRANCH   1   8
ATOM      8  C   UNL     1       7.002   1.307  17.794  1.00  0.00     0.000 C 
BRANCH   8   9
ATOM      9  C   UNL     1       7.209  -0.127  18.309  1.00  0.00    -0.000 C 
BRANCH   9  10
ATOM     10  C   UNL     1       8.674  -0.586  18.205  1.00  0.00    -0.000 C 
BRANCH  10  11
ATOM     11  C   UNL     1       8.803  -2.108  18.030  1.00  0.00    -0.000 C 
BRANCH  11  12
ATOM     12  C   UNL     1       8.466  -2.572  16.604  1.00  0.00    -0.003 C 
ATOM     13  C   UNL     1       9.121  -3.915  16.294  1.00  0.00     0.004 C 
ENDBRANCH  11  12
ENDBRANCH  10  11
ENDBRANCH   9  10
ENDBRANCH   8   9
ENDBRANCH   1   8
TORSDOF 9
ENDMDL
MODEL 5
REMARK VINA RESULT:    -4.128      2.731      5.548
REMARK INTER + INTRA:          -7.245
REMARK INTER:                  -6.709
REMARK INTRA:                  -0.536
REMARK UNBOUND:                -0.945
REMARK SMILES CCCCCCCCCCC(=O)[O-]
REMARK SMILES IDX 7 1 8 2 9 3 10 4 11 5 12 6 13 7 6 8 5 9 4 10 3 11 2 12 1 13
REMARK H PARENT
REMARK Flexibility Score: inf
ROOT
ATOM      1  C   UNL     1       7.269   3.641  19.410  1.00  0.00     0.000 C 
ENDROOT
BRANCH   1   2
ATOM      2  C   UNL     1       8.664   3.806  20.033  1.00  0.00     0.000 C 
BRANCH   2   3
ATOM      3  C   UNL     1       8.721   4.942  21.067  1.00  0.00     0.006 C 
BRANCH   3   4
ATOM      4  C   UNL     1       8.142   4.531  22.427  1.00  0.00     0.053 C 
BRANCH   4   5
ATOM      5  C   UNL     1       6.943   5.363  22.757  1.00  0.00     0.041 C 
ATOM      6  O   UNL     1       6.611   6.321  22.010  1.00  0.00    -0.550 OA
ATOM      7  O   UNL     1       6.221   5.112  23.917  1.00  0.00    -0.550 OA
ENDBRANCH   4   5
ENDBRANCH   3   4
ENDBRANCH   2   3
ENDBRANCH   1   2
BRANCH   1   8
ATOM      8  C   UNL     1       6.976   2.163  19.110  1.00  0.00     0.000 C 
BRANCH   8   9
ATOM      9  C   UNL     1       5.988   1.976  17.948  1.00  0.00    -0.000 C 
BRANCH   9  10
ATOM     10  C   UNL     1       5.965   0.531  17.419  1.00  0.00    -0.000 C 
BRANCH  10  11
ATOM     11  C   UNL     1       6.866  -0.410  18.235  1.00  0.00    -0.000 C 
BRANCH  11  12
ATOM     12  C   UNL     1       7.894  -1.149  17.364  1.00  0.00    -0.003 C 
ATOM     13  C   UNL     1       9.318  -0.870  17.838  1.00  0.00     0.004 C 
ENDBRANCH  11  12
ENDBRANCH  10  11
ENDBRANCH   9  10
ENDBRANCH   8   9
ENDBRANCH   1   8
TORSDOF 9
ENDMDL
MODEL 6
REMARK VINA RESULT:    -4.118     12.025     13.621
REMARK INTER + INTRA:          -7.230
REMARK INTER:                  -6.820
REMARK INTRA:                  -0.410
REMARK UNBOUND:                -0.945
REMARK SMILES CCCCCCCCCCC(=O)[O-]
REMARK SMILES IDX 7 1 8 2 9 3 10 4 11 5 12 6 13 7 6 8 5 9 4 10 3 11 2 12 1 13
REMARK H PARENT
REMARK Flexibility Score: inf
ROOT
ATOM      1  C   UNL     1      15.456   0.710   8.977  1.00  0.00     0.000 C 
ENDROOT
BRANCH   1   2
ATOM      2  C   UNL     1      15.294  -0.517   9.886  1.00  0.00     0.000 C 
BRANCH   2   3
ATOM      3  C   UNL     1      15.336  -1.842   9.107  1.00  0.00     0.006 C 
BRANCH   3   4
ATOM      4  C   UNL     1      15.259  -1.637   7.589  1.00  0.00     0.053 C 
BRANCH   4   5
ATOM      5  C   UNL     1      14.125  -2.424   7.013  1.00  0.00     0.041 C 
ATOM      6  O   UNL     1      14.032  -3.660   7.238  1.00  0.00    -0.550 OA
ATOM      7  O   UNL     1      13.197  -1.803   6.186  1.00  0.00    -0.550 OA
ENDBRANCH   4   5
ENDBRANCH   3   4
ENDBRANCH   2   3
ENDBRANCH   1   2
BRANCH   1   8
ATOM      8  C   UNL     1      16.074   1.886   9.750  1.00  0.00     0.000 C 
BRANCH   8   9
ATOM      9  C   UNL     1      15.719   1.865  11.246  1.00  0.00    -0.000 C 
BRANCH   9  10
ATOM     10  C   UNL     1      15.370   3.261  11.789  1.00  0.00    -0.000 C 
BRANCH  10  11
ATOM     11  C   UNL     1      15.917   3.496  13.207  1.00  0.00    -0.000 C 
BRANCH  11  12
ATOM     12  C   UNL     1      16.803   4.748  13.300  1.00  0.00    -0.003 C 
ATOM     13  C   UNL     1      18.281   4.371  13.368  1.00  0.00     0.004 C 
ENDBRANCH  11  12
ENDBRANCH  10  11
ENDBRANCH   9  10
ENDBRANCH   8   9
ENDBRANCH   1   8
TORSDOF 9
ENDMDL
MODEL 7
REMARK VINA RESULT:    -4.093     12.375     13.918
REMARK INTER + INTRA:          -7.192
REMARK INTER:                  -6.804
REMARK INTRA:                  -0.388
REMARK UNBOUND:                -0.945
REMARK SMILES CCCCCCCCCCC(=O)[O-]
REMARK SMILES IDX 7 1 8 2 9 3 10 4 11 5 12 6 13 7 6 8 5 9 4 10 3 11 2 12 1 13
REMARK H PARENT
REMARK Flexibility Score: inf
ROOT
ATOM      1  C   UNL     1      15.496   0.499   8.847  1.00  0.00     0.000 C 
ENDROOT
BRANCH   1   2
ATOM      2  C   UNL     1      15.436  -0.742   9.750  1.00  0.00     0.000 C 
BRANCH   2   3
ATOM      3  C   UNL     1      14.965  -1.999   9.001  1.00  0.00     0.006 C 
BRANCH   3   4
ATOM      4  C   UNL     1      15.623  -2.145   7.623  1.00  0.00     0.053 C 
BRANCH   4   5
ATOM      5  C   UNL     1      16.384  -3.431   7.541  1.00  0.00     0.041 C 
ATOM      6  O   UNL     1      17.395  -3.616   8.269  1.00  0.00    -0.550 OA
ATOM      7  O   UNL     1      16.007  -4.405   6.625  1.00  0.00    -0.550 OA
ENDBRANCH   4   5
ENDBRANCH   3   4
ENDBRANCH   2   3
ENDBRANCH   1   2
BRANCH   1   8
ATOM      8  C   UNL     1      15.654   1.777   9.684  1.00  0.00     0.000 C 
BRANCH   8   9
ATOM      9  C   UNL     1      15.901   1.486  11.173  1.00  0.00    -0.000 C 
BRANCH   9  10
ATOM     10  C   UNL     1      16.480   2.699  11.924  1.00  0.00    -0.000 C 
BRANCH  10  11
ATOM     11  C   UNL     1      15.393   3.689  12.372  1.00  0.00    -0.000 C 
BRANCH  11  12
ATOM     12  C   UNL     1      15.280   3.794  13.900  1.00  0.00    -0.003 C 
ATOM     13  C   UNL     1      16.532   4.427  14.502  1.00  0.00     0.004 C 
ENDBRANCH  11  12
ENDBRANCH  10  11
ENDBRANCH   9  10
ENDBRANCH   8   9
ENDBRANCH   1   8
TORSDOF 9
ENDMDL
MODEL 8
REMARK VINA RESULT:    -4.091     12.323     13.699
REMARK INTER + INTRA:          -7.189
REMARK INTER:                  -6.048
REMARK INTRA:                  -1.141
REMARK UNBOUND:                -0.945
REMARK SMILES CCCCCCCCCCC(=O)[O-]
REMARK SMILES IDX 7 1 8 2 9 3 10 4 11 5 12 6 13 7 6 8 5 9 4 10 3 11 2 12 1 13
REMARK H PARENT
REMARK Flexibility Score: inf
ROOT
ATOM      1  C   UNL     1      21.394   5.798  22.492  1.00  0.00     0.000 C 
ENDROOT
BRANCH   1   2
ATOM      2  C   UNL     1      21.996   7.040  23.168  1.00  0.00     0.000 C 
BRANCH   2   3
ATOM      3  C   UNL     1      22.182   8.214  22.193  1.00  0.00     0.006 C 
BRANCH   3   4
ATOM      4  C   UNL     1      21.731   7.874  20.767  1.00  0.00     0.053 C 
BRANCH   4   5
ATOM      5  C   UNL     1      20.664   8.821  20.317  1.00  0.00     0.041 C 
ATOM      6  O   UNL     1      20.935   9.743  19.505  1.00  0.00    -0.550 OA
ATOM      7  O   UNL     1      19.378   8.715  20.835  1.00  0.00    -0.550 OA
ENDBRANCH   4   5
ENDBRANCH   3   4
ENDBRANCH   2   3
ENDBRANCH   1   2
BRANCH   1   8
ATOM      8  C   UNL     1      21.246   4.646  23.498  1.00  0.00     0.000 C 
BRANCH   8   9
ATOM      9  C   UNL     1      20.840   5.129  24.899  1.00  0.00    -0.000 C 
BRANCH   9  10
ATOM     10  C   UNL     1      19.318   5.302  25.047  1.00  0.00    -0.000 C 
BRANCH  10  11
ATOM     11  C   UNL     1      18.907   6.771  25.238  1.00  0.00    -0.000 C 
BRANCH  11  12
ATOM     12  C   UNL     1      18.310   7.390  23.965  1.00  0.00    -0.003 C 
ATOM     13  C   UNL     1      17.813   6.309  23.009  1.00  0.00     0.004 C 
ENDBRANCH  11  12
ENDBRANCH  10  11
ENDBRANCH   9  10
ENDBRANCH   8   9
ENDBRANCH   1   8
TORSDOF 9
ENDMDL
MODEL 9
REMARK VINA RESULT:    -4.065     13.055     14.774
REMARK INTER + INTRA:          -7.149
REMARK INTER:                  -6.325
REMARK INTRA:                  -0.825
REMARK UNBOUND:                -0.945
REMARK SMILES CCCCCCCCCCC(=O)[O-]
REMARK SMILES IDX 7 1 8 2 9 3 10 4 11 5 12 6 13 7 6 8 5 9 4 10 3 11 2 12 1 13
REMARK H PARENT
REMARK Flexibility Score: inf
ROOT
ATOM      1  C   UNL     1      13.107   0.090   8.001  1.00  0.00     0.000 C 
ENDROOT
BRANCH   1   2
ATOM      2  C   UNL     1      13.954  -1.048   7.411  1.00  0.00     0.000 C 
BRANCH   2   3
ATOM      3  C   UNL     1      14.447  -2.037   8.480  1.00  0.00     0.006 C 
BRANCH   3   4
ATOM      4  C   UNL     1      15.978  -2.100   8.564  1.00  0.00     0.053 C 
BRANCH   4   5
ATOM      5  C   UNL     1      16.471  -3.434   8.101  1.00  0.00     0.041 C 
ATOM      6  O   UNL     1      15.730  -4.177   7.404  1.00  0.00    -0.550 OA
ATOM      7  O   UNL     1      17.732  -3.879   8.480  1.00  0.00    -0.550 OA
ENDBRANCH   4   5
ENDBRANCH   3   4
ENDBRANCH   2   3
ENDBRANCH   1   2
BRANCH   1   8
ATOM      8  C   UNL     1      13.309   1.390   7.208  1.00  0.00     0.000 C 
BRANCH   8   9
ATOM      9  C   UNL     1      14.575   2.153   7.630  1.00  0.00    -0.000 C 
BRANCH   9  10
ATOM     10  C   UNL     1      14.729   2.243   9.158  1.00  0.00    -0.000 C 
BRANCH  10  11
ATOM     11  C   UNL     1      16.018   1.572   9.661  1.00  0.00    -0.000 C 
BRANCH  11  12
ATOM     12  C   UNL     1      16.024   1.365  11.183  1.00  0.00    -0.003 C 
ATOM     13  C   UNL     1      16.220   2.689  11.917  1.00  0.00     0.004 C 
ENDBRANCH  11  12
ENDBRANCH  10  11
ENDBRANCH   9  10
ENDBRANCH   8   9
ENDBRANCH   1   8
TORSDOF 9
ENDMDL
