MODEL 1
REMARK VINA RESULT:    -5.787      0.000      0.000
REMARK INTER + INTRA:         -15.345
REMARK INTER:                 -12.554
REMARK INTRA:                  -2.790
REMARK UNBOUND:                -2.790
REMARK SMILES CCCCCCCCCCCCCCCCCCCCCC(=O)[O-]
REMARK SMILES IDX 12 1 11 2 10 3 9 4 8 5 7 6 6 7 5 8 4 9 3 10 2 11 1 12 13 13
REMARK SMILES IDX 14 14 15 15 16 16 17 17 18 18 19 19 20 20 21 21 22 22 23 23
REMARK SMILES IDX 24 24
REMARK H PARENT
REMARK Flexibility Score: inf
ROOT
ATOM      1  C   UNL     1     -24.448 -29.150  25.482  1.00  0.00     0.000 C 
ENDROOT
BRANCH   1   2
ATOM      2  C   UNL     1     -25.976 -29.287  25.342  1.00  0.00     0.000 C 
BRANCH   2   3
ATOM      3  C   UNL     1     -26.544 -30.594  25.938  1.00  0.00     0.000 C 
BRANCH   3   4
ATOM      4  C   UNL     1     -25.630 -31.807  25.687  1.00  0.00    -0.000 C 
BRANCH   4   5
ATOM      5  C   UNL     1     -26.422 -33.093  25.401  1.00  0.00    -0.000 C 
BRANCH   5   6
ATOM      6  C   UNL     1     -27.743 -32.821  24.659  1.00  0.00    -0.000 C 
BRANCH   6   7
ATOM      7  C   UNL     1     -27.814 -33.537  23.300  1.00  0.00    -0.000 C 
BRANCH   7   8
ATOM      8  C   UNL     1     -27.999 -32.563  22.126  1.00  0.00    -0.000 C 
BRANCH   8   9
ATOM      9  C   UNL     1     -27.277 -31.235  22.394  1.00  0.00    -0.000 C 
BRANCH   9  10
ATOM     10  C   UNL     1     -25.953 -31.105  21.619  1.00  0.00    -0.000 C 
BRANCH  10  11
ATOM     11  C   UNL     1     -24.725 -31.701  22.330  1.00  0.00    -0.003 C 
ATOM     12  C   UNL     1     -23.409 -31.060  21.892  1.00  0.00     0.004 C 
ENDBRANCH  10  11
ENDBRANCH   9  10
ENDBRANCH   8   9
ENDBRANCH   7   8
ENDBRANCH   6   7
ENDBRANCH   5   6
ENDBRANCH   4   5
ENDBRANCH   3   4
ENDBRANCH   2   3
ENDBRANCH   1   2
BRANCH   1  13
ATOM     13  C   UNL     1     -23.755 -28.356  24.358  1.00  0.00     0.000 C 
BRANCH  13  14
ATOM     14  C   UNL     1     -22.228 -28.539  24.267  1.00  0.00     0.000 C 
BRANCH  14  15
ATOM     15  C   UNL     1     -21.709 -29.700  25.131  1.00  0.00     0.000 C 
BRANCH  15  16
ATOM     16  C   UNL     1     -20.279 -29.466  25.654  1.00  0.00     0.000 C 
BRANCH  16  17
ATOM     17  C   UNL     1     -19.156 -29.769  24.645  1.00  0.00     0.000 C 
BRANCH  17  18
ATOM     18  C   UNL     1     -19.472 -30.974  23.743  1.00  0.00     0.000 C 
BRANCH  18  19
ATOM     19  C   UNL     1     -18.205 -31.678  23.231  1.00  0.00     0.000 C 
BRANCH  19  20
ATOM     20  C   UNL     1     -16.920 -30.909  23.587  1.00  0.00     0.006 C 
BRANCH  20  21
ATOM     21  C   UNL     1     -16.039 -30.652  22.358  1.00  0.00     0.053 C 
BRANCH  21  22
ATOM     22  C   UNL     1     -16.612 -29.586  21.474  1.00  0.00     0.041 C 
ATOM     23  O   UNL     1     -16.652 -29.751  20.227  1.00  0.00    -0.550 OA
ATOM     24  O   UNL     1     -17.123 -28.419  22.030  1.00  0.00    -0.550 OA
ENDBRANCH  21  22
ENDBRANCH  20  21
ENDBRANCH  19  20
ENDBRANCH  18  19
ENDBRANCH  17  18
ENDBRANCH  16  17
ENDBRANCH  15  16
ENDBRANCH  14  15
ENDBRANCH  13  14
ENDBRANCH   1  13
TORSDOF 20
ENDMDL
MODEL 2
REMARK VINA RESULT:    -5.694      1.555      3.243
REMARK INTER + INTRA:         -15.142
REMARK INTER:                 -11.859
REMARK INTRA:                  -3.283
REMARK UNBOUND:                -2.790
REMARK SMILES CCCCCCCCCCCCCCCCCCCCCC(=O)[O-]
REMARK SMILES IDX 12 1 11 2 10 3 9 4 8 5 7 6 6 7 5 8 4 9 3 10 2 11 1 12 13 13
REMARK SMILES IDX 14 14 15 15 16 16 17 17 18 18 19 19 20 20 21 21 22 22 23 23
REMARK SMILES IDX 24 24
REMARK H PARENT
REMARK Flexibility Score: inf
ROOT
ATOM      1  C   UNL     1     -25.176 -32.972  25.816  1.00  0.00     0.000 C 
ENDROOT
BRANCH   1   2
ATOM      2  C   UNL     1     -26.549 -32.813  26.496  1.00  0.00     0.000 C 
BRANCH   2   3
ATOM      3  C   UNL     1     -27.745 -32.924  25.527  1.00  0.00     0.000 C 
BRANCH   3   4
ATOM      4  C   UNL     1     -27.333 -33.430  24.132  1.00  0.00    -0.000 C 
BRANCH   4   5
ATOM      5  C   UNL     1     -28.363 -33.076  23.048  1.00  0.00    -0.000 C 
BRANCH   5   6
ATOM      6  C   UNL     1     -27.770 -32.193  21.935  1.00  0.00    -0.000 C 
BRANCH   6   7
ATOM      7  C   UNL     1     -26.275 -31.904  22.146  1.00  0.00    -0.000 C 
BRANCH   7   8
ATOM      8  C   UNL     1     -25.881 -30.479  21.725  1.00  0.00    -0.000 C 
BRANCH   8   9
ATOM      9  C   UNL     1     -26.806 -29.439  22.372  1.00  0.00    -0.000 C 
BRANCH   9  10
ATOM     10  C   UNL     1     -26.665 -29.380  23.904  1.00  0.00    -0.000 C 
BRANCH  10  11
ATOM     11  C   UNL     1     -27.890 -28.819  24.647  1.00  0.00    -0.003 C 
ATOM     12  C   UNL     1     -29.113 -29.732  24.562  1.00  0.00     0.004 C 
ENDBRANCH  10  11
ENDBRANCH   9  10
ENDBRANCH   8   9
ENDBRANCH   7   8
ENDBRANCH   6   7
ENDBRANCH   5   6
ENDBRANCH   4   5
ENDBRANCH   3   4
ENDBRANCH   2   3
ENDBRANCH   1   2
BRANCH   1  13
ATOM     13  C   UNL     1     -24.523 -31.660  25.340  1.00  0.00     0.000 C 
BRANCH  13  14
ATOM     14  C   UNL     1     -23.291 -31.829  24.430  1.00  0.00     0.000 C 
BRANCH  14  15
ATOM     15  C   UNL     1     -22.871 -30.522  23.739  1.00  0.00     0.000 C 
BRANCH  15  16
ATOM     16  C   UNL     1     -23.040 -29.284  24.641  1.00  0.00     0.000 C 
BRANCH  16  17
ATOM     17  C   UNL     1     -21.732 -28.565  25.016  1.00  0.00     0.000 C 
BRANCH  17  18
ATOM     18  C   UNL     1     -20.725 -29.486  25.725  1.00  0.00     0.000 C 
BRANCH  18  19
ATOM     19  C   UNL     1     -19.301 -29.349  25.163  1.00  0.00     0.000 C 
BRANCH  19  20
ATOM     20  C   UNL     1     -19.233 -29.639  23.653  1.00  0.00     0.006 C 
BRANCH  20  21
ATOM     21  C   UNL     1     -18.767 -31.070  23.357  1.00  0.00     0.053 C 
BRANCH  21  22
ATOM     22  C   UNL     1     -17.362 -31.102  22.834  1.00  0.00     0.041 C 
ATOM     23  O   UNL     1     -17.149 -31.135  21.593  1.00  0.00    -0.550 OA
ATOM     24  O   UNL     1     -16.289 -31.072  23.716  1.00  0.00    -0.550 OA
ENDBRANCH  21  22
ENDBRANCH  20  21
ENDBRANCH  19  20
ENDBRANCH  18  19
ENDBRANCH  17  18
ENDBRANCH  16  17
ENDBRANCH  15  16
ENDBRANCH  14  15
ENDBRANCH  13  14
ENDBRANCH   1  13
TORSDOF 20
ENDMDL
MODEL 3
REMARK VINA RESULT:    -5.693      4.617      8.782
REMARK INTER + INTRA:         -15.141
REMARK INTER:                 -12.648
REMARK INTRA:                  -2.492
REMARK UNBOUND:                -2.790
REMARK SMILES CCCCCCCCCCCCCCCCCCCCCC(=O)[O-]
REMARK SMILES IDX 12 1 11 2 10 3 9 4 8 5 7 6 6 7 5 8 4 9 3 10 2 11 1 12 13 13
REMARK SMILES IDX 14 14 15 15 16 16 17 17 18 18 19 19 20 20 21 21 22 22 23 23
REMARK SMILES IDX 24 24
REMARK H PARENT
REMARK Flexibility Score: inf
ROOT
ATOM      1  C   UNL     1     -27.625 -32.467  22.501  1.00  0.00     0.000 C 
ENDROOT
BRANCH   1   2
ATOM      2  C   UNL     1     -26.730 -31.224  22.338  1.00  0.00     0.000 C 
BRANCH   2   3
ATOM      3  C   UNL     1     -25.357 -31.521  21.696  1.00  0.00     0.000 C 
BRANCH   3   4
ATOM      4  C   UNL     1     -24.202 -30.784  22.399  1.00  0.00    -0.000 C 
BRANCH   4   5
ATOM      5  C   UNL     1     -23.054 -31.726  22.793  1.00  0.00    -0.000 C 
BRANCH   5   6
ATOM      6  C   UNL     1     -22.574 -31.498  24.239  1.00  0.00    -0.000 C 
BRANCH   6   7
ATOM      7  C   UNL     1     -22.214 -30.030  24.515  1.00  0.00    -0.000 C 
BRANCH   7   8
ATOM      8  C   UNL     1     -20.748 -29.847  24.939  1.00  0.00    -0.000 C 
BRANCH   8   9
ATOM      9  C   UNL     1     -19.812 -30.679  24.050  1.00  0.00    -0.000 C 
BRANCH   9  10
ATOM     10  C   UNL     1     -18.326 -30.325  24.248  1.00  0.00    -0.000 C 
BRANCH  10  11
ATOM     11  C   UNL     1     -17.337 -31.271  23.545  1.00  0.00    -0.003 C 
ATOM     12  C   UNL     1     -16.286 -30.532  22.717  1.00  0.00     0.004 C 
ENDBRANCH  10  11
ENDBRANCH   9  10
ENDBRANCH   8   9
ENDBRANCH   7   8
ENDBRANCH   6   7
ENDBRANCH   5   6
ENDBRANCH   4   5
ENDBRANCH   3   4
ENDBRANCH   2   3
ENDBRANCH   1   2
BRANCH   1  13
ATOM     13  C   UNL     1     -27.545 -33.157  23.876  1.00  0.00     0.000 C 
BRANCH  13  14
ATOM     14  C   UNL     1     -26.236 -32.927  24.655  1.00  0.00     0.000 C 
BRANCH  14  15
ATOM     15  C   UNL     1     -26.470 -32.564  26.130  1.00  0.00     0.000 C 
BRANCH  15  16
ATOM     16  C   UNL     1     -26.725 -31.060  26.345  1.00  0.00     0.000 C 
BRANCH  16  17
ATOM     17  C   UNL     1     -25.772 -30.120  25.583  1.00  0.00     0.000 C 
BRANCH  17  18
ATOM     18  C   UNL     1     -26.336 -28.697  25.424  1.00  0.00     0.000 C 
BRANCH  18  19
ATOM     19  C   UNL     1     -27.491 -28.628  24.413  1.00  0.00     0.000 C 
BRANCH  19  20
ATOM     20  C   UNL     1     -28.868 -28.789  25.081  1.00  0.00     0.006 C 
BRANCH  20  21
ATOM     21  C   UNL     1     -29.706 -29.893  24.422  1.00  0.00     0.053 C 
BRANCH  21  22
ATOM     22  C   UNL     1     -31.175 -29.607  24.515  1.00  0.00     0.041 C 
ATOM     23  O   UNL     1     -31.978 -30.152  23.714  1.00  0.00    -0.550 OA
ATOM     24  O   UNL     1     -31.659 -28.756  25.501  1.00  0.00    -0.550 OA
ENDBRANCH  21  22
ENDBRANCH  20  21
ENDBRANCH  19  20
ENDBRANCH  18  19
ENDBRANCH  17  18
ENDBRANCH  16  17
ENDBRANCH  15  16
ENDBRANCH  14  15
ENDBRANCH  13  14
ENDBRANCH   1  13
TORSDOF 20
ENDMDL
MODEL 4
REMARK VINA RESULT:    -5.682      2.766      8.310
REMARK INTER + INTRA:         -15.117
REMARK INTER:                 -12.760
REMARK INTRA:                  -2.357
REMARK UNBOUND:                -2.790
REMARK SMILES CCCCCCCCCCCCCCCCCCCCCC(=O)[O-]
REMARK SMILES IDX 12 1 11 2 10 3 9 4 8 5 7 6 6 7 5 8 4 9 3 10 2 11 1 12 13 13
REMARK SMILES IDX 14 14 15 15 16 16 17 17 18 18 19 19 20 20 21 21 22 22 23 23
REMARK SMILES IDX 24 24
REMARK H PARENT
REMARK Flexibility Score: inf
ROOT
ATOM      1  C   UNL     1     -23.183 -31.234  24.656  1.00  0.00     0.000 C 
ENDROOT
BRANCH   1   2
ATOM      2  C   UNL     1     -22.998 -31.793  23.233  1.00  0.00     0.000 C 
BRANCH   2   3
ATOM      3  C   UNL     1     -21.552 -32.233  22.917  1.00  0.00     0.000 C 
BRANCH   3   4
ATOM      4  C   UNL     1     -20.498 -31.351  23.610  1.00  0.00    -0.000 C 
BRANCH   4   5
ATOM      5  C   UNL     1     -19.060 -31.802  23.309  1.00  0.00    -0.000 C 
BRANCH   5   6
ATOM      6  C   UNL     1     -18.010 -30.769  23.762  1.00  0.00    -0.000 C 
BRANCH   6   7
ATOM      7  C   UNL     1     -16.577 -31.192  23.405  1.00  0.00    -0.000 C 
BRANCH   7   8
ATOM      8  C   UNL     1     -15.904 -30.232  22.412  1.00  0.00    -0.000 C 
BRANCH   8   9
ATOM      9  C   UNL     1     -16.951 -29.385  21.673  1.00  0.00    -0.000 C 
BRANCH   9  10
ATOM     10  C   UNL     1     -16.585 -27.889  21.622  1.00  0.00    -0.000 C 
BRANCH  10  11
ATOM     11  C   UNL     1     -17.765 -26.927  21.841  1.00  0.00    -0.003 C 
ATOM     12  C   UNL     1     -18.665 -27.338  23.005  1.00  0.00     0.004 C 
ENDBRANCH  10  11
ENDBRANCH   9  10
ENDBRANCH   8   9
ENDBRANCH   7   8
ENDBRANCH   6   7
ENDBRANCH   5   6
ENDBRANCH   4   5
ENDBRANCH   3   4
ENDBRANCH   2   3
ENDBRANCH   1   2
BRANCH   1  13
ATOM     13  C   UNL     1     -24.547 -31.535  25.308  1.00  0.00     0.000 C 
BRANCH  13  14
ATOM     14  C   UNL     1     -24.678 -32.932  25.945  1.00  0.00     0.000 C 
BRANCH  14  15
ATOM     15  C   UNL     1     -26.042 -33.159  26.619  1.00  0.00     0.000 C 
BRANCH  15  16
ATOM     16  C   UNL     1     -27.177 -32.348  25.964  1.00  0.00     0.000 C 
BRANCH  16  17
ATOM     17  C   UNL     1     -27.902 -33.057  24.806  1.00  0.00     0.000 C 
BRANCH  17  18
ATOM     18  C   UNL     1     -28.033 -32.173  23.553  1.00  0.00     0.000 C 
BRANCH  18  19
ATOM     19  C   UNL     1     -26.916 -32.430  22.530  1.00  0.00     0.000 C 
BRANCH  19  20
ATOM     20  C   UNL     1     -26.376 -31.129  21.910  1.00  0.00     0.006 C 
BRANCH  20  21
ATOM     21  C   UNL     1     -26.656 -29.906  22.793  1.00  0.00     0.053 C 
BRANCH  21  22
ATOM     22  C   UNL     1     -25.523 -28.924  22.762  1.00  0.00     0.041 C 
ATOM     23  O   UNL     1     -25.411 -28.058  23.668  1.00  0.00    -0.550 OA
ATOM     24  O   UNL     1     -24.580 -28.980  21.742  1.00  0.00    -0.550 OA
ENDBRANCH  21  22
ENDBRANCH  20  21
ENDBRANCH  19  20
ENDBRANCH  18  19
ENDBRANCH  17  18
ENDBRANCH  16  17
ENDBRANCH  15  16
ENDBRANCH  14  15
ENDBRANCH  13  14
ENDBRANCH   1  13
TORSDOF 20
ENDMDL
MODEL 5
REMARK VINA RESULT:    -5.665      4.241      8.714
REMARK INTER + INTRA:         -15.078
REMARK INTER:                 -12.448
REMARK INTRA:                  -2.630
REMARK UNBOUND:                -2.790
REMARK SMILES CCCCCCCCCCCCCCCCCCCCCC(=O)[O-]
REMARK SMILES IDX 12 1 11 2 10 3 9 4 8 5 7 6 6 7 5 8 4 9 3 10 2 11 1 12 13 13
REMARK SMILES IDX 14 14 15 15 16 16 17 17 18 18 19 19 20 20 21 21 22 22 23 23
REMARK SMILES IDX 24 24
REMARK H PARENT
REMARK Flexibility Score: inf
ROOT
ATOM      1  C   UNL     1     -23.992 -29.623  22.089  1.00  0.00     0.000 C 
ENDROOT
BRANCH   1   2
ATOM      2  C   UNL     1     -22.912 -28.530  21.980  1.00  0.00     0.000 C 
BRANCH   2   3
ATOM      3  C   UNL     1     -22.787 -27.645  23.239  1.00  0.00     0.000 C 
BRANCH   3   4
ATOM      4  C   UNL     1     -21.399 -26.991  23.369  1.00  0.00    -0.000 C 
BRANCH   4   5
ATOM      5  C   UNL     1     -20.691 -27.366  24.680  1.00  0.00    -0.000 C 
BRANCH   5   6
ATOM      6  C   UNL     1     -21.219 -28.681  25.282  1.00  0.00    -0.000 C 
BRANCH   6   7
ATOM      7  C   UNL     1     -20.203 -29.829  25.173  1.00  0.00    -0.000 C 
BRANCH   7   8
ATOM      8  C   UNL     1     -20.459 -30.734  23.958  1.00  0.00    -0.000 C 
BRANCH   8   9
ATOM      9  C   UNL     1     -19.150 -31.354  23.449  1.00  0.00    -0.000 C 
BRANCH   9  10
ATOM     10  C   UNL     1     -17.897 -30.670  24.029  1.00  0.00    -0.000 C 
BRANCH  10  11
ATOM     11  C   UNL     1     -16.572 -31.073  23.359  1.00  0.00    -0.003 C 
ATOM     12  C   UNL     1     -16.159 -30.128  22.232  1.00  0.00     0.004 C 
ENDBRANCH  10  11
ENDBRANCH   9  10
ENDBRANCH   8   9
ENDBRANCH   7   8
ENDBRANCH   6   7
ENDBRANCH   5   6
ENDBRANCH   4   5
ENDBRANCH   3   4
ENDBRANCH   2   3
ENDBRANCH   1   2
BRANCH   1  13
ATOM     13  C   UNL     1     -24.289 -30.111  23.520  1.00  0.00     0.000 C 
BRANCH  13  14
ATOM     14  C   UNL     1     -24.160 -31.631  23.738  1.00  0.00     0.000 C 
BRANCH  14  15
ATOM     15  C   UNL     1     -24.143 -32.026  25.224  1.00  0.00     0.000 C 
BRANCH  15  16
ATOM     16  C   UNL     1     -25.350 -32.892  25.629  1.00  0.00     0.000 C 
BRANCH  16  17
ATOM     17  C   UNL     1     -26.728 -32.285  25.306  1.00  0.00     0.000 C 
BRANCH  17  18
ATOM     18  C   UNL     1     -27.579 -33.186  24.395  1.00  0.00     0.000 C 
BRANCH  18  19
ATOM     19  C   UNL     1     -27.536 -32.747  22.923  1.00  0.00     0.000 C 
BRANCH  19  20
ATOM     20  C   UNL     1     -28.022 -31.300  22.726  1.00  0.00     0.006 C 
BRANCH  20  21
ATOM     21  C   UNL     1     -29.518 -31.231  22.392  1.00  0.00     0.053 C 
BRANCH  21  22
ATOM     22  C   UNL     1     -30.303 -30.569  23.484  1.00  0.00     0.041 C 
ATOM     23  O   UNL     1     -31.483 -30.187  23.273  1.00  0.00    -0.550 OA
ATOM     24  O   UNL     1     -29.737 -30.395  24.742  1.00  0.00    -0.550 OA
ENDBRANCH  21  22
ENDBRANCH  20  21
ENDBRANCH  19  20
ENDBRANCH  18  19
ENDBRANCH  17  18
ENDBRANCH  16  17
ENDBRANCH  15  16
ENDBRANCH  14  15
ENDBRANCH  13  14
ENDBRANCH   1  13
TORSDOF 20
ENDMDL
MODEL 6
REMARK VINA RESULT:    -5.661      2.834      5.327
REMARK INTER + INTRA:         -15.071
REMARK INTER:                 -11.313
REMARK INTRA:                  -3.758
REMARK UNBOUND:                -2.790
REMARK SMILES CCCCCCCCCCCCCCCCCCCCCC(=O)[O-]
REMARK SMILES IDX 12 1 11 2 10 3 9 4 8 5 7 6 6 7 5 8 4 9 3 10 2 11 1 12 13 13
REMARK SMILES IDX 14 14 15 15 16 16 17 17 18 18 19 19 20 20 21 21 22 22 23 23
REMARK SMILES IDX 24 24
REMARK H PARENT
REMARK Flexibility Score: inf
ROOT
ATOM      1  C   UNL     1     -21.361 -32.139  23.081  1.00  0.00     0.000 C 
ENDROOT
BRANCH   1   2
ATOM      2  C   UNL     1     -22.721 -31.462  23.334  1.00  0.00     0.000 C 
BRANCH   2   3
ATOM      3  C   UNL     1     -23.346 -31.806  24.703  1.00  0.00     0.000 C 
BRANCH   3   4
ATOM      4  C   UNL     1     -24.884 -31.878  24.652  1.00  0.00    -0.000 C 
BRANCH   4   5
ATOM      5  C   UNL     1     -25.461 -32.883  25.660  1.00  0.00    -0.000 C 
BRANCH   5   6
ATOM      6  C   UNL     1     -26.747 -32.370  26.335  1.00  0.00    -0.000 C 
BRANCH   6   7
ATOM      7  C   UNL     1     -26.881 -30.841  26.262  1.00  0.00    -0.000 C 
BRANCH   7   8
ATOM      8  C   UNL     1     -28.186 -30.391  25.588  1.00  0.00    -0.000 C 
BRANCH   8   9
ATOM      9  C   UNL     1     -28.646 -31.417  24.542  1.00  0.00    -0.000 C 
BRANCH   9  10
ATOM     10  C   UNL     1     -28.297 -31.001  23.101  1.00  0.00    -0.000 C 
BRANCH  10  11
ATOM     11  C   UNL     1     -27.656 -32.107  22.245  1.00  0.00    -0.003 C 
ATOM     12  C   UNL     1     -27.928 -33.513  22.781  1.00  0.00     0.004 C 
ENDBRANCH  10  11
ENDBRANCH   9  10
ENDBRANCH   8   9
ENDBRANCH   7   8
ENDBRANCH   6   7
ENDBRANCH   5   6
ENDBRANCH   4   5
ENDBRANCH   3   4
ENDBRANCH   2   3
ENDBRANCH   1   2
BRANCH   1  13
ATOM     13  C   UNL     1     -20.139 -31.388  23.644  1.00  0.00     0.000 C 
BRANCH  13  14
ATOM     14  C   UNL     1     -20.258 -29.853  23.659  1.00  0.00     0.000 C 
BRANCH  14  15
ATOM     15  C   UNL     1     -20.249 -29.263  25.079  1.00  0.00     0.000 C 
BRANCH  15  16
ATOM     16  C   UNL     1     -21.177 -28.043  25.228  1.00  0.00     0.000 C 
BRANCH  16  17
ATOM     17  C   UNL     1     -22.663 -28.376  25.459  1.00  0.00     0.000 C 
BRANCH  17  18
ATOM     18  C   UNL     1     -23.556 -27.977  24.272  1.00  0.00     0.000 C 
BRANCH  18  19
ATOM     19  C   UNL     1     -25.050 -28.210  24.552  1.00  0.00     0.000 C 
BRANCH  19  20
ATOM     20  C   UNL     1     -25.894 -28.228  23.266  1.00  0.00     0.006 C 
BRANCH  20  21
ATOM     21  C   UNL     1     -25.220 -29.025  22.141  1.00  0.00     0.053 C 
BRANCH  21  22
ATOM     22  C   UNL     1     -25.201 -28.261  20.851  1.00  0.00     0.041 C 
ATOM     23  O   UNL     1     -26.252 -27.717  20.422  1.00  0.00    -0.550 OA
ATOM     24  O   UNL     1     -24.017 -28.133  20.135  1.00  0.00    -0.550 OA
ENDBRANCH  21  22
ENDBRANCH  20  21
ENDBRANCH  19  20
ENDBRANCH  18  19
ENDBRANCH  17  18
ENDBRANCH  16  17
ENDBRANCH  15  16
ENDBRANCH  14  15
ENDBRANCH  13  14
ENDBRANCH   1  13
TORSDOF 20
ENDMDL
MODEL 7
REMARK VINA RESULT:    -5.660      1.415      3.373
REMARK INTER + INTRA:         -15.067
REMARK INTER:                 -11.834
REMARK INTRA:                  -3.233
REMARK UNBOUND:                -2.790
REMARK SMILES CCCCCCCCCCCCCCCCCCCCCC(=O)[O-]
REMARK SMILES IDX 12 1 11 2 10 3 9 4 8 5 7 6 6 7 5 8 4 9 3 10 2 11 1 12 13 13
REMARK SMILES IDX 14 14 15 15 16 16 17 17 18 18 19 19 20 20 21 21 22 22 23 23
REMARK SMILES IDX 24 24
REMARK H PARENT
REMARK Flexibility Score: inf
ROOT
ATOM      1  C   UNL     1     -26.111 -29.728  21.961  1.00  0.00     0.000 C 
ENDROOT
BRANCH   1   2
ATOM      2  C   UNL     1     -24.762 -30.444  21.764  1.00  0.00     0.000 C 
BRANCH   2   3
ATOM      3  C   UNL     1     -24.616 -31.743  22.586  1.00  0.00     0.000 C 
BRANCH   3   4
ATOM      4  C   UNL     1     -23.397 -31.717  23.526  1.00  0.00    -0.000 C 
BRANCH   4   5
ATOM      5  C   UNL     1     -23.767 -32.044  24.981  1.00  0.00    -0.000 C 
BRANCH   5   6
ATOM      6  C   UNL     1     -25.233 -31.708  25.308  1.00  0.00    -0.000 C 
BRANCH   6   7
ATOM      7  C   UNL     1     -25.920 -32.807  26.133  1.00  0.00    -0.000 C 
BRANCH   7   8
ATOM      8  C   UNL     1     -27.428 -32.905  25.852  1.00  0.00    -0.000 C 
BRANCH   8   9
ATOM      9  C   UNL     1     -27.768 -32.327  24.470  1.00  0.00    -0.000 C 
BRANCH   9  10
ATOM     10  C   UNL     1     -27.808 -33.397  23.364  1.00  0.00    -0.000 C 
BRANCH  10  11
ATOM     11  C   UNL     1     -28.343 -32.907  22.008  1.00  0.00    -0.003 C 
ATOM     12  C   UNL     1     -29.304 -31.726  22.134  1.00  0.00     0.004 C 
ENDBRANCH  10  11
ENDBRANCH   9  10
ENDBRANCH   8   9
ENDBRANCH   7   8
ENDBRANCH   6   7
ENDBRANCH   5   6
ENDBRANCH   4   5
ENDBRANCH   3   4
ENDBRANCH   2   3
ENDBRANCH   1   2
BRANCH   1  13
ATOM     13  C   UNL     1     -26.165 -28.742  23.144  1.00  0.00     0.000 C 
BRANCH  13  14
ATOM     14  C   UNL     1     -24.799 -28.218  23.627  1.00  0.00     0.000 C 
BRANCH  14  15
ATOM     15  C   UNL     1     -24.750 -27.978  25.145  1.00  0.00     0.000 C 
BRANCH  15  16
ATOM     16  C   UNL     1     -23.330 -28.106  25.727  1.00  0.00     0.000 C 
BRANCH  16  17
ATOM     17  C   UNL     1     -22.275 -28.672  24.759  1.00  0.00     0.000 C 
BRANCH  17  18
ATOM     18  C   UNL     1     -21.131 -29.404  25.482  1.00  0.00     0.000 C 
BRANCH  18  19
ATOM     19  C   UNL     1     -19.747 -29.030  24.930  1.00  0.00     0.000 C 
BRANCH  19  20
ATOM     20  C   UNL     1     -19.199 -30.085  23.951  1.00  0.00     0.006 C 
BRANCH  20  21
ATOM     21  C   UNL     1     -17.991 -29.568  23.159  1.00  0.00     0.053 C 
BRANCH  21  22
ATOM     22  C   UNL     1     -17.042 -30.674  22.805  1.00  0.00     0.041 C 
ATOM     23  O   UNL     1     -16.443 -31.308  23.713  1.00  0.00    -0.550 OA
ATOM     24  O   UNL     1     -16.837 -31.018  21.474  1.00  0.00    -0.550 OA
ENDBRANCH  21  22
ENDBRANCH  20  21
ENDBRANCH  19  20
ENDBRANCH  18  19
ENDBRANCH  17  18
ENDBRANCH  16  17
ENDBRANCH  15  16
ENDBRANCH  14  15
ENDBRANCH  13  14
ENDBRANCH   1  13
TORSDOF 20
ENDMDL
MODEL 8
REMARK VINA RESULT:    -5.657      4.523      8.547
REMARK INTER + INTRA:         -15.062
REMARK INTER:                 -12.268
REMARK INTRA:                  -2.794
REMARK UNBOUND:                -2.790
REMARK SMILES CCCCCCCCCCCCCCCCCCCCCC(=O)[O-]
REMARK SMILES IDX 12 1 11 2 10 3 9 4 8 5 7 6 6 7 5 8 4 9 3 10 2 11 1 12 13 13
REMARK SMILES IDX 14 14 15 15 16 16 17 17 18 18 19 19 20 20 21 21 22 22 23 23
REMARK SMILES IDX 24 24
REMARK H PARENT
REMARK Flexibility Score: inf
ROOT
ATOM      1  C   UNL     1     -27.752 -32.975  24.307  1.00  0.00     0.000 C 
ENDROOT
BRANCH   1   2
ATOM      2  C   UNL     1     -26.764 -33.186  25.470  1.00  0.00     0.000 C 
BRANCH   2   3
ATOM      3  C   UNL     1     -25.773 -32.018  25.670  1.00  0.00     0.000 C 
BRANCH   3   4
ATOM      4  C   UNL     1     -24.307 -32.443  25.469  1.00  0.00    -0.000 C 
BRANCH   4   5
ATOM      5  C   UNL     1     -23.485 -31.387  24.713  1.00  0.00    -0.000 C 
BRANCH   5   6
ATOM      6  C   UNL     1     -22.627 -32.000  23.590  1.00  0.00    -0.000 C 
BRANCH   6   7
ATOM      7  C   UNL     1     -21.249 -31.331  23.471  1.00  0.00    -0.000 C 
BRANCH   7   8
ATOM      8  C   UNL     1     -21.102 -30.107  24.388  1.00  0.00    -0.000 C 
BRANCH   8   9
ATOM      9  C   UNL     1     -19.638 -29.907  24.809  1.00  0.00    -0.000 C 
BRANCH   9  10
ATOM     10  C   UNL     1     -18.654 -30.744  23.971  1.00  0.00    -0.000 C 
BRANCH  10  11
ATOM     11  C   UNL     1     -17.714 -29.926  23.069  1.00  0.00    -0.003 C 
ATOM     12  C   UNL     1     -18.123 -28.458  22.951  1.00  0.00     0.004 C 
ENDBRANCH  10  11
ENDBRANCH   9  10
ENDBRANCH   8   9
ENDBRANCH   7   8
ENDBRANCH   6   7
ENDBRANCH   5   6
ENDBRANCH   4   5
ENDBRANCH   3   4
ENDBRANCH   2   3
ENDBRANCH   1   2
BRANCH   1  13
ATOM     13  C   UNL     1     -27.115 -32.929  22.905  1.00  0.00     0.000 C 
BRANCH  13  14
ATOM     14  C   UNL     1     -27.093 -31.542  22.235  1.00  0.00     0.000 C 
BRANCH  14  15
ATOM     15  C   UNL     1     -25.691 -31.123  21.764  1.00  0.00     0.000 C 
BRANCH  15  16
ATOM     16  C   UNL     1     -25.376 -29.644  22.059  1.00  0.00     0.000 C 
BRANCH  16  17
ATOM     17  C   UNL     1     -26.543 -28.832  22.649  1.00  0.00     0.000 C 
BRANCH  17  18
ATOM     18  C   UNL     1     -26.500 -28.751  24.184  1.00  0.00     0.000 C 
BRANCH  18  19
ATOM     19  C   UNL     1     -27.885 -28.503  24.803  1.00  0.00     0.000 C 
BRANCH  19  20
ATOM     20  C   UNL     1     -28.565 -29.804  25.264  1.00  0.00     0.006 C 
BRANCH  20  21
ATOM     21  C   UNL     1     -30.080 -29.637  25.436  1.00  0.00     0.053 C 
BRANCH  21  22
ATOM     22  C   UNL     1     -30.832 -30.098  24.223  1.00  0.00     0.041 C 
ATOM     23  O   UNL     1     -30.231 -30.702  23.297  1.00  0.00    -0.550 OA
ATOM     24  O   UNL     1     -32.202 -29.880  24.127  1.00  0.00    -0.550 OA
ENDBRANCH  21  22
ENDBRANCH  20  21
ENDBRANCH  19  20
ENDBRANCH  18  19
ENDBRANCH  17  18
ENDBRANCH  16  17
ENDBRANCH  15  16
ENDBRANCH  14  15
ENDBRANCH  13  14
ENDBRANCH   1  13
TORSDOF 20
ENDMDL
MODEL 9
REMARK VINA RESULT:    -5.536      1.772      3.410
REMARK INTER + INTRA:         -14.798
REMARK INTER:                 -12.690
REMARK INTRA:                  -2.108
REMARK UNBOUND:                -2.790
REMARK SMILES CCCCCCCCCCCCCCCCCCCCCC(=O)[O-]
REMARK SMILES IDX 12 1 11 2 10 3 9 4 8 5 7 6 6 7 5 8 4 9 3 10 2 11 1 12 13 13
REMARK SMILES IDX 14 14 15 15 16 16 17 17 18 18 19 19 20 20 21 21 22 22 23 23
REMARK SMILES IDX 24 24
REMARK H PARENT
REMARK Flexibility Score: inf
ROOT
ATOM      1  C   UNL     1     -25.243 -32.297  26.080  1.00  0.00     0.000 C 
ENDROOT
BRANCH   1   2
ATOM      2  C   UNL     1     -26.361 -33.343  25.910  1.00  0.00     0.000 C 
BRANCH   2   3
ATOM      3  C   UNL     1     -27.587 -32.827  25.124  1.00  0.00     0.000 C 
BRANCH   3   4
ATOM      4  C   UNL     1     -27.861 -33.644  23.849  1.00  0.00    -0.000 C 
BRANCH   4   5
ATOM      5  C   UNL     1     -27.747 -32.800  22.571  1.00  0.00    -0.000 C 
BRANCH   5   6
ATOM      6  C   UNL     1     -26.380 -32.102  22.444  1.00  0.00    -0.000 C 
BRANCH   6   7
ATOM      7  C   UNL     1     -26.506 -30.573  22.349  1.00  0.00    -0.000 C 
BRANCH   7   8
ATOM      8  C   UNL     1     -27.828 -30.049  22.931  1.00  0.00    -0.000 C 
BRANCH   8   9
ATOM      9  C   UNL     1     -27.593 -29.324  24.263  1.00  0.00    -0.000 C 
BRANCH   9  10
ATOM     10  C   UNL     1     -28.858 -29.252  25.139  1.00  0.00    -0.000 C 
BRANCH  10  11
ATOM     11  C   UNL     1     -29.973 -30.237  24.747  1.00  0.00    -0.003 C 
ATOM     12  C   UNL     1     -31.275 -29.542  24.349  1.00  0.00     0.004 C 
ENDBRANCH  10  11
ENDBRANCH   9  10
ENDBRANCH   8   9
ENDBRANCH   7   8
ENDBRANCH   6   7
ENDBRANCH   5   6
ENDBRANCH   4   5
ENDBRANCH   3   4
ENDBRANCH   2   3
ENDBRANCH   1   2
BRANCH   1  13
ATOM     13  C   UNL     1     -24.032 -32.472  25.144  1.00  0.00     0.000 C 
BRANCH  13  14
ATOM     14  C   UNL     1     -23.313 -31.170  24.744  1.00  0.00     0.000 C 
BRANCH  14  15
ATOM     15  C   UNL     1     -22.222 -31.387  23.683  1.00  0.00     0.000 C 
BRANCH  15  16
ATOM     16  C   UNL     1     -20.926 -30.611  23.987  1.00  0.00     0.000 C 
BRANCH  16  17
ATOM     17  C   UNL     1     -19.623 -31.349  23.629  1.00  0.00     0.000 C 
BRANCH  17  18
ATOM     18  C   UNL     1     -18.362 -30.538  23.973  1.00  0.00     0.000 C 
BRANCH  18  19
ATOM     19  C   UNL     1     -17.065 -31.293  23.643  1.00  0.00     0.000 C 
BRANCH  19  20
ATOM     20  C   UNL     1     -16.246 -30.600  22.540  1.00  0.00     0.006 C 
BRANCH  20  21
ATOM     21  C   UNL     1     -16.873 -29.271  22.100  1.00  0.00     0.053 C 
BRANCH  21  22
ATOM     22  C   UNL     1     -16.509 -28.924  20.687  1.00  0.00     0.041 C 
ATOM     23  O   UNL     1     -16.102 -27.767  20.404  1.00  0.00    -0.550 OA
ATOM     24  O   UNL     1     -16.600 -29.885  19.688  1.00  0.00    -0.550 OA
ENDBRANCH  21  22
ENDBRANCH  20  21
ENDBRANCH  19  20
ENDBRANCH  18  19
ENDBRANCH  17  18
ENDBRANCH  16  17
ENDBRANCH  15  16
ENDBRANCH  14  15
ENDBRANCH  13  14
ENDBRANCH   1  13
TORSDOF 20
ENDMDL
