MODEL 1
REMARK VINA RESULT:    -3.323      0.000      0.000
REMARK INTER + INTRA:          -3.953
REMARK INTER:                  -3.906
REMARK INTRA:                  -0.047
REMARK UNBOUND:                -0.047
REMARK SMILES CCCCC(=O)[O-]
REMARK SMILES IDX 4 1 5 2 6 3 7 4 3 5 2 6 1 7
REMARK H PARENT
REMARK Flexibility Score: inf
ROOT
ATOM      1  C   UNL     1      88.946  75.870  67.657  1.00  0.00     0.053 C 
ENDROOT
BRANCH   1   2
ATOM      2  C   UNL     1      89.157  77.273  67.184  1.00  0.00     0.041 C 
ATOM      3  O   UNL     1      88.169  78.002  66.904  1.00  0.00    -0.550 OA
ATOM      4  O   UNL     1      90.445  77.760  67.005  1.00  0.00    -0.550 OA
ENDBRANCH   1   2
BRANCH   1   5
ATOM      5  C   UNL     1      87.450  75.582  67.831  1.00  0.00     0.006 C 
BRANCH   5   6
ATOM      6  C   UNL     1      86.945  74.489  66.876  1.00  0.00    -0.003 C 
ATOM      7  C   UNL     1      87.165  73.079  67.422  1.00  0.00     0.004 C 
ENDBRANCH   5   6
ENDBRANCH   1   5
TORSDOF 3
ENDMDL
MODEL 2
REMARK VINA RESULT:    -3.197      2.649      3.801
REMARK INTER + INTRA:          -3.805
REMARK INTER:                  -3.709
REMARK INTRA:                  -0.096
REMARK UNBOUND:                -0.047
REMARK SMILES CCCCC(=O)[O-]
REMARK SMILES IDX 4 1 5 2 6 3 7 4 3 5 2 6 1 7
REMARK H PARENT
REMARK Flexibility Score: inf
ROOT
ATOM      1  C   UNL     1      87.152  75.263  66.875  1.00  0.00     0.053 C 
ENDROOT
BRANCH   1   2
ATOM      2  C   UNL     1      87.622  74.032  67.580  1.00  0.00     0.041 C 
ATOM      3  O   UNL     1      86.917  72.989  67.573  1.00  0.00    -0.550 OA
ATOM      4  O   UNL     1      88.817  74.049  68.289  1.00  0.00    -0.550 OA
ENDBRANCH   1   2
BRANCH   1   5
ATOM      5  C   UNL     1      87.512  76.515  67.686  1.00  0.00     0.006 C 
BRANCH   5   6
ATOM      6  C   UNL     1      88.342  77.524  66.876  1.00  0.00    -0.003 C 
ATOM      7  C   UNL     1      89.826  77.497  67.241  1.00  0.00     0.004 C 
ENDBRANCH   5   6
ENDBRANCH   1   5
TORSDOF 3
ENDMDL
MODEL 3
REMARK VINA RESULT:    -3.194      2.257      2.967
REMARK INTER + INTRA:          -3.801
REMARK INTER:                  -3.685
REMARK INTRA:                  -0.116
REMARK UNBOUND:                -0.047
REMARK SMILES CCCCC(=O)[O-]
REMARK SMILES IDX 4 1 5 2 6 3 7 4 3 5 2 6 1 7
REMARK H PARENT
REMARK Flexibility Score: inf
ROOT
ATOM      1  C   UNL     1      87.662  77.565  66.875  1.00  0.00     0.053 C 
ENDROOT
BRANCH   1   2
ATOM      2  C   UNL     1      88.886  76.905  67.424  1.00  0.00     0.041 C 
ATOM      3  O   UNL     1      88.812  75.757  67.934  1.00  0.00    -0.550 OA
ATOM      4  O   UNL     1      90.102  77.578  67.416  1.00  0.00    -0.550 OA
ENDBRANCH   1   2
BRANCH   1   5
ATOM      5  C   UNL     1      86.437  77.220  67.732  1.00  0.00     0.006 C 
BRANCH   5   6
ATOM      6  C   UNL     1      86.285  78.152  68.945  1.00  0.00    -0.003 C 
ATOM      7  C   UNL     1      86.290  77.397  70.274  1.00  0.00     0.004 C 
ENDBRANCH   5   6
ENDBRANCH   1   5
TORSDOF 3
ENDMDL
MODEL 4
REMARK VINA RESULT:    -3.141      2.864      4.035
REMARK INTER + INTRA:          -3.740
REMARK INTER:                  -3.636
REMARK INTRA:                  -0.104
REMARK UNBOUND:                -0.047
REMARK SMILES CCCCC(=O)[O-]
REMARK SMILES IDX 4 1 5 2 6 3 7 4 3 5 2 6 1 7
REMARK H PARENT
REMARK Flexibility Score: inf
ROOT
ATOM      1  C   UNL     1      86.397  77.033  68.406  1.00  0.00     0.053 C 
ENDROOT
BRANCH   1   2
ATOM      2  C   UNL     1      86.594  76.037  69.504  1.00  0.00     0.041 C 
ATOM      3  O   UNL     1      87.629  75.320  69.531  1.00  0.00    -0.550 OA
ATOM      4  O   UNL     1      85.612  75.865  70.472  1.00  0.00    -0.550 OA
ENDBRANCH   1   2
BRANCH   1   5
ATOM      5  C   UNL     1      87.263  76.672  67.193  1.00  0.00     0.006 C 
BRANCH   5   6
ATOM      6  C   UNL     1      88.314  77.748  66.877  1.00  0.00    -0.003 C 
ATOM      7  C   UNL     1      89.733  77.314  67.241  1.00  0.00     0.004 C 
ENDBRANCH   5   6
ENDBRANCH   1   5
TORSDOF 3
ENDMDL
MODEL 5
REMARK VINA RESULT:    -3.132      1.801      2.370
REMARK INTER + INTRA:          -3.729
REMARK INTER:                  -3.681
REMARK INTRA:                  -0.048
REMARK UNBOUND:                -0.047
REMARK SMILES CCCCC(=O)[O-]
REMARK SMILES IDX 4 1 5 2 6 3 7 4 3 5 2 6 1 7
REMARK H PARENT
REMARK Flexibility Score: inf
ROOT
ATOM      1  C   UNL     1      86.516  76.080  68.194  1.00  0.00     0.053 C 
ENDROOT
BRANCH   1   2
ATOM      2  C   UNL     1      86.783  77.540  68.015  1.00  0.00     0.041 C 
ATOM      3  O   UNL     1      87.619  77.932  67.159  1.00  0.00    -0.550 OA
ATOM      4  O   UNL     1      86.146  78.468  68.830  1.00  0.00    -0.550 OA
ENDBRANCH   1   2
BRANCH   1   5
ATOM      5  C   UNL     1      86.742  75.329  66.875  1.00  0.00     0.006 C 
BRANCH   5   6
ATOM      6  C   UNL     1      87.120  73.856  67.093  1.00  0.00    -0.003 C 
ATOM      7  C   UNL     1      88.267  73.680  68.088  1.00  0.00     0.004 C 
ENDBRANCH   5   6
ENDBRANCH   1   5
TORSDOF 3
ENDMDL
MODEL 6
REMARK VINA RESULT:    -3.103      1.325      2.052
REMARK INTER + INTRA:          -3.694
REMARK INTER:                  -3.642
REMARK INTRA:                  -0.053
REMARK UNBOUND:                -0.047
REMARK SMILES CCCCC(=O)[O-]
REMARK SMILES IDX 4 1 5 2 6 3 7 4 3 5 2 6 1 7
REMARK H PARENT
REMARK Flexibility Score: inf
ROOT
ATOM      1  C   UNL     1      88.623  75.712  67.918  1.00  0.00     0.053 C 
ENDROOT
BRANCH   1   2
ATOM      2  C   UNL     1      89.011  77.093  67.496  1.00  0.00     0.041 C 
ATOM      3  O   UNL     1      90.187  77.504  67.679  1.00  0.00    -0.550 OA
ATOM      4  O   UNL     1      88.061  77.945  66.945  1.00  0.00    -0.550 OA
ENDBRANCH   1   2
BRANCH   1   5
ATOM      5  C   UNL     1      87.096  75.586  67.999  1.00  0.00     0.006 C 
BRANCH   5   6
ATOM      6  C   UNL     1      86.565  75.762  69.430  1.00  0.00    -0.003 C 
ATOM      7  C   UNL     1      86.518  74.447  70.209  1.00  0.00     0.004 C 
ENDBRANCH   5   6
ENDBRANCH   1   5
TORSDOF 3
ENDMDL
MODEL 7
REMARK VINA RESULT:    -3.100      2.695      3.462
REMARK INTER + INTRA:          -3.692
REMARK INTER:                  -3.586
REMARK INTRA:                  -0.105
REMARK UNBOUND:                -0.047
REMARK SMILES CCCCC(=O)[O-]
REMARK SMILES IDX 4 1 5 2 6 3 7 4 3 5 2 6 1 7
REMARK H PARENT
REMARK Flexibility Score: inf
ROOT
ATOM      1  C   UNL     1      86.240  78.078  69.318  1.00  0.00     0.053 C 
ENDROOT
BRANCH   1   2
ATOM      2  C   UNL     1      86.666  77.575  67.976  1.00  0.00     0.041 C 
ATOM      3  O   UNL     1      87.881  77.605  67.645  1.00  0.00    -0.550 OA
ATOM      4  O   UNL     1      85.717  77.120  67.070  1.00  0.00    -0.550 OA
ENDBRANCH   1   2
BRANCH   1   5
ATOM      5  C   UNL     1      86.711  77.123  70.422  1.00  0.00     0.006 C 
BRANCH   5   6
ATOM      6  C   UNL     1      85.754  75.938  70.626  1.00  0.00    -0.003 C 
ATOM      7  C   UNL     1      86.407  74.591  70.318  1.00  0.00     0.004 C 
ENDBRANCH   5   6
ENDBRANCH   1   5
TORSDOF 3
ENDMDL
MODEL 8
REMARK VINA RESULT:    -3.082      2.612      3.601
REMARK INTER + INTRA:          -3.670
REMARK INTER:                  -3.555
REMARK INTRA:                  -0.115
REMARK UNBOUND:                -0.047
REMARK SMILES CCCCC(=O)[O-]
REMARK SMILES IDX 4 1 5 2 6 3 7 4 3 5 2 6 1 7
REMARK H PARENT
REMARK Flexibility Score: inf
ROOT
ATOM      1  C   UNL     1      86.537  76.231  68.723  1.00  0.00     0.053 C 
ENDROOT
BRANCH   1   2
ATOM      2  C   UNL     1      86.633  77.523  69.470  1.00  0.00     0.041 C 
ATOM      3  O   UNL     1      87.205  77.566  70.591  1.00  0.00    -0.550 OA
ATOM      4  O   UNL     1      86.048  78.672  68.951  1.00  0.00    -0.550 OA
ENDBRANCH   1   2
BRANCH   1   5
ATOM      5  C   UNL     1      87.366  76.296  67.433  1.00  0.00     0.006 C 
BRANCH   5   6
ATOM      6  C   UNL     1      88.878  76.237  67.700  1.00  0.00    -0.003 C 
ATOM      7  C   UNL     1      89.625  77.447  67.140  1.00  0.00     0.004 C 
ENDBRANCH   5   6
ENDBRANCH   1   5
TORSDOF 3
ENDMDL
MODEL 9
REMARK VINA RESULT:    -3.043      3.602      4.313
REMARK INTER + INTRA:          -3.624
REMARK INTER:                  -3.527
REMARK INTRA:                  -0.097
REMARK UNBOUND:                -0.047
REMARK SMILES CCCCC(=O)[O-]
REMARK SMILES IDX 4 1 5 2 6 3 7 4 3 5 2 6 1 7
REMARK H PARENT
REMARK Flexibility Score: inf
ROOT
ATOM      1  C   UNL     1      86.334  75.664  69.610  1.00  0.00     0.053 C 
ENDROOT
BRANCH   1   2
ATOM      2  C   UNL     1      86.352  74.588  70.649  1.00  0.00     0.041 C 
ATOM      3  O   UNL     1      87.442  74.070  71.006  1.00  0.00    -0.550 OA
ATOM      4  O   UNL     1      85.158  74.122  71.186  1.00  0.00    -0.550 OA
ENDBRANCH   1   2
BRANCH   1   5
ATOM      5  C   UNL     1      87.454  75.439  68.587  1.00  0.00     0.006 C 
BRANCH   5   6
ATOM      6  C   UNL     1      86.937  74.839  67.270  1.00  0.00    -0.003 C 
ATOM      7  C   UNL     1      87.151  73.328  67.184  1.00  0.00     0.004 C 
ENDBRANCH   5   6
ENDBRANCH   1   5
TORSDOF 3
ENDMDL
