MODEL 1
REMARK VINA RESULT:    -6.178      0.000      0.000
REMARK INTER + INTRA:          -6.974
REMARK INTER:                  -6.720
REMARK INTRA:                  -0.254
REMARK UNBOUND:                -0.254
REMARK SMILES C=C1C[C@]2(O)O[C@]3(C[C@H]2C(C)C)[C@H](C)CC[C@@H]13
REMARK SMILES IDX 14 1 13 2 15 3 16 4 17 5 7 6 8 7 9 8 4 9 6 10 3 11 2 12 1 13
REMARK SMILES IDX 10 14 11 15 12 16 5 17
REMARK H PARENT 5 18
REMARK Flexibility Score: inf
ROOT
ATOM      1  C   UNL     1      28.851  52.120  -1.304  1.00  0.00     0.011 C 
ATOM      2  C   UNL     1      27.570  52.621  -0.616  1.00  0.00     0.019 C 
ATOM      3  C   UNL     1      26.473  51.524  -0.572  1.00  0.00     0.007 C 
ATOM      4  C   UNL     1      25.371  51.927  -1.573  1.00  0.00     0.011 C 
ATOM      5  C   UNL     1      26.005  53.048  -2.380  1.00  0.00     0.047 C 
ATOM      6  C   UNL     1      26.898  53.784  -1.374  1.00  0.00     0.081 C 
ATOM      7  C   UNL     1      26.138  54.722  -0.406  1.00  0.00     0.046 C 
ATOM      8  C   UNL     1      26.112  56.073  -1.130  1.00  0.00     0.054 C 
ATOM      9  C   UNL     1      26.905  55.732  -2.428  1.00  0.00     0.173 C 
ATOM     10  O   UNL     1      27.747  54.630  -2.105  1.00  0.00    -0.342 OA
ATOM     11  C   UNL     1      25.892  55.317  -3.547  1.00  0.00     0.096 C 
ATOM     12  C   UNL     1      25.166  54.042  -3.142  1.00  0.00    -0.066 C 
ATOM     13  C   UNL     1      23.950  53.747  -3.624  1.00  0.00     0.008 C 
ENDROOT
BRANCH   8  14
ATOM     14  C   UNL     1      26.670  57.280  -0.298  1.00  0.00    -0.009 C 
ATOM     15  C   UNL     1      27.717  56.847   0.752  1.00  0.00     0.008 C 
ATOM     16  C   UNL     1      25.531  57.998   0.456  1.00  0.00     0.008 C 
ENDBRANCH   8  14
BRANCH   9  17
ATOM     17  O   UNL     1      27.694  56.804  -2.874  1.00  0.00    -0.365 OA
ATOM     18  H   UNL     1      27.691  57.488  -2.154  1.00  0.00     0.214 HD
ENDBRANCH   9  17
TORSDOF 2
ENDMDL
MODEL 2
REMARK VINA RESULT:    -6.115      8.612     11.142
REMARK INTER + INTRA:          -6.905
REMARK INTER:                  -6.710
REMARK INTRA:                  -0.195
REMARK UNBOUND:                -0.254
REMARK SMILES C=C1C[C@]2(O)O[C@]3(C[C@H]2C(C)C)[C@H](C)CC[C@@H]13
REMARK SMILES IDX 14 1 13 2 15 3 16 4 17 5 7 6 8 7 9 8 4 9 6 10 3 11 2 12 1 13
REMARK SMILES IDX 10 14 11 15 12 16 5 17
REMARK H PARENT 5 18
REMARK Flexibility Score: inf
ROOT
ATOM      1  C   UNL     1      17.867  50.556  -7.987  1.00  0.00     0.011 C 
ATOM      2  C   UNL     1      17.615  52.074  -7.986  1.00  0.00     0.019 C 
ATOM      3  C   UNL     1      16.160  52.417  -8.401  1.00  0.00     0.007 C 
ATOM      4  C   UNL     1      16.212  53.037  -9.813  1.00  0.00     0.011 C 
ATOM      5  C   UNL     1      17.624  52.739 -10.289  1.00  0.00     0.047 C 
ATOM      6  C   UNL     1      18.480  52.825  -9.019  1.00  0.00     0.081 C 
ATOM      7  C   UNL     1      18.791  54.266  -8.550  1.00  0.00     0.046 C 
ATOM      8  C   UNL     1      20.100  54.624  -9.265  1.00  0.00     0.054 C 
ATOM      9  C   UNL     1      20.388  53.301 -10.038  1.00  0.00     0.173 C 
ATOM     10  O   UNL     1      19.732  52.264  -9.316  1.00  0.00    -0.342 OA
ATOM     11  C   UNL     1      19.782  53.413 -11.477  1.00  0.00     0.096 C 
ATOM     12  C   UNL     1      18.268  53.538 -11.394  1.00  0.00    -0.066 C 
ATOM     13  C   UNL     1      17.561  54.132 -12.366  1.00  0.00     0.008 C 
ENDROOT
BRANCH   8  14
ATOM     14  C   UNL     1      21.253  55.118  -8.324  1.00  0.00    -0.009 C 
ATOM     15  C   UNL     1      20.738  55.596  -6.949  1.00  0.00     0.008 C 
ATOM     16  C   UNL     1      22.015  56.297  -8.966  1.00  0.00     0.008 C 
ENDBRANCH   8  14
BRANCH   9  17
ATOM     17  O   UNL     1      21.760  53.014 -10.120  1.00  0.00    -0.365 OA
ATOM     18  H   UNL     1      22.155  53.217  -9.232  1.00  0.00     0.214 HD
ENDBRANCH   9  17
TORSDOF 2
ENDMDL
MODEL 3
REMARK VINA RESULT:    -6.094     11.829     13.415
REMARK INTER + INTRA:          -6.883
REMARK INTER:                  -6.661
REMARK INTRA:                  -0.222
REMARK UNBOUND:                -0.254
REMARK SMILES C=C1C[C@]2(O)O[C@]3(C[C@H]2C(C)C)[C@H](C)CC[C@@H]13
REMARK SMILES IDX 14 1 13 2 15 3 16 4 17 5 7 6 8 7 9 8 4 9 6 10 3 11 2 12 1 13
REMARK SMILES IDX 10 14 11 15 12 16 5 17
REMARK H PARENT 5 18
REMARK Flexibility Score: inf
ROOT
ATOM      1  C   UNL     1      16.254  47.118  -1.268  1.00  0.00     0.011 C 
ATOM      2  C   UNL     1      15.526  46.970  -2.615  1.00  0.00     0.019 C 
ATOM      3  C   UNL     1      16.350  46.128  -3.625  1.00  0.00     0.007 C 
ATOM      4  C   UNL     1      16.884  47.089  -4.707  1.00  0.00     0.011 C 
ATOM      5  C   UNL     1      16.632  48.469  -4.123  1.00  0.00     0.047 C 
ATOM      6  C   UNL     1      15.323  48.317  -3.338  1.00  0.00     0.081 C 
ATOM      7  C   UNL     1      14.047  48.300  -4.212  1.00  0.00     0.046 C 
ATOM      8  C   UNL     1      13.633  49.773  -4.308  1.00  0.00     0.054 C 
ATOM      9  C   UNL     1      14.730  50.449  -3.431  1.00  0.00     0.173 C 
ATOM     10  O   UNL     1      15.188  49.452  -2.523  1.00  0.00    -0.342 OA
ATOM     11  C   UNL     1      15.907  50.907  -4.356  1.00  0.00     0.096 C 
ATOM     12  C   UNL     1      16.563  49.695  -5.000  1.00  0.00    -0.066 C 
ATOM     13  C   UNL     1      17.218  49.791  -6.165  1.00  0.00     0.008 C 
ENDROOT
BRANCH   8  14
ATOM     14  C   UNL     1      12.153  50.073  -3.884  1.00  0.00    -0.009 C 
ATOM     15  C   UNL     1      11.336  48.789  -3.623  1.00  0.00     0.008 C 
ATOM     16  C   UNL     1      11.419  50.870  -4.984  1.00  0.00     0.008 C 
ENDBRANCH   8  14
BRANCH   9  17
ATOM     17  O   UNL     1      14.239  51.547  -2.707  1.00  0.00    -0.365 OA
ATOM     18  H   UNL     1      13.757  52.130  -3.351  1.00  0.00     0.214 HD
ENDBRANCH   9  17
TORSDOF 2
ENDMDL
MODEL 4
REMARK VINA RESULT:    -5.955      9.512     11.791
REMARK INTER + INTRA:          -6.732
REMARK INTER:                  -6.480
REMARK INTRA:                  -0.251
REMARK UNBOUND:                -0.254
REMARK SMILES C=C1C[C@]2(O)O[C@]3(C[C@H]2C(C)C)[C@H](C)CC[C@@H]13
REMARK SMILES IDX 14 1 13 2 15 3 16 4 17 5 7 6 8 7 9 8 4 9 6 10 3 11 2 12 1 13
REMARK SMILES IDX 10 14 11 15 12 16 5 17
REMARK H PARENT 5 18
REMARK Flexibility Score: inf
ROOT
ATOM      1  C   UNL     1      22.008  44.669  -6.890  1.00  0.00     0.011 C 
ATOM      2  C   UNL     1      23.320  44.337  -7.620  1.00  0.00     0.019 C 
ATOM      3  C   UNL     1      23.299  42.907  -8.222  1.00  0.00     0.007 C 
ATOM      4  C   UNL     1      24.252  42.033  -7.381  1.00  0.00     0.011 C 
ATOM      5  C   UNL     1      24.535  42.882  -6.153  1.00  0.00     0.047 C 
ATOM      6  C   UNL     1      24.542  44.322  -6.679  1.00  0.00     0.081 C 
ATOM      7  C   UNL     1      25.834  44.727  -7.429  1.00  0.00     0.046 C 
ATOM      8  C   UNL     1      26.748  45.290  -6.334  1.00  0.00     0.054 C 
ATOM      9  C   UNL     1      25.826  45.163  -5.083  1.00  0.00     0.173 C 
ATOM     10  O   UNL     1      24.488  45.177  -5.567  1.00  0.00    -0.342 OA
ATOM     11  C   UNL     1      26.121  43.799  -4.373  1.00  0.00     0.096 C 
ATOM     12  C   UNL     1      25.752  42.645  -5.294  1.00  0.00    -0.066 C 
ATOM     13  C   UNL     1      26.335  41.444  -5.178  1.00  0.00     0.008 C 
ENDROOT
BRANCH   8  14
ATOM     14  C   UNL     1      27.306  46.728  -6.615  1.00  0.00    -0.009 C 
ATOM     15  C   UNL     1      26.329  47.598  -7.436  1.00  0.00     0.008 C 
ATOM     16  C   UNL     1      28.632  46.657  -7.402  1.00  0.00     0.008 C 
ENDBRANCH   8  14
BRANCH   9  17
ATOM     17  O   UNL     1      26.004  46.219  -4.175  1.00  0.00    -0.365 OA
ATOM     18  H   UNL     1      25.281  46.877  -4.347  1.00  0.00     0.214 HD
ENDBRANCH   9  17
TORSDOF 2
ENDMDL
MODEL 5
REMARK VINA RESULT:    -5.900     10.041     12.572
REMARK INTER + INTRA:          -6.671
REMARK INTER:                  -6.417
REMARK INTRA:                  -0.254
REMARK UNBOUND:                -0.254
REMARK SMILES C=C1C[C@]2(O)O[C@]3(C[C@H]2C(C)C)[C@H](C)CC[C@@H]13
REMARK SMILES IDX 14 1 13 2 15 3 16 4 17 5 7 6 8 7 9 8 4 9 6 10 3 11 2 12 1 13
REMARK SMILES IDX 10 14 11 15 12 16 5 17
REMARK H PARENT 5 18
REMARK Flexibility Score: inf
ROOT
ATOM      1  C   UNL     1      25.400  46.987  -5.081  1.00  0.00     0.011 C 
ATOM      2  C   UNL     1      26.090  46.066  -6.101  1.00  0.00     0.019 C 
ATOM      3  C   UNL     1      25.880  46.559  -7.557  1.00  0.00     0.007 C 
ATOM      4  C   UNL     1      24.903  45.582  -8.244  1.00  0.00     0.011 C 
ATOM      5  C   UNL     1      24.341  44.763  -7.094  1.00  0.00     0.047 C 
ATOM      6  C   UNL     1      25.509  44.637  -6.109  1.00  0.00     0.081 C 
ATOM      7  C   UNL     1      26.580  43.596  -6.511  1.00  0.00     0.046 C 
ATOM      8  C   UNL     1      26.102  42.290  -5.864  1.00  0.00     0.054 C 
ATOM      9  C   UNL     1      24.812  42.774  -5.135  1.00  0.00     0.173 C 
ATOM     10  O   UNL     1      24.986  44.166  -4.894  1.00  0.00    -0.342 OA
ATOM     11  C   UNL     1      23.582  42.547  -6.076  1.00  0.00     0.096 C 
ATOM     12  C   UNL     1      23.716  43.409  -7.322  1.00  0.00    -0.066 C 
ATOM     13  C   UNL     1      23.122  43.070  -8.475  1.00  0.00     0.008 C 
ENDROOT
BRANCH   8  14
ATOM     14  C   UNL     1      27.161  41.576  -4.955  1.00  0.00    -0.009 C 
ATOM     15  C   UNL     1      28.178  42.562  -4.337  1.00  0.00     0.008 C 
ATOM     16  C   UNL     1      27.964  40.535  -5.764  1.00  0.00     0.008 C 
ENDBRANCH   8  14
BRANCH   9  17
ATOM     17  O   UNL     1      24.605  42.113  -3.914  1.00  0.00    -0.365 OA
ATOM     18  H   UNL     1      24.461  41.153  -4.121  1.00  0.00     0.214 HD
ENDBRANCH   9  17
TORSDOF 2
ENDMDL
MODEL 6
REMARK VINA RESULT:    -5.585      9.187     11.441
REMARK INTER + INTRA:          -6.329
REMARK INTER:                  -6.144
REMARK INTRA:                  -0.185
REMARK UNBOUND:                -0.254
REMARK SMILES C=C1C[C@]2(O)O[C@]3(C[C@H]2C(C)C)[C@H](C)CC[C@@H]13
REMARK SMILES IDX 14 1 13 2 15 3 16 4 17 5 7 6 8 7 9 8 4 9 6 10 3 11 2 12 1 13
REMARK SMILES IDX 10 14 11 15 12 16 5 17
REMARK H PARENT 5 18
REMARK Flexibility Score: inf
ROOT
ATOM      1  C   UNL     1      23.061  53.005 -10.321  1.00  0.00     0.011 C 
ATOM      2  C   UNL     1      22.093  54.186 -10.503  1.00  0.00     0.019 C 
ATOM      3  C   UNL     1      22.620  55.474  -9.816  1.00  0.00     0.007 C 
ATOM      4  C   UNL     1      21.742  55.732  -8.574  1.00  0.00     0.011 C 
ATOM      5  C   UNL     1      20.964  54.437  -8.404  1.00  0.00     0.047 C 
ATOM      6  C   UNL     1      20.723  53.948  -9.837  1.00  0.00     0.081 C 
ATOM      7  C   UNL     1      19.594  54.692 -10.590  1.00  0.00     0.046 C 
ATOM      8  C   UNL     1      18.329  53.885 -10.270  1.00  0.00     0.054 C 
ATOM      9  C   UNL     1      18.919  52.744  -9.387  1.00  0.00     0.173 C 
ATOM     10  O   UNL     1      20.287  52.615  -9.759  1.00  0.00    -0.342 OA
ATOM     11  C   UNL     1      18.814  53.162  -7.882  1.00  0.00     0.096 C 
ATOM     12  C   UNL     1      19.675  54.390  -7.624  1.00  0.00    -0.066 C 
ATOM     13  C   UNL     1      19.403  55.236  -6.620  1.00  0.00     0.008 C 
ENDROOT
BRANCH   8  14
ATOM     14  C   UNL     1      17.513  53.413 -11.523  1.00  0.00    -0.009 C 
ATOM     15  C   UNL     1      17.820  54.248 -12.785  1.00  0.00     0.008 C 
ATOM     16  C   UNL     1      15.996  53.518 -11.259  1.00  0.00     0.008 C 
ENDBRANCH   8  14
BRANCH   9  17
ATOM     17  O   UNL     1      18.265  51.517  -9.587  1.00  0.00    -0.365 OA
ATOM     18  H   UNL     1      18.559  51.170 -10.469  1.00  0.00     0.214 HD
ENDBRANCH   9  17
TORSDOF 2
ENDMDL
MODEL 7
REMARK VINA RESULT:    -5.506      9.064     10.884
REMARK INTER + INTRA:          -6.243
REMARK INTER:                  -6.018
REMARK INTRA:                  -0.226
REMARK UNBOUND:                -0.254
REMARK SMILES C=C1C[C@]2(O)O[C@]3(C[C@H]2C(C)C)[C@H](C)CC[C@@H]13
REMARK SMILES IDX 14 1 13 2 15 3 16 4 17 5 7 6 8 7 9 8 4 9 6 10 3 11 2 12 1 13
REMARK SMILES IDX 10 14 11 15 12 16 5 17
REMARK H PARENT 5 18
REMARK Flexibility Score: inf
ROOT
ATOM      1  C   UNL     1      27.692  42.410  -7.202  1.00  0.00     0.011 C 
ATOM      2  C   UNL     1      26.783  42.742  -6.007  1.00  0.00     0.019 C 
ATOM      3  C   UNL     1      25.770  41.601  -5.719  1.00  0.00     0.007 C 
ATOM      4  C   UNL     1      24.374  42.100  -6.145  1.00  0.00     0.011 C 
ATOM      5  C   UNL     1      24.666  43.358  -6.947  1.00  0.00     0.047 C 
ATOM      6  C   UNL     1      25.889  43.973  -6.257  1.00  0.00     0.081 C 
ATOM      7  C   UNL     1      25.576  44.719  -4.938  1.00  0.00     0.046 C 
ATOM      8  C   UNL     1      25.294  46.161  -5.375  1.00  0.00     0.054 C 
ATOM      9  C   UNL     1      25.521  46.056  -6.914  1.00  0.00     0.173 C 
ATOM     10  O   UNL     1      26.405  44.958  -7.115  1.00  0.00    -0.342 OA
ATOM     11  C   UNL     1      24.149  45.769  -7.610  1.00  0.00     0.096 C 
ATOM     12  C   UNL     1      23.614  44.416  -7.164  1.00  0.00    -0.066 C 
ATOM     13  C   UNL     1      22.302  44.142  -7.184  1.00  0.00     0.008 C 
ENDROOT
BRANCH   8  14
ATOM     14  C   UNL     1      26.149  47.253  -4.642  1.00  0.00    -0.009 C 
ATOM     15  C   UNL     1      27.039  46.663  -3.525  1.00  0.00     0.008 C 
ATOM     16  C   UNL     1      25.238  48.316  -3.992  1.00  0.00     0.008 C 
ENDBRANCH   8  14
BRANCH   9  17
ATOM     17  O   UNL     1      26.094  47.219  -7.453  1.00  0.00    -0.365 OA
ATOM     18  H   UNL     1      25.349  47.794  -7.767  1.00  0.00     0.214 HD
ENDBRANCH   9  17
TORSDOF 2
ENDMDL
MODEL 8
REMARK VINA RESULT:    -5.448      8.821     11.290
REMARK INTER + INTRA:          -6.180
REMARK INTER:                  -5.979
REMARK INTRA:                  -0.201
REMARK UNBOUND:                -0.254
REMARK SMILES C=C1C[C@]2(O)O[C@]3(C[C@H]2C(C)C)[C@H](C)CC[C@@H]13
REMARK SMILES IDX 14 1 13 2 15 3 16 4 17 5 7 6 8 7 9 8 4 9 6 10 3 11 2 12 1 13
REMARK SMILES IDX 10 14 11 15 12 16 5 17
REMARK H PARENT 5 18
REMARK Flexibility Score: inf
ROOT
ATOM      1  C   UNL     1      26.842  46.975  -3.337  1.00  0.00     0.011 C 
ATOM      2  C   UNL     1      27.397  46.062  -4.444  1.00  0.00     0.019 C 
ATOM      3  C   UNL     1      28.512  46.763  -5.264  1.00  0.00     0.007 C 
ATOM      4  C   UNL     1      27.933  47.085  -6.657  1.00  0.00     0.011 C 
ATOM      5  C   UNL     1      26.439  46.860  -6.491  1.00  0.00     0.047 C 
ATOM      6  C   UNL     1      26.338  45.692  -5.502  1.00  0.00     0.081 C 
ATOM      7  C   UNL     1      26.621  44.301  -6.119  1.00  0.00     0.046 C 
ATOM      8  C   UNL     1      25.249  43.811  -6.594  1.00  0.00     0.054 C 
ATOM      9  C   UNL     1      24.338  44.994  -6.148  1.00  0.00     0.173 C 
ATOM     10  O   UNL     1      25.007  45.627  -5.062  1.00  0.00    -0.342 OA
ATOM     11  C   UNL     1      24.190  45.997  -7.341  1.00  0.00     0.096 C 
ATOM     12  C   UNL     1      25.544  46.604  -7.677  1.00  0.00    -0.066 C 
ATOM     13  C   UNL     1      25.814  47.073  -8.904  1.00  0.00     0.008 C 
ENDROOT
BRANCH   8  14
ATOM     14  C   UNL     1      24.829  42.398  -6.056  1.00  0.00    -0.009 C 
ATOM     15  C   UNL     1      25.209  42.188  -4.573  1.00  0.00     0.008 C 
ATOM     16  C   UNL     1      25.511  41.278  -6.870  1.00  0.00     0.008 C 
ENDBRANCH   8  14
BRANCH   9  17
ATOM     17  O   UNL     1      23.069  44.566  -5.726  1.00  0.00    -0.365 OA
ATOM     18  H   UNL     1      23.205  43.763  -5.158  1.00  0.00     0.214 HD
ENDBRANCH   9  17
TORSDOF 2
ENDMDL
MODEL 9
REMARK VINA RESULT:    -5.376      1.986      3.760
REMARK INTER + INTRA:          -6.101
REMARK INTER:                  -5.995
REMARK INTRA:                  -0.106
REMARK UNBOUND:                -0.254
REMARK SMILES C=C1C[C@]2(O)O[C@]3(C[C@H]2C(C)C)[C@H](C)CC[C@@H]13
REMARK SMILES IDX 14 1 13 2 15 3 16 4 17 5 7 6 8 7 9 8 4 9 6 10 3 11 2 12 1 13
REMARK SMILES IDX 10 14 11 15 12 16 5 17
REMARK H PARENT 5 18
REMARK Flexibility Score: inf
ROOT
ATOM      1  C   UNL     1      25.747  49.251   0.545  1.00  0.00     0.011 C 
ATOM      2  C   UNL     1      25.378  49.995  -0.749  1.00  0.00     0.019 C 
ATOM      3  C   UNL     1      25.405  49.054  -1.983  1.00  0.00     0.007 C 
ATOM      4  C   UNL     1      26.636  49.434  -2.831  1.00  0.00     0.011 C 
ATOM      5  C   UNL     1      27.442  50.341  -1.916  1.00  0.00     0.047 C 
ATOM      6  C   UNL     1      26.385  51.106  -1.111  1.00  0.00     0.081 C 
ATOM      7  C   UNL     1      25.699  52.259  -1.881  1.00  0.00     0.046 C 
ATOM      8  C   UNL     1      26.577  53.483  -1.592  1.00  0.00     0.054 C 
ATOM      9  C   UNL     1      27.651  52.863  -0.647  1.00  0.00     0.173 C 
ATOM     10  O   UNL     1      27.043  51.729  -0.038  1.00  0.00    -0.342 OA
ATOM     11  C   UNL     1      28.880  52.412  -1.506  1.00  0.00     0.096 C 
ATOM     12  C   UNL     1      28.464  51.305  -2.464  1.00  0.00    -0.066 C 
ATOM     13  C   UNL     1      29.125  51.088  -3.610  1.00  0.00     0.008 C 
ENDROOT
BRANCH   8  14
ATOM     14  C   UNL     1      25.810  54.724  -1.016  1.00  0.00    -0.009 C 
ATOM     15  C   UNL     1      24.346  54.799  -1.503  1.00  0.00     0.008 C 
ATOM     16  C   UNL     1      26.503  56.038  -1.436  1.00  0.00     0.008 C 
ENDBRANCH   8  14
BRANCH   9  17
ATOM     17  O   UNL     1      28.070  53.758   0.350  1.00  0.00    -0.365 OA
ATOM     18  H   UNL     1      27.253  54.173   0.733  1.00  0.00     0.214 HD
ENDBRANCH   9  17
TORSDOF 2
ENDMDL
