MODEL 1
REMARK VINA RESULT:    -3.487      0.000      0.000
REMARK INTER + INTRA:          -3.487
REMARK INTER:                  -3.487
REMARK INTRA:                   0.000
REMARK UNBOUND:                 0.000
REMARK SMILES CC1(C)O[C@]2(C)CC[C@H]1CC2
REMARK SMILES IDX 1 1 2 2 9 3 10 4 11 5 5 6 4 7 7 8 8 9 6 10 3 11
REMARK H PARENT
REMARK Flexibility Score: inf
ROOT
ATOM      1  C   UNL     1       5.881   0.870   5.561  1.00  0.00     0.042 C 
ATOM      2  C   UNL     1       6.069   2.164   6.382  1.00  0.00     0.066 C 
ATOM      3  C   UNL     1       6.640   3.322   5.474  1.00  0.00     0.021 C 
ATOM      4  C   UNL     1       5.599   3.638   4.374  1.00  0.00     0.009 C 
ATOM      5  C   UNL     1       4.220   3.881   5.032  1.00  0.00     0.035 C 
ATOM      6  C   UNL     1       4.356   3.818   6.581  1.00  0.00     0.066 C 
ATOM      7  O   UNL     1       4.802   2.514   6.959  1.00  0.00    -0.369 OA
ATOM      8  C   UNL     1       5.406   4.870   7.040  1.00  0.00     0.035 C 
ATOM      9  C   UNL     1       6.757   4.604   6.334  1.00  0.00     0.009 C 
ATOM     10  C   UNL     1       3.003   4.089   7.246  1.00  0.00     0.042 C 
ATOM     11  C   UNL     1       7.047   1.841   7.533  1.00  0.00     0.042 C 
ENDROOT
TORSDOF 0
ENDMDL
MODEL 2
REMARK VINA RESULT:    -3.483      1.179      3.372
REMARK INTER + INTRA:          -3.483
REMARK INTER:                  -3.483
REMARK INTRA:                   0.000
REMARK UNBOUND:                 0.000
REMARK SMILES CC1(C)O[C@]2(C)CC[C@H]1CC2
REMARK SMILES IDX 1 1 2 2 9 3 10 4 11 5 5 6 4 7 7 8 8 9 6 10 3 11
REMARK H PARENT
REMARK Flexibility Score: inf
ROOT
ATOM      1  C   UNL     1       6.722   5.371   6.602  1.00  0.00     0.042 C 
ATOM      2  C   UNL     1       5.825   4.113   6.602  1.00  0.00     0.066 C 
ATOM      3  C   UNL     1       5.773   3.467   5.163  1.00  0.00     0.021 C 
ATOM      4  C   UNL     1       7.198   2.999   4.784  1.00  0.00     0.009 C 
ATOM      5  C   UNL     1       7.765   2.121   5.926  1.00  0.00     0.035 C 
ATOM      6  C   UNL     1       6.685   1.925   7.028  1.00  0.00     0.066 C 
ATOM      7  O   UNL     1       6.342   3.197   7.579  1.00  0.00    -0.369 OA
ATOM      8  C   UNL     1       5.418   1.289   6.386  1.00  0.00     0.035 C 
ATOM      9  C   UNL     1       4.906   2.186   5.235  1.00  0.00     0.009 C 
ATOM     10  C   UNL     1       7.223   1.030   8.148  1.00  0.00     0.042 C 
ATOM     11  C   UNL     1       4.416   4.553   7.054  1.00  0.00     0.042 C 
ENDROOT
TORSDOF 0
ENDMDL
MODEL 3
REMARK VINA RESULT:    -3.332      1.209      3.039
REMARK INTER + INTRA:          -3.332
REMARK INTER:                  -3.332
REMARK INTRA:                   0.000
REMARK UNBOUND:                 0.000
REMARK SMILES CC1(C)O[C@]2(C)CC[C@H]1CC2
REMARK SMILES IDX 1 1 2 2 9 3 10 4 11 5 5 6 4 7 7 8 8 9 6 10 3 11
REMARK H PARENT
REMARK Flexibility Score: inf
ROOT
ATOM      1  C   UNL     1       3.590   3.412   5.854  1.00  0.00     0.042 C 
ATOM      2  C   UNL     1       4.892   2.678   5.468  1.00  0.00     0.066 C 
ATOM      3  C   UNL     1       5.994   3.706   5.000  1.00  0.00     0.021 C 
ATOM      4  C   UNL     1       6.340   4.629   6.192  1.00  0.00     0.009 C 
ATOM      5  C   UNL     1       6.674   3.760   7.428  1.00  0.00     0.035 C 
ATOM      6  C   UNL     1       6.641   2.253   7.039  1.00  0.00     0.066 C 
ATOM      7  O   UNL     1       5.325   1.912   6.602  1.00  0.00    -0.369 OA
ATOM      8  C   UNL     1       7.645   2.010   5.875  1.00  0.00     0.035 C 
ATOM      9  C   UNL     1       7.288   2.920   4.676  1.00  0.00     0.009 C 
ATOM     10  C   UNL     1       7.003   1.383   8.246  1.00  0.00     0.042 C 
ATOM     11  C   UNL     1       4.544   1.694   4.329  1.00  0.00     0.042 C 
ENDROOT
TORSDOF 0
ENDMDL
MODEL 4
REMARK VINA RESULT:    -3.179      9.541     11.261
REMARK INTER + INTRA:          -3.179
REMARK INTER:                  -3.179
REMARK INTRA:                   0.000
REMARK UNBOUND:                 0.000
REMARK SMILES CC1(C)O[C@]2(C)CC[C@H]1CC2
REMARK SMILES IDX 1 1 2 2 9 3 10 4 11 5 5 6 4 7 7 8 8 9 6 10 3 11
REMARK H PARENT
REMARK Flexibility Score: inf
ROOT
ATOM      1  C   UNL     1       4.050  15.382   9.953  1.00  0.00     0.042 C 
ATOM      2  C   UNL     1       4.545  13.954   9.634  1.00  0.00     0.066 C 
ATOM      3  C   UNL     1       4.575  13.710   8.075  1.00  0.00     0.021 C 
ATOM      4  C   UNL     1       5.596  14.686   7.446  1.00  0.00     0.009 C 
ATOM      5  C   UNL     1       6.944  14.568   8.199  1.00  0.00     0.035 C 
ATOM      6  C   UNL     1       6.851  13.446   9.273  1.00  0.00     0.066 C 
ATOM      7  O   UNL     1       5.843  13.790  10.224  1.00  0.00    -0.369 OA
ATOM      8  C   UNL     1       6.461  12.110   8.576  1.00  0.00     0.035 C 
ATOM      9  C   UNL     1       5.126  12.287   7.815  1.00  0.00     0.009 C 
ATOM     10  C   UNL     1       8.189  13.296  10.003  1.00  0.00     0.042 C 
ATOM     11  C   UNL     1       3.577  12.968  10.323  1.00  0.00     0.042 C 
ENDROOT
TORSDOF 0
ENDMDL
MODEL 5
REMARK VINA RESULT:    -3.080      1.406      3.387
REMARK INTER + INTRA:          -3.080
REMARK INTER:                  -3.080
REMARK INTRA:                   0.000
REMARK UNBOUND:                 0.000
REMARK SMILES CC1(C)O[C@]2(C)CC[C@H]1CC2
REMARK SMILES IDX 1 1 2 2 9 3 10 4 11 5 5 6 4 7 7 8 8 9 6 10 3 11
REMARK H PARENT
REMARK Flexibility Score: inf
ROOT
ATOM      1  C   UNL     1       3.982   4.085   6.142  1.00  0.00     0.042 C 
ATOM      2  C   UNL     1       5.479   3.735   6.293  1.00  0.00     0.066 C 
ATOM      3  C   UNL     1       5.657   2.371   7.065  1.00  0.00     0.021 C 
ATOM      4  C   UNL     1       5.019   1.243   6.220  1.00  0.00     0.009 C 
ATOM      5  C   UNL     1       5.579   1.309   4.778  1.00  0.00     0.035 C 
ATOM      6  C   UNL     1       6.660   2.424   4.683  1.00  0.00     0.066 C 
ATOM      7  O   UNL     1       6.060   3.685   4.982  1.00  0.00    -0.369 OA
ATOM      8  C   UNL     1       7.780   2.132   5.723  1.00  0.00     0.035 C 
ATOM      9  C   UNL     1       7.168   2.046   7.142  1.00  0.00     0.009 C 
ATOM     10  C   UNL     1       7.246   2.478   3.269  1.00  0.00     0.042 C 
ATOM     11  C   UNL     1       6.144   4.893   7.069  1.00  0.00     0.042 C 
ENDROOT
TORSDOF 0
ENDMDL
MODEL 6
REMARK VINA RESULT:    -3.071     10.442     11.860
REMARK INTER + INTRA:          -3.071
REMARK INTER:                  -3.071
REMARK INTRA:                   0.000
REMARK UNBOUND:                 0.000
REMARK SMILES CC1(C)O[C@]2(C)CC[C@H]1CC2
REMARK SMILES IDX 1 1 2 2 9 3 10 4 11 5 5 6 4 7 7 8 8 9 6 10 3 11
REMARK H PARENT
REMARK Flexibility Score: inf
ROOT
ATOM      1  C   UNL     1       8.890   8.250  12.997  1.00  0.00     0.042 C 
ATOM      2  C   UNL     1       9.575   9.311  13.886  1.00  0.00     0.066 C 
ATOM      3  C   UNL     1       8.506  10.293  14.505  1.00  0.00     0.021 C 
ATOM      4  C   UNL     1       7.568   9.477  15.426  1.00  0.00     0.009 C 
ATOM      5  C   UNL     1       8.422   8.655  16.422  1.00  0.00     0.035 C 
ATOM      6  C   UNL     1       9.929   8.990  16.226  1.00  0.00     0.066 C 
ATOM      7  O   UNL     1      10.322   8.627  14.902  1.00  0.00    -0.369 OA
ATOM      8  C   UNL     1      10.135  10.521  16.418  1.00  0.00     0.035 C 
ATOM      9  C   UNL     1       9.241  11.299  15.424  1.00  0.00     0.009 C 
ATOM     10  C   UNL     1      10.783   8.207  17.228  1.00  0.00     0.042 C 
ATOM     11  C   UNL     1      10.572  10.082  12.994  1.00  0.00     0.042 C 
ENDROOT
TORSDOF 0
ENDMDL
MODEL 7
REMARK VINA RESULT:    -3.024      1.542      2.444
REMARK INTER + INTRA:          -3.024
REMARK INTER:                  -3.024
REMARK INTRA:                   0.000
REMARK UNBOUND:                 0.000
REMARK SMILES CC1(C)O[C@]2(C)CC[C@H]1CC2
REMARK SMILES IDX 1 1 2 2 9 3 10 4 11 5 5 6 4 7 7 8 8 9 6 10 3 11
REMARK H PARENT
REMARK Flexibility Score: inf
ROOT
ATOM      1  C   UNL     1       5.739  -0.124   5.667  1.00  0.00     0.042 C 
ATOM      2  C   UNL     1       5.523   1.317   6.178  1.00  0.00     0.066 C 
ATOM      3  C   UNL     1       6.862   1.905   6.770  1.00  0.00     0.021 C 
ATOM      4  C   UNL     1       7.906   1.987   5.631  1.00  0.00     0.009 C 
ATOM      5  C   UNL     1       7.287   2.735   4.426  1.00  0.00     0.035 C 
ATOM      6  C   UNL     1       5.859   3.234   4.792  1.00  0.00     0.066 C 
ATOM      7  O   UNL     1       5.031   2.108   5.086  1.00  0.00    -0.369 OA
ATOM      8  C   UNL     1       5.949   4.145   6.050  1.00  0.00     0.035 C 
ATOM      9  C   UNL     1       6.600   3.364   7.217  1.00  0.00     0.009 C 
ATOM     10  C   UNL     1       5.247   4.005   3.618  1.00  0.00     0.042 C 
ATOM     11  C   UNL     1       4.425   1.260   7.262  1.00  0.00     0.042 C 
ENDROOT
TORSDOF 0
ENDMDL
MODEL 8
REMARK VINA RESULT:    -2.966      1.351      3.168
REMARK INTER + INTRA:          -2.966
REMARK INTER:                  -2.966
REMARK INTRA:                   0.000
REMARK UNBOUND:                 0.000
REMARK SMILES CC1(C)O[C@]2(C)CC[C@H]1CC2
REMARK SMILES IDX 1 1 2 2 9 3 10 4 11 5 5 6 4 7 7 8 8 9 6 10 3 11
REMARK H PARENT
REMARK Flexibility Score: inf
ROOT
ATOM      1  C   UNL     1       6.216   4.857   7.043  1.00  0.00     0.042 C 
ATOM      2  C   UNL     1       6.044   3.410   6.530  1.00  0.00     0.066 C 
ATOM      3  C   UNL     1       4.528   2.975   6.588  1.00  0.00     0.021 C 
ATOM      4  C   UNL     1       3.721   3.886   5.633  1.00  0.00     0.009 C 
ATOM      5  C   UNL     1       4.396   3.888   4.240  1.00  0.00     0.035 C 
ATOM      6  C   UNL     1       5.603   2.906   4.237  1.00  0.00     0.066 C 
ATOM      7  O   UNL     1       6.567   3.346   5.195  1.00  0.00    -0.369 OA
ATOM      8  C   UNL     1       5.101   1.487   4.632  1.00  0.00     0.035 C 
ATOM      9  C   UNL     1       4.410   1.542   6.015  1.00  0.00     0.009 C 
ATOM     10  C   UNL     1       6.260   2.874   2.854  1.00  0.00     0.042 C 
ATOM     11  C   UNL     1       6.909   2.499   7.428  1.00  0.00     0.042 C 
ENDROOT
TORSDOF 0
ENDMDL
MODEL 9
REMARK VINA RESULT:    -2.929     10.003     11.586
REMARK INTER + INTRA:          -2.929
REMARK INTER:                  -2.929
REMARK INTRA:                   0.000
REMARK UNBOUND:                 0.000
REMARK SMILES CC1(C)O[C@]2(C)CC[C@H]1CC2
REMARK SMILES IDX 1 1 2 2 9 3 10 4 11 5 5 6 4 7 7 8 8 9 6 10 3 11
REMARK H PARENT
REMARK Flexibility Score: inf
ROOT
ATOM      1  C   UNL     1       9.597  10.973  16.023  1.00  0.00     0.042 C 
ATOM      2  C   UNL     1       9.572   9.656  15.217  1.00  0.00     0.066 C 
ATOM      3  C   UNL     1       8.883   9.875  13.815  1.00  0.00     0.021 C 
ATOM      4  C   UNL     1       9.735  10.878  13.002  1.00  0.00     0.009 C 
ATOM      5  C   UNL     1      11.208  10.404  12.992  1.00  0.00     0.035 C 
ATOM      6  C   UNL     1      11.326   9.034  13.720  1.00  0.00     0.066 C 
ATOM      7  O   UNL     1      10.923   9.191  15.081  1.00  0.00    -0.369 OA
ATOM      8  C   UNL     1      10.386   8.008  13.024  1.00  0.00     0.035 C 
ATOM      9  C   UNL     1       8.933   8.539  13.033  1.00  0.00     0.009 C 
ATOM     10  C   UNL     1      12.775   8.537  13.688  1.00  0.00     0.042 C 
ATOM     11  C   UNL     1       8.790   8.621  16.055  1.00  0.00     0.042 C 
ENDROOT
TORSDOF 0
ENDMDL
