MODEL 1
REMARK VINA RESULT:    -6.318      0.000      0.000
REMARK INTER + INTRA:          -6.503
REMARK INTER:                  -6.503
REMARK INTRA:                   0.000
REMARK UNBOUND:                 0.000
REMARK SMILES C=C1[C@H](O)C[C@@]23C[C@@H]1C(C)(C)[C@@H]2CC[C@H]3C
REMARK SMILES IDX 16 1 15 2 14 3 13 4 12 5 6 6 7 7 8 8 9 9 10 10 11 11 2 12
REMARK SMILES IDX 1 13 3 14 5 15 4 16
REMARK H PARENT 4 17
REMARK Flexibility Score: inf
ROOT
ATOM      1  C   UNL     1       0.743  21.856  48.148  1.00  0.00     0.008 C 
ATOM      2  C   UNL     1      -0.634  21.901  47.460  1.00  0.00    -0.008 C 
ATOM      3  C   UNL     1      -1.630  22.672  48.328  1.00  0.00     0.004 C 
ATOM      4  C   UNL     1      -2.280  21.635  49.233  1.00  0.00     0.005 C 
ATOM      5  C   UNL     1      -2.256  20.300  48.459  1.00  0.00     0.002 C 
ATOM      6  C   UNL     1      -1.298  20.510  47.260  1.00  0.00    -0.020 C 
ATOM      7  C   UNL     1      -2.208  20.503  46.026  1.00  0.00     0.016 C 
ATOM      8  C   UNL     1      -3.196  19.411  46.385  1.00  0.00     0.023 C 
ATOM      9  C   UNL     1      -3.601  19.769  47.844  1.00  0.00    -0.025 C 
ATOM     10  C   UNL     1      -4.748  20.817  47.802  1.00  0.00     0.012 C 
ATOM     11  C   UNL     1      -4.136  18.548  48.634  1.00  0.00     0.012 C 
ATOM     12  C   UNL     1      -2.451  18.080  46.285  1.00  0.00    -0.045 C 
ATOM     13  C   UNL     1      -3.081  16.998  45.803  1.00  0.00     0.011 C 
ATOM     14  C   UNL     1      -1.016  17.949  46.794  1.00  0.00     0.140 C 
ATOM     15  C   UNL     1      -0.314  19.312  47.097  1.00  0.00     0.044 C 
ENDROOT
BRANCH  14  16
ATOM     16  O   UNL     1      -1.015  17.144  47.945  1.00  0.00    -0.389 OA
ATOM     17  H   UNL     1      -1.760  17.460  48.519  1.00  0.00     0.211 HD
ENDBRANCH  14  16
TORSDOF 1
ENDMDL
MODEL 2
REMARK VINA RESULT:    -5.926      4.335      6.176
REMARK INTER + INTRA:          -6.099
REMARK INTER:                  -6.099
REMARK INTRA:                   0.000
REMARK UNBOUND:                 0.000
REMARK SMILES C=C1[C@H](O)C[C@@]23C[C@@H]1C(C)(C)[C@@H]2CC[C@H]3C
REMARK SMILES IDX 16 1 15 2 14 3 13 4 12 5 6 6 7 7 8 8 9 9 10 10 11 11 2 12
REMARK SMILES IDX 1 13 3 14 5 15 4 16
REMARK H PARENT 4 17
REMARK Flexibility Score: inf
ROOT
ATOM      1  C   UNL     1      -4.916  28.169  47.673  1.00  0.00     0.008 C 
ATOM      2  C   UNL     1      -5.324  27.167  48.768  1.00  0.00    -0.008 C 
ATOM      3  C   UNL     1      -4.522  27.428  50.045  1.00  0.00     0.004 C 
ATOM      4  C   UNL     1      -3.271  26.570  49.930  1.00  0.00     0.005 C 
ATOM      5  C   UNL     1      -3.653  25.348  49.070  1.00  0.00     0.002 C 
ATOM      6  C   UNL     1      -5.021  25.681  48.424  1.00  0.00    -0.020 C 
ATOM      7  C   UNL     1      -6.018  24.739  49.110  1.00  0.00     0.016 C 
ATOM      8  C   UNL     1      -5.206  23.464  49.217  1.00  0.00     0.023 C 
ATOM      9  C   UNL     1      -3.844  23.961  49.785  1.00  0.00    -0.025 C 
ATOM     10  C   UNL     1      -3.950  24.044  51.333  1.00  0.00     0.012 C 
ATOM     11  C   UNL     1      -2.675  22.998  49.465  1.00  0.00     0.012 C 
ATOM     12  C   UNL     1      -5.085  22.889  47.806  1.00  0.00    -0.045 C 
ATOM     13  C   UNL     1      -5.138  21.561  47.621  1.00  0.00     0.011 C 
ATOM     14  C   UNL     1      -4.835  23.804  46.608  1.00  0.00     0.140 C 
ATOM     15  C   UNL     1      -5.040  25.324  46.907  1.00  0.00     0.044 C 
ENDROOT
BRANCH  14  16
ATOM     16  O   UNL     1      -3.533  23.581  46.131  1.00  0.00    -0.389 OA
ATOM     17  H   UNL     1      -3.218  22.732  46.538  1.00  0.00     0.211 HD
ENDBRANCH  14  16
TORSDOF 1
ENDMDL
MODEL 3
REMARK VINA RESULT:    -5.901      4.152      6.301
REMARK INTER + INTRA:          -6.074
REMARK INTER:                  -6.074
REMARK INTRA:                   0.000
REMARK UNBOUND:                 0.000
REMARK SMILES C=C1[C@H](O)C[C@@]23C[C@@H]1C(C)(C)[C@@H]2CC[C@H]3C
REMARK SMILES IDX 16 1 15 2 14 3 13 4 12 5 6 6 7 7 8 8 9 9 10 10 11 11 2 12
REMARK SMILES IDX 1 13 3 14 5 15 4 16
REMARK H PARENT 4 17
REMARK Flexibility Score: inf
ROOT
ATOM      1  C   UNL     1      -6.514  27.125  49.680  1.00  0.00     0.008 C 
ATOM      2  C   UNL     1      -5.506  26.290  50.491  1.00  0.00    -0.008 C 
ATOM      3  C   UNL     1      -4.237  27.104  50.750  1.00  0.00     0.004 C 
ATOM      4  C   UNL     1      -3.312  26.813  49.577  1.00  0.00     0.005 C 
ATOM      5  C   UNL     1      -3.658  25.392  49.086  1.00  0.00     0.002 C 
ATOM      6  C   UNL     1      -4.998  25.013  49.765  1.00  0.00    -0.020 C 
ATOM      7  C   UNL     1      -4.631  23.913  50.769  1.00  0.00     0.016 C 
ATOM      8  C   UNL     1      -3.605  23.119  49.987  1.00  0.00     0.023 C 
ATOM      9  C   UNL     1      -2.663  24.222  49.421  1.00  0.00    -0.025 C 
ATOM     10  C   UNL     1      -1.599  24.572  50.498  1.00  0.00     0.012 C 
ATOM     11  C   UNL     1      -1.892  23.762  48.159  1.00  0.00     0.012 C 
ATOM     12  C   UNL     1      -4.358  22.364  48.892  1.00  0.00    -0.045 C 
ATOM     13  C   UNL     1      -3.985  21.118  48.564  1.00  0.00     0.011 C 
ATOM     14  C   UNL     1      -5.491  23.037  48.118  1.00  0.00     0.140 C 
ATOM     15  C   UNL     1      -5.994  24.375  48.749  1.00  0.00     0.044 C 
ENDROOT
BRANCH  14  16
ATOM     16  O   UNL     1      -5.068  23.260  46.798  1.00  0.00    -0.389 OA
ATOM     17  H   UNL     1      -5.363  22.477  46.264  1.00  0.00     0.211 HD
ENDBRANCH  14  16
TORSDOF 1
ENDMDL
MODEL 4
REMARK VINA RESULT:    -5.830      2.171      4.386
REMARK INTER + INTRA:          -6.000
REMARK INTER:                  -6.000
REMARK INTRA:                   0.000
REMARK UNBOUND:                 0.000
REMARK SMILES C=C1[C@H](O)C[C@@]23C[C@@H]1C(C)(C)[C@@H]2CC[C@H]3C
REMARK SMILES IDX 16 1 15 2 14 3 13 4 12 5 6 6 7 7 8 8 9 9 10 10 11 11 2 12
REMARK SMILES IDX 1 13 3 14 5 15 4 16
REMARK H PARENT 4 17
REMARK Flexibility Score: inf
ROOT
ATOM      1  C   UNL     1      -1.729  16.548  50.331  1.00  0.00     0.008 C 
ATOM      2  C   UNL     1      -2.682  16.568  49.122  1.00  0.00    -0.008 C 
ATOM      3  C   UNL     1      -2.018  15.897  47.918  1.00  0.00     0.004 C 
ATOM      4  C   UNL     1      -1.289  17.009  47.176  1.00  0.00     0.005 C 
ATOM      5  C   UNL     1      -2.072  18.309  47.452  1.00  0.00     0.002 C 
ATOM      6  C   UNL     1      -3.046  17.991  48.614  1.00  0.00    -0.020 C 
ATOM      7  C   UNL     1      -4.439  18.012  47.975  1.00  0.00     0.016 C 
ATOM      8  C   UNL     1      -4.316  19.180  47.016  1.00  0.00     0.023 C 
ATOM      9  C   UNL     1      -2.961  18.905  46.300  1.00  0.00    -0.025 C 
ATOM     10  C   UNL     1      -3.212  17.934  45.113  1.00  0.00     0.012 C 
ATOM     11  C   UNL     1      -2.326  20.187  45.707  1.00  0.00     0.012 C 
ATOM     12  C   UNL     1      -4.292  20.454  47.860  1.00  0.00    -0.045 C 
ATOM     13  C   UNL     1      -4.918  21.556  47.421  1.00  0.00     0.011 C 
ATOM     14  C   UNL     1      -3.504  20.509  49.169  1.00  0.00     0.140 C 
ATOM     15  C   UNL     1      -3.033  19.115  49.694  1.00  0.00     0.044 C 
ENDROOT
BRANCH  14  16
ATOM     16  O   UNL     1      -2.397  21.355  48.996  1.00  0.00    -0.389 OA
ATOM     17  H   UNL     1      -1.898  21.020  48.206  1.00  0.00     0.211 HD
ENDBRANCH  14  16
TORSDOF 1
ENDMDL
MODEL 5
REMARK VINA RESULT:    -5.720      4.525      6.956
REMARK INTER + INTRA:          -5.887
REMARK INTER:                  -5.887
REMARK INTRA:                   0.000
REMARK UNBOUND:                 0.000
REMARK SMILES C=C1[C@H](O)C[C@@]23C[C@@H]1C(C)(C)[C@@H]2CC[C@H]3C
REMARK SMILES IDX 16 1 15 2 14 3 13 4 12 5 6 6 7 7 8 8 9 9 10 10 11 11 2 12
REMARK SMILES IDX 1 13 3 14 5 15 4 16
REMARK H PARENT 4 17
REMARK Flexibility Score: inf
ROOT
ATOM      1  C   UNL     1      -2.785  21.627  48.524  1.00  0.00     0.008 C 
ATOM      2  C   UNL     1      -4.054  22.204  49.177  1.00  0.00    -0.008 C 
ATOM      3  C   UNL     1      -5.094  22.535  48.104  1.00  0.00     0.004 C 
ATOM      4  C   UNL     1      -4.824  23.977  47.699  1.00  0.00     0.005 C 
ATOM      5  C   UNL     1      -4.218  24.675  48.933  1.00  0.00     0.002 C 
ATOM      6  C   UNL     1      -3.837  23.549  49.926  1.00  0.00    -0.020 C 
ATOM      7  C   UNL     1      -4.825  23.702  51.089  1.00  0.00     0.016 C 
ATOM      8  C   UNL     1      -4.913  25.209  51.216  1.00  0.00     0.023 C 
ATOM      9  C   UNL     1      -5.119  25.675  49.745  1.00  0.00    -0.025 C 
ATOM     10  C   UNL     1      -6.633  25.598  49.404  1.00  0.00     0.012 C 
ATOM     11  C   UNL     1      -4.680  27.142  49.515  1.00  0.00     0.012 C 
ATOM     12  C   UNL     1      -3.588  25.688  51.810  1.00  0.00    -0.045 C 
ATOM     13  C   UNL     1      -3.580  26.695  52.696  1.00  0.00     0.011 C 
ATOM     14  C   UNL     1      -2.262  25.079  51.353  1.00  0.00     0.140 C 
ATOM     15  C   UNL     1      -2.412  23.766  50.519  1.00  0.00     0.044 C 
ENDROOT
BRANCH  14  16
ATOM     16  O   UNL     1      -1.554  26.039  50.612  1.00  0.00    -0.389 OA
ATOM     17  H   UNL     1      -0.903  26.460  51.232  1.00  0.00     0.211 HD
ENDBRANCH  14  16
TORSDOF 1
ENDMDL
MODEL 6
REMARK VINA RESULT:    -5.648      2.767      4.222
REMARK INTER + INTRA:          -5.813
REMARK INTER:                  -5.813
REMARK INTRA:                   0.000
REMARK UNBOUND:                 0.000
REMARK SMILES C=C1[C@H](O)C[C@@]23C[C@@H]1C(C)(C)[C@@H]2CC[C@H]3C
REMARK SMILES IDX 16 1 15 2 14 3 13 4 12 5 6 6 7 7 8 8 9 9 10 10 11 11 2 12
REMARK SMILES IDX 1 13 3 14 5 15 4 16
REMARK H PARENT 4 17
REMARK Flexibility Score: inf
ROOT
ATOM      1  C   UNL     1      -1.766  23.754  52.258  1.00  0.00     0.008 C 
ATOM      2  C   UNL     1      -2.379  24.486  51.050  1.00  0.00    -0.008 C 
ATOM      3  C   UNL     1      -3.793  24.964  51.386  1.00  0.00     0.004 C 
ATOM      4  C   UNL     1      -4.720  23.827  50.980  1.00  0.00     0.005 C 
ATOM      5  C   UNL     1      -4.026  23.088  49.817  1.00  0.00     0.002 C 
ATOM      6  C   UNL     1      -2.564  23.600  49.787  1.00  0.00    -0.020 C 
ATOM      7  C   UNL     1      -2.467  24.434  48.505  1.00  0.00     0.016 C 
ATOM      8  C   UNL     1      -3.295  23.607  47.542  1.00  0.00     0.023 C 
ATOM      9  C   UNL     1      -4.582  23.297  48.361  1.00  0.00    -0.025 C 
ATOM     10  C   UNL     1      -5.568  24.489  48.214  1.00  0.00     0.012 C 
ATOM     11  C   UNL     1      -5.323  22.034  47.857  1.00  0.00     0.012 C 
ATOM     12  C   UNL     1      -2.485  22.354  47.213  1.00  0.00    -0.045 C 
ATOM     13  C   UNL     1      -2.507  21.853  45.968  1.00  0.00     0.011 C 
ATOM     14  C   UNL     1      -1.703  21.622  48.303  1.00  0.00     0.140 C 
ATOM     15  C   UNL     1      -1.550  22.426  49.634  1.00  0.00     0.044 C 
ENDROOT
BRANCH  14  16
ATOM     16  O   UNL     1      -2.325  20.389  48.557  1.00  0.00    -0.389 OA
ATOM     17  H   UNL     1      -3.034  20.277  47.871  1.00  0.00     0.211 HD
ENDBRANCH  14  16
TORSDOF 1
ENDMDL
MODEL 7
REMARK VINA RESULT:    -5.562      2.500      4.396
REMARK INTER + INTRA:          -5.725
REMARK INTER:                  -5.725
REMARK INTRA:                   0.000
REMARK UNBOUND:                 0.000
REMARK SMILES C=C1[C@H](O)C[C@@]23C[C@@H]1C(C)(C)[C@@H]2CC[C@H]3C
REMARK SMILES IDX 16 1 15 2 14 3 13 4 12 5 6 6 7 7 8 8 9 9 10 10 11 11 2 12
REMARK SMILES IDX 1 13 3 14 5 15 4 16
REMARK H PARENT 4 17
REMARK Flexibility Score: inf
ROOT
ATOM      1  C   UNL     1       0.303  21.950  46.265  1.00  0.00     0.008 C 
ATOM      2  C   UNL     1      -0.476  21.263  47.401  1.00  0.00    -0.008 C 
ATOM      3  C   UNL     1      -0.918  19.864  46.966  1.00  0.00     0.004 C 
ATOM      4  C   UNL     1      -2.291  20.044  46.332  1.00  0.00     0.005 C 
ATOM      5  C   UNL     1      -2.935  21.267  47.016  1.00  0.00     0.002 C 
ATOM      6  C   UNL     1      -1.799  21.976  47.797  1.00  0.00    -0.020 C 
ATOM      7  C   UNL     1      -2.135  21.743  49.275  1.00  0.00     0.016 C 
ATOM      8  C   UNL     1      -3.643  21.897  49.271  1.00  0.00     0.023 C 
ATOM      9  C   UNL     1      -4.083  21.020  48.062  1.00  0.00    -0.025 C 
ATOM     10  C   UNL     1      -4.216  19.546  48.535  1.00  0.00     0.012 C 
ATOM     11  C   UNL     1      -5.461  21.437  47.491  1.00  0.00     0.012 C 
ATOM     12  C   UNL     1      -3.943  23.382  49.068  1.00  0.00    -0.045 C 
ATOM     13  C   UNL     1      -4.968  23.950  49.721  1.00  0.00     0.011 C 
ATOM     14  C   UNL     1      -3.131  24.213  48.075  1.00  0.00     0.140 C 
ATOM     15  C   UNL     1      -1.826  23.518  47.570  1.00  0.00     0.044 C 
ENDROOT
BRANCH  14  16
ATOM     16  O   UNL     1      -3.951  24.543  46.984  1.00  0.00    -0.389 OA
ATOM     17  H   UNL     1      -4.820  24.086  47.127  1.00  0.00     0.211 HD
ENDBRANCH  14  16
TORSDOF 1
ENDMDL
MODEL 8
REMARK VINA RESULT:    -5.539      5.134      7.285
REMARK INTER + INTRA:          -5.701
REMARK INTER:                  -5.701
REMARK INTRA:                   0.000
REMARK UNBOUND:                 0.000
REMARK SMILES C=C1[C@H](O)C[C@@]23C[C@@H]1C(C)(C)[C@@H]2CC[C@H]3C
REMARK SMILES IDX 16 1 15 2 14 3 13 4 12 5 6 6 7 7 8 8 9 9 10 10 11 11 2 12
REMARK SMILES IDX 1 13 3 14 5 15 4 16
REMARK H PARENT 4 17
REMARK Flexibility Score: inf
ROOT
ATOM      1  C   UNL     1      -1.408  24.725  51.707  1.00  0.00     0.008 C 
ATOM      2  C   UNL     1      -2.615  23.944  51.156  1.00  0.00    -0.008 C 
ATOM      3  C   UNL     1      -2.188  23.088  49.962  1.00  0.00     0.004 C 
ATOM      4  C   UNL     1      -2.382  23.966  48.734  1.00  0.00     0.005 C 
ATOM      5  C   UNL     1      -3.529  24.942  49.068  1.00  0.00     0.002 C 
ATOM      6  C   UNL     1      -3.757  24.838  50.597  1.00  0.00    -0.020 C 
ATOM      7  C   UNL     1      -5.121  24.152  50.743  1.00  0.00     0.016 C 
ATOM      8  C   UNL     1      -5.907  24.797  49.620  1.00  0.00     0.023 C 
ATOM      9  C   UNL     1      -4.935  24.698  48.408  1.00  0.00    -0.025 C 
ATOM     10  C   UNL     1      -5.101  23.302  47.746  1.00  0.00     0.012 C 
ATOM     11  C   UNL     1      -5.233  25.753  47.314  1.00  0.00     0.012 C 
ATOM     12  C   UNL     1      -6.189  26.240  50.039  1.00  0.00    -0.045 C 
ATOM     13  C   UNL     1      -7.368  26.803  49.737  1.00  0.00     0.011 C 
ATOM     14  C   UNL     1      -5.115  27.073  50.738  1.00  0.00     0.140 C 
ATOM     15  C   UNL     1      -3.893  26.245  51.253  1.00  0.00     0.044 C 
ENDROOT
BRANCH  14  16
ATOM     16  O   UNL     1      -4.677  28.077  49.859  1.00  0.00    -0.389 OA
ATOM     17  H   UNL     1      -4.939  28.946  50.261  1.00  0.00     0.211 HD
ENDBRANCH  14  16
TORSDOF 1
ENDMDL
MODEL 9
REMARK VINA RESULT:    -5.392      4.266      6.327
REMARK INTER + INTRA:          -5.550
REMARK INTER:                  -5.550
REMARK INTRA:                   0.000
REMARK UNBOUND:                 0.000
REMARK SMILES C=C1[C@H](O)C[C@@]23C[C@@H]1C(C)(C)[C@@H]2CC[C@H]3C
REMARK SMILES IDX 16 1 15 2 14 3 13 4 12 5 6 6 7 7 8 8 9 9 10 10 11 11 2 12
REMARK SMILES IDX 1 13 3 14 5 15 4 16
REMARK H PARENT 4 17
REMARK Flexibility Score: inf
ROOT
ATOM      1  C   UNL     1      -2.364  21.957  46.308  1.00  0.00     0.008 C 
ATOM      2  C   UNL     1      -2.362  22.751  47.627  1.00  0.00    -0.008 C 
ATOM      3  C   UNL     1      -2.823  21.857  48.780  1.00  0.00     0.004 C 
ATOM      4  C   UNL     1      -4.334  22.023  48.853  1.00  0.00     0.005 C 
ATOM      5  C   UNL     1      -4.646  23.441  48.333  1.00  0.00     0.002 C 
ATOM      6  C   UNL     1      -3.349  23.952  47.657  1.00  0.00    -0.020 C 
ATOM      7  C   UNL     1      -2.840  25.066  48.578  1.00  0.00     0.016 C 
ATOM      8  C   UNL     1      -4.135  25.744  48.979  1.00  0.00     0.023 C 
ATOM      9  C   UNL     1      -5.049  24.548  49.375  1.00  0.00    -0.025 C 
ATOM     10  C   UNL     1      -4.767  24.171  50.855  1.00  0.00     0.012 C 
ATOM     11  C   UNL     1      -6.557  24.889  49.276  1.00  0.00     0.012 C 
ATOM     12  C   UNL     1      -4.645  26.501  47.753  1.00  0.00    -0.045 C 
ATOM     13  C   UNL     1      -5.230  27.698  47.906  1.00  0.00     0.011 C 
ATOM     14  C   UNL     1      -4.558  25.879  46.360  1.00  0.00     0.140 C 
ATOM     15  C   UNL     1      -3.645  24.613  46.277  1.00  0.00     0.044 C 
ENDROOT
BRANCH  14  16
ATOM     16  O   UNL     1      -5.855  25.563  45.923  1.00  0.00    -0.389 OA
ATOM     17  H   UNL     1      -6.066  26.181  45.176  1.00  0.00     0.211 HD
ENDBRANCH  14  16
TORSDOF 1
ENDMDL
