MODEL 1
REMARK VINA RESULT:    -2.661      0.000      0.000
REMARK INTER + INTRA:          -2.661
REMARK INTER:                  -2.661
REMARK INTRA:                   0.000
REMARK UNBOUND:                 0.000
REMARK SMILES Cc1cc2cc3c(C)cc(=O)oc3c(C)c2o1
REMARK SMILES IDX 8 1 7 2 9 3 10 4 11 5 12 6 13 7 6 8 5 9 4 10 3 11 2 12 17 13
REMARK SMILES IDX 16 14 14 15 15 16 1 17
REMARK H PARENT
REMARK Flexibility Score: inf
ROOT
ATOM      1  C   UNL     1      14.483  18.970  -4.125  1.00  0.00     0.045 C 
ATOM      2  C   UNL     1      13.276  19.567  -3.450  1.00  0.00    -0.033 A 
ATOM      3  C   UNL     1      12.040  18.914  -3.552  1.00  0.00     0.098 A 
ATOM      4  C   UNL     1      10.917  19.462  -2.932  1.00  0.00     0.336 A 
ATOM      5  O   UNL     1       9.804  18.880  -3.022  1.00  0.00    -0.246 OA
ATOM      6  O   UNL     1      11.009  20.594  -2.246  1.00  0.00    -0.422 OA
ATOM      7  C   UNL     1      12.150  21.265  -2.106  1.00  0.00     0.145 A 
ATOM      8  C   UNL     1      13.348  20.772  -2.715  1.00  0.00     0.022 A 
ATOM      9  C   UNL     1      14.555  21.498  -2.569  1.00  0.00     0.024 A 
ATOM     10  C   UNL     1      14.525  22.677  -1.835  1.00  0.00     0.022 A 
ATOM     11  C   UNL     1      15.527  23.576  -1.547  1.00  0.00     0.054 A 
ATOM     12  C   UNL     1      14.898  24.555  -0.786  1.00  0.00     0.102 A 
ATOM     13  O   UNL     1      13.618  24.277  -0.629  1.00  0.00    -0.461 OA
ATOM     14  C   UNL     1      13.380  23.148  -1.253  1.00  0.00     0.140 A 
ATOM     15  C   UNL     1      12.165  22.465  -1.355  1.00  0.00     0.036 A 
ATOM     16  C   UNL     1      10.911  23.012  -0.734  1.00  0.00     0.052 C 
ATOM     17  C   UNL     1      15.560  25.773  -0.236  1.00  0.00     0.087 C 
ENDROOT
TORSDOF 0
ENDMDL
MODEL 2
REMARK VINA RESULT:    -2.215     14.852     17.564
REMARK INTER + INTRA:          -2.215
REMARK INTER:                  -2.215
REMARK INTRA:                   0.000
REMARK UNBOUND:                 0.000
REMARK SMILES Cc1cc2cc3c(C)cc(=O)oc3c(C)c2o1
REMARK SMILES IDX 8 1 7 2 9 3 10 4 11 5 12 6 13 7 6 8 5 9 4 10 3 11 2 12 17 13
REMARK SMILES IDX 16 14 14 15 15 16 1 17
REMARK H PARENT
REMARK Flexibility Score: inf
ROOT
ATOM      1  C   UNL     1      21.076  25.154  16.125  1.00  0.00     0.045 C 
ATOM      2  C   UNL     1      21.085  23.844  15.380  1.00  0.00    -0.033 A 
ATOM      3  C   UNL     1      21.100  22.644  16.103  1.00  0.00     0.098 A 
ATOM      4  C   UNL     1      21.110  21.428  15.421  1.00  0.00     0.336 A 
ATOM      5  O   UNL     1      21.125  20.346  16.067  1.00  0.00    -0.246 OA
ATOM      6  O   UNL     1      21.104  21.397  14.094  1.00  0.00    -0.422 OA
ATOM      7  C   UNL     1      21.087  22.497  13.346  1.00  0.00     0.145 A 
ATOM      8  C   UNL     1      21.080  23.785  13.969  1.00  0.00     0.022 A 
ATOM      9  C   UNL     1      21.072  24.951  13.163  1.00  0.00     0.024 A 
ATOM     10  C   UNL     1      21.077  24.792  11.782  1.00  0.00     0.022 A 
ATOM     11  C   UNL     1      21.084  25.730  10.775  1.00  0.00     0.054 A 
ATOM     12  C   UNL     1      21.094  24.976   9.607  1.00  0.00     0.102 A 
ATOM     13  O   UNL     1      21.096  23.685   9.882  1.00  0.00    -0.461 OA
ATOM     14  C   UNL     1      21.084  23.560  11.187  1.00  0.00     0.140 A 
ATOM     15  C   UNL     1      21.078  22.379  11.935  1.00  0.00     0.036 A 
ATOM     16  C   UNL     1      21.116  21.035  11.265  1.00  0.00     0.052 C 
ATOM     17  C   UNL     1      21.121  25.534   8.225  1.00  0.00     0.087 C 
ENDROOT
TORSDOF 0
ENDMDL
MODEL 3
REMARK VINA RESULT:    -0.131      1.784      5.656
REMARK INTER + INTRA:          -0.131
REMARK INTER:                  -0.131
REMARK INTRA:                   0.000
REMARK UNBOUND:                 0.000
REMARK SMILES Cc1cc2cc3c(C)cc(=O)oc3c(C)c2o1
REMARK SMILES IDX 8 1 7 2 9 3 10 4 11 5 12 6 13 7 6 8 5 9 4 10 3 11 2 12 17 13
REMARK SMILES IDX 16 14 14 15 15 16 1 17
REMARK H PARENT
REMARK Flexibility Score: inf
ROOT
ATOM      1  C   UNL     1      14.267  22.148   2.097  1.00  0.00     0.045 C 
ATOM      2  C   UNL     1      14.414  22.854   0.775  1.00  0.00    -0.033 A 
ATOM      3  C   UNL     1      15.155  24.041   0.710  1.00  0.00     0.098 A 
ATOM      4  C   UNL     1      15.294  24.702  -0.511  1.00  0.00     0.336 A 
ATOM      5  O   UNL     1      15.959  25.770  -0.574  1.00  0.00    -0.246 OA
ATOM      6  O   UNL     1      14.731  24.216  -1.610  1.00  0.00    -0.422 OA
ATOM      7  C   UNL     1      14.016  23.094  -1.621  1.00  0.00     0.145 A 
ATOM      8  C   UNL     1      13.823  22.358  -0.409  1.00  0.00     0.022 A 
ATOM      9  C   UNL     1      13.052  21.170  -0.429  1.00  0.00     0.024 A 
ATOM     10  C   UNL     1      12.503  20.766  -1.640  1.00  0.00     0.022 A 
ATOM     11  C   UNL     1      11.714  19.680  -1.945  1.00  0.00     0.054 A 
ATOM     12  C   UNL     1      11.472  19.807  -3.308  1.00  0.00     0.102 A 
ATOM     13  O   UNL     1      12.062  20.885  -3.791  1.00  0.00    -0.461 OA
ATOM     14  C   UNL     1      12.688  21.470  -2.798  1.00  0.00     0.140 A 
ATOM     15  C   UNL     1      13.450  22.640  -2.837  1.00  0.00     0.036 A 
ATOM     16  C   UNL     1      13.618  23.417  -4.112  1.00  0.00     0.052 C 
ATOM     17  C   UNL     1      10.642  18.875  -4.124  1.00  0.00     0.087 C 
ENDROOT
TORSDOF 0
ENDMDL
MODEL 4
REMARK VINA RESULT:     0.002      1.853      5.485
REMARK INTER + INTRA:           0.002
REMARK INTER:                   0.002
REMARK INTRA:                   0.000
REMARK UNBOUND:                 0.000
REMARK SMILES Cc1cc2cc3c(C)cc(=O)oc3c(C)c2o1
REMARK SMILES IDX 8 1 7 2 9 3 10 4 11 5 12 6 13 7 6 8 5 9 4 10 3 11 2 12 17 13
REMARK SMILES IDX 16 14 14 15 15 16 1 17
REMARK H PARENT
REMARK Flexibility Score: inf
ROOT
ATOM      1  C   UNL     1      15.104  25.029  -2.583  1.00  0.00     0.045 C 
ATOM      2  C   UNL     1      14.990  23.976  -1.512  1.00  0.00    -0.033 A 
ATOM      3  C   UNL     1      15.723  24.122  -0.326  1.00  0.00     0.098 A 
ATOM      4  C   UNL     1      15.623  23.151   0.670  1.00  0.00     0.336 A 
ATOM      5  O   UNL     1      16.281  23.277   1.737  1.00  0.00    -0.246 OA
ATOM      6  O   UNL     1      14.842  22.092   0.505  1.00  0.00    -0.422 OA
ATOM      7  C   UNL     1      14.118  21.891  -0.592  1.00  0.00     0.145 A 
ATOM      8  C   UNL     1      14.166  22.839  -1.664  1.00  0.00     0.022 A 
ATOM      9  C   UNL     1      13.399  22.611  -2.833  1.00  0.00     0.024 A 
ATOM     10  C   UNL     1      12.625  21.459  -2.895  1.00  0.00     0.022 A 
ATOM     11  C   UNL     1      11.807  20.985  -3.894  1.00  0.00     0.054 A 
ATOM     12  C   UNL     1      11.307  19.790  -3.388  1.00  0.00     0.102 A 
ATOM     13  O   UNL     1      11.786  19.555  -2.180  1.00  0.00    -0.461 OA
ATOM     14  C   UNL     1      12.580  20.553  -1.870  1.00  0.00     0.140 A 
ATOM     15  C   UNL     1      13.306  20.735  -0.690  1.00  0.00     0.036 A 
ATOM     16  C   UNL     1      13.266  19.715   0.412  1.00  0.00     0.052 C 
ATOM     17  C   UNL     1      10.375  18.875  -4.106  1.00  0.00     0.087 C 
ENDROOT
TORSDOF 0
ENDMDL
MODEL 5
REMARK VINA RESULT:     0.240      1.688      2.176
REMARK INTER + INTRA:           0.240
REMARK INTER:                   0.240
REMARK INTRA:                   0.000
REMARK UNBOUND:                 0.000
REMARK SMILES Cc1cc2cc3c(C)cc(=O)oc3c(C)c2o1
REMARK SMILES IDX 8 1 7 2 9 3 10 4 11 5 12 6 13 7 6 8 5 9 4 10 3 11 2 12 17 13
REMARK SMILES IDX 16 14 14 15 15 16 1 17
REMARK H PARENT
REMARK Flexibility Score: inf
ROOT
ATOM      1  C   UNL     1      12.652  18.883   0.499  1.00  0.00     0.045 C 
ATOM      2  C   UNL     1      12.516  19.542  -0.848  1.00  0.00    -0.033 A 
ATOM      3  C   UNL     1      11.831  18.875  -1.873  1.00  0.00     0.098 A 
ATOM      4  C   UNL     1      11.702  19.479  -3.124  1.00  0.00     0.336 A 
ATOM      5  O   UNL     1      11.089  18.882  -4.048  1.00  0.00    -0.246 OA
ATOM      6  O   UNL     1      12.222  20.679  -3.351  1.00  0.00    -0.422 OA
ATOM      7  C   UNL     1      12.882  21.369  -2.425  1.00  0.00     0.145 A 
ATOM      8  C   UNL     1      13.061  20.818  -1.116  1.00  0.00     0.022 A 
ATOM      9  C   UNL     1      13.773  21.556  -0.139  1.00  0.00     0.024 A 
ATOM     10  C   UNL     1      14.280  22.799  -0.499  1.00  0.00     0.022 A 
ATOM     11  C   UNL     1      15.010  23.711   0.230  1.00  0.00     0.054 A 
ATOM     12  C   UNL     1      15.234  24.756  -0.659  1.00  0.00     0.102 A 
ATOM     13  O   UNL     1      14.688  24.499  -1.834  1.00  0.00    -0.461 OA
ATOM     14  C   UNL     1      14.109  23.325  -1.750  1.00  0.00     0.140 A 
ATOM     15  C   UNL     1      13.403  22.645  -2.746  1.00  0.00     0.036 A 
ATOM     16  C   UNL     1      13.251  23.225  -4.124  1.00  0.00     0.052 C 
ATOM     17  C   UNL     1      16.004  25.996  -0.352  1.00  0.00     0.087 C 
ENDROOT
TORSDOF 0
ENDMDL
