MODEL 1
REMARK VINA RESULT:    -3.891      0.000      0.000
REMARK INTER + INTRA:          -5.537
REMARK INTER:                  -5.711
REMARK INTRA:                   0.174
REMARK UNBOUND:                 0.174
REMARK SMILES C=C1CC=CC(C)(C)CC=C(C)CCC1
REMARK SMILES IDX 2 1 1 2 15 3 14 4 13 5 11 6 12 7 10 8 3 10 4 11 5 12 6 13
REMARK SMILES IDX 7 14 8 15 9 16
REMARK H PARENT
REMARK Flexibility Score: 60.00
ROOT
ATOM      1  C   UNL     1      10.419   4.480  28.051  1.00  0.00    -0.074 C 
ATOM      2  C   UNL     1       9.485   3.517  27.982  1.00  0.00     0.008 C 
ENDROOT
BRANCH   1   3
ATOM      3  C   UNL     1      10.591   5.243  29.357  1.00  0.00     0.031 C 
BRANCH   3   4
ATOM      4  C   UNL     1       9.337   6.040  29.747  1.00  0.00     0.009 C 
BRANCH   4   5
ATOM      5  C   UNL     1       8.917   7.080  28.688  1.00  0.00     0.030 C 
BRANCH   5   6
ATOM      6  C   UNL     1       9.799   8.323  28.677  1.00  0.00    -0.077 C 
ATOM      7  C   UNL     1       9.743   9.259  29.864  1.00  0.00     0.039 C 
ATOM      8  C   UNL     1      10.571   8.704  27.629  1.00  0.00    -0.027 CG0
ATOM      9  G   UNL     1      10.631   8.070  26.258  1.00  0.00     0.000 G0
ENDBRANCH   5   6
ENDBRANCH   4   5
ENDBRANCH   3   4
ENDBRANCH   1   3
BRANCH   1  10
ATOM     10  C   UNL     1      11.270   4.743  26.818  1.00  0.00     0.057 C 
BRANCH  10  11
ATOM     11  C   UNL     1      12.501   5.563  27.104  1.00  0.00    -0.026 C 
ATOM     12  C   UNL     1      12.844   6.778  26.621  1.00  0.00    -0.024 C 
BRANCH  12  13
ATOM     13  C   UNL     1      12.074   7.747  25.709  1.00  0.00    -0.014 C 
ATOM     14  C   UNL     1      12.895   9.019  25.379  1.00  0.00     0.016 C 
ATOM     15  C   UNL     1      11.876   7.007  24.359  1.00  0.00     0.016 C 
BRANCH  13  16
ATOM     16  C   UNL     1      10.643   8.062  26.247  1.00  0.00     0.038 CG0
ATOM     17  G   UNL     1      10.572   8.702  27.615  1.00  0.00     0.000 G0
ENDBRANCH  13  16
ENDBRANCH  12  13
ENDBRANCH  10  11
ENDBRANCH   1  10
TORSDOF 0
ENDMDL
MODEL 2
REMARK VINA RESULT:    -3.693     12.062     14.143
REMARK INTER + INTRA:          -5.246
REMARK INTER:                  -5.647
REMARK INTRA:                   0.401
REMARK UNBOUND:                 0.174
REMARK SMILES C=C1CC=CC(C)(C)CC=C(C)CCC1
REMARK SMILES IDX 2 1 1 2 15 3 14 4 13 5 11 6 12 7 10 8 3 10 4 11 5 12 6 13
REMARK SMILES IDX 7 14 8 15 9 16
REMARK H PARENT
REMARK Flexibility Score: 60.00
ROOT
ATOM      1  C   UNL     1       6.475   8.492  16.410  1.00  0.00    -0.074 C 
ATOM      2  C   UNL     1       6.097   9.764  16.196  1.00  0.00     0.008 C 
ENDROOT
BRANCH   1   3
ATOM      3  C   UNL     1       5.917   7.755  17.619  1.00  0.00     0.031 C 
BRANCH   3   4
ATOM      4  C   UNL     1       4.380   7.758  17.658  1.00  0.00     0.009 C 
BRANCH   4   5
ATOM      5  C   UNL     1       3.740   6.817  16.616  1.00  0.00     0.030 C 
BRANCH   5   6
ATOM      6  C   UNL     1       3.403   7.511  15.301  1.00  0.00    -0.077 C 
ATOM      7  C   UNL     1       2.236   8.471  15.269  1.00  0.00     0.039 C 
ATOM      8  C   UNL     1       4.024   7.257  14.122  1.00  0.00    -0.027 CG0
ATOM      9  G   UNL     1       5.060   6.192  13.844  1.00  0.00     0.000 G0
ENDBRANCH   5   6
ENDBRANCH   4   5
ENDBRANCH   3   4
ENDBRANCH   1   3
BRANCH   1  10
ATOM     10  C   UNL     1       7.430   7.850  15.416  1.00  0.00     0.057 C 
BRANCH  10  11
ATOM     11  C   UNL     1       7.319   8.418  14.026  1.00  0.00    -0.026 C 
ATOM     12  C   UNL     1       6.808   7.846  12.912  1.00  0.00    -0.024 C 
BRANCH  12  13
ATOM     13  C   UNL     1       6.107   6.493  12.713  1.00  0.00    -0.014 C 
ATOM     14  C   UNL     1       5.527   6.337  11.285  1.00  0.00     0.016 C 
ATOM     15  C   UNL     1       7.211   5.409  12.843  1.00  0.00     0.016 C 
BRANCH  13  16
ATOM     16  C   UNL     1       5.065   6.190  13.835  1.00  0.00     0.038 CG0
ATOM     17  G   UNL     1       4.043   7.272  14.104  1.00  0.00     0.000 G0
ENDBRANCH  13  16
ENDBRANCH  12  13
ENDBRANCH  10  11
ENDBRANCH   1  10
TORSDOF 0
ENDMDL
MODEL 3
REMARK VINA RESULT:    -3.624      1.286      3.453
REMARK INTER + INTRA:          -5.145
REMARK INTER:                  -5.594
REMARK INTRA:                   0.449
REMARK UNBOUND:                 0.174
REMARK SMILES C=C1CC=CC(C)(C)CC=C(C)CCC1
REMARK SMILES IDX 2 1 1 2 15 3 14 4 13 5 11 6 12 7 10 8 3 10 4 11 5 12 6 13
REMARK SMILES IDX 7 14 8 15 9 16
REMARK H PARENT
REMARK Flexibility Score: 60.00
ROOT
ATOM      1  C   UNL     1       9.086   7.045  29.755  1.00  0.00    -0.074 C 
ATOM      2  C   UNL     1       9.243   7.840  30.826  1.00  0.00     0.008 C 
ENDROOT
BRANCH   1   3
ATOM      3  C   UNL     1       8.907   5.549  29.972  1.00  0.00     0.031 C 
BRANCH   3   4
ATOM      4  C   UNL     1      10.171   4.876  30.533  1.00  0.00     0.009 C 
BRANCH   4   5
ATOM      5  C   UNL     1      11.240   4.589  29.458  1.00  0.00     0.030 C 
BRANCH   5   6
ATOM      6  C   UNL     1      10.658   4.385  28.064  1.00  0.00    -0.077 C 
ATOM      7  C   UNL     1       9.736   3.210  27.831  1.00  0.00     0.039 C 
ATOM      8  C   UNL     1      10.983   5.136  26.983  1.00  0.00    -0.027 CG0
ATOM      9  G   UNL     1      12.037   6.217  26.903  1.00  0.00     0.000 G0
ENDBRANCH   5   6
ENDBRANCH   4   5
ENDBRANCH   3   4
ENDBRANCH   1   3
BRANCH   1  10
ATOM     10  C   UNL     1       9.079   7.689  28.377  1.00  0.00     0.057 C 
BRANCH  10  11
ATOM     11  C   UNL     1      10.189   8.685  28.176  1.00  0.00    -0.026 C 
ATOM     12  C   UNL     1      11.246   8.622  27.336  1.00  0.00    -0.024 C 
BRANCH  12  13
ATOM     13  C   UNL     1      11.615   7.580  26.267  1.00  0.00    -0.014 C 
ATOM     14  C   UNL     1      10.515   7.434  25.187  1.00  0.00     0.016 C 
ATOM     15  C   UNL     1      12.862   8.137  25.530  1.00  0.00     0.016 C 
BRANCH  13  16
ATOM     16  C   UNL     1      12.049   6.216  26.890  1.00  0.00     0.038 CG0
ATOM     17  G   UNL     1      10.975   5.157  26.988  1.00  0.00     0.000 G0
ENDBRANCH  13  16
ENDBRANCH  12  13
ENDBRANCH  10  11
ENDBRANCH   1  10
TORSDOF 0
ENDMDL
MODEL 4
REMARK VINA RESULT:    -3.596      2.301      5.939
REMARK INTER + INTRA:          -5.103
REMARK INTER:                  -5.461
REMARK INTRA:                   0.358
REMARK UNBOUND:                 0.174
REMARK SMILES C=C1CC=CC(C)(C)CC=C(C)CCC1
REMARK SMILES IDX 2 1 1 2 15 3 14 4 13 5 11 6 12 7 10 8 3 10 4 11 5 12 6 13
REMARK SMILES IDX 7 14 8 15 9 16
REMARK H PARENT
REMARK Flexibility Score: 60.00
ROOT
ATOM      1  C   UNL     1      15.151   8.779  24.133  1.00  0.00    -0.074 C 
ATOM      2  C   UNL     1      16.245   8.001  24.078  1.00  0.00     0.008 C 
ENDROOT
BRANCH   1   3
ATOM      3  C   UNL     1      14.800   9.638  22.926  1.00  0.00     0.031 C 
BRANCH   3   4
ATOM      4  C   UNL     1      13.955   8.882  21.888  1.00  0.00     0.009 C 
BRANCH   4   5
ATOM      5  C   UNL     1      12.436   8.993  22.135  1.00  0.00     0.030 C 
BRANCH   5   6
ATOM      6  C   UNL     1      11.760   7.647  22.363  1.00  0.00    -0.077 C 
ATOM      7  C   UNL     1      11.497   6.759  21.167  1.00  0.00     0.039 C 
ATOM      8  C   UNL     1      11.288   7.221  23.561  1.00  0.00    -0.027 CG0
ATOM      9  G   UNL     1      11.226   8.006  24.851  1.00  0.00     0.000 G0
ENDBRANCH   5   6
ENDBRANCH   4   5
ENDBRANCH   3   4
ENDBRANCH   1   3
BRANCH   1  10
ATOM     10  C   UNL     1      14.310   8.746  25.399  1.00  0.00     0.057 C 
BRANCH  10  11
ATOM     11  C   UNL     1      14.102   7.358  25.944  1.00  0.00    -0.026 C 
ATOM     12  C   UNL     1      12.949   6.746  26.296  1.00  0.00    -0.024 C 
BRANCH  12  13
ATOM     13  C   UNL     1      11.490   7.216  26.181  1.00  0.00    -0.014 C 
ATOM     14  C   UNL     1      10.482   6.065  26.418  1.00  0.00     0.016 C 
ATOM     15  C   UNL     1      11.266   8.223  27.340  1.00  0.00     0.016 C 
BRANCH  13  16
ATOM     16  C   UNL     1      11.221   8.004  24.860  1.00  0.00     0.038 CG0
ATOM     17  G   UNL     1      11.292   7.203  23.580  1.00  0.00     0.000 G0
ENDBRANCH  13  16
ENDBRANCH  12  13
ENDBRANCH  10  11
ENDBRANCH   1  10
TORSDOF 0
ENDMDL
MODEL 5
REMARK VINA RESULT:    -3.523      3.496      5.722
REMARK INTER + INTRA:          -4.996
REMARK INTER:                  -5.255
REMARK INTRA:                   0.259
REMARK UNBOUND:                 0.174
REMARK SMILES C=C1CC=CC(C)(C)CC=C(C)CCC1
REMARK SMILES IDX 2 1 1 2 15 3 14 4 13 5 11 6 12 7 10 8 3 10 4 11 5 12 6 13
REMARK SMILES IDX 7 14 8 15 9 16
REMARK H PARENT
REMARK Flexibility Score: 60.00
ROOT
ATOM      1  C   UNL     1      12.670   8.312  21.543  1.00  0.00    -0.074 C 
ATOM      2  C   UNL     1      12.150   9.494  21.171  1.00  0.00     0.008 C 
ENDROOT
BRANCH   1   3
ATOM      3  C   UNL     1      11.750   7.103  21.638  1.00  0.00     0.031 C 
BRANCH   3   4
ATOM      4  C   UNL     1      10.900   7.104  22.918  1.00  0.00     0.009 C 
BRANCH   4   5
ATOM      5  C   UNL     1      11.678   6.654  24.171  1.00  0.00     0.030 C 
BRANCH   5   6
ATOM      6  C   UNL     1      12.036   7.803  25.107  1.00  0.00    -0.077 C 
ATOM      7  C   UNL     1      10.974   8.828  25.431  1.00  0.00     0.039 C 
ATOM      8  C   UNL     1      13.278   8.026  25.603  1.00  0.00    -0.027 CG0
ATOM      9  G   UNL     1      14.549   7.284  25.256  1.00  0.00     0.000 G0
ENDBRANCH   5   6
ENDBRANCH   4   5
ENDBRANCH   3   4
ENDBRANCH   1   3
BRANCH   1  10
ATOM     10  C   UNL     1      14.161   8.244  21.833  1.00  0.00     0.057 C 
BRANCH  10  11
ATOM     11  C   UNL     1      14.659   9.383  22.683  1.00  0.00    -0.026 C 
ATOM     12  C   UNL     1      15.275   9.341  23.886  1.00  0.00    -0.024 C 
BRANCH  12  13
ATOM     13  C   UNL     1      15.742   8.144  24.730  1.00  0.00    -0.014 C 
ATOM     14  C   UNL     1      16.822   7.301  24.006  1.00  0.00     0.016 C 
ATOM     15  C   UNL     1      16.438   8.741  25.982  1.00  0.00     0.016 C 
BRANCH  13  16
ATOM     16  C   UNL     1      14.549   7.288  25.260  1.00  0.00     0.038 CG0
ATOM     17  G   UNL     1      13.281   8.042  25.588  1.00  0.00     0.000 G0
ENDBRANCH  13  16
ENDBRANCH  12  13
ENDBRANCH  10  11
ENDBRANCH   1  10
TORSDOF 0
ENDMDL
MODEL 6
REMARK VINA RESULT:    -3.519      9.992     11.635
REMARK INTER + INTRA:          -4.991
REMARK INTER:                  -5.301
REMARK INTRA:                   0.310
REMARK UNBOUND:                 0.174
REMARK SMILES C=C1CC=CC(C)(C)CC=C(C)CCC1
REMARK SMILES IDX 2 1 1 2 15 3 14 4 13 5 11 6 12 7 10 8 3 10 4 11 5 12 6 13
REMARK SMILES IDX 7 14 8 15 9 16
REMARK H PARENT
REMARK Flexibility Score: 60.00
ROOT
ATOM      1  C   UNL     1       2.284   9.120  18.376  1.00  0.00    -0.074 C 
ATOM      2  C   UNL     1       1.293   8.229  18.543  1.00  0.00     0.008 C 
ENDROOT
BRANCH   1   3
ATOM      3  C   UNL     1       2.734   9.948  19.572  1.00  0.00     0.031 C 
BRANCH   3   4
ATOM      4  C   UNL     1       3.519   9.122  20.603  1.00  0.00     0.009 C 
BRANCH   4   5
ATOM      5  C   UNL     1       5.049   9.233  20.440  1.00  0.00     0.030 C 
BRANCH   5   6
ATOM      6  C   UNL     1       5.704   7.939  19.974  1.00  0.00    -0.077 C 
ATOM      7  C   UNL     1       5.997   6.867  21.000  1.00  0.00     0.039 C 
ATOM      8  C   UNL     1       6.132   7.712  18.707  1.00  0.00    -0.027 CG0
ATOM      9  G   UNL     1       6.158   8.696  17.560  1.00  0.00     0.000 G0
ENDBRANCH   5   6
ENDBRANCH   4   5
ENDBRANCH   3   4
ENDBRANCH   1   3
BRANCH   1  10
ATOM     10  C   UNL     1       2.918   9.240  16.999  1.00  0.00     0.057 C 
BRANCH  10  11
ATOM     11  C   UNL     1       3.287   7.912  16.392  1.00  0.00    -0.026 C 
ATOM     12  C   UNL     1       4.501   7.464  16.003  1.00  0.00    -0.024 C 
BRANCH  12  13
ATOM     13  C   UNL     1       5.893   8.107  16.126  1.00  0.00    -0.014 C 
ATOM     14  C   UNL     1       7.020   7.163  15.638  1.00  0.00     0.016 C 
ATOM     15  C   UNL     1       5.900   9.315  15.152  1.00  0.00     0.016 C 
BRANCH  13  16
ATOM     16  C   UNL     1       6.156   8.692  17.549  1.00  0.00     0.038 CG0
ATOM     17  G   UNL     1       6.114   7.704  18.693  1.00  0.00     0.000 G0
ENDBRANCH  13  16
ENDBRANCH  12  13
ENDBRANCH  10  11
ENDBRANCH   1  10
TORSDOF 0
ENDMDL
MODEL 7
REMARK VINA RESULT:    -3.467      3.225      5.796
REMARK INTER + INTRA:          -4.914
REMARK INTER:                  -5.164
REMARK INTRA:                   0.249
REMARK UNBOUND:                 0.174
REMARK SMILES C=C1CC=CC(C)(C)CC=C(C)CCC1
REMARK SMILES IDX 2 1 1 2 15 3 14 4 13 5 11 6 12 7 10 8 3 10 4 11 5 12 6 13
REMARK SMILES IDX 7 14 8 15 9 16
REMARK H PARENT
REMARK Flexibility Score: 60.00
ROOT
ATOM      1  C   UNL     1      11.616   7.393  25.412  1.00  0.00    -0.074 C 
ATOM      2  C   UNL     1      10.757   7.004  26.370  1.00  0.00     0.008 C 
ENDROOT
BRANCH   1   3
ATOM      3  C   UNL     1      12.833   8.217  25.810  1.00  0.00     0.031 C 
BRANCH   3   4
ATOM      4  C   UNL     1      12.894   9.571  25.086  1.00  0.00     0.009 C 
BRANCH   4   5
ATOM      5  C   UNL     1      14.205   9.788  24.301  1.00  0.00     0.030 C 
BRANCH   5   6
ATOM      6  C   UNL     1      14.586   8.605  23.419  1.00  0.00    -0.077 C 
ATOM      7  C   UNL     1      15.750   7.737  23.839  1.00  0.00     0.039 C 
ATOM      8  C   UNL     1      14.009   8.325  22.225  1.00  0.00    -0.027 CG0
ATOM      9  G   UNL     1      12.987   9.158  21.484  1.00  0.00     0.000 G0
ENDBRANCH   5   6
ENDBRANCH   4   5
ENDBRANCH   3   4
ENDBRANCH   1   3
BRANCH   1  10
ATOM     10  C   UNL     1      11.334   6.970  23.979  1.00  0.00     0.057 C 
BRANCH  10  11
ATOM     11  C   UNL     1      10.391   7.894  23.257  1.00  0.00    -0.026 C 
ATOM     12  C   UNL     1      10.549   8.509  22.064  1.00  0.00    -0.024 C 
BRANCH  12  13
ATOM     13  C   UNL     1      11.680   8.406  21.027  1.00  0.00    -0.014 C 
ATOM     14  C   UNL     1      11.940   6.944  20.586  1.00  0.00     0.016 C 
ATOM     15  C   UNL     1      11.177   9.148  19.760  1.00  0.00     0.016 C 
BRANCH  13  16
ATOM     16  C   UNL     1      12.975   9.148  21.482  1.00  0.00     0.038 CG0
ATOM     17  G   UNL     1      13.999   8.313  22.217  1.00  0.00     0.000 G0
ENDBRANCH  13  16
ENDBRANCH  12  13
ENDBRANCH  10  11
ENDBRANCH   1  10
TORSDOF 0
ENDMDL
MODEL 8
REMARK VINA RESULT:    -3.452      2.837      6.040
REMARK INTER + INTRA:          -4.892
REMARK INTER:                  -5.102
REMARK INTRA:                   0.211
REMARK UNBOUND:                 0.174
REMARK SMILES C=C1CC=CC(C)(C)CC=C(C)CCC1
REMARK SMILES IDX 2 1 1 2 15 3 14 4 13 5 11 6 12 7 10 8 3 10 4 11 5 12 6 13
REMARK SMILES IDX 7 14 8 15 9 16
REMARK H PARENT
REMARK Flexibility Score: 60.00
ROOT
ATOM      1  C   UNL     1      13.656   8.736  21.833  1.00  0.00    -0.074 C 
ATOM      2  C   UNL     1      13.459   9.997  21.414  1.00  0.00     0.008 C 
ENDROOT
BRANCH   1   3
ATOM      3  C   UNL     1      13.067   7.593  21.017  1.00  0.00     0.031 C 
BRANCH   3   4
ATOM      4  C   UNL     1      11.666   7.912  20.474  1.00  0.00     0.009 C 
BRANCH   4   5
ATOM      5  C   UNL     1      10.526   7.396  21.376  1.00  0.00     0.030 C 
BRANCH   5   6
ATOM      6  C   UNL     1      10.180   8.345  22.517  1.00  0.00    -0.077 C 
ATOM      7  C   UNL     1       9.456   9.632  22.191  1.00  0.00     0.039 C 
ATOM      8  C   UNL     1      10.558   8.162  23.806  1.00  0.00    -0.027 CG0
ATOM      9  G   UNL     1      11.468   7.082  24.348  1.00  0.00     0.000 G0
ENDBRANCH   5   6
ENDBRANCH   4   5
ENDBRANCH   3   4
ENDBRANCH   1   3
BRANCH   1  10
ATOM     10  C   UNL     1      14.476   8.518  23.095  1.00  0.00     0.057 C 
BRANCH  10  11
ATOM     11  C   UNL     1      13.950   9.271  24.288  1.00  0.00    -0.026 C 
ATOM     12  C   UNL     1      13.093   8.854  25.246  1.00  0.00    -0.024 C 
BRANCH  12  13
ATOM     13  C   UNL     1      12.449   7.479  25.484  1.00  0.00    -0.014 C 
ATOM     14  C   UNL     1      13.501   6.383  25.787  1.00  0.00     0.016 C 
ATOM     15  C   UNL     1      11.596   7.616  26.774  1.00  0.00     0.016 C 
BRANCH  13  16
ATOM     16  C   UNL     1      11.458   7.079  24.346  1.00  0.00     0.038 CG0
ATOM     17  G   UNL     1      10.567   8.183  23.821  1.00  0.00     0.000 G0
ENDBRANCH  13  16
ENDBRANCH  12  13
ENDBRANCH  10  11
ENDBRANCH   1  10
TORSDOF 0
ENDMDL
MODEL 9
REMARK VINA RESULT:    -3.401      2.830      6.081
REMARK INTER + INTRA:          -4.817
REMARK INTER:                  -5.272
REMARK INTRA:                   0.456
REMARK UNBOUND:                 0.174
REMARK SMILES C=C1CC=CC(C)(C)CC=C(C)CCC1
REMARK SMILES IDX 2 1 1 2 15 3 14 4 13 5 11 6 12 7 10 8 3 10 4 11 5 12 6 13
REMARK SMILES IDX 7 14 8 15 9 16
REMARK H PARENT
REMARK Flexibility Score: 60.00
ROOT
ATOM      1  C   UNL     1      12.979   8.723  21.751  1.00  0.00    -0.074 C 
ATOM      2  C   UNL     1      13.053   7.633  20.970  1.00  0.00     0.008 C 
ENDROOT
BRANCH   1   3
ATOM      3  C   UNL     1      14.223   9.582  21.931  1.00  0.00     0.031 C 
BRANCH   3   4
ATOM      4  C   UNL     1      14.703   9.630  23.390  1.00  0.00     0.009 C 
BRANCH   4   5
ATOM      5  C   UNL     1      15.562   8.413  23.793  1.00  0.00     0.030 C 
BRANCH   5   6
ATOM      6  C   UNL     1      15.490   8.087  25.280  1.00  0.00    -0.077 C 
ATOM      7  C   UNL     1      16.661   8.462  26.159  1.00  0.00     0.039 C 
ATOM      8  C   UNL     1      14.479   7.395  25.862  1.00  0.00    -0.027 CG0
ATOM      9  G   UNL     1      13.314   6.723  25.173  1.00  0.00     0.000 G0
ENDBRANCH   5   6
ENDBRANCH   4   5
ENDBRANCH   3   4
ENDBRANCH   1   3
BRANCH   1  10
ATOM     10  C   UNL     1      11.644   9.052  22.401  1.00  0.00     0.057 C 
BRANCH  10  11
ATOM     11  C   UNL     1      10.897   7.837  22.884  1.00  0.00    -0.026 C 
ATOM     12  C   UNL     1      11.040   7.156  24.042  1.00  0.00    -0.024 C 
BRANCH  12  13
ATOM     13  C   UNL     1      11.929   7.436  25.265  1.00  0.00    -0.014 C 
ATOM     14  C   UNL     1      12.044   8.950  25.572  1.00  0.00     0.016 C 
ATOM     15  C   UNL     1      11.199   6.810  26.484  1.00  0.00     0.016 C 
BRANCH  13  16
ATOM     16  C   UNL     1      13.313   6.722  25.172  1.00  0.00     0.038 CG0
ATOM     17  G   UNL     1      14.467   7.411  25.865  1.00  0.00     0.000 G0
ENDBRANCH  13  16
ENDBRANCH  12  13
ENDBRANCH  10  11
ENDBRANCH   1  10
TORSDOF 0
ENDMDL
