MODEL 1
REMARK VINA RESULT:    -3.353      0.000      0.000
REMARK INTER + INTRA:          -8.397
REMARK INTER:                  -6.294
REMARK INTRA:                  -2.104
REMARK UNBOUND:                -2.104
REMARK SMILES O=C([O-])CCCCCCCCCCCCCCC(=O)[O-]
REMARK SMILES IDX 10 1 9 2 8 3 7 4 6 5 5 6 4 7 2 8 1 9 3 10 11 11 12 12 13 13
REMARK SMILES IDX 14 14 15 15 16 16 17 17 18 18 19 19 20 20
REMARK H PARENT
REMARK Flexibility Score: inf
ROOT
ATOM      1  C   UNL     1      64.499  31.340  59.560  1.00  0.00     0.000 C 
ENDROOT
BRANCH   1   2
ATOM      2  C   UNL     1      64.040  30.833  60.941  1.00  0.00     0.000 C 
BRANCH   2   3
ATOM      3  C   UNL     1      63.079  29.635  60.848  1.00  0.00     0.000 C 
BRANCH   3   4
ATOM      4  C   UNL     1      61.743  29.898  61.562  1.00  0.00     0.000 C 
BRANCH   4   5
ATOM      5  C   UNL     1      61.028  31.151  61.029  1.00  0.00     0.000 C 
BRANCH   5   6
ATOM      6  C   UNL     1      60.433  30.953  59.623  1.00  0.00     0.006 C 
BRANCH   6   7
ATOM      7  C   UNL     1      60.895  32.003  58.597  1.00  0.00     0.053 C 
BRANCH   7   8
ATOM      8  C   UNL     1      61.472  31.387  57.359  1.00  0.00     0.041 C 
ATOM      9  O   UNL     1      61.940  30.218  57.388  1.00  0.00    -0.550 OA
ATOM     10  O   UNL     1      61.464  32.094  56.163  1.00  0.00    -0.550 OA
ENDBRANCH   7   8
ENDBRANCH   6   7
ENDBRANCH   5   6
ENDBRANCH   4   5
ENDBRANCH   3   4
ENDBRANCH   2   3
ENDBRANCH   1   2
BRANCH   1  11
ATOM     11  C   UNL     1      64.516  32.872  59.407  1.00  0.00     0.000 C 
BRANCH  11  12
ATOM     12  C   UNL     1      64.138  33.658  60.677  1.00  0.00     0.000 C 
BRANCH  12  13
ATOM     13  C   UNL     1      62.791  34.406  60.567  1.00  0.00     0.000 C 
BRANCH  13  14
ATOM     14  C   UNL     1      62.924  35.903  60.898  1.00  0.00     0.000 C 
BRANCH  14  15
ATOM     15  C   UNL     1      61.618  36.680  60.667  1.00  0.00     0.000 C 
BRANCH  15  16
ATOM     16  C   UNL     1      60.514  35.811  60.039  1.00  0.00     0.006 C 
BRANCH  16  17
ATOM     17  C   UNL     1      59.809  36.524  58.877  1.00  0.00     0.053 C 
BRANCH  17  18
ATOM     18  C   UNL     1      59.167  35.550  57.937  1.00  0.00     0.041 C 
ATOM     19  O   UNL     1      59.843  35.012  57.021  1.00  0.00    -0.550 OA
ATOM     20  O   UNL     1      57.827  35.216  58.089  1.00  0.00    -0.550 OA
ENDBRANCH  17  18
ENDBRANCH  16  17
ENDBRANCH  15  16
ENDBRANCH  14  15
ENDBRANCH  13  14
ENDBRANCH  12  13
ENDBRANCH  11  12
ENDBRANCH   1  11
TORSDOF 15
ENDMDL
MODEL 2
REMARK VINA RESULT:    -3.346     10.136     12.043
REMARK INTER + INTRA:          -8.385
REMARK INTER:                  -6.282
REMARK INTRA:                  -2.102
REMARK UNBOUND:                -2.104
REMARK SMILES O=C([O-])CCCCCCCCCCCCCCC(=O)[O-]
REMARK SMILES IDX 10 1 9 2 8 3 7 4 6 5 5 6 4 7 2 8 1 9 3 10 11 11 12 12 13 13
REMARK SMILES IDX 14 14 15 15 16 16 17 17 18 18 19 19 20 20
REMARK H PARENT
REMARK Flexibility Score: inf
ROOT
ATOM      1  C   UNL     1      56.909  27.137  51.311  1.00  0.00     0.000 C 
ENDROOT
BRANCH   1   2
ATOM      2  C   UNL     1      57.532  27.862  50.103  1.00  0.00     0.000 C 
BRANCH   2   3
ATOM      3  C   UNL     1      58.110  29.240  50.468  1.00  0.00     0.000 C 
BRANCH   3   4
ATOM      4  C   UNL     1      59.345  29.600  49.626  1.00  0.00     0.000 C 
BRANCH   4   5
ATOM      5  C   UNL     1      59.947  28.376  48.913  1.00  0.00     0.000 C 
BRANCH   5   6
ATOM      6  C   UNL     1      61.355  28.015  49.422  1.00  0.00     0.006 C 
BRANCH   6   7
ATOM      7  C   UNL     1      61.582  26.504  49.606  1.00  0.00     0.053 C 
BRANCH   7   8
ATOM      8  C   UNL     1      60.549  25.866  50.484  1.00  0.00     0.041 C 
ATOM      9  O   UNL     1      59.880  24.883  50.069  1.00  0.00    -0.550 OA
ATOM     10  O   UNL     1      60.346  26.339  51.775  1.00  0.00    -0.550 OA
ENDBRANCH   7   8
ENDBRANCH   6   7
ENDBRANCH   5   6
ENDBRANCH   4   5
ENDBRANCH   3   4
ENDBRANCH   2   3
ENDBRANCH   1   2
BRANCH   1  11
ATOM     11  C   UNL     1      55.784  26.145  50.960  1.00  0.00     0.000 C 
BRANCH  11  12
ATOM     12  C   UNL     1      55.366  26.132  49.477  1.00  0.00     0.000 C 
BRANCH  12  13
ATOM     13  C   UNL     1      53.870  26.443  49.251  1.00  0.00     0.000 C 
BRANCH  13  14
ATOM     14  C   UNL     1      53.329  27.476  50.255  1.00  0.00     0.000 C 
BRANCH  14  15
ATOM     15  C   UNL     1      53.331  28.908  49.693  1.00  0.00     0.000 C 
BRANCH  15  16
ATOM     16  C   UNL     1      54.376  29.810  50.373  1.00  0.00     0.006 C 
BRANCH  16  17
ATOM     17  C   UNL     1      54.293  29.739  51.903  1.00  0.00     0.053 C 
BRANCH  17  18
ATOM     18  C   UNL     1      54.866  30.964  52.548  1.00  0.00     0.041 C 
ATOM     19  O   UNL     1      56.113  31.097  52.663  1.00  0.00    -0.550 OA
ATOM     20  O   UNL     1      54.023  31.973  52.996  1.00  0.00    -0.550 OA
ENDBRANCH  17  18
ENDBRANCH  16  17
ENDBRANCH  15  16
ENDBRANCH  14  15
ENDBRANCH  13  14
ENDBRANCH  12  13
ENDBRANCH  11  12
ENDBRANCH   1  11
TORSDOF 15
ENDMDL
MODEL 3
REMARK VINA RESULT:    -3.239     10.171     12.080
REMARK INTER + INTRA:          -8.183
REMARK INTER:                  -6.169
REMARK INTRA:                  -2.014
REMARK UNBOUND:                -2.104
REMARK SMILES O=C([O-])CCCCCCCCCCCCCCC(=O)[O-]
REMARK SMILES IDX 10 1 9 2 8 3 7 4 6 5 5 6 4 7 2 8 1 9 3 10 11 11 12 12 13 13
REMARK SMILES IDX 14 14 15 15 16 16 17 17 18 18 19 19 20 20
REMARK H PARENT
REMARK Flexibility Score: inf
ROOT
ATOM      1  C   UNL     1      58.327  26.005  50.281  1.00  0.00     0.000 C 
ENDROOT
BRANCH   1   2
ATOM      2  C   UNL     1      58.168  26.653  51.670  1.00  0.00     0.000 C 
BRANCH   2   3
ATOM      3  C   UNL     1      57.391  27.980  51.623  1.00  0.00     0.000 C 
BRANCH   3   4
ATOM      4  C   UNL     1      56.770  28.249  50.242  1.00  0.00     0.000 C 
BRANCH   4   5
ATOM      5  C   UNL     1      55.344  28.818  50.339  1.00  0.00     0.000 C 
BRANCH   5   6
ATOM      6  C   UNL     1      54.282  27.889  49.721  1.00  0.00     0.006 C 
BRANCH   6   7
ATOM      7  C   UNL     1      54.825  26.509  49.311  1.00  0.00     0.053 C 
BRANCH   7   8
ATOM      8  C   UNL     1      54.395  25.418  50.244  1.00  0.00     0.041 C 
ATOM      9  O   UNL     1      53.762  24.421  49.808  1.00  0.00    -0.550 OA
ATOM     10  O   UNL     1      54.723  25.487  51.592  1.00  0.00    -0.550 OA
ENDBRANCH   7   8
ENDBRANCH   6   7
ENDBRANCH   5   6
ENDBRANCH   4   5
ENDBRANCH   3   4
ENDBRANCH   2   3
ENDBRANCH   1   2
BRANCH   1  11
ATOM     11  C   UNL     1      59.779  25.901  49.779  1.00  0.00     0.000 C 
BRANCH  11  12
ATOM     12  C   UNL     1      60.610  27.191  49.917  1.00  0.00     0.000 C 
BRANCH  12  13
ATOM     13  C   UNL     1      60.278  28.261  48.854  1.00  0.00     0.000 C 
BRANCH  13  14
ATOM     14  C   UNL     1      59.975  29.633  49.480  1.00  0.00     0.000 C 
BRANCH  14  15
ATOM     15  C   UNL     1      60.942  29.992  50.620  1.00  0.00     0.000 C 
BRANCH  15  16
ATOM     16  C   UNL     1      62.022  30.998  50.187  1.00  0.00     0.006 C 
BRANCH  16  17
ATOM     17  C   UNL     1      63.440  30.471  50.445  1.00  0.00     0.053 C 
BRANCH  17  18
ATOM     18  C   UNL     1      64.054  29.899  49.204  1.00  0.00     0.041 C 
ATOM     19  O   UNL     1      64.790  30.612  48.473  1.00  0.00    -0.550 OA
ATOM     20  O   UNL     1      63.835  28.568  48.869  1.00  0.00    -0.550 OA
ENDBRANCH  17  18
ENDBRANCH  16  17
ENDBRANCH  15  16
ENDBRANCH  14  15
ENDBRANCH  13  14
ENDBRANCH  12  13
ENDBRANCH  11  12
ENDBRANCH   1  11
TORSDOF 15
ENDMDL
MODEL 4
REMARK VINA RESULT:    -3.230      2.026      3.144
REMARK INTER + INTRA:          -8.166
REMARK INTER:                  -5.868
REMARK INTRA:                  -2.298
REMARK UNBOUND:                -2.104
REMARK SMILES O=C([O-])CCCCCCCCCCCCCCC(=O)[O-]
REMARK SMILES IDX 10 1 9 2 8 3 7 4 6 5 5 6 4 7 2 8 1 9 3 10 11 11 12 12 13 13
REMARK SMILES IDX 14 14 15 15 16 16 17 17 18 18 19 19 20 20
REMARK H PARENT
REMARK Flexibility Score: inf
ROOT
ATOM      1  C   UNL     1      64.197  34.107  57.614  1.00  0.00     0.000 C 
ENDROOT
BRANCH   1   2
ATOM      2  C   UNL     1      63.470  32.997  58.396  1.00  0.00     0.000 C 
BRANCH   2   3
ATOM      3  C   UNL     1      64.415  32.186  59.300  1.00  0.00     0.000 C 
BRANCH   3   4
ATOM      4  C   UNL     1      63.792  31.874  60.670  1.00  0.00     0.000 C 
BRANCH   4   5
ATOM      5  C   UNL     1      63.750  30.364  60.967  1.00  0.00     0.000 C 
BRANCH   5   6
ATOM      6  C   UNL     1      62.356  29.874  61.396  1.00  0.00     0.006 C 
BRANCH   6   7
ATOM      7  C   UNL     1      61.222  30.866  61.081  1.00  0.00     0.053 C 
BRANCH   7   8
ATOM      8  C   UNL     1      60.465  30.504  59.839  1.00  0.00     0.041 C 
ATOM      9  O   UNL     1      60.460  31.280  58.848  1.00  0.00    -0.550 OA
ATOM     10  O   UNL     1      59.791  29.291  59.765  1.00  0.00    -0.550 OA
ENDBRANCH   7   8
ENDBRANCH   6   7
ENDBRANCH   5   6
ENDBRANCH   4   5
ENDBRANCH   3   4
ENDBRANCH   2   3
ENDBRANCH   1   2
BRANCH   1  11
ATOM     11  C   UNL     1      65.734  34.057  57.700  1.00  0.00     0.000 C 
BRANCH  11  12
ATOM     12  C   UNL     1      66.403  35.366  58.166  1.00  0.00     0.000 C 
BRANCH  12  13
ATOM     13  C   UNL     1      65.564  36.161  59.190  1.00  0.00     0.000 C 
BRANCH  13  14
ATOM     14  C   UNL     1      65.807  35.692  60.635  1.00  0.00     0.000 C 
BRANCH  14  15
ATOM     15  C   UNL     1      64.507  35.303  61.359  1.00  0.00     0.000 C 
BRANCH  15  16
ATOM     16  C   UNL     1      63.334  36.236  61.012  1.00  0.00     0.006 C 
BRANCH  16  17
ATOM     17  C   UNL     1      62.050  35.456  60.697  1.00  0.00     0.053 C 
BRANCH  17  18
ATOM     18  C   UNL     1      61.281  36.084  59.574  1.00  0.00     0.041 C 
ATOM     19  O   UNL     1      61.889  36.646  58.625  1.00  0.00    -0.550 OA
ATOM     20  O   UNL     1      59.893  36.024  59.562  1.00  0.00    -0.550 OA
ENDBRANCH  17  18
ENDBRANCH  16  17
ENDBRANCH  15  16
ENDBRANCH  14  15
ENDBRANCH  13  14
ENDBRANCH  12  13
ENDBRANCH  11  12
ENDBRANCH   1  11
TORSDOF 15
ENDMDL
MODEL 5
REMARK VINA RESULT:    -3.183      2.993      4.518
REMARK INTER + INTRA:          -8.079
REMARK INTER:                  -5.899
REMARK INTRA:                  -2.179
REMARK UNBOUND:                -2.104
REMARK SMILES O=C([O-])CCCCCCCCCCCCCCC(=O)[O-]
REMARK SMILES IDX 10 1 9 2 8 3 7 4 6 5 5 6 4 7 2 8 1 9 3 10 11 11 12 12 13 13
REMARK SMILES IDX 14 14 15 15 16 16 17 17 18 18 19 19 20 20
REMARK H PARENT
REMARK Flexibility Score: inf
ROOT
ATOM      1  C   UNL     1      61.283  31.071  58.127  1.00  0.00     0.000 C 
ENDROOT
BRANCH   1   2
ATOM      2  C   UNL     1      60.423  31.025  59.404  1.00  0.00     0.000 C 
BRANCH   2   3
ATOM      3  C   UNL     1      61.191  31.480  60.657  1.00  0.00     0.000 C 
BRANCH   3   4
ATOM      4  C   UNL     1      61.790  30.300  61.439  1.00  0.00     0.000 C 
BRANCH   4   5
ATOM      5  C   UNL     1      63.300  30.136  61.191  1.00  0.00     0.000 C 
BRANCH   5   6
ATOM      6  C   UNL     1      63.668  28.757  60.612  1.00  0.00     0.006 C 
BRANCH   6   7
ATOM      7  C   UNL     1      64.639  28.821  59.419  1.00  0.00     0.053 C 
BRANCH   7   8
ATOM      8  C   UNL     1      66.074  28.883  59.845  1.00  0.00     0.041 C 
ATOM      9  O   UNL     1      66.431  28.403  60.953  1.00  0.00    -0.550 OA
ATOM     10  O   UNL     1      67.025  29.445  59.002  1.00  0.00    -0.550 OA
ENDBRANCH   7   8
ENDBRANCH   6   7
ENDBRANCH   5   6
ENDBRANCH   4   5
ENDBRANCH   3   4
ENDBRANCH   2   3
ENDBRANCH   1   2
BRANCH   1  11
ATOM     11  C   UNL     1      62.469  32.052  58.182  1.00  0.00     0.000 C 
BRANCH  11  12
ATOM     12  C   UNL     1      62.304  33.323  57.327  1.00  0.00     0.000 C 
BRANCH  12  13
ATOM     13  C   UNL     1      61.061  34.163  57.697  1.00  0.00     0.000 C 
BRANCH  13  14
ATOM     14  C   UNL     1      61.425  35.419  58.508  1.00  0.00     0.000 C 
BRANCH  14  15
ATOM     15  C   UNL     1      61.220  35.229  60.020  1.00  0.00     0.000 C 
BRANCH  15  16
ATOM     16  C   UNL     1      62.492  35.530  60.833  1.00  0.00     0.006 C 
BRANCH  16  17
ATOM     17  C   UNL     1      63.504  34.378  60.768  1.00  0.00     0.053 C 
BRANCH  17  18
ATOM     18  C   UNL     1      64.820  34.827  60.209  1.00  0.00     0.041 C 
ATOM     19  O   UNL     1      65.117  34.583  59.010  1.00  0.00    -0.550 OA
ATOM     20  O   UNL     1      65.707  35.540  61.006  1.00  0.00    -0.550 OA
ENDBRANCH  17  18
ENDBRANCH  16  17
ENDBRANCH  15  16
ENDBRANCH  14  15
ENDBRANCH  13  14
ENDBRANCH  12  13
ENDBRANCH  11  12
ENDBRANCH   1  11
TORSDOF 15
ENDMDL
MODEL 6
REMARK VINA RESULT:    -3.121      9.375     12.113
REMARK INTER + INTRA:          -7.962
REMARK INTER:                  -6.163
REMARK INTRA:                  -1.798
REMARK UNBOUND:                -2.104
REMARK SMILES O=C([O-])CCCCCCCCCCCCCCC(=O)[O-]
REMARK SMILES IDX 10 1 9 2 8 3 7 4 6 5 5 6 4 7 2 8 1 9 3 10 11 11 12 12 13 13
REMARK SMILES IDX 14 14 15 15 16 16 17 17 18 18 19 19 20 20
REMARK H PARENT
REMARK Flexibility Score: inf
ROOT
ATOM      1  C   UNL     1      55.979  26.404  49.456  1.00  0.00     0.000 C 
ENDROOT
BRANCH   1   2
ATOM      2  C   UNL     1      56.658  26.395  50.838  1.00  0.00     0.000 C 
BRANCH   2   3
ATOM      3  C   UNL     1      57.910  27.288  50.893  1.00  0.00     0.000 C 
BRANCH   3   4
ATOM      4  C   UNL     1      57.713  28.621  50.154  1.00  0.00     0.000 C 
BRANCH   4   5
ATOM      5  C   UNL     1      58.990  29.089  49.434  1.00  0.00     0.000 C 
BRANCH   5   6
ATOM      6  C   UNL     1      60.053  27.982  49.313  1.00  0.00     0.006 C 
BRANCH   6   7
ATOM      7  C   UNL     1      61.460  28.417  49.761  1.00  0.00     0.053 C 
BRANCH   7   8
ATOM      8  C   UNL     1      62.523  27.442  49.356  1.00  0.00     0.041 C 
ATOM      9  O   UNL     1      63.504  27.822  48.664  1.00  0.00    -0.550 OA
ATOM     10  O   UNL     1      62.446  26.119  49.771  1.00  0.00    -0.550 OA
ENDBRANCH   7   8
ENDBRANCH   6   7
ENDBRANCH   5   6
ENDBRANCH   4   5
ENDBRANCH   3   4
ENDBRANCH   2   3
ENDBRANCH   1   2
BRANCH   1  11
ATOM     11  C   UNL     1      54.684  25.574  49.366  1.00  0.00     0.000 C 
BRANCH  11  12
ATOM     12  C   UNL     1      53.407  26.388  49.079  1.00  0.00     0.000 C 
BRANCH  12  13
ATOM     13  C   UNL     1      53.083  27.438  50.164  1.00  0.00     0.000 C 
BRANCH  13  14
ATOM     14  C   UNL     1      53.113  28.875  49.615  1.00  0.00     0.000 C 
BRANCH  14  15
ATOM     15  C   UNL     1      54.245  29.719  50.223  1.00  0.00     0.000 C 
BRANCH  15  16
ATOM     16  C   UNL     1      54.504  29.386  51.703  1.00  0.00     0.006 C 
BRANCH  16  17
ATOM     17  C   UNL     1      55.338  30.469  52.401  1.00  0.00     0.053 C 
BRANCH  17  18
ATOM     18  C   UNL     1      55.993  29.949  53.644  1.00  0.00     0.041 C 
ATOM     19  O   UNL     1      57.150  29.453  53.594  1.00  0.00    -0.550 OA
ATOM     20  O   UNL     1      55.336  30.038  54.866  1.00  0.00    -0.550 OA
ENDBRANCH  17  18
ENDBRANCH  16  17
ENDBRANCH  15  16
ENDBRANCH  14  15
ENDBRANCH  13  14
ENDBRANCH  12  13
ENDBRANCH  11  12
ENDBRANCH   1  11
TORSDOF 15
ENDMDL
MODEL 7
REMARK VINA RESULT:    -3.084      9.533     12.739
REMARK INTER + INTRA:          -7.892
REMARK INTER:                  -5.493
REMARK INTRA:                  -2.399
REMARK UNBOUND:                -2.104
REMARK SMILES O=C([O-])CCCCCCCCCCCCCCC(=O)[O-]
REMARK SMILES IDX 10 1 9 2 8 3 7 4 6 5 5 6 4 7 2 8 1 9 3 10 11 11 12 12 13 13
REMARK SMILES IDX 14 14 15 15 16 16 17 17 18 18 19 19 20 20
REMARK H PARENT
REMARK Flexibility Score: inf
ROOT
ATOM      1  C   UNL     1      53.837  24.850  49.953  1.00  0.00     0.000 C 
ENDROOT
BRANCH   1   2
ATOM      2  C   UNL     1      54.199  26.014  49.011  1.00  0.00     0.000 C 
BRANCH   2   3
ATOM      3  C   UNL     1      53.596  27.356  49.462  1.00  0.00     0.000 C 
BRANCH   3   4
ATOM      4  C   UNL     1      54.674  28.404  49.785  1.00  0.00     0.000 C 
BRANCH   4   5
ATOM      5  C   UNL     1      54.078  29.705  50.352  1.00  0.00     0.000 C 
BRANCH   5   6
ATOM      6  C   UNL     1      54.332  29.874  51.861  1.00  0.00     0.006 C 
BRANCH   6   7
ATOM      7  C   UNL     1      55.751  30.362  52.204  1.00  0.00     0.053 C 
BRANCH   7   8
ATOM      8  C   UNL     1      55.749  31.544  53.124  1.00  0.00     0.041 C 
ATOM      9  O   UNL     1      56.301  31.473  54.253  1.00  0.00    -0.550 OA
ATOM     10  O   UNL     1      55.165  32.738  52.720  1.00  0.00    -0.550 OA
ENDBRANCH   7   8
ENDBRANCH   6   7
ENDBRANCH   5   6
ENDBRANCH   4   5
ENDBRANCH   3   4
ENDBRANCH   2   3
ENDBRANCH   1   2
BRANCH   1  11
ATOM     11  C   UNL     1      53.604  25.255  51.420  1.00  0.00     0.000 C 
BRANCH  11  12
ATOM     12  C   UNL     1      54.825  25.087  52.345  1.00  0.00     0.000 C 
BRANCH  12  13
ATOM     13  C   UNL     1      55.336  26.415  52.946  1.00  0.00     0.000 C 
BRANCH  13  14
ATOM     14  C   UNL     1      56.725  26.803  52.412  1.00  0.00     0.000 C 
BRANCH  14  15
ATOM     15  C   UNL     1      57.346  25.711  51.524  1.00  0.00     0.000 C 
BRANCH  15  16
ATOM     16  C   UNL     1      57.646  26.205  50.098  1.00  0.00     0.006 C 
BRANCH  16  17
ATOM     17  C   UNL     1      58.460  27.507  50.098  1.00  0.00     0.053 C 
BRANCH  17  18
ATOM     18  C   UNL     1      59.764  27.345  49.378  1.00  0.00     0.041 C 
ATOM     19  O   UNL     1      60.335  26.223  49.340  1.00  0.00    -0.550 OA
ATOM     20  O   UNL     1      60.336  28.429  48.723  1.00  0.00    -0.550 OA
ENDBRANCH  17  18
ENDBRANCH  16  17
ENDBRANCH  15  16
ENDBRANCH  14  15
ENDBRANCH  13  14
ENDBRANCH  12  13
ENDBRANCH  11  12
ENDBRANCH   1  11
TORSDOF 15
ENDMDL
MODEL 8
REMARK VINA RESULT:    -3.081      2.867      4.169
REMARK INTER + INTRA:          -7.887
REMARK INTER:                  -5.446
REMARK INTRA:                  -2.441
REMARK UNBOUND:                -2.104
REMARK SMILES O=C([O-])CCCCCCCCCCCCCCC(=O)[O-]
REMARK SMILES IDX 10 1 9 2 8 3 7 4 6 5 5 6 4 7 2 8 1 9 3 10 11 11 12 12 13 13
REMARK SMILES IDX 14 14 15 15 16 16 17 17 18 18 19 19 20 20
REMARK H PARENT
REMARK Flexibility Score: inf
ROOT
ATOM      1  C   UNL     1      63.771  29.895  58.278  1.00  0.00     0.000 C 
ENDROOT
BRANCH   1   2
ATOM      2  C   UNL     1      64.862  30.450  59.213  1.00  0.00     0.000 C 
BRANCH   2   3
ATOM      3  C   UNL     1      64.331  30.781  60.619  1.00  0.00     0.000 C 
BRANCH   3   4
ATOM      4  C   UNL     1      63.106  29.932  60.999  1.00  0.00     0.000 C 
BRANCH   4   5
ATOM      5  C   UNL     1      61.948  30.784  61.549  1.00  0.00     0.000 C 
BRANCH   5   6
ATOM      6  C   UNL     1      60.563  30.186  61.243  1.00  0.00     0.006 C 
BRANCH   6   7
ATOM      7  C   UNL     1      60.615  28.867  60.450  1.00  0.00     0.053 C 
BRANCH   7   8
ATOM      8  C   UNL     1      59.258  28.393  60.027  1.00  0.00     0.041 C 
ATOM      9  O   UNL     1      58.909  28.459  58.819  1.00  0.00    -0.550 OA
ATOM     10  O   UNL     1      58.389  27.849  60.963  1.00  0.00    -0.550 OA
ENDBRANCH   7   8
ENDBRANCH   6   7
ENDBRANCH   5   6
ENDBRANCH   4   5
ENDBRANCH   3   4
ENDBRANCH   2   3
ENDBRANCH   1   2
BRANCH   1  11
ATOM     11  C   UNL     1      63.047  30.956  57.429  1.00  0.00     0.000 C 
BRANCH  11  12
ATOM     12  C   UNL     1      61.508  30.873  57.456  1.00  0.00     0.000 C 
BRANCH  12  13
ATOM     13  C   UNL     1      60.835  32.057  58.185  1.00  0.00     0.000 C 
BRANCH  13  14
ATOM     14  C   UNL     1      61.861  33.011  58.821  1.00  0.00     0.000 C 
BRANCH  14  15
ATOM     15  C   UNL     1      61.214  34.289  59.380  1.00  0.00     0.000 C 
BRANCH  15  16
ATOM     16  C   UNL     1      61.967  34.850  60.599  1.00  0.00     0.006 C 
BRANCH  16  17
ATOM     17  C   UNL     1      63.421  34.360  60.656  1.00  0.00     0.053 C 
BRANCH  17  18
ATOM     18  C   UNL     1      64.363  35.461  61.037  1.00  0.00     0.041 C 
ATOM     19  O   UNL     1      65.608  35.284  60.970  1.00  0.00    -0.550 OA
ATOM     20  O   UNL     1      63.865  36.695  61.438  1.00  0.00    -0.550 OA
ENDBRANCH  17  18
ENDBRANCH  16  17
ENDBRANCH  15  16
ENDBRANCH  14  15
ENDBRANCH  13  14
ENDBRANCH  12  13
ENDBRANCH  11  12
ENDBRANCH   1  11
TORSDOF 15
ENDMDL
MODEL 9
REMARK VINA RESULT:    -3.058      1.914      3.718
REMARK INTER + INTRA:          -7.844
REMARK INTER:                  -5.630
REMARK INTRA:                  -2.214
REMARK UNBOUND:                -2.104
REMARK SMILES O=C([O-])CCCCCCCCCCCCCCC(=O)[O-]
REMARK SMILES IDX 10 1 9 2 8 3 7 4 6 5 5 6 4 7 2 8 1 9 3 10 11 11 12 12 13 13
REMARK SMILES IDX 14 14 15 15 16 16 17 17 18 18 19 19 20 20
REMARK H PARENT
REMARK Flexibility Score: inf
ROOT
ATOM      1  C   UNL     1      64.477  36.705  60.724  1.00  0.00     0.000 C 
ENDROOT
BRANCH   1   2
ATOM      2  C   UNL     1      65.152  35.376  61.111  1.00  0.00     0.000 C 
BRANCH   2   3
ATOM      3  C   UNL     1      64.211  34.166  60.970  1.00  0.00     0.000 C 
BRANCH   3   4
ATOM      4  C   UNL     1      64.111  33.667  59.520  1.00  0.00     0.000 C 
BRANCH   4   5
ATOM      5  C   UNL     1      62.939  32.691  59.313  1.00  0.00     0.000 C 
BRANCH   5   6
ATOM      6  C   UNL     1      62.089  32.495  60.582  1.00  0.00     0.006 C 
BRANCH   6   7
ATOM      7  C   UNL     1      61.034  31.381  60.459  1.00  0.00     0.053 C 
BRANCH   7   8
ATOM      8  C   UNL     1      61.636  30.009  60.499  1.00  0.00     0.041 C 
ATOM      9  O   UNL     1      61.771  29.342  59.439  1.00  0.00    -0.550 OA
ATOM     10  O   UNL     1      62.077  29.478  61.704  1.00  0.00    -0.550 OA
ENDBRANCH   7   8
ENDBRANCH   6   7
ENDBRANCH   5   6
ENDBRANCH   4   5
ENDBRANCH   3   4
ENDBRANCH   2   3
ENDBRANCH   1   2
BRANCH   1  11
ATOM     11  C   UNL     1      63.121  36.965  61.406  1.00  0.00     0.000 C 
BRANCH  11  12
ATOM     12  C   UNL     1      61.925  37.106  60.444  1.00  0.00     0.000 C 
BRANCH  12  13
ATOM     13  C   UNL     1      60.989  35.878  60.433  1.00  0.00     0.000 C 
BRANCH  13  14
ATOM     14  C   UNL     1      60.142  35.800  59.151  1.00  0.00     0.000 C 
BRANCH  14  15
ATOM     15  C   UNL     1      60.993  35.590  57.888  1.00  0.00     0.000 C 
BRANCH  15  16
ATOM     16  C   UNL     1      60.578  34.339  57.094  1.00  0.00     0.006 C 
BRANCH  16  17
ATOM     17  C   UNL     1      59.558  33.483  57.857  1.00  0.00     0.053 C 
BRANCH  17  18
ATOM     18  C   UNL     1      58.304  33.276  57.064  1.00  0.00     0.041 C 
ATOM     19  O   UNL     1      58.343  33.258  55.805  1.00  0.00    -0.550 OA
ATOM     20  O   UNL     1      57.093  33.075  57.716  1.00  0.00    -0.550 OA
ENDBRANCH  17  18
ENDBRANCH  16  17
ENDBRANCH  15  16
ENDBRANCH  14  15
ENDBRANCH  13  14
ENDBRANCH  12  13
ENDBRANCH  11  12
ENDBRANCH   1  11
TORSDOF 15
ENDMDL
