MODEL 1
REMARK VINA RESULT:    -5.236      0.000      0.000
REMARK INTER + INTRA:          -6.635
REMARK INTER:                  -6.154
REMARK INTRA:                  -0.481
REMARK UNBOUND:                -0.481
REMARK SMILES C=CC(C)=CCC=C(C)C
REMARK SMILES IDX 5 1 3 2 4 3 6 4 7 5 9 6 8 7 10 8 2 9 1 10
REMARK H PARENT
REMARK Flexibility Score: inf
ROOT
ATOM      1  C   UNL     1     136.904 135.592 124.658  1.00  0.00    -0.020 C 
ATOM      2  C   UNL     1     138.203 135.249 124.536  1.00  0.00    -0.055 C 
ATOM      3  C   UNL     1     138.975 134.877 125.779  1.00  0.00     0.044 C 
ENDROOT
BRANCH   1   4
ATOM      4  C   UNL     1     136.034 136.006 123.499  1.00  0.00     0.055 C 
BRANCH   4   5
ATOM      5  C   UNL     1     135.385 137.344 123.751  1.00  0.00    -0.024 C 
ATOM      6  C   UNL     1     137.424 138.621 123.063  1.00  0.00     0.039 C 
ATOM      7  C   UNL     1     136.006 138.532 123.569  1.00  0.00    -0.080 C 
ATOM      8  C   UNL     1     135.272 139.816 123.854  1.00  0.00     0.039 C 
ENDBRANCH   4   5
ENDBRANCH   1   4
BRANCH   2   9
ATOM      9  C   UNL     1     138.886 135.255 123.211  1.00  0.00    -0.005 C 
ATOM     10  C   UNL     1     140.154 135.631 123.040  1.00  0.00     0.009 C 
ENDBRANCH   2   9
TORSDOF 3
ENDMDL
MODEL 2
REMARK VINA RESULT:    -5.129     14.335     16.846
REMARK INTER + INTRA:          -6.510
REMARK INTER:                  -5.952
REMARK INTRA:                  -0.558
REMARK UNBOUND:                -0.481
REMARK SMILES C=CC(C)=CCC=C(C)C
REMARK SMILES IDX 5 1 3 2 4 3 6 4 7 5 9 6 8 7 10 8 2 9 1 10
REMARK H PARENT
REMARK Flexibility Score: inf
ROOT
ATOM      1  C   UNL     1     135.619 153.506 125.235  1.00  0.00    -0.020 C 
ATOM      2  C   UNL     1     135.184 152.264 124.936  1.00  0.00    -0.055 C 
ATOM      3  C   UNL     1     134.876 151.311 126.065  1.00  0.00     0.044 C 
ENDROOT
BRANCH   1   4
ATOM      4  C   UNL     1     135.982 154.539 124.200  1.00  0.00     0.055 C 
BRANCH   4   5
ATOM      5  C   UNL     1     137.378 155.067 124.420  1.00  0.00    -0.024 C 
ATOM      6  C   UNL     1     138.432 153.245 123.067  1.00  0.00     0.039 C 
ATOM      7  C   UNL     1     138.494 154.486 123.923  1.00  0.00    -0.080 C 
ATOM      8  C   UNL     1     139.845 155.089 124.203  1.00  0.00     0.039 C 
ENDBRANCH   4   5
ENDBRANCH   1   4
BRANCH   2   9
ATOM      9  C   UNL     1     135.030 151.816 123.523  1.00  0.00    -0.005 C 
ATOM     10  C   UNL     1     135.544 150.679 123.052  1.00  0.00     0.009 C 
ENDBRANCH   2   9
TORSDOF 3
ENDMDL
MODEL 3
REMARK VINA RESULT:    -4.884     13.658     16.578
REMARK INTER + INTRA:          -6.222
REMARK INTER:                  -5.624
REMARK INTRA:                  -0.598
REMARK UNBOUND:                -0.481
REMARK SMILES C=CC(C)=CCC=C(C)C
REMARK SMILES IDX 5 1 3 2 4 3 6 4 7 5 9 6 8 7 10 8 2 9 1 10
REMARK H PARENT
REMARK Flexibility Score: inf
ROOT
ATOM      1  C   UNL     1     154.739 138.106 124.705  1.00  0.00    -0.020 C 
ATOM      2  C   UNL     1     154.775 138.671 123.480  1.00  0.00    -0.055 C 
ATOM      3  C   UNL     1     155.125 140.135 123.367  1.00  0.00     0.044 C 
ENDROOT
BRANCH   1   4
ATOM      4  C   UNL     1     154.380 136.663 124.952  1.00  0.00     0.055 C 
BRANCH   4   5
ATOM      5  C   UNL     1     152.905 136.505 125.228  1.00  0.00    -0.024 C 
ATOM      6  C   UNL     1     152.579 134.902 123.335  1.00  0.00     0.039 C 
ATOM      7  C   UNL     1     152.079 135.721 124.498  1.00  0.00    -0.080 C 
ATOM      8  C   UNL     1     150.617 135.634 124.852  1.00  0.00     0.039 C 
ENDBRANCH   4   5
ENDBRANCH   1   4
BRANCH   2   9
ATOM      9  C   UNL     1     154.453 137.887 122.254  1.00  0.00    -0.005 C 
ATOM     10  C   UNL     1     153.252 137.891 121.674  1.00  0.00     0.009 C 
ENDBRANCH   2   9
TORSDOF 3
ENDMDL
MODEL 4
REMARK VINA RESULT:    -4.877      0.847      4.128
REMARK INTER + INTRA:          -6.213
REMARK INTER:                  -5.799
REMARK INTRA:                  -0.414
REMARK UNBOUND:                -0.481
REMARK SMILES C=CC(C)=CCC=C(C)C
REMARK SMILES IDX 5 1 3 2 4 3 6 4 7 5 9 6 8 7 10 8 2 9 1 10
REMARK H PARENT
REMARK Flexibility Score: inf
ROOT
ATOM      1  C   UNL     1     135.626 136.744 123.785  1.00  0.00    -0.020 C 
ATOM      2  C   UNL     1     136.127 137.921 123.356  1.00  0.00    -0.055 C 
ATOM      3  C   UNL     1     135.265 139.156 123.455  1.00  0.00     0.044 C 
ENDROOT
BRANCH   1   4
ATOM      4  C   UNL     1     136.376 135.439 123.717  1.00  0.00     0.055 C 
BRANCH   4   5
ATOM      5  C   UNL     1     137.314 135.283 124.888  1.00  0.00    -0.024 C 
ATOM      6  C   UNL     1     139.303 134.886 123.422  1.00  0.00     0.039 C 
ATOM      7  C   UNL     1     138.636 135.022 124.768  1.00  0.00    -0.080 C 
ATOM      8  C   UNL     1     139.490 134.880 126.001  1.00  0.00     0.039 C 
ENDBRANCH   4   5
ENDBRANCH   1   4
BRANCH   2   9
ATOM      9  C   UNL     1     137.494 138.014 122.768  1.00  0.00    -0.005 C 
ATOM     10  C   UNL     1     137.788 137.619 121.528  1.00  0.00     0.009 C 
ENDBRANCH   2   9
TORSDOF 3
ENDMDL
MODEL 5
REMARK VINA RESULT:    -4.792      1.033      2.314
REMARK INTER + INTRA:          -6.113
REMARK INTER:                  -5.436
REMARK INTRA:                  -0.677
REMARK UNBOUND:                -0.481
REMARK SMILES C=CC(C)=CCC=C(C)C
REMARK SMILES IDX 5 1 3 2 4 3 6 4 7 5 9 6 8 7 10 8 2 9 1 10
REMARK H PARENT
REMARK Flexibility Score: inf
ROOT
ATOM      1  C   UNL     1     138.696 136.627 122.402  1.00  0.00    -0.020 C 
ATOM      2  C   UNL     1     138.736 135.593 123.268  1.00  0.00    -0.055 C 
ATOM      3  C   UNL     1     140.047 134.875 123.480  1.00  0.00     0.044 C 
ENDROOT
BRANCH   1   4
ATOM      4  C   UNL     1     137.447 137.407 122.085  1.00  0.00     0.055 C 
BRANCH   4   5
ATOM      5  C   UNL     1     137.246 138.541 123.060  1.00  0.00    -0.024 C 
ATOM      6  C   UNL     1     134.915 137.828 123.626  1.00  0.00     0.039 C 
ATOM      7  C   UNL     1     136.103 138.748 123.753  1.00  0.00    -0.080 C 
ATOM      8  C   UNL     1     135.999 139.915 124.701  1.00  0.00     0.039 C 
ENDBRANCH   4   5
ENDBRANCH   1   4
BRANCH   2   9
ATOM      9  C   UNL     1     137.514 135.138 123.990  1.00  0.00    -0.005 C 
ATOM     10  C   UNL     1     137.286 135.393 125.279  1.00  0.00     0.009 C 
ENDBRANCH   2   9
TORSDOF 3
ENDMDL
MODEL 6
REMARK VINA RESULT:    -4.740     22.399     23.663
REMARK INTER + INTRA:          -6.052
REMARK INTER:                  -5.438
REMARK INTRA:                  -0.614
REMARK UNBOUND:                -0.481
REMARK SMILES C=CC(C)=CCC=C(C)C
REMARK SMILES IDX 5 1 3 2 4 3 6 4 7 5 9 6 8 7 10 8 2 9 1 10
REMARK H PARENT
REMARK Flexibility Score: inf
ROOT
ATOM      1  C   UNL     1     152.434 154.633 124.683  1.00  0.00    -0.020 C 
ATOM      2  C   UNL     1     151.796 154.890 123.523  1.00  0.00    -0.055 C 
ATOM      3  C   UNL     1     150.297 155.064 123.543  1.00  0.00     0.044 C 
ENDROOT
BRANCH   1   4
ATOM      4  C   UNL     1     153.922 154.415 124.791  1.00  0.00     0.055 C 
BRANCH   4   5
ATOM      5  C   UNL     1     154.240 152.998 125.200  1.00  0.00    -0.024 C 
ATOM      6  C   UNL     1     155.125 152.397 122.937  1.00  0.00     0.039 C 
ATOM      7  C   UNL     1     154.773 152.074 124.368  1.00  0.00    -0.080 C 
ATOM      8  C   UNL     1     155.051 150.681 124.870  1.00  0.00     0.039 C 
ENDBRANCH   4   5
ENDBRANCH   1   4
BRANCH   2   9
ATOM      9  C   UNL     1     152.538 154.980 122.233  1.00  0.00    -0.005 C 
ATOM     10  C   UNL     1     152.424 154.078 121.257  1.00  0.00     0.009 C 
ENDBRANCH   2   9
TORSDOF 3
ENDMDL
MODEL 7
REMARK VINA RESULT:    -4.606     14.887     16.869
REMARK INTER + INTRA:          -5.895
REMARK INTER:                  -5.493
REMARK INTRA:                  -0.401
REMARK UNBOUND:                -0.481
REMARK SMILES C=CC(C)=CCC=C(C)C
REMARK SMILES IDX 5 1 3 2 4 3 6 4 7 5 9 6 8 7 10 8 2 9 1 10
REMARK H PARENT
REMARK Flexibility Score: inf
ROOT
ATOM      1  C   UNL     1     136.760 154.873 124.093  1.00  0.00    -0.020 C 
ATOM      2  C   UNL     1     137.875 154.346 123.546  1.00  0.00    -0.055 C 
ATOM      3  C   UNL     1     139.166 155.123 123.638  1.00  0.00     0.044 C 
ENDROOT
BRANCH   1   4
ATOM      4  C   UNL     1     135.409 154.208 124.047  1.00  0.00     0.055 C 
BRANCH   4   5
ATOM      5  C   UNL     1     135.220 153.267 125.211  1.00  0.00    -0.024 C 
ATOM      6  C   UNL     1     135.093 151.247 123.740  1.00  0.00     0.039 C 
ATOM      7  C   UNL     1     135.065 151.930 125.084  1.00  0.00    -0.080 C 
ATOM      8  C   UNL     1     134.876 151.075 126.311  1.00  0.00     0.039 C 
ENDBRANCH   4   5
ENDBRANCH   1   4
BRANCH   2   9
ATOM      9  C   UNL     1     137.847 153.034 122.839  1.00  0.00    -0.005 C 
ATOM     10  C   UNL     1     137.517 152.900 121.553  1.00  0.00     0.009 C 
ENDBRANCH   2   9
TORSDOF 3
ENDMDL
MODEL 8
REMARK VINA RESULT:    -4.532     13.689     16.620
REMARK INTER + INTRA:          -5.808
REMARK INTER:                  -5.298
REMARK INTRA:                  -0.510
REMARK UNBOUND:                -0.481
REMARK SMILES C=CC(C)=CCC=C(C)C
REMARK SMILES IDX 5 1 3 2 4 3 6 4 7 5 9 6 8 7 10 8 2 9 1 10
REMARK H PARENT
REMARK Flexibility Score: inf
ROOT
ATOM      1  C   UNL     1     154.293 137.023 122.757  1.00  0.00    -0.020 C 
ATOM      2  C   UNL     1     154.732 138.176 123.302  1.00  0.00    -0.055 C 
ATOM      3  C   UNL     1     154.847 139.397 122.421  1.00  0.00     0.044 C 
ENDROOT
BRANCH   1   4
ATOM      4  C   UNL     1     154.158 135.732 123.524  1.00  0.00     0.055 C 
BRANCH   4   5
ATOM      5  C   UNL     1     152.755 135.184 123.432  1.00  0.00    -0.024 C 
ATOM      6  C   UNL     1     151.976 136.459 125.439  1.00  0.00     0.039 C 
ATOM      7  C   UNL     1     151.764 135.496 124.298  1.00  0.00    -0.080 C 
ATOM      8  C   UNL     1     150.396 134.891 124.124  1.00  0.00     0.039 C 
ENDBRANCH   4   5
ENDBRANCH   1   4
BRANCH   2   9
ATOM      9  C   UNL     1     155.125 138.256 124.738  1.00  0.00    -0.005 C 
ATOM     10  C   UNL     1     155.121 139.392 125.438  1.00  0.00     0.009 C 
ENDBRANCH   2   9
TORSDOF 3
ENDMDL
MODEL 9
REMARK VINA RESULT:    -4.431     14.355     16.865
REMARK INTER + INTRA:          -5.690
REMARK INTER:                  -5.364
REMARK INTRA:                  -0.326
REMARK UNBOUND:                -0.481
REMARK SMILES C=CC(C)=CCC=C(C)C
REMARK SMILES IDX 5 1 3 2 4 3 6 4 7 5 9 6 8 7 10 8 2 9 1 10
REMARK H PARENT
REMARK Flexibility Score: inf
ROOT
ATOM      1  C   UNL     1     153.731 135.729 124.125  1.00  0.00    -0.020 C 
ATOM      2  C   UNL     1     152.608 136.133 123.497  1.00  0.00    -0.055 C 
ATOM      3  C   UNL     1     151.391 135.242 123.543  1.00  0.00     0.044 C 
ENDROOT
BRANCH   1   4
ATOM      4  C   UNL     1     155.017 136.515 124.132  1.00  0.00     0.055 C 
BRANCH   4   5
ATOM      5  C   UNL     1     155.065 137.479 125.292  1.00  0.00    -0.024 C 
ATOM      6  C   UNL     1     155.003 139.490 123.804  1.00  0.00     0.039 C 
ATOM      7  C   UNL     1     155.070 138.825 125.156  1.00  0.00    -0.080 C 
ATOM      8  C   UNL     1     155.125 139.704 126.378  1.00  0.00     0.039 C 
ENDBRANCH   4   5
ENDBRANCH   1   4
BRANCH   2   9
ATOM      9  C   UNL     1     152.560 137.420 122.745  1.00  0.00    -0.005 C 
ATOM     10  C   UNL     1     153.054 137.570 121.516  1.00  0.00     0.009 C 
ENDBRANCH   2   9
TORSDOF 3
ENDMDL
