MODEL 1
REMARK VINA RESULT:    -4.500      0.000      0.000
REMARK INTER + INTRA:          -7.450
REMARK INTER:                  -6.867
REMARK INTRA:                  -0.583
REMARK UNBOUND:                -0.583
REMARK SMILES CCCCCCCCCCC(=O)[O-]
REMARK SMILES IDX 7 1 8 2 9 3 10 4 11 5 12 6 13 7 6 8 5 9 4 10 3 11 2 12 1 13
REMARK H PARENT
REMARK Flexibility Score: inf
ROOT
ATOM      1  C   UNL     1      25.031  70.386  27.666  1.00  0.00     0.000 C 
ENDROOT
BRANCH   1   2
ATOM      2  C   UNL     1      25.016  69.222  26.659  1.00  0.00     0.000 C 
BRANCH   2   3
ATOM      3  C   UNL     1      23.700  68.430  26.692  1.00  0.00     0.006 C 
BRANCH   3   4
ATOM      4  C   UNL     1      22.952  68.588  28.022  1.00  0.00     0.053 C 
BRANCH   4   5
ATOM      5  C   UNL     1      21.552  69.055  27.780  1.00  0.00     0.041 C 
ATOM      6  O   UNL     1      20.606  68.625  28.492  1.00  0.00    -0.550 OA
ATOM      7  O   UNL     1      21.281  69.930  26.734  1.00  0.00    -0.550 OA
ENDBRANCH   4   5
ENDBRANCH   3   4
ENDBRANCH   2   3
ENDBRANCH   1   2
BRANCH   1   8
ATOM      8  C   UNL     1      25.835  71.598  27.162  1.00  0.00     0.000 C 
BRANCH   8   9
ATOM      9  C   UNL     1      25.286  72.972  27.598  1.00  0.00    -0.000 C 
BRANCH   9  10
ATOM     10  C   UNL     1      23.831  72.968  28.104  1.00  0.00    -0.000 C 
BRANCH  10  11
ATOM     11  C   UNL     1      23.444  74.274  28.820  1.00  0.00    -0.000 C 
BRANCH  11  12
ATOM     12  C   UNL     1      24.614  74.880  29.608  1.00  0.00    -0.003 C 
ATOM     13  C   UNL     1      24.298  75.068  31.092  1.00  0.00     0.004 C 
ENDBRANCH  11  12
ENDBRANCH  10  11
ENDBRANCH   9  10
ENDBRANCH   8   9
ENDBRANCH   1   8
TORSDOF 9
ENDMDL
MODEL 2
REMARK VINA RESULT:    -4.417      9.958     11.833
REMARK INTER + INTRA:          -7.324
REMARK INTER:                  -6.865
REMARK INTRA:                  -0.458
REMARK UNBOUND:                -0.583
REMARK SMILES CCCCCCCCCCC(=O)[O-]
REMARK SMILES IDX 7 1 8 2 9 3 10 4 11 5 12 6 13 7 6 8 5 9 4 10 3 11 2 12 1 13
REMARK H PARENT
REMARK Flexibility Score: inf
ROOT
ATOM      1  C   UNL     1      18.435  69.311  36.533  1.00  0.00     0.000 C 
ENDROOT
BRANCH   1   2
ATOM      2  C   UNL     1      19.474  68.776  37.534  1.00  0.00     0.000 C 
BRANCH   2   3
ATOM      3  C   UNL     1      19.158  69.175  38.984  1.00  0.00     0.006 C 
BRANCH   3   4
ATOM      4  C   UNL     1      17.865  68.532  39.501  1.00  0.00     0.053 C 
BRANCH   4   5
ATOM      5  C   UNL     1      18.036  67.052  39.636  1.00  0.00     0.041 C 
ATOM      6  O   UNL     1      17.088  66.275  39.351  1.00  0.00    -0.550 OA
ATOM      7  O   UNL     1      19.229  66.532  40.124  1.00  0.00    -0.550 OA
ENDBRANCH   4   5
ENDBRANCH   3   4
ENDBRANCH   2   3
ENDBRANCH   1   2
BRANCH   1   8
ATOM      8  C   UNL     1      17.523  68.204  35.975  1.00  0.00     0.000 C 
BRANCH   8   9
ATOM      9  C   UNL     1      16.625  68.631  34.794  1.00  0.00    -0.000 C 
BRANCH   9  10
ATOM     10  C   UNL     1      17.189  69.765  33.917  1.00  0.00    -0.000 C 
BRANCH  10  11
ATOM     11  C   UNL     1      16.639  69.738  32.481  1.00  0.00    -0.000 C 
BRANCH  11  12
ATOM     12  C   UNL     1      15.315  68.967  32.374  1.00  0.00    -0.003 C 
ATOM     13  C   UNL     1      14.587  69.216  31.052  1.00  0.00     0.004 C 
ENDBRANCH  11  12
ENDBRANCH  10  11
ENDBRANCH   9  10
ENDBRANCH   8   9
ENDBRANCH   1   8
TORSDOF 9
ENDMDL
MODEL 3
REMARK VINA RESULT:    -4.324     10.139     12.961
REMARK INTER + INTRA:          -7.181
REMARK INTER:                  -6.205
REMARK INTRA:                  -0.976
REMARK UNBOUND:                -0.583
REMARK SMILES CCCCCCCCCCC(=O)[O-]
REMARK SMILES IDX 7 1 8 2 9 3 10 4 11 5 12 6 13 7 6 8 5 9 4 10 3 11 2 12 1 13
REMARK H PARENT
REMARK Flexibility Score: inf
ROOT
ATOM      1  C   UNL     1      15.611  64.167  31.360  1.00  0.00     0.000 C 
ENDROOT
BRANCH   1   2
ATOM      2  C   UNL     1      15.501  64.924  32.695  1.00  0.00     0.000 C 
BRANCH   2   3
ATOM      3  C   UNL     1      14.800  66.283  32.547  1.00  0.00     0.006 C 
BRANCH   3   4
ATOM      4  C   UNL     1      15.357  67.340  33.509  1.00  0.00     0.053 C 
BRANCH   4   5
ATOM      5  C   UNL     1      15.607  68.624  32.784  1.00  0.00     0.041 C 
ATOM      6  O   UNL     1      14.866  68.967  31.825  1.00  0.00    -0.550 OA
ATOM      7  O   UNL     1      16.689  69.423  33.136  1.00  0.00    -0.550 OA
ENDBRANCH   4   5
ENDBRANCH   3   4
ENDBRANCH   2   3
ENDBRANCH   1   2
BRANCH   1   8
ATOM      8  C   UNL     1      15.768  62.648  31.549  1.00  0.00     0.000 C 
BRANCH   8   9
ATOM      9  C   UNL     1      14.545  61.808  31.125  1.00  0.00    -0.000 C 
BRANCH   9  10
ATOM     10  C   UNL     1      13.475  62.566  30.318  1.00  0.00    -0.000 C 
BRANCH  10  11
ATOM     11  C   UNL     1      12.101  62.579  31.011  1.00  0.00    -0.000 C 
BRANCH  11  12
ATOM     12  C   UNL     1      11.931  63.777  31.956  1.00  0.00    -0.003 C 
ATOM     13  C   UNL     1      12.135  63.409  33.426  1.00  0.00     0.004 C 
ENDBRANCH  11  12
ENDBRANCH  10  11
ENDBRANCH   9  10
ENDBRANCH   8   9
ENDBRANCH   1   8
TORSDOF 9
ENDMDL
MODEL 4
REMARK VINA RESULT:    -4.286      9.830     11.578
REMARK INTER + INTRA:          -7.124
REMARK INTER:                  -6.123
REMARK INTRA:                  -1.000
REMARK UNBOUND:                -0.583
REMARK SMILES CCCCCCCCCCC(=O)[O-]
REMARK SMILES IDX 7 1 8 2 9 3 10 4 11 5 12 6 13 7 6 8 5 9 4 10 3 11 2 12 1 13
REMARK H PARENT
REMARK Flexibility Score: inf
ROOT
ATOM      1  C   UNL     1      17.116  65.847  36.031  1.00  0.00     0.000 C 
ENDROOT
BRANCH   1   2
ATOM      2  C   UNL     1      16.144  67.032  36.164  1.00  0.00     0.000 C 
BRANCH   2   3
ATOM      3  C   UNL     1      15.872  67.726  34.820  1.00  0.00     0.006 C 
BRANCH   3   4
ATOM      4  C   UNL     1      17.147  68.287  34.179  1.00  0.00     0.053 C 
BRANCH   4   5
ATOM      5  C   UNL     1      16.876  69.623  33.563  1.00  0.00     0.041 C 
ATOM      6  O   UNL     1      17.011  70.675  34.243  1.00  0.00    -0.550 OA
ATOM      7  O   UNL     1      16.426  69.706  32.251  1.00  0.00    -0.550 OA
ENDBRANCH   4   5
ENDBRANCH   3   4
ENDBRANCH   2   3
ENDBRANCH   1   2
BRANCH   1   8
ATOM      8  C   UNL     1      17.640  65.352  37.391  1.00  0.00     0.000 C 
BRANCH   8   9
ATOM      9  C   UNL     1      17.103  66.121  38.617  1.00  0.00    -0.000 C 
BRANCH   9  10
ATOM     10  C   UNL     1      18.114  67.063  39.296  1.00  0.00    -0.000 C 
BRANCH  10  11
ATOM     11  C   UNL     1      17.724  68.546  39.175  1.00  0.00    -0.000 C 
BRANCH  11  12
ATOM     12  C   UNL     1      18.817  69.387  38.499  1.00  0.00    -0.003 C 
ATOM     13  C   UNL     1      19.310  68.778  37.186  1.00  0.00     0.004 C 
ENDBRANCH  11  12
ENDBRANCH  10  11
ENDBRANCH   9  10
ENDBRANCH   8   9
ENDBRANCH   1   8
TORSDOF 9
ENDMDL
MODEL 5
REMARK VINA RESULT:    -4.252      9.871     11.600
REMARK INTER + INTRA:          -7.071
REMARK INTER:                  -6.239
REMARK INTRA:                  -0.832
REMARK UNBOUND:                -0.583
REMARK SMILES CCCCCCCCCCC(=O)[O-]
REMARK SMILES IDX 7 1 8 2 9 3 10 4 11 5 12 6 13 7 6 8 5 9 4 10 3 11 2 12 1 13
REMARK H PARENT
REMARK Flexibility Score: inf
ROOT
ATOM      1  C   UNL     1      17.159  65.871  35.763  1.00  0.00     0.000 C 
ENDROOT
BRANCH   1   2
ATOM      2  C   UNL     1      16.786  67.070  36.652  1.00  0.00     0.000 C 
BRANCH   2   3
ATOM      3  C   UNL     1      17.924  68.097  36.766  1.00  0.00     0.006 C 
BRANCH   3   4
ATOM      4  C   UNL     1      19.101  67.580  37.602  1.00  0.00     0.053 C 
BRANCH   4   5
ATOM      5  C   UNL     1      19.130  68.258  38.935  1.00  0.00     0.041 C 
ATOM      6  O   UNL     1      20.087  68.058  39.729  1.00  0.00    -0.550 OA
ATOM      7  O   UNL     1      18.075  69.076  39.323  1.00  0.00    -0.550 OA
ENDBRANCH   4   5
ENDBRANCH   3   4
ENDBRANCH   2   3
ENDBRANCH   1   2
BRANCH   1   8
ATOM      8  C   UNL     1      16.597  65.992  34.335  1.00  0.00     0.000 C 
BRANCH   8   9
ATOM      9  C   UNL     1      15.426  66.985  34.177  1.00  0.00    -0.000 C 
BRANCH   9  10
ATOM     10  C   UNL     1      15.224  67.542  32.756  1.00  0.00    -0.000 C 
BRANCH  10  11
ATOM     11  C   UNL     1      15.428  69.065  32.677  1.00  0.00    -0.000 C 
BRANCH  11  12
ATOM     12  C   UNL     1      16.885  69.477  32.931  1.00  0.00    -0.003 C 
ATOM     13  C   UNL     1      17.033  70.449  34.102  1.00  0.00     0.004 C 
ENDBRANCH  11  12
ENDBRANCH  10  11
ENDBRANCH   9  10
ENDBRANCH   8   9
ENDBRANCH   1   8
TORSDOF 9
ENDMDL
MODEL 6
REMARK VINA RESULT:    -4.227      9.905     11.849
REMARK INTER + INTRA:          -7.033
REMARK INTER:                  -6.309
REMARK INTRA:                  -0.724
REMARK UNBOUND:                -0.583
REMARK SMILES CCCCCCCCCCC(=O)[O-]
REMARK SMILES IDX 7 1 8 2 9 3 10 4 11 5 12 6 13 7 6 8 5 9 4 10 3 11 2 12 1 13
REMARK H PARENT
REMARK Flexibility Score: inf
ROOT
ATOM      1  C   UNL     1      17.089  66.158  36.980  1.00  0.00     0.000 C 
ENDROOT
BRANCH   1   2
ATOM      2  C   UNL     1      18.069  66.012  38.157  1.00  0.00     0.000 C 
BRANCH   2   3
ATOM      3  C   UNL     1      19.349  66.840  37.966  1.00  0.00     0.006 C 
BRANCH   3   4
ATOM      4  C   UNL     1      19.615  67.791  39.140  1.00  0.00     0.053 C 
BRANCH   4   5
ATOM      5  C   UNL     1      18.632  68.919  39.128  1.00  0.00     0.041 C 
ATOM      6  O   UNL     1      17.814  69.058  40.075  1.00  0.00    -0.550 OA
ATOM      7  O   UNL     1      18.586  69.791  38.047  1.00  0.00    -0.550 OA
ENDBRANCH   4   5
ENDBRANCH   3   4
ENDBRANCH   2   3
ENDBRANCH   1   2
BRANCH   1   8
ATOM      8  C   UNL     1      17.602  67.124  35.896  1.00  0.00     0.000 C 
BRANCH   8   9
ATOM      9  C   UNL     1      16.622  68.252  35.513  1.00  0.00    -0.000 C 
BRANCH   9  10
ATOM     10  C   UNL     1      17.244  69.424  34.730  1.00  0.00    -0.000 C 
BRANCH  10  11
ATOM     11  C   UNL     1      16.841  69.431  33.245  1.00  0.00    -0.000 C 
BRANCH  11  12
ATOM     12  C   UNL     1      15.513  68.702  32.994  1.00  0.00    -0.003 C 
ATOM     13  C   UNL     1      14.897  69.038  31.635  1.00  0.00     0.004 C 
ENDBRANCH  11  12
ENDBRANCH  10  11
ENDBRANCH   9  10
ENDBRANCH   8   9
ENDBRANCH   1   8
TORSDOF 9
ENDMDL
MODEL 7
REMARK VINA RESULT:    -4.216     11.388     14.117
REMARK INTER + INTRA:          -7.017
REMARK INTER:                  -5.907
REMARK INTRA:                  -1.110
REMARK UNBOUND:                -0.583
REMARK SMILES CCCCCCCCCCC(=O)[O-]
REMARK SMILES IDX 7 1 8 2 9 3 10 4 11 5 12 6 13 7 6 8 5 9 4 10 3 11 2 12 1 13
REMARK H PARENT
REMARK Flexibility Score: inf
ROOT
ATOM      1  C   UNL     1      14.816  62.327  31.151  1.00  0.00     0.000 C 
ENDROOT
BRANCH   1   2
ATOM      2  C   UNL     1      15.240  63.806  31.126  1.00  0.00     0.000 C 
BRANCH   2   3
ATOM      3  C   UNL     1      15.570  64.348  32.525  1.00  0.00     0.006 C 
BRANCH   3   4
ATOM      4  C   UNL     1      14.455  65.238  33.089  1.00  0.00     0.053 C 
BRANCH   4   5
ATOM      5  C   UNL     1      14.908  66.662  33.153  1.00  0.00     0.041 C 
ATOM      6  O   UNL     1      15.278  67.162  34.248  1.00  0.00    -0.550 OA
ATOM      7  O   UNL     1      14.875  67.455  32.012  1.00  0.00    -0.550 OA
ENDBRANCH   4   5
ENDBRANCH   3   4
ENDBRANCH   2   3
ENDBRANCH   1   2
BRANCH   1   8
ATOM      8  C   UNL     1      13.512  62.070  30.374  1.00  0.00     0.000 C 
BRANCH   8   9
ATOM      9  C   UNL     1      12.335  62.995  30.750  1.00  0.00    -0.000 C 
BRANCH   9  10
ATOM     10  C   UNL     1      11.353  62.420  31.787  1.00  0.00    -0.000 C 
BRANCH  10  11
ATOM     11  C   UNL     1      11.733  62.783  33.233  1.00  0.00    -0.000 C 
BRANCH  11  12
ATOM     12  C   UNL     1      12.273  61.578  34.018  1.00  0.00    -0.003 C 
ATOM     13  C   UNL     1      12.092  60.254  33.275  1.00  0.00     0.004 C 
ENDBRANCH  11  12
ENDBRANCH  10  11
ENDBRANCH   9  10
ENDBRANCH   8   9
ENDBRANCH   1   8
TORSDOF 9
ENDMDL
MODEL 8
REMARK VINA RESULT:    -4.179     10.333     12.153
REMARK INTER + INTRA:          -6.960
REMARK INTER:                  -5.765
REMARK INTRA:                  -1.195
REMARK UNBOUND:                -0.583
REMARK SMILES CCCCCCCCCCC(=O)[O-]
REMARK SMILES IDX 7 1 8 2 9 3 10 4 11 5 12 6 13 7 6 8 5 9 4 10 3 11 2 12 1 13
REMARK H PARENT
REMARK Flexibility Score: inf
ROOT
ATOM      1  C   UNL     1      18.216  68.605  39.172  1.00  0.00     0.000 C 
ENDROOT
BRANCH   1   2
ATOM      2  C   UNL     1      18.883  69.639  38.248  1.00  0.00     0.000 C 
BRANCH   2   3
ATOM      3  C   UNL     1      19.173  69.078  36.847  1.00  0.00     0.006 C 
BRANCH   3   4
ATOM      4  C   UNL     1      17.893  68.733  36.076  1.00  0.00     0.053 C 
BRANCH   4   5
ATOM      5  C   UNL     1      17.775  69.588  34.854  1.00  0.00     0.041 C 
ATOM      6  O   UNL     1      17.804  70.843  34.952  1.00  0.00    -0.550 OA
ATOM      7  O   UNL     1      17.584  69.000  33.609  1.00  0.00    -0.550 OA
ENDBRANCH   4   5
ENDBRANCH   3   4
ENDBRANCH   2   3
ENDBRANCH   1   2
BRANCH   1   8
ATOM      8  C   UNL     1      19.073  68.269  40.405  1.00  0.00     0.000 C 
BRANCH   8   9
ATOM      9  C   UNL     1      20.181  67.222  40.164  1.00  0.00    -0.000 C 
BRANCH   9  10
ATOM     10  C   UNL     1      19.724  65.932  39.459  1.00  0.00    -0.000 C 
BRANCH  10  11
ATOM     11  C   UNL     1      20.250  65.820  38.018  1.00  0.00    -0.000 C 
BRANCH  11  12
ATOM     12  C   UNL     1      19.229  65.177  37.068  1.00  0.00    -0.003 C 
ATOM     13  C   UNL     1      17.796  65.249  37.597  1.00  0.00     0.004 C 
ENDBRANCH  11  12
ENDBRANCH  10  11
ENDBRANCH   9  10
ENDBRANCH   8   9
ENDBRANCH   1   8
TORSDOF 9
ENDMDL
MODEL 9
REMARK VINA RESULT:    -4.171     10.018     11.604
REMARK INTER + INTRA:          -6.948
REMARK INTER:                  -6.050
REMARK INTRA:                  -0.898
REMARK UNBOUND:                -0.583
REMARK SMILES CCCCCCCCCCC(=O)[O-]
REMARK SMILES IDX 7 1 8 2 9 3 10 4 11 5 12 6 13 7 6 8 5 9 4 10 3 11 2 12 1 13
REMARK H PARENT
REMARK Flexibility Score: inf
ROOT
ATOM      1  C   UNL     1      18.589  68.780  36.602  1.00  0.00     0.000 C 
ENDROOT
BRANCH   1   2
ATOM      2  C   UNL     1      17.329  67.898  36.561  1.00  0.00     0.000 C 
BRANCH   2   3
ATOM      3  C   UNL     1      17.039  67.347  35.156  1.00  0.00     0.006 C 
BRANCH   3   4
ATOM      4  C   UNL     1      15.750  67.920  34.554  1.00  0.00     0.053 C 
BRANCH   4   5
ATOM      5  C   UNL     1      16.062  68.753  33.351  1.00  0.00     0.041 C 
ATOM      6  O   UNL     1      15.262  68.791  32.380  1.00  0.00    -0.550 OA
ATOM      7  O   UNL     1      17.262  69.451  33.281  1.00  0.00    -0.550 OA
ENDBRANCH   4   5
ENDBRANCH   3   4
ENDBRANCH   2   3
ENDBRANCH   1   2
BRANCH   1   8
ATOM      8  C   UNL     1      18.851  69.378  37.996  1.00  0.00     0.000 C 
BRANCH   8   9
ATOM      9  C   UNL     1      17.922  68.859  39.114  1.00  0.00    -0.000 C 
BRANCH   9  10
ATOM     10  C   UNL     1      18.571  67.874  40.103  1.00  0.00    -0.000 C 
BRANCH  10  11
ATOM     11  C   UNL     1      20.073  67.669  39.843  1.00  0.00    -0.000 C 
BRANCH  11  12
ATOM     12  C   UNL     1      20.421  66.205  39.538  1.00  0.00    -0.003 C 
ATOM     13  C   UNL     1      20.191  65.831  38.074  1.00  0.00     0.004 C 
ENDBRANCH  11  12
ENDBRANCH  10  11
ENDBRANCH   9  10
ENDBRANCH   8   9
ENDBRANCH   1   8
TORSDOF 9
ENDMDL
