MODEL 1
REMARK VINA RESULT:    -7.978      0.000      0.000
REMARK INTER + INTRA:          -8.582
REMARK INTER:                  -8.677
REMARK INTRA:                   0.095
REMARK UNBOUND:                 0.095
REMARK SMILES C[C@@H]1[C@H](C)CC[C@@]2(C(=O)[O-])CC[C@]3(C)C(=CC[C@H]4[C@]5(C)CC[C@H](O)C(C)(C)[C@@H]5CC[C@]43C)[C@@H]12
REMARK SMILES IDX 7 1 6 2 11 3 33 4 5 5 12 6 15 7 2 8 3 9 13 10 16 11 1 12
REMARK SMILES IDX 4 13 14 14 31 15 17 16 18 17 30 18 32 19 19 20 29 21 28 22
REMARK SMILES IDX 21 23 20 24 25 25 22 26 23 27 26 28 27 29 8 30 9 31 10 32
REMARK SMILES IDX 24 33
REMARK H PARENT 24 34
REMARK Flexibility Score: inf
ROOT
ATOM      1  C   UNL     1     -14.008  18.956 -25.385  1.00  0.00     0.017 C 
ATOM      2  C   UNL     1     -13.426  19.320 -26.781  1.00  0.00     0.014 C 
ATOM      3  C   UNL     1     -15.109  17.868 -25.566  1.00  0.00     0.014 C 
ATOM      4  C   UNL     1     -12.835  18.474 -24.442  1.00  0.00     0.030 C 
ATOM      5  C   UNL     1     -12.355  20.415 -26.701  1.00  0.00     0.004 C 
ATOM      6  C   UNL     1     -14.597  16.434 -25.779  1.00  0.00     0.013 C 
ATOM      7  C   UNL     1     -12.451  16.999 -24.760  1.00  0.00    -0.063 C 
ATOM      8  C   UNL     1     -11.640  19.510 -24.399  1.00  0.00    -0.003 C 
ATOM      9  C   UNL     1     -11.179  19.958 -25.828  1.00  0.00    -0.011 C 
ATOM     10  C   UNL     1     -13.566  15.945 -24.708  1.00  0.00    -0.006 C 
ATOM     11  C   UNL     1     -11.235  16.681 -25.234  1.00  0.00    -0.027 C 
ATOM     12  C   UNL     1     -11.942  20.715 -23.478  1.00  0.00     0.008 C 
ATOM     13  C   UNL     1     -10.079  21.029 -25.796  1.00  0.00     0.008 C 
ATOM     14  C   UNL     1     -14.208  16.003 -23.278  1.00  0.00     0.017 C 
ATOM     15  C   UNL     1     -13.073  14.422 -25.012  1.00  0.00    -0.020 C 
ATOM     16  C   UNL     1     -10.867  15.393 -25.874  1.00  0.00     0.032 C 
ATOM     17  C   UNL     1     -12.020  14.386 -26.189  1.00  0.00     0.006 C 
ATOM     18  C   UNL     1     -12.364  13.782 -23.782  1.00  0.00     0.008 C 
ATOM     19  C   UNL     1     -14.350  13.573 -25.337  1.00  0.00     0.012 C 
ATOM     20  C   UNL     1     -11.375  12.953 -26.562  1.00  0.00    -0.025 C 
ATOM     21  C   UNL     1     -11.787  12.377 -24.039  1.00  0.00     0.005 C 
ATOM     22  C   UNL     1     -10.826  12.225 -25.259  1.00  0.00     0.003 C 
ATOM     23  C   UNL     1     -12.378  12.029 -27.333  1.00  0.00     0.010 C 
ATOM     24  C   UNL     1     -10.212  13.233 -27.578  1.00  0.00     0.012 C 
ATOM     25  C   UNL     1     -10.379  10.704 -25.475  1.00  0.00    -0.006 C 
ATOM     26  C   UNL     1     -11.864  10.603 -27.589  1.00  0.00     0.033 C 
ATOM     27  C   UNL     1     -11.439   9.896 -26.296  1.00  0.00     0.120 C 
ATOM     28  C   UNL     1      -8.996  10.623 -26.190  1.00  0.00     0.014 C 
ATOM     29  C   UNL     1     -10.150   9.980 -24.113  1.00  0.00     0.014 C 
ENDROOT
BRANCH   1  30
ATOM     30  C   UNL     1     -14.740  20.157 -24.794  1.00  0.00     0.048 C 
ATOM     31  O   UNL     1     -15.125  20.141 -23.593  1.00  0.00    -0.550 OA
ATOM     32  O   UNL     1     -15.124  21.224 -25.601  1.00  0.00    -0.550 OA
ENDBRANCH   1  30
BRANCH  27  33
ATOM     33  O   UNL     1     -12.595   9.647 -25.530  1.00  0.00    -0.393 OA
ATOM     34  H   UNL     1     -13.176  10.450 -25.593  1.00  0.00     0.210 HD
ENDBRANCH  27  33
TORSDOF 2
ENDMDL
MODEL 2
REMARK VINA RESULT:    -7.598      2.669      5.257
REMARK INTER + INTRA:          -8.170
REMARK INTER:                  -8.272
REMARK INTRA:                   0.102
REMARK UNBOUND:                 0.095
REMARK SMILES C[C@@H]1[C@H](C)CC[C@@]2(C(=O)[O-])CC[C@]3(C)C(=CC[C@H]4[C@]5(C)CC[C@H](O)C(C)(C)[C@@H]5CC[C@]43C)[C@@H]12
REMARK SMILES IDX 7 1 6 2 11 3 33 4 5 5 12 6 15 7 2 8 3 9 13 10 16 11 1 12
REMARK SMILES IDX 4 13 14 14 31 15 17 16 18 17 30 18 32 19 19 20 29 21 28 22
REMARK SMILES IDX 21 23 20 24 25 25 22 26 23 27 26 28 27 29 8 30 9 31 10 32
REMARK SMILES IDX 24 33
REMARK H PARENT 24 34
REMARK Flexibility Score: inf
ROOT
ATOM      1  C   UNL     1     -13.127  14.195 -23.659  1.00  0.00     0.017 C 
ATOM      2  C   UNL     1     -14.668  14.273 -23.855  1.00  0.00     0.014 C 
ATOM      3  C   UNL     1     -12.761  12.795 -23.082  1.00  0.00     0.014 C 
ATOM      4  C   UNL     1     -12.412  14.484 -25.039  1.00  0.00     0.030 C 
ATOM      5  C   UNL     1     -15.123  15.636 -24.389  1.00  0.00     0.004 C 
ATOM      6  C   UNL     1     -12.738  11.643 -24.101  1.00  0.00     0.013 C 
ATOM      7  C   UNL     1     -12.445  13.217 -25.944  1.00  0.00    -0.063 C 
ATOM      8  C   UNL     1     -12.917  15.827 -25.703  1.00  0.00    -0.003 C 
ATOM      9  C   UNL     1     -14.481  15.925 -25.751  1.00  0.00    -0.011 C 
ATOM     10  C   UNL     1     -11.865  11.916 -25.372  1.00  0.00    -0.006 C 
ATOM     11  C   UNL     1     -13.110  13.211 -27.111  1.00  0.00    -0.027 C 
ATOM     12  C   UNL     1     -12.272  17.077 -25.060  1.00  0.00     0.008 C 
ATOM     13  C   UNL     1     -14.981  17.264 -26.314  1.00  0.00     0.008 C 
ATOM     14  C   UNL     1     -10.381  12.200 -24.954  1.00  0.00     0.017 C 
ATOM     15  C   UNL     1     -11.900  10.650 -26.398  1.00  0.00    -0.020 C 
ATOM     16  C   UNL     1     -13.487  12.001 -27.885  1.00  0.00     0.032 C 
ATOM     17  C   UNL     1     -13.254  10.610 -27.211  1.00  0.00     0.006 C 
ATOM     18  C   UNL     1     -10.765  10.729 -27.460  1.00  0.00     0.008 C 
ATOM     19  C   UNL     1     -11.685   9.352 -25.546  1.00  0.00     0.012 C 
ATOM     20  C   UNL     1     -13.413   9.454 -28.328  1.00  0.00    -0.025 C 
ATOM     21  C   UNL     1     -10.804   9.612 -28.519  1.00  0.00     0.005 C 
ATOM     22  C   UNL     1     -12.148   9.424 -29.291  1.00  0.00     0.003 C 
ATOM     23  C   UNL     1     -13.665   8.044 -27.697  1.00  0.00     0.010 C 
ATOM     24  C   UNL     1     -14.720   9.782 -29.133  1.00  0.00     0.012 C 
ATOM     25  C   UNL     1     -12.089   8.172 -30.285  1.00  0.00    -0.006 C 
ATOM     26  C   UNL     1     -13.684   6.886 -28.708  1.00  0.00     0.033 C 
ATOM     27  C   UNL     1     -12.402   6.827 -29.549  1.00  0.00     0.120 C 
ATOM     28  C   UNL     1     -13.078   8.356 -31.476  1.00  0.00     0.014 C 
ATOM     29  C   UNL     1     -10.690   8.051 -30.965  1.00  0.00     0.014 C 
ENDROOT
BRANCH   1  30
ATOM     30  C   UNL     1     -12.686  15.186 -22.585  1.00  0.00     0.048 C 
ATOM     31  O   UNL     1     -11.461  15.425 -22.405  1.00  0.00    -0.550 OA
ATOM     32  O   UNL     1     -13.608  15.727 -21.695  1.00  0.00    -0.550 OA
ENDBRANCH   1  30
BRANCH  27  33
ATOM     33  O   UNL     1     -11.339   6.448 -28.705  1.00  0.00    -0.393 OA
ATOM     34  H   UNL     1     -11.331   5.457 -28.658  1.00  0.00     0.210 HD
ENDBRANCH  27  33
TORSDOF 2
ENDMDL
MODEL 3
REMARK VINA RESULT:    -7.532      1.649      8.132
REMARK INTER + INTRA:          -8.098
REMARK INTER:                  -8.193
REMARK INTRA:                   0.095
REMARK UNBOUND:                 0.095
REMARK SMILES C[C@@H]1[C@H](C)CC[C@@]2(C(=O)[O-])CC[C@]3(C)C(=CC[C@H]4[C@]5(C)CC[C@H](O)C(C)(C)[C@@H]5CC[C@]43C)[C@@H]12
REMARK SMILES IDX 7 1 6 2 11 3 33 4 5 5 12 6 15 7 2 8 3 9 13 10 16 11 1 12
REMARK SMILES IDX 4 13 14 14 31 15 17 16 18 17 30 18 32 19 19 20 29 21 28 22
REMARK SMILES IDX 21 23 20 24 25 25 22 26 23 27 26 28 27 29 8 30 9 31 10 32
REMARK SMILES IDX 24 33
REMARK H PARENT 24 34
REMARK Flexibility Score: inf
ROOT
ATOM      1  C   UNL     1     -11.015  11.866 -26.256  1.00  0.00     0.017 C 
ATOM      2  C   UNL     1     -11.295  11.990 -27.781  1.00  0.00     0.014 C 
ATOM      3  C   UNL     1      -9.799  12.769 -25.891  1.00  0.00     0.014 C 
ATOM      4  C   UNL     1     -12.319  12.259 -25.453  1.00  0.00     0.030 C 
ATOM      5  C   UNL     1     -12.461  11.103 -28.236  1.00  0.00     0.004 C 
ATOM      6  C   UNL     1     -10.102  14.271 -25.761  1.00  0.00     0.013 C 
ATOM      7  C   UNL     1     -12.470  13.807 -25.385  1.00  0.00    -0.063 C 
ATOM      8  C   UNL     1     -13.589  11.458 -25.949  1.00  0.00    -0.003 C 
ATOM      9  C   UNL     1     -13.753  11.492 -27.508  1.00  0.00    -0.011 C 
ATOM     10  C   UNL     1     -11.297  14.613 -24.810  1.00  0.00    -0.006 C 
ATOM     11  C   UNL     1     -13.507  14.433 -25.965  1.00  0.00    -0.027 C 
ATOM     12  C   UNL     1     -13.628  10.017 -25.389  1.00  0.00     0.008 C 
ATOM     13  C   UNL     1     -14.933  10.644 -28.006  1.00  0.00     0.008 C 
ATOM     14  C   UNL     1     -11.008  14.069 -23.367  1.00  0.00     0.017 C 
ATOM     15  C   UNL     1     -11.552  16.221 -24.734  1.00  0.00    -0.020 C 
ATOM     16  C   UNL     1     -13.588  15.888 -26.250  1.00  0.00     0.032 C 
ATOM     17  C   UNL     1     -12.299  16.743 -26.025  1.00  0.00     0.006 C 
ATOM     18  C   UNL     1     -12.457  16.612 -23.529  1.00  0.00     0.008 C 
ATOM     19  C   UNL     1     -10.156  16.908 -24.542  1.00  0.00     0.012 C 
ATOM     20  C   UNL     1     -12.694  18.308 -26.070  1.00  0.00    -0.025 C 
ATOM     21  C   UNL     1     -12.816  18.108 -23.460  1.00  0.00     0.005 C 
ATOM     22  C   UNL     1     -13.452  18.737 -24.740  1.00  0.00     0.003 C 
ATOM     23  C   UNL     1     -11.454  19.230 -26.325  1.00  0.00     0.010 C 
ATOM     24  C   UNL     1     -13.616  18.505 -27.325  1.00  0.00     0.012 C 
ATOM     25  C   UNL     1     -13.683  20.311 -24.574  1.00  0.00    -0.006 C 
ATOM     26  C   UNL     1     -11.751  20.736 -26.238  1.00  0.00     0.033 C 
ATOM     27  C   UNL     1     -12.388  21.128 -24.898  1.00  0.00     0.120 C 
ATOM     28  C   UNL     1     -14.850  20.804 -25.481  1.00  0.00     0.014 C 
ATOM     29  C   UNL     1     -14.144  20.669 -23.127  1.00  0.00     0.014 C 
ENDROOT
BRANCH   1  30
ATOM     30  C   UNL     1     -10.562  10.448 -25.922  1.00  0.00     0.048 C 
ATOM     31  O   UNL     1     -10.407  10.095 -24.721  1.00  0.00    -0.550 OA
ATOM     32  O   UNL     1     -10.173   9.570 -26.928  1.00  0.00    -0.550 OA
ENDBRANCH   1  30
BRANCH  27  33
ATOM     33  O   UNL     1     -11.419  20.971 -23.888  1.00  0.00    -0.393 OA
ATOM     34  H   UNL     1     -11.666  21.573 -23.138  1.00  0.00     0.210 HD
ENDBRANCH  27  33
TORSDOF 2
ENDMDL
MODEL 4
REMARK VINA RESULT:    -7.367      1.570      1.979
REMARK INTER + INTRA:          -7.918
REMARK INTER:                  -8.014
REMARK INTRA:                   0.096
REMARK UNBOUND:                 0.095
REMARK SMILES C[C@@H]1[C@H](C)CC[C@@]2(C(=O)[O-])CC[C@]3(C)C(=CC[C@H]4[C@]5(C)CC[C@H](O)C(C)(C)[C@@H]5CC[C@]43C)[C@@H]12
REMARK SMILES IDX 7 1 6 2 11 3 33 4 5 5 12 6 15 7 2 8 3 9 13 10 16 11 1 12
REMARK SMILES IDX 4 13 14 14 31 15 17 16 18 17 30 18 32 19 19 20 29 21 28 22
REMARK SMILES IDX 21 23 20 24 25 25 22 26 23 27 26 28 27 29 8 30 9 31 10 32
REMARK SMILES IDX 24 33
REMARK H PARENT 24 34
REMARK Flexibility Score: inf
ROOT
ATOM      1  C   UNL     1     -13.467  17.652 -25.380  1.00  0.00     0.017 C 
ATOM      2  C   UNL     1     -12.405  18.137 -26.408  1.00  0.00     0.014 C 
ATOM      3  C   UNL     1     -14.613  16.924 -26.143  1.00  0.00     0.014 C 
ATOM      4  C   UNL     1     -12.769  16.722 -24.310  1.00  0.00     0.030 C 
ATOM      5  C   UNL     1     -11.252  18.900 -25.744  1.00  0.00     0.004 C 
ATOM      6  C   UNL     1     -14.308  15.481 -26.579  1.00  0.00     0.013 C 
ATOM      7  C   UNL     1     -12.555  15.292 -24.889  1.00  0.00    -0.063 C 
ATOM      8  C   UNL     1     -11.499  17.406 -23.662  1.00  0.00    -0.003 C 
ATOM      9  C   UNL     1     -10.525  18.006 -24.733  1.00  0.00    -0.011 C 
ATOM     10  C   UNL     1     -13.785  14.552 -25.432  1.00  0.00    -0.006 C 
ATOM     11  C   UNL     1     -11.322  14.791 -25.072  1.00  0.00    -0.027 C 
ATOM     12  C   UNL     1     -11.881  18.438 -22.575  1.00  0.00     0.008 C 
ATOM     13  C   UNL     1      -9.333  18.750 -24.110  1.00  0.00     0.008 C 
ATOM     14  C   UNL     1     -14.843  14.476 -24.277  1.00  0.00     0.017 C 
ATOM     15  C   UNL     1     -13.483  13.047 -25.981  1.00  0.00    -0.020 C 
ATOM     16  C   UNL     1     -10.985  13.607 -25.902  1.00  0.00     0.032 C 
ATOM     17  C   UNL     1     -12.122  12.993 -26.782  1.00  0.00     0.006 C 
ATOM     18  C   UNL     1     -13.336  12.021 -24.819  1.00  0.00     0.008 C 
ATOM     19  C   UNL     1     -14.704  12.616 -26.863  1.00  0.00     0.012 C 
ATOM     20  C   UNL     1     -11.641  11.552 -27.329  1.00  0.00    -0.025 C 
ATOM     21  C   UNL     1     -12.952  10.599 -25.268  1.00  0.00     0.005 C 
ATOM     22  C   UNL     1     -11.682  10.467 -26.167  1.00  0.00     0.003 C 
ATOM     23  C   UNL     1     -12.474  11.073 -28.565  1.00  0.00     0.010 C 
ATOM     24  C   UNL     1     -10.178  11.738 -27.867  1.00  0.00     0.012 C 
ATOM     25  C   UNL     1     -11.451   8.958 -26.646  1.00  0.00    -0.006 C 
ATOM     26  C   UNL     1     -12.151   9.645 -29.038  1.00  0.00     0.033 C 
ATOM     27  C   UNL     1     -12.301   8.612 -27.914  1.00  0.00     0.120 C 
ATOM     28  C   UNL     1      -9.944   8.689 -26.941  1.00  0.00     0.014 C 
ATOM     29  C   UNL     1     -11.808   7.942 -25.518  1.00  0.00     0.014 C 
ENDROOT
BRANCH   1  30
ATOM     30  C   UNL     1     -14.140  18.852 -24.719  1.00  0.00     0.048 C 
ATOM     31  O   UNL     1     -14.901  18.688 -23.726  1.00  0.00    -0.550 OA
ATOM     32  O   UNL     1     -14.047  20.120 -25.284  1.00  0.00    -0.550 OA
ENDBRANCH   1  30
BRANCH  27  33
ATOM     33  O   UNL     1     -13.669   8.503 -27.596  1.00  0.00    -0.393 OA
ATOM     34  H   UNL     1     -14.171   9.085 -28.225  1.00  0.00     0.210 HD
ENDBRANCH  27  33
TORSDOF 2
ENDMDL
MODEL 5
REMARK VINA RESULT:    -7.184      1.147      7.983
REMARK INTER + INTRA:          -7.719
REMARK INTER:                  -7.832
REMARK INTRA:                   0.113
REMARK UNBOUND:                 0.095
REMARK SMILES C[C@@H]1[C@H](C)CC[C@@]2(C(=O)[O-])CC[C@]3(C)C(=CC[C@H]4[C@]5(C)CC[C@H](O)C(C)(C)[C@@H]5CC[C@]43C)[C@@H]12
REMARK SMILES IDX 7 1 6 2 11 3 33 4 5 5 12 6 15 7 2 8 3 9 13 10 16 11 1 12
REMARK SMILES IDX 4 13 14 14 31 15 17 16 18 17 30 18 32 19 19 20 29 21 28 22
REMARK SMILES IDX 21 23 20 24 25 25 22 26 23 27 26 28 27 29 8 30 9 31 10 32
REMARK SMILES IDX 24 33
REMARK H PARENT 24 34
REMARK Flexibility Score: inf
ROOT
ATOM      1  C   UNL     1     -11.519  11.332 -24.918  1.00  0.00     0.017 C 
ATOM      2  C   UNL     1     -10.028  11.482 -24.501  1.00  0.00     0.014 C 
ATOM      3  C   UNL     1     -12.422  11.845 -23.758  1.00  0.00     0.014 C 
ATOM      4  C   UNL     1     -11.763  12.122 -26.266  1.00  0.00     0.030 C 
ATOM      5  C   UNL     1      -9.064  10.966 -25.576  1.00  0.00     0.004 C 
ATOM      6  C   UNL     1     -12.558  13.373 -23.647  1.00  0.00     0.013 C 
ATOM      7  C   UNL     1     -11.907  13.646 -25.985  1.00  0.00    -0.063 C 
ATOM      8  C   UNL     1     -10.727  11.718 -27.391  1.00  0.00    -0.003 C 
ATOM      9  C   UNL     1      -9.245  11.746 -26.883  1.00  0.00    -0.011 C 
ATOM     10  C   UNL     1     -12.977  14.087 -24.975  1.00  0.00    -0.006 C 
ATOM     11  C   UNL     1     -11.020  14.532 -26.467  1.00  0.00    -0.027 C 
ATOM     12  C   UNL     1     -11.089  10.373 -28.064  1.00  0.00     0.008 C 
ATOM     13  C   UNL     1      -8.239  11.270 -27.943  1.00  0.00     0.008 C 
ATOM     14  C   UNL     1     -14.357  13.531 -25.472  1.00  0.00     0.017 C 
ATOM     15  C   UNL     1     -13.092  15.700 -24.770  1.00  0.00    -0.020 C 
ATOM     16  C   UNL     1     -10.862  15.935 -26.007  1.00  0.00     0.032 C 
ATOM     17  C   UNL     1     -11.664  16.375 -24.739  1.00  0.00     0.006 C 
ATOM     18  C   UNL     1     -13.863  16.382 -25.938  1.00  0.00     0.008 C 
ATOM     19  C   UNL     1     -13.890  15.947 -23.444  1.00  0.00     0.012 C 
ATOM     20  C   UNL     1     -11.609  17.985 -24.618  1.00  0.00    -0.025 C 
ATOM     21  C   UNL     1     -13.920  17.919 -25.851  1.00  0.00     0.005 C 
ATOM     22  C   UNL     1     -12.557  18.664 -25.699  1.00  0.00     0.003 C 
ATOM     23  C   UNL     1     -11.959  18.487 -23.177  1.00  0.00     0.010 C 
ATOM     24  C   UNL     1     -10.113  18.403 -24.845  1.00  0.00     0.012 C 
ATOM     25  C   UNL     1     -12.761  20.241 -25.519  1.00  0.00    -0.006 C 
ATOM     26  C   UNL     1     -12.059  20.016 -23.041  1.00  0.00     0.033 C 
ATOM     27  C   UNL     1     -13.060  20.624 -24.031  1.00  0.00     0.120 C 
ATOM     28  C   UNL     1     -11.511  21.027 -26.018  1.00  0.00     0.014 C 
ATOM     29  C   UNL     1     -13.926  20.768 -26.411  1.00  0.00     0.014 C 
ENDROOT
BRANCH   1  30
ATOM     30  C   UNL     1     -11.874   9.856 -25.066  1.00  0.00     0.048 C 
ATOM     31  O   UNL     1     -13.044   9.512 -25.390  1.00  0.00    -0.550 OA
ATOM     32  O   UNL     1     -10.965   8.866 -24.707  1.00  0.00    -0.550 OA
ENDBRANCH   1  30
BRANCH  27  33
ATOM     33  O   UNL     1     -14.355  20.221 -23.651  1.00  0.00    -0.393 OA
ATOM     34  H   UNL     1     -15.003  20.725 -24.210  1.00  0.00     0.210 HD
ENDBRANCH  27  33
TORSDOF 2
ENDMDL
MODEL 6
REMARK VINA RESULT:    -6.919      4.685      6.840
REMARK INTER + INTRA:          -7.431
REMARK INTER:                  -7.612
REMARK INTRA:                   0.181
REMARK UNBOUND:                 0.095
REMARK SMILES C[C@@H]1[C@H](C)CC[C@@]2(C(=O)[O-])CC[C@]3(C)C(=CC[C@H]4[C@]5(C)CC[C@H](O)C(C)(C)[C@@H]5CC[C@]43C)[C@@H]12
REMARK SMILES IDX 7 1 6 2 11 3 33 4 5 5 12 6 15 7 2 8 3 9 13 10 16 11 1 12
REMARK SMILES IDX 4 13 14 14 31 15 17 16 18 17 30 18 32 19 19 20 29 21 28 22
REMARK SMILES IDX 21 23 20 24 25 25 22 26 23 27 26 28 27 29 8 30 9 31 10 32
REMARK SMILES IDX 24 33
REMARK H PARENT 24 34
REMARK Flexibility Score: inf
ROOT
ATOM      1  C   UNL     1      -6.192  18.250 -21.738  1.00  0.00     0.017 C 
ATOM      2  C   UNL     1      -6.792  19.583 -21.206  1.00  0.00     0.014 C 
ATOM      3  C   UNL     1      -6.777  17.067 -20.911  1.00  0.00     0.014 C 
ATOM      4  C   UNL     1      -6.504  18.118 -23.282  1.00  0.00     0.030 C 
ATOM      5  C   UNL     1      -6.241  20.809 -21.944  1.00  0.00     0.004 C 
ATOM      6  C   UNL     1      -8.202  16.632 -21.292  1.00  0.00     0.013 C 
ATOM      7  C   UNL     1      -7.970  17.643 -23.502  1.00  0.00    -0.063 C 
ATOM      8  C   UNL     1      -6.060  19.402 -24.093  1.00  0.00    -0.003 C 
ATOM      9  C   UNL     1      -6.570  20.733 -23.440  1.00  0.00    -0.011 C 
ATOM     10  C   UNL     1      -8.408  16.341 -22.816  1.00  0.00    -0.006 C 
ATOM     11  C   UNL     1      -8.871  18.424 -24.120  1.00  0.00    -0.027 C 
ATOM     12  C   UNL     1      -4.537  19.428 -24.360  1.00  0.00     0.008 C 
ATOM     13  C   UNL     1      -6.071  21.989 -24.170  1.00  0.00     0.008 C 
ATOM     14  C   UNL     1      -7.432  15.206 -23.284  1.00  0.00     0.017 C 
ATOM     15  C   UNL     1      -9.943  15.892 -23.131  1.00  0.00    -0.020 C 
ATOM     16  C   UNL     1     -10.343  18.230 -24.097  1.00  0.00     0.032 C 
ATOM     17  C   UNL     1     -10.914  17.138 -23.134  1.00  0.00     0.006 C 
ATOM     18  C   UNL     1     -10.082  15.238 -24.537  1.00  0.00     0.008 C 
ATOM     19  C   UNL     1     -10.350  14.830 -22.054  1.00  0.00     0.012 C 
ATOM     20  C   UNL     1     -12.462  16.870 -23.506  1.00  0.00    -0.025 C 
ATOM     21  C   UNL     1     -11.526  14.881 -24.934  1.00  0.00     0.005 C 
ATOM     22  C   UNL     1     -12.581  16.030 -24.851  1.00  0.00     0.003 C 
ATOM     23  C   UNL     1     -13.243  16.170 -22.344  1.00  0.00     0.010 C 
ATOM     24  C   UNL     1     -13.139  18.277 -23.666  1.00  0.00     0.012 C 
ATOM     25  C   UNL     1     -14.054  15.506 -25.190  1.00  0.00    -0.006 C 
ATOM     26  C   UNL     1     -14.684  15.764 -22.697  1.00  0.00     0.033 C 
ATOM     27  C   UNL     1     -14.748  14.869 -23.941  1.00  0.00     0.120 C 
ATOM     28  C   UNL     1     -14.942  16.659 -25.749  1.00  0.00     0.014 C 
ATOM     29  C   UNL     1     -14.032  14.449 -26.337  1.00  0.00     0.014 C 
ENDROOT
BRANCH   1  30
ATOM     30  C   UNL     1      -4.690  18.210 -21.468  1.00  0.00     0.048 C 
ATOM     31  O   UNL     1      -4.038  17.147 -21.657  1.00  0.00    -0.550 OA
ATOM     32  O   UNL     1      -4.045  19.290 -20.875  1.00  0.00    -0.550 OA
ENDBRANCH   1  30
BRANCH  27  33
ATOM     33  O   UNL     1     -14.175  13.624 -23.618  1.00  0.00    -0.393 OA
ATOM     34  H   UNL     1     -14.909  12.958 -23.569  1.00  0.00     0.210 HD
ENDBRANCH  27  33
TORSDOF 2
ENDMDL
MODEL 7
REMARK VINA RESULT:    -6.913      2.896      4.608
REMARK INTER + INTRA:          -7.424
REMARK INTER:                  -7.521
REMARK INTRA:                   0.097
REMARK UNBOUND:                 0.095
REMARK SMILES C[C@@H]1[C@H](C)CC[C@@]2(C(=O)[O-])CC[C@]3(C)C(=CC[C@H]4[C@]5(C)CC[C@H](O)C(C)(C)[C@@H]5CC[C@]43C)[C@@H]12
REMARK SMILES IDX 7 1 6 2 11 3 33 4 5 5 12 6 15 7 2 8 3 9 13 10 16 11 1 12
REMARK SMILES IDX 4 13 14 14 31 15 17 16 18 17 30 18 32 19 19 20 29 21 28 22
REMARK SMILES IDX 21 23 20 24 25 25 22 26 23 27 26 28 27 29 8 30 9 31 10 32
REMARK SMILES IDX 24 33
REMARK H PARENT 24 34
REMARK Flexibility Score: inf
ROOT
ATOM      1  C   UNL     1      -9.051  17.448 -22.512  1.00  0.00     0.017 C 
ATOM      2  C   UNL     1     -10.331  17.811 -21.706  1.00  0.00     0.014 C 
ATOM      3  C   UNL     1      -8.591  16.015 -22.111  1.00  0.00     0.014 C 
ATOM      4  C   UNL     1      -9.357  17.572 -24.058  1.00  0.00     0.030 C 
ATOM      5  C   UNL     1     -10.836  19.226 -22.014  1.00  0.00     0.004 C 
ATOM      6  C   UNL     1      -9.379  14.861 -22.752  1.00  0.00     0.013 C 
ATOM      7  C   UNL     1     -10.131  16.319 -24.562  1.00  0.00    -0.063 C 
ATOM      8  C   UNL     1      -9.986  18.974 -24.432  1.00  0.00    -0.003 C 
ATOM      9  C   UNL     1     -11.186  19.364 -23.501  1.00  0.00    -0.011 C 
ATOM     10  C   UNL     1      -9.499  14.942 -24.311  1.00  0.00    -0.006 C 
ATOM     11  C   UNL     1     -11.383  16.417 -25.039  1.00  0.00    -0.027 C 
ATOM     12  C   UNL     1      -8.921  20.092 -24.510  1.00  0.00     0.008 C 
ATOM     13  C   UNL     1     -11.747  20.763 -23.799  1.00  0.00     0.008 C 
ATOM     14  C   UNL     1      -8.071  14.949 -24.960  1.00  0.00     0.017 C 
ATOM     15  C   UNL     1     -10.351  13.687 -24.906  1.00  0.00    -0.020 C 
ATOM     16  C   UNL     1     -12.324  15.285 -25.233  1.00  0.00     0.032 C 
ATOM     17  C   UNL     1     -11.901  13.888 -24.676  1.00  0.00     0.006 C 
ATOM     18  C   UNL     1     -10.163  13.531 -26.444  1.00  0.00     0.008 C 
ATOM     19  C   UNL     1      -9.815  12.387 -24.213  1.00  0.00     0.012 C 
ATOM     20  C   UNL     1     -12.891  12.762 -25.278  1.00  0.00    -0.025 C 
ATOM     21  C   UNL     1     -11.020  12.422 -27.082  1.00  0.00     0.005 C 
ATOM     22  C   UNL     1     -12.556  12.476 -26.806  1.00  0.00     0.003 C 
ATOM     23  C   UNL     1     -12.864  11.436 -24.446  1.00  0.00     0.010 C 
ATOM     24  C   UNL     1     -14.351  13.315 -25.120  1.00  0.00     0.012 C 
ATOM     25  C   UNL     1     -13.316  11.218 -27.437  1.00  0.00    -0.006 C 
ATOM     26  C   UNL     1     -13.681  10.284 -25.054  1.00  0.00     0.033 C 
ATOM     27  C   UNL     1     -13.258   9.969 -26.495  1.00  0.00     0.120 C 
ATOM     28  C   UNL     1     -14.802  11.563 -27.755  1.00  0.00     0.014 C 
ATOM     29  C   UNL     1     -12.710  10.823 -28.819  1.00  0.00     0.014 C 
ENDROOT
BRANCH   1  30
ATOM     30  C   UNL     1      -7.898  18.358 -22.098  1.00  0.00     0.048 C 
ATOM     31  O   UNL     1      -6.795  18.305 -22.707  1.00  0.00    -0.550 OA
ATOM     32  O   UNL     1      -7.991  19.151 -20.959  1.00  0.00    -0.550 OA
ENDBRANCH   1  30
BRANCH  27  33
ATOM     33  O   UNL     1     -11.965   9.413 -26.463  1.00  0.00    -0.393 OA
ATOM     34  H   UNL     1     -11.698   9.218 -27.399  1.00  0.00     0.210 HD
ENDBRANCH  27  33
TORSDOF 2
ENDMDL
MODEL 8
REMARK VINA RESULT:    -6.907     14.273     18.273
REMARK INTER + INTRA:          -7.417
REMARK INTER:                  -7.558
REMARK INTRA:                   0.141
REMARK UNBOUND:                 0.095
REMARK SMILES C[C@@H]1[C@H](C)CC[C@@]2(C(=O)[O-])CC[C@]3(C)C(=CC[C@H]4[C@]5(C)CC[C@H](O)C(C)(C)[C@@H]5CC[C@]43C)[C@@H]12
REMARK SMILES IDX 7 1 6 2 11 3 33 4 5 5 12 6 15 7 2 8 3 9 13 10 16 11 1 12
REMARK SMILES IDX 4 13 14 14 31 15 17 16 18 17 30 18 32 19 19 20 29 21 28 22
REMARK SMILES IDX 21 23 20 24 25 25 22 26 23 27 26 28 27 29 8 30 9 31 10 32
REMARK SMILES IDX 24 33
REMARK H PARENT 24 34
REMARK Flexibility Score: inf
ROOT
ATOM      1  C   UNL     1      -1.392   5.336 -37.126  1.00  0.00     0.017 C 
ATOM      2  C   UNL     1      -2.099   4.510 -36.015  1.00  0.00     0.014 C 
ATOM      3  C   UNL     1      -2.032   4.984 -38.502  1.00  0.00     0.014 C 
ATOM      4  C   UNL     1      -1.507   6.875 -36.784  1.00  0.00     0.030 C 
ATOM      5  C   UNL     1      -1.506   4.769 -34.624  1.00  0.00     0.004 C 
ATOM      6  C   UNL     1      -3.383   5.657 -38.797  1.00  0.00     0.013 C 
ATOM      7  C   UNL     1      -2.918   7.413 -37.165  1.00  0.00    -0.063 C 
ATOM      8  C   UNL     1      -1.013   7.199 -35.317  1.00  0.00    -0.003 C 
ATOM      9  C   UNL     1      -1.645   6.247 -34.244  1.00  0.00    -0.011 C 
ATOM     10  C   UNL     1      -3.390   7.211 -38.612  1.00  0.00    -0.006 C 
ATOM     11  C   UNL     1      -3.763   7.878 -36.231  1.00  0.00    -0.027 C 
ATOM     12  C   UNL     1       0.530   7.249 -35.216  1.00  0.00     0.008 C 
ATOM     13  C   UNL     1      -1.105   6.497 -32.827  1.00  0.00     0.008 C 
ATOM     14  C   UNL     1      -2.325   7.870 -39.556  1.00  0.00     0.017 C 
ATOM     15  C   UNL     1      -4.858   7.840 -38.939  1.00  0.00    -0.020 C 
ATOM     16  C   UNL     1      -5.219   8.102 -36.417  1.00  0.00     0.032 C 
ATOM     17  C   UNL     1      -5.865   7.592 -37.747  1.00  0.00     0.006 C 
ATOM     18  C   UNL     1      -4.800   9.383 -39.137  1.00  0.00     0.008 C 
ATOM     19  C   UNL     1      -5.357   7.193 -40.276  1.00  0.00     0.012 C 
ATOM     20  C   UNL     1      -7.345   8.223 -37.885  1.00  0.00    -0.025 C 
ATOM     21  C   UNL     1      -6.172  10.050 -39.351  1.00  0.00     0.005 C 
ATOM     22  C   UNL     1      -7.268   9.761 -38.278  1.00  0.00     0.003 C 
ATOM     23  C   UNL     1      -8.238   7.434 -38.901  1.00  0.00     0.010 C 
ATOM     24  C   UNL     1      -8.046   8.037 -36.492  1.00  0.00     0.012 C 
ATOM     25  C   UNL     1      -8.669  10.427 -38.669  1.00  0.00    -0.006 C 
ATOM     26  C   UNL     1      -9.609   8.073 -39.175  1.00  0.00     0.033 C 
ATOM     27  C   UNL     1      -9.489   9.526 -39.652  1.00  0.00     0.120 C 
ATOM     28  C   UNL     1      -9.522  10.723 -37.398  1.00  0.00     0.014 C 
ATOM     29  C   UNL     1      -8.469  11.826 -39.330  1.00  0.00     0.014 C 
ENDROOT
BRANCH   1  30
ATOM     30  C   UNL     1       0.066   4.901 -37.252  1.00  0.00     0.048 C 
ATOM     31  O   UNL     1       0.794   5.373 -38.167  1.00  0.00    -0.550 OA
ATOM     32  O   UNL     1       0.573   3.877 -36.460  1.00  0.00    -0.550 OA
ENDBRANCH   1  30
BRANCH  27  33
ATOM     33  O   UNL     1      -8.916   9.521 -40.938  1.00  0.00    -0.393 OA
ATOM     34  H   UNL     1      -9.565   9.092 -41.555  1.00  0.00     0.210 HD
ENDBRANCH  27  33
TORSDOF 2
ENDMDL
MODEL 9
REMARK VINA RESULT:    -6.876      1.752      2.878
REMARK INTER + INTRA:          -7.384
REMARK INTER:                  -7.520
REMARK INTRA:                   0.136
REMARK UNBOUND:                 0.095
REMARK SMILES C[C@@H]1[C@H](C)CC[C@@]2(C(=O)[O-])CC[C@]3(C)C(=CC[C@H]4[C@]5(C)CC[C@H](O)C(C)(C)[C@@H]5CC[C@]43C)[C@@H]12
REMARK SMILES IDX 7 1 6 2 11 3 33 4 5 5 12 6 15 7 2 8 3 9 13 10 16 11 1 12
REMARK SMILES IDX 4 13 14 14 31 15 17 16 18 17 30 18 32 19 19 20 29 21 28 22
REMARK SMILES IDX 21 23 20 24 25 25 22 26 23 27 26 28 27 29 8 30 9 31 10 32
REMARK SMILES IDX 24 33
REMARK H PARENT 24 34
REMARK Flexibility Score: inf
ROOT
ATOM      1  C   UNL     1     -14.004  15.986 -24.553  1.00  0.00     0.017 C 
ATOM      2  C   UNL     1     -14.047  16.520 -26.013  1.00  0.00     0.014 C 
ATOM      3  C   UNL     1     -14.944  14.750 -24.438  1.00  0.00     0.014 C 
ATOM      4  C   UNL     1     -12.509  15.644 -24.168  1.00  0.00     0.030 C 
ATOM      5  C   UNL     1     -13.173  17.764 -26.208  1.00  0.00     0.004 C 
ATOM      6  C   UNL     1     -14.376  13.430 -24.987  1.00  0.00     0.013 C 
ATOM      7  C   UNL     1     -12.093  14.270 -24.771  1.00  0.00    -0.063 C 
ATOM      8  C   UNL     1     -11.528  16.852 -24.449  1.00  0.00    -0.003 C 
ATOM      9  C   UNL     1     -11.707  17.451 -25.887  1.00  0.00    -0.011 C 
ATOM     10  C   UNL     1     -12.962  13.051 -24.433  1.00  0.00    -0.006 C 
ATOM     11  C   UNL     1     -11.119  14.178 -25.692  1.00  0.00    -0.027 C 
ATOM     12  C   UNL     1     -11.606  17.938 -23.351  1.00  0.00     0.008 C 
ATOM     13  C   UNL     1     -10.821  18.680 -26.140  1.00  0.00     0.008 C 
ATOM     14  C   UNL     1     -13.014  12.922 -22.870  1.00  0.00     0.017 C 
ATOM     15  C   UNL     1     -12.434  11.645 -25.068  1.00  0.00    -0.020 C 
ATOM     16  C   UNL     1     -10.863  13.005 -26.565  1.00  0.00     0.032 C 
ATOM     17  C   UNL     1     -11.913  11.847 -26.546  1.00  0.00     0.006 C 
ATOM     18  C   UNL     1     -11.236  11.057 -24.268  1.00  0.00     0.008 C 
ATOM     19  C   UNL     1     -13.621  10.624 -24.996  1.00  0.00     0.012 C 
ATOM     20  C   UNL     1     -11.284  10.559 -27.291  1.00  0.00    -0.025 C 
ATOM     21  C   UNL     1     -10.629   9.779 -24.876  1.00  0.00     0.005 C 
ATOM     22  C   UNL     1     -10.193   9.854 -26.374  1.00  0.00     0.003 C 
ATOM     23  C   UNL     1     -12.380   9.534 -27.739  1.00  0.00     0.010 C 
ATOM     24  C   UNL     1     -10.640  11.079 -28.625  1.00  0.00     0.012 C 
ATOM     25  C   UNL     1      -9.675   8.439 -26.911  1.00  0.00    -0.006 C 
ATOM     26  C   UNL     1     -11.826   8.225 -28.327  1.00  0.00     0.033 C 
ATOM     27  C   UNL     1     -10.856   7.521 -27.370  1.00  0.00     0.120 C 
ATOM     28  C   UNL     1      -8.669   8.621 -28.088  1.00  0.00     0.014 C 
ATOM     29  C   UNL     1      -8.855   7.683 -25.820  1.00  0.00     0.014 C 
ENDROOT
BRANCH   1  30
ATOM     30  C   UNL     1     -14.601  17.019 -23.601  1.00  0.00     0.048 C 
ATOM     31  O   UNL     1     -14.748  16.748 -22.378  1.00  0.00    -0.550 OA
ATOM     32  O   UNL     1     -15.125  18.213 -24.085  1.00  0.00    -0.550 OA
ENDBRANCH   1  30
BRANCH  27  33
ATOM     33  O   UNL     1     -11.593   7.047 -26.267  1.00  0.00    -0.393 OA
ATOM     34  H   UNL     1     -12.478   6.749 -26.602  1.00  0.00     0.210 HD
ENDBRANCH  27  33
TORSDOF 2
ENDMDL
