MODEL 1
REMARK VINA RESULT:    -7.545      0.000      0.000
REMARK INTER + INTRA:          -9.270
REMARK INTER:                  -9.088
REMARK INTRA:                  -0.182
REMARK UNBOUND:                -0.182
REMARK SMILES O=c1c(O)c(-c2ccc(O)cc2O)oc2cc(O)cc(O)c12
REMARK SMILES IDX 5 1 3 2 2 3 1 4 22 5 20 6 19 7 17 8 16 9 15 10 14 11 6 12
REMARK SMILES IDX 8 13 7 14 9 15 11 16 12 17 10 18 13 20 4 22 21 24 18 26
REMARK H PARENT 10 19 13 21 4 23 21 25 18 27
REMARK Flexibility Score: inf
ROOT
ATOM      1  C   UNL     1      16.128  35.607  56.634  1.00  0.00     0.184 A 
ATOM      2  C   UNL     1      17.436  35.653  56.130  1.00  0.00     0.208 A 
ATOM      3  C   UNL     1      17.643  35.444  54.757  1.00  0.00     0.238 A 
ATOM      4  O   UNL     1      18.825  35.425  54.321  1.00  0.00    -0.285 OA
ATOM      5  C   UNL     1      16.535  35.223  53.903  1.00  0.00     0.111 A 
ATOM      6  C   UNL     1      16.624  35.040  52.490  1.00  0.00     0.134 A 
ATOM      7  C   UNL     1      15.475  34.706  51.764  1.00  0.00     0.093 A 
ATOM      8  C   UNL     1      14.229  34.612  52.389  1.00  0.00     0.123 A 
ATOM      9  C   UNL     1      14.123  34.846  53.757  1.00  0.00     0.094 A 
ATOM     10  C   UNL     1      15.257  35.145  54.516  1.00  0.00     0.146 A 
ATOM     11  O   UNL     1      15.112  35.346  55.820  1.00  0.00    -0.451 OA
ENDROOT
BRANCH   1  12
ATOM     12  C   UNL     1      15.847  35.842  58.067  1.00  0.00     0.063 A 
ATOM     13  C   UNL     1      15.013  34.999  60.192  1.00  0.00     0.047 A 
ATOM     14  C   UNL     1      15.240  34.825  58.826  1.00  0.00     0.020 A 
ATOM     15  C   UNL     1      15.395  36.185  60.823  1.00  0.00     0.119 A 
ATOM     16  C   UNL     1      16.002  37.203  60.078  1.00  0.00     0.093 A 
ATOM     17  C   UNL     1      16.225  37.047  58.705  1.00  0.00     0.130 A 
BRANCH  15  18
ATOM     18  O   UNL     1      15.167  36.342  62.188  1.00  0.00    -0.508 OA
ATOM     19  H   UNL     1      14.276  36.105  62.608  1.00  0.00     0.293 HD
ENDBRANCH  15  18
BRANCH  17  20
ATOM     20  O   UNL     1      16.800  38.109  58.004  1.00  0.00    -0.507 OA
ATOM     21  H   UNL     1      16.749  38.199  56.998  1.00  0.00     0.293 HD
ENDBRANCH  17  20
ENDBRANCH   1  12
BRANCH   2  22
ATOM     22  O   UNL     1      18.510  35.877  56.995  1.00  0.00    -0.502 OA
ATOM     23  H   UNL     1      18.883  35.153  57.597  1.00  0.00     0.293 HD
ENDBRANCH   2  22
BRANCH   6  24
ATOM     24  O   UNL     1      17.802  35.199  51.754  1.00  0.00    -0.507 OA
ATOM     25  H   UNL     1      18.267  36.079  51.597  1.00  0.00     0.293 HD
ENDBRANCH   6  24
BRANCH   8  26
ATOM     26  O   UNL     1      13.088  34.295  51.656  1.00  0.00    -0.508 OA
ATOM     27  H   UNL     1      12.352  33.717  52.043  1.00  0.00     0.293 HD
ENDBRANCH   8  26
TORSDOF 6
ENDMDL
MODEL 2
REMARK VINA RESULT:    -7.421      3.379      4.842
REMARK INTER + INTRA:          -9.121
REMARK INTER:                  -8.729
REMARK INTRA:                  -0.392
REMARK UNBOUND:                -0.182
REMARK SMILES O=c1c(O)c(-c2ccc(O)cc2O)oc2cc(O)cc(O)c12
REMARK SMILES IDX 5 1 3 2 2 3 1 4 22 5 20 6 19 7 17 8 16 9 15 10 14 11 6 12
REMARK SMILES IDX 8 13 7 14 9 15 11 16 12 17 10 18 13 20 4 22 21 24 18 26
REMARK H PARENT 10 19 13 21 4 23 21 25 18 27
REMARK Flexibility Score: inf
ROOT
ATOM      1  C   UNL     1      13.287  36.216  55.249  1.00  0.00     0.184 A 
ATOM      2  C   UNL     1      14.329  36.563  56.123  1.00  0.00     0.208 A 
ATOM      3  C   UNL     1      15.647  36.217  55.781  1.00  0.00     0.238 A 
ATOM      4  O   UNL     1      16.570  36.477  56.598  1.00  0.00    -0.285 OA
ATOM      5  C   UNL     1      15.906  35.556  54.556  1.00  0.00     0.111 A 
ATOM      6  C   UNL     1      17.205  35.194  54.089  1.00  0.00     0.134 A 
ATOM      7  C   UNL     1      17.332  34.434  52.920  1.00  0.00     0.093 A 
ATOM      8  C   UNL     1      16.210  34.078  52.167  1.00  0.00     0.123 A 
ATOM      9  C   UNL     1      14.943  34.476  52.583  1.00  0.00     0.094 A 
ATOM     10  C   UNL     1      14.781  35.204  53.765  1.00  0.00     0.146 A 
ATOM     11  O   UNL     1      13.553  35.551  54.132  1.00  0.00    -0.451 OA
ENDROOT
BRANCH   1  12
ATOM     12  C   UNL     1      11.883  36.574  55.546  1.00  0.00     0.063 A 
ATOM     13  C   UNL     1      10.160  38.284  55.713  1.00  0.00     0.047 A 
ATOM     14  C   UNL     1      11.490  37.923  55.492  1.00  0.00     0.020 A 
ATOM     15  C   UNL     1       9.202  37.304  55.983  1.00  0.00     0.119 A 
ATOM     16  C   UNL     1       9.581  35.957  56.037  1.00  0.00     0.093 A 
ATOM     17  C   UNL     1      10.914  35.583  55.829  1.00  0.00     0.130 A 
BRANCH  15  18
ATOM     18  O   UNL     1       7.877  37.678  56.196  1.00  0.00    -0.508 OA
ATOM     19  H   UNL     1       7.240  37.837  55.425  1.00  0.00     0.293 HD
ENDBRANCH  15  18
BRANCH  17  20
ATOM     20  O   UNL     1      11.244  34.230  55.931  1.00  0.00    -0.507 OA
ATOM     21  H   UNL     1      12.188  33.901  56.079  1.00  0.00     0.293 HD
ENDBRANCH  17  20
ENDBRANCH   1  12
BRANCH   2  22
ATOM     22  O   UNL     1      14.045  37.219  57.323  1.00  0.00    -0.502 OA
ATOM     23  H   UNL     1      13.261  36.960  57.911  1.00  0.00     0.293 HD
ENDBRANCH   2  22
BRANCH   6  24
ATOM     24  O   UNL     1      18.396  35.575  54.716  1.00  0.00    -0.507 OA
ATOM     25  H   UNL     1      19.311  35.515  54.298  1.00  0.00     0.293 HD
ENDBRANCH   6  24
BRANCH   8  26
ATOM     26  O   UNL     1      16.347  33.335  50.996  1.00  0.00    -0.508 OA
ATOM     27  H   UNL     1      16.591  32.352  51.017  1.00  0.00     0.293 HD
ENDBRANCH   8  26
TORSDOF 6
ENDMDL
MODEL 3
REMARK VINA RESULT:    -7.242      2.188      3.522
REMARK INTER + INTRA:          -8.905
REMARK INTER:                  -8.599
REMARK INTRA:                  -0.306
REMARK UNBOUND:                -0.182
REMARK SMILES O=c1c(O)c(-c2ccc(O)cc2O)oc2cc(O)cc(O)c12
REMARK SMILES IDX 5 1 3 2 2 3 1 4 22 5 20 6 19 7 17 8 16 9 15 10 14 11 6 12
REMARK SMILES IDX 8 13 7 14 9 15 11 16 12 17 10 18 13 20 4 22 21 24 18 26
REMARK H PARENT 10 19 13 21 4 23 21 25 18 27
REMARK Flexibility Score: inf
ROOT
ATOM      1  C   UNL     1      16.008  37.094  56.748  1.00  0.00     0.184 A 
ATOM      2  C   UNL     1      14.806  36.381  56.869  1.00  0.00     0.208 A 
ATOM      3  C   UNL     1      14.453  35.467  55.863  1.00  0.00     0.238 A 
ATOM      4  O   UNL     1      13.344  34.876  55.947  1.00  0.00    -0.285 OA
ATOM      5  C   UNL     1      15.322  35.259  54.764  1.00  0.00     0.111 A 
ATOM      6  C   UNL     1      15.085  34.329  53.708  1.00  0.00     0.134 A 
ATOM      7  C   UNL     1      15.953  34.296  52.610  1.00  0.00     0.093 A 
ATOM      8  C   UNL     1      17.085  35.113  52.561  1.00  0.00     0.123 A 
ATOM      9  C   UNL     1      17.357  35.982  53.614  1.00  0.00     0.094 A 
ATOM     10  C   UNL     1      16.490  36.065  54.707  1.00  0.00     0.146 A 
ATOM     11  O   UNL     1      16.779  36.917  55.682  1.00  0.00    -0.451 OA
ENDROOT
BRANCH   1  12
ATOM     12  C   UNL     1      16.443  38.052  57.788  1.00  0.00     0.063 A 
ATOM     13  C   UNL     1      18.075  38.700  59.472  1.00  0.00     0.047 A 
ATOM     14  C   UNL     1      17.612  37.787  58.524  1.00  0.00     0.020 A 
ATOM     15  C   UNL     1      17.385  39.893  59.695  1.00  0.00     0.119 A 
ATOM     16  C   UNL     1      16.221  40.169  58.967  1.00  0.00     0.093 A 
ATOM     17  C   UNL     1      15.739  39.256  58.021  1.00  0.00     0.130 A 
BRANCH  15  18
ATOM     18  O   UNL     1      17.862  40.798  60.641  1.00  0.00    -0.508 OA
ATOM     19  H   UNL     1      18.643  40.570  61.246  1.00  0.00     0.293 HD
ENDBRANCH  15  18
BRANCH  17  20
ATOM     20  O   UNL     1      14.554  39.566  57.350  1.00  0.00    -0.507 OA
ATOM     21  H   UNL     1      14.125  40.481  57.380  1.00  0.00     0.293 HD
ENDBRANCH  17  20
ENDBRANCH   1  12
BRANCH   2  22
ATOM     22  O   UNL     1      13.970  36.604  57.966  1.00  0.00    -0.502 OA
ATOM     23  H   UNL     1      14.254  36.396  58.917  1.00  0.00     0.293 HD
ENDBRANCH   2  22
BRANCH   6  24
ATOM     24  O   UNL     1      14.035  33.406  53.700  1.00  0.00    -0.507 OA
ATOM     25  H   UNL     1      13.468  33.173  54.501  1.00  0.00     0.293 HD
ENDBRANCH   6  24
BRANCH   8  26
ATOM     26  O   UNL     1      17.953  35.061  51.472  1.00  0.00    -0.508 OA
ATOM     27  H   UNL     1      18.511  35.862  51.200  1.00  0.00     0.293 HD
ENDBRANCH   8  26
TORSDOF 6
ENDMDL
MODEL 4
REMARK VINA RESULT:    -7.207      1.572      6.690
REMARK INTER + INTRA:          -8.863
REMARK INTER:                  -8.579
REMARK INTRA:                  -0.284
REMARK UNBOUND:                -0.182
REMARK SMILES O=c1c(O)c(-c2ccc(O)cc2O)oc2cc(O)cc(O)c12
REMARK SMILES IDX 5 1 3 2 2 3 1 4 22 5 20 6 19 7 17 8 16 9 15 10 14 11 6 12
REMARK SMILES IDX 8 13 7 14 9 15 11 16 12 17 10 18 13 20 4 22 21 24 18 26
REMARK H PARENT 10 19 13 21 4 23 21 25 18 27
REMARK Flexibility Score: inf
ROOT
ATOM      1  C   UNL     1      15.981  35.892  56.294  1.00  0.00     0.184 A 
ATOM      2  C   UNL     1      16.452  37.184  56.577  1.00  0.00     0.208 A 
ATOM      3  C   UNL     1      16.446  37.633  57.907  1.00  0.00     0.238 A 
ATOM      4  O   UNL     1      16.811  38.814  58.146  1.00  0.00    -0.285 OA
ATOM      5  C   UNL     1      15.996  36.774  58.939  1.00  0.00     0.111 A 
ATOM      6  C   UNL     1      15.983  37.110  60.326  1.00  0.00     0.134 A 
ATOM      7  C   UNL     1      15.402  36.228  61.244  1.00  0.00     0.093 A 
ATOM      8  C   UNL     1      14.891  34.993  60.834  1.00  0.00     0.123 A 
ATOM      9  C   UNL     1      14.952  34.632  59.492  1.00  0.00     0.094 A 
ATOM     10  C   UNL     1      15.493  35.506  58.545  1.00  0.00     0.146 A 
ATOM     11  O   UNL     1      15.517  35.127  57.273  1.00  0.00    -0.451 OA
ENDROOT
BRANCH   1  12
ATOM     12  C   UNL     1      15.986  35.356  54.915  1.00  0.00     0.063 A 
ATOM     13  C   UNL     1      17.238  34.759  52.916  1.00  0.00     0.047 A 
ATOM     14  C   UNL     1      17.194  35.309  54.198  1.00  0.00     0.020 A 
ATOM     15  C   UNL     1      16.079  34.239  52.335  1.00  0.00     0.119 A 
ATOM     16  C   UNL     1      14.870  34.279  53.040  1.00  0.00     0.093 A 
ATOM     17  C   UNL     1      14.810  34.839  54.322  1.00  0.00     0.130 A 
BRANCH  15  18
ATOM     18  O   UNL     1      16.138  33.688  51.057  1.00  0.00    -0.508 OA
ATOM     19  H   UNL     1      16.638  32.825  50.874  1.00  0.00     0.293 HD
ENDBRANCH  15  18
BRANCH  17  20
ATOM     20  O   UNL     1      13.572  34.885  54.965  1.00  0.00    -0.507 OA
ATOM     21  H   UNL     1      13.268  35.672  55.523  1.00  0.00     0.293 HD
ENDBRANCH  17  20
ENDBRANCH   1  12
BRANCH   2  22
ATOM     22  O   UNL     1      16.894  38.008  55.539  1.00  0.00    -0.502 OA
ATOM     23  H   UNL     1      17.007  37.673  54.589  1.00  0.00     0.293 HD
ENDBRANCH   2  22
BRANCH   6  24
ATOM     24  O   UNL     1      16.547  38.276  60.853  1.00  0.00    -0.507 OA
ATOM     25  H   UNL     1      16.457  38.576  61.812  1.00  0.00     0.293 HD
ENDBRANCH   6  24
BRANCH   8  26
ATOM     26  O   UNL     1      14.330  34.115  61.758  1.00  0.00    -0.508 OA
ATOM     27  H   UNL     1      13.375  34.222  62.079  1.00  0.00     0.293 HD
ENDBRANCH   8  26
TORSDOF 6
ENDMDL
MODEL 5
REMARK VINA RESULT:    -7.141      3.200      4.933
REMARK INTER + INTRA:          -8.783
REMARK INTER:                  -8.413
REMARK INTRA:                  -0.370
REMARK UNBOUND:                -0.182
REMARK SMILES O=c1c(O)c(-c2ccc(O)cc2O)oc2cc(O)cc(O)c12
REMARK SMILES IDX 5 1 3 2 2 3 1 4 22 5 20 6 19 7 17 8 16 9 15 10 14 11 6 12
REMARK SMILES IDX 8 13 7 14 9 15 11 16 12 17 10 18 13 20 4 22 21 24 18 26
REMARK H PARENT 10 19 13 21 4 23 21 25 18 27
REMARK Flexibility Score: inf
ROOT
ATOM      1  C   UNL     1      13.236  36.075  54.952  1.00  0.00     0.184 A 
ATOM      2  C   UNL     1      12.939  35.504  53.705  1.00  0.00     0.208 A 
ATOM      3  C   UNL     1      13.987  34.985  52.928  1.00  0.00     0.238 A 
ATOM      4  O   UNL     1      13.722  34.531  51.784  1.00  0.00    -0.285 OA
ATOM      5  C   UNL     1      15.314  35.019  53.422  1.00  0.00     0.111 A 
ATOM      6  C   UNL     1      16.448  34.486  52.738  1.00  0.00     0.134 A 
ATOM      7  C   UNL     1      17.729  34.685  53.266  1.00  0.00     0.093 A 
ATOM      8  C   UNL     1      17.912  35.341  54.486  1.00  0.00     0.123 A 
ATOM      9  C   UNL     1      16.807  35.812  55.190  1.00  0.00     0.094 A 
ATOM     10  C   UNL     1      15.518  35.662  54.671  1.00  0.00     0.146 A 
ATOM     11  O   UNL     1      14.495  36.139  55.369  1.00  0.00    -0.451 OA
ENDROOT
BRANCH   1  12
ATOM     12  C   UNL     1      12.172  36.616  55.825  1.00  0.00     0.063 A 
ATOM     13  C   UNL     1      10.533  38.357  56.277  1.00  0.00     0.047 A 
ATOM     14  C   UNL     1      11.577  37.849  55.503  1.00  0.00     0.020 A 
ATOM     15  C   UNL     1      10.061  37.639  57.378  1.00  0.00     0.119 A 
ATOM     16  C   UNL     1      10.643  36.409  57.707  1.00  0.00     0.093 A 
ATOM     17  C   UNL     1      11.699  35.894  56.946  1.00  0.00     0.130 A 
BRANCH  15  18
ATOM     18  O   UNL     1       9.014  38.155  58.139  1.00  0.00    -0.508 OA
ATOM     19  H   UNL     1       8.084  38.267  57.754  1.00  0.00     0.293 HD
ENDBRANCH  15  18
BRANCH  17  20
ATOM     20  O   UNL     1      12.267  34.680  57.340  1.00  0.00    -0.507 OA
ATOM     21  H   UNL     1      13.245  34.458  57.207  1.00  0.00     0.293 HD
ENDBRANCH  17  20
ENDBRANCH   1  12
BRANCH   2  22
ATOM     22  O   UNL     1      11.620  35.481  53.245  1.00  0.00    -0.502 OA
ATOM     23  H   UNL     1      11.343  35.911  52.370  1.00  0.00     0.293 HD
ENDBRANCH   2  22
BRANCH   6  24
ATOM     24  O   UNL     1      16.369  33.739  51.559  1.00  0.00    -0.507 OA
ATOM     25  H   UNL     1      15.737  32.967  51.408  1.00  0.00     0.293 HD
ENDBRANCH   6  24
BRANCH   8  26
ATOM     26  O   UNL     1      19.190  35.519  55.012  1.00  0.00    -0.508 OA
ATOM     27  H   UNL     1      19.400  36.281  55.645  1.00  0.00     0.293 HD
ENDBRANCH   8  26
TORSDOF 6
ENDMDL
MODEL 6
REMARK VINA RESULT:    -7.121      2.155      3.350
REMARK INTER + INTRA:          -8.760
REMARK INTER:                  -8.485
REMARK INTRA:                  -0.275
REMARK UNBOUND:                -0.182
REMARK SMILES O=c1c(O)c(-c2ccc(O)cc2O)oc2cc(O)cc(O)c12
REMARK SMILES IDX 5 1 3 2 2 3 1 4 22 5 20 6 19 7 17 8 16 9 15 10 14 11 6 12
REMARK SMILES IDX 8 13 7 14 9 15 11 16 12 17 10 18 13 20 4 22 21 24 18 26
REMARK H PARENT 10 19 13 21 4 23 21 25 18 27
REMARK Flexibility Score: inf
ROOT
ATOM      1  C   UNL     1      15.219  35.165  59.270  1.00  0.00     0.184 A 
ATOM      2  C   UNL     1      16.565  35.322  58.907  1.00  0.00     0.208 A 
ATOM      3  C   UNL     1      16.884  35.541  57.557  1.00  0.00     0.238 A 
ATOM      4  O   UNL     1      18.097  35.620  57.229  1.00  0.00    -0.285 OA
ATOM      5  C   UNL     1      15.849  35.630  56.594  1.00  0.00     0.111 A 
ATOM      6  C   UNL     1      16.054  35.890  55.206  1.00  0.00     0.134 A 
ATOM      7  C   UNL     1      14.967  35.833  54.326  1.00  0.00     0.093 A 
ATOM      8  C   UNL     1      13.672  35.590  54.793  1.00  0.00     0.123 A 
ATOM      9  C   UNL     1      13.455  35.394  56.154  1.00  0.00     0.094 A 
ATOM     10  C   UNL     1      14.524  35.407  57.053  1.00  0.00     0.146 A 
ATOM     11  O   UNL     1      14.273  35.201  58.340  1.00  0.00    -0.451 OA
ENDROOT
BRANCH   1  12
ATOM     12  C   UNL     1      14.822  34.954  60.679  1.00  0.00     0.063 A 
ATOM     13  C   UNL     1      14.806  35.745  62.980  1.00  0.00     0.047 A 
ATOM     14  C   UNL     1      15.213  35.890  61.653  1.00  0.00     0.020 A 
ATOM     15  C   UNL     1      13.996  34.671  63.354  1.00  0.00     0.119 A 
ATOM     16  C   UNL     1      13.598  33.733  62.393  1.00  0.00     0.093 A 
ATOM     17  C   UNL     1      14.010  33.860  61.060  1.00  0.00     0.130 A 
BRANCH  15  18
ATOM     18  O   UNL     1      13.593  34.542  64.681  1.00  0.00    -0.508 OA
ATOM     19  H   UNL     1      14.190  34.113  65.377  1.00  0.00     0.293 HD
ENDBRANCH  15  18
BRANCH  17  20
ATOM     20  O   UNL     1      13.614  32.877  60.151  1.00  0.00    -0.507 OA
ATOM     21  H   UNL     1      13.770  32.951  59.154  1.00  0.00     0.293 HD
ENDBRANCH  17  20
ENDBRANCH   1  12
BRANCH   2  22
ATOM     22  O   UNL     1      17.565  35.234  59.879  1.00  0.00    -0.502 OA
ATOM     23  H   UNL     1      18.018  34.359  60.115  1.00  0.00     0.293 HD
ENDBRANCH   2  22
BRANCH   6  24
ATOM     24  O   UNL     1      17.290  36.231  54.648  1.00  0.00    -0.507 OA
ATOM     25  H   UNL     1      17.476  37.080  54.138  1.00  0.00     0.293 HD
ENDBRANCH   6  24
BRANCH   8  26
ATOM     26  O   UNL     1      12.594  35.552  53.912  1.00  0.00    -0.508 OA
ATOM     27  H   UNL     1      12.718  35.326  52.932  1.00  0.00     0.293 HD
ENDBRANCH   8  26
TORSDOF 6
ENDMDL
MODEL 7
REMARK VINA RESULT:    -7.004     10.813     13.807
REMARK INTER + INTRA:          -8.618
REMARK INTER:                  -8.274
REMARK INTRA:                  -0.344
REMARK UNBOUND:                -0.182
REMARK SMILES O=c1c(O)c(-c2ccc(O)cc2O)oc2cc(O)cc(O)c12
REMARK SMILES IDX 5 1 3 2 2 3 1 4 22 5 20 6 19 7 17 8 16 9 15 10 14 11 6 12
REMARK SMILES IDX 8 13 7 14 9 15 11 16 12 17 10 18 13 20 4 22 21 24 18 26
REMARK H PARENT 10 19 13 21 4 23 21 25 18 27
REMARK Flexibility Score: inf
ROOT
ATOM      1  C   UNL     1      21.615  44.867  65.186  1.00  0.00     0.184 A 
ATOM      2  C   UNL     1      22.448  43.761  65.411  1.00  0.00     0.208 A 
ATOM      3  C   UNL     1      22.469  42.722  64.466  1.00  0.00     0.238 A 
ATOM      4  O   UNL     1      23.172  41.705  64.703  1.00  0.00    -0.285 OA
ATOM      5  C   UNL     1      21.678  42.820  63.295  1.00  0.00     0.111 A 
ATOM      6  C   UNL     1      21.651  41.846  62.252  1.00  0.00     0.134 A 
ATOM      7  C   UNL     1      20.739  41.987  61.199  1.00  0.00     0.093 A 
ATOM      8  C   UNL     1      19.898  43.100  61.119  1.00  0.00     0.123 A 
ATOM      9  C   UNL     1      19.957  44.084  62.102  1.00  0.00     0.094 A 
ATOM     10  C   UNL     1      20.831  43.953  63.184  1.00  0.00     0.146 A 
ATOM     11  O   UNL     1      20.845  44.909  64.106  1.00  0.00    -0.451 OA
ENDROOT
BRANCH   1  12
ATOM     12  C   UNL     1      21.568  46.001  66.135  1.00  0.00     0.063 A 
ATOM     13  C   UNL     1      22.028  48.344  66.606  1.00  0.00     0.047 A 
ATOM     14  C   UNL     1      22.107  47.242  65.752  1.00  0.00     0.020 A 
ATOM     15  C   UNL     1      21.403  48.225  67.849  1.00  0.00     0.119 A 
ATOM     16  C   UNL     1      20.861  46.996  68.241  1.00  0.00     0.093 A 
ATOM     17  C   UNL     1      20.944  45.880  67.399  1.00  0.00     0.130 A 
BRANCH  15  18
ATOM     18  O   UNL     1      21.327  49.335  68.689  1.00  0.00    -0.508 OA
ATOM     19  H   UNL     1      22.113  49.962  68.812  1.00  0.00     0.293 HD
ENDBRANCH  15  18
BRANCH  17  20
ATOM     20  O   UNL     1      20.419  44.668  67.854  1.00  0.00    -0.507 OA
ATOM     21  H   UNL     1      20.525  44.344  68.806  1.00  0.00     0.293 HD
ENDBRANCH  17  20
ENDBRANCH   1  12
BRANCH   2  22
ATOM     22  O   UNL     1      23.221  43.694  66.573  1.00  0.00    -0.502 OA
ATOM     23  H   UNL     1      22.950  43.136  67.374  1.00  0.00     0.293 HD
ENDBRANCH   2  22
BRANCH   6  24
ATOM     24  O   UNL     1      22.511  40.745  62.188  1.00  0.00    -0.507 OA
ATOM     25  H   UNL     1      22.363  39.872  62.670  1.00  0.00     0.293 HD
ENDBRANCH   6  24
BRANCH   8  26
ATOM     26  O   UNL     1      19.004  43.240  60.059  1.00  0.00    -0.508 OA
ATOM     27  H   UNL     1      18.033  42.965  60.145  1.00  0.00     0.293 HD
ENDBRANCH   8  26
TORSDOF 6
ENDMDL
MODEL 8
REMARK VINA RESULT:    -6.961      3.001      7.036
REMARK INTER + INTRA:          -8.567
REMARK INTER:                  -8.248
REMARK INTRA:                  -0.319
REMARK UNBOUND:                -0.182
REMARK SMILES O=c1c(O)c(-c2ccc(O)cc2O)oc2cc(O)cc(O)c12
REMARK SMILES IDX 5 1 3 2 2 3 1 4 22 5 20 6 19 7 17 8 16 9 15 10 14 11 6 12
REMARK SMILES IDX 8 13 7 14 9 15 11 16 12 17 10 18 13 20 4 22 21 24 18 26
REMARK H PARENT 10 19 13 21 4 23 21 25 18 27
REMARK Flexibility Score: inf
ROOT
ATOM      1  C   UNL     1      13.556  35.476  55.689  1.00  0.00     0.184 A 
ATOM      2  C   UNL     1      12.282  35.933  55.319  1.00  0.00     0.208 A 
ATOM      3  C   UNL     1      11.284  36.034  56.301  1.00  0.00     0.238 A 
ATOM      4  O   UNL     1      10.127  36.385  55.951  1.00  0.00    -0.285 OA
ATOM      5  C   UNL     1      11.583  35.703  57.646  1.00  0.00     0.111 A 
ATOM      6  C   UNL     1      10.661  35.806  58.730  1.00  0.00     0.134 A 
ATOM      7  C   UNL     1      11.029  35.335  59.996  1.00  0.00     0.093 A 
ATOM      8  C   UNL     1      12.309  34.825  60.232  1.00  0.00     0.123 A 
ATOM      9  C   UNL     1      13.234  34.775  59.193  1.00  0.00     0.094 A 
ATOM     10  C   UNL     1      12.885  35.203  57.910  1.00  0.00     0.146 A 
ATOM     11  O   UNL     1      13.795  35.124  56.946  1.00  0.00    -0.451 OA
ENDROOT
BRANCH   1  12
ATOM     12  C   UNL     1      14.653  35.371  54.702  1.00  0.00     0.063 A 
ATOM     13  C   UNL     1      15.516  34.409  52.641  1.00  0.00     0.047 A 
ATOM     14  C   UNL     1      14.521  34.488  53.616  1.00  0.00     0.020 A 
ATOM     15  C   UNL     1      16.653  35.215  52.730  1.00  0.00     0.119 A 
ATOM     16  C   UNL     1      16.795  36.100  53.805  1.00  0.00     0.093 A 
ATOM     17  C   UNL     1      15.809  36.180  54.797  1.00  0.00     0.130 A 
BRANCH  15  18
ATOM     18  O   UNL     1      17.636  35.130  51.746  1.00  0.00    -0.508 OA
ATOM     19  H   UNL     1      18.441  35.744  51.746  1.00  0.00     0.293 HD
ENDBRANCH  15  18
BRANCH  17  20
ATOM     20  O   UNL     1      16.019  37.054  55.866  1.00  0.00    -0.507 OA
ATOM     21  H   UNL     1      16.868  37.592  55.982  1.00  0.00     0.293 HD
ENDBRANCH  17  20
ENDBRANCH   1  12
BRANCH   2  22
ATOM     22  O   UNL     1      12.017  36.256  53.986  1.00  0.00    -0.502 OA
ATOM     23  H   UNL     1      12.452  37.044  53.521  1.00  0.00     0.293 HD
ENDBRANCH   2  22
BRANCH   6  24
ATOM     24  O   UNL     1       9.391  36.381  58.624  1.00  0.00    -0.507 OA
ATOM     25  H   UNL     1       8.714  36.152  57.913  1.00  0.00     0.293 HD
ENDBRANCH   6  24
BRANCH   8  26
ATOM     26  O   UNL     1      12.672  34.374  61.499  1.00  0.00    -0.508 OA
ATOM     27  H   UNL     1      12.345  33.486  61.859  1.00  0.00     0.293 HD
ENDBRANCH   8  26
TORSDOF 6
ENDMDL
MODEL 9
REMARK VINA RESULT:    -6.949      1.596      3.214
REMARK INTER + INTRA:          -8.552
REMARK INTER:                  -8.316
REMARK INTRA:                  -0.236
REMARK UNBOUND:                -0.182
REMARK SMILES O=c1c(O)c(-c2ccc(O)cc2O)oc2cc(O)cc(O)c12
REMARK SMILES IDX 5 1 3 2 2 3 1 4 22 5 20 6 19 7 17 8 16 9 15 10 14 11 6 12
REMARK SMILES IDX 8 13 7 14 9 15 11 16 12 17 10 18 13 20 4 22 21 24 18 26
REMARK H PARENT 10 19 13 21 4 23 21 25 18 27
REMARK Flexibility Score: inf
ROOT
ATOM      1  C   UNL     1      15.362  35.540  57.574  1.00  0.00     0.184 A 
ATOM      2  C   UNL     1      14.362  35.620  56.592  1.00  0.00     0.208 A 
ATOM      3  C   UNL     1      14.736  35.609  55.239  1.00  0.00     0.238 A 
ATOM      4  O   UNL     1      13.839  35.744  54.365  1.00  0.00    -0.285 OA
ATOM      5  C   UNL     1      16.102  35.489  54.886  1.00  0.00     0.111 A 
ATOM      6  C   UNL     1      16.591  35.427  53.547  1.00  0.00     0.134 A 
ATOM      7  C   UNL     1      17.972  35.432  53.315  1.00  0.00     0.093 A 
ATOM      8  C   UNL     1      18.881  35.431  54.376  1.00  0.00     0.123 A 
ATOM      9  C   UNL     1      18.413  35.432  55.687  1.00  0.00     0.094 A 
ATOM     10  C   UNL     1      17.041  35.465  55.951  1.00  0.00     0.146 A 
ATOM     11  O   UNL     1      16.639  35.479  57.216  1.00  0.00    -0.451 OA
ENDROOT
BRANCH   1  12
ATOM     12  C   UNL     1      15.028  35.523  59.014  1.00  0.00     0.063 A 
ATOM     13  C   UNL     1      13.808  34.508  60.858  1.00  0.00     0.047 A 
ATOM     14  C   UNL     1      14.101  34.582  59.496  1.00  0.00     0.020 A 
ATOM     15  C   UNL     1      14.440  35.366  61.761  1.00  0.00     0.119 A 
ATOM     16  C   UNL     1      15.366  36.306  61.294  1.00  0.00     0.093 A 
ATOM     17  C   UNL     1      15.660  36.399  59.928  1.00  0.00     0.130 A 
BRANCH  15  18
ATOM     18  O   UNL     1      14.141  35.277  63.119  1.00  0.00    -0.508 OA
ATOM     19  H   UNL     1      13.907  36.097  63.665  1.00  0.00     0.293 HD
ENDBRANCH  15  18
BRANCH  17  20
ATOM     20  O   UNL     1      16.564  37.379  59.513  1.00  0.00    -0.507 OA
ATOM     21  H   UNL     1      17.539  37.381  59.782  1.00  0.00     0.293 HD
ENDBRANCH  17  20
ENDBRANCH   1  12
BRANCH   2  22
ATOM     22  O   UNL     1      13.022  35.734  56.970  1.00  0.00    -0.502 OA
ATOM     23  H   UNL     1      12.426  34.926  57.108  1.00  0.00     0.293 HD
ENDBRANCH   2  22
BRANCH   6  24
ATOM     24  O   UNL     1      15.770  35.334  52.418  1.00  0.00    -0.507 OA
ATOM     25  H   UNL     1      15.093  36.027  52.142  1.00  0.00     0.293 HD
ENDBRANCH   6  24
BRANCH   8  26
ATOM     26  O   UNL     1      20.253  35.419  54.136  1.00  0.00    -0.508 OA
ATOM     27  H   UNL     1      20.819  34.603  54.337  1.00  0.00     0.293 HD
ENDBRANCH   8  26
TORSDOF 6
ENDMDL
