MODEL 1
REMARK VINA RESULT:    15.317      0.000      0.000
REMARK INTER + INTRA:          40.557
REMARK INTER:                  40.390
REMARK INTRA:                   0.167
REMARK UNBOUND:                 0.167
REMARK SMILES CCCCCCCCCCCCCCCCCCCCCCCCCCCCCC(=O)[O-]
REMARK SMILES IDX 16 1 17 2 18 3 19 4 20 5 21 6 22 7 23 8 24 9 25 10 26 11
REMARK SMILES IDX 27 12 28 13 29 14 30 15 31 16 32 17 15 18 14 19 13 20 12 21
REMARK SMILES IDX 11 22 10 23 9 24 8 25 7 26 6 27 5 28 4 29 3 30 2 31 1 32
REMARK H PARENT
REMARK Flexibility Score: inf
ROOT
ATOM      1  C   UNL     1      17.788 -18.730  24.728  1.00  0.00     0.000 C 
ENDROOT
BRANCH   1   2
ATOM      2  C   UNL     1      17.025 -19.103  23.447  1.00  0.00     0.000 C 
BRANCH   2   3
ATOM      3  C   UNL     1      17.681 -20.304  22.752  1.00  0.00     0.000 C 
BRANCH   3   4
ATOM      4  C   UNL     1      16.726 -21.035  21.791  1.00  0.00     0.000 C 
BRANCH   4   5
ATOM      5  C   UNL     1      16.023 -22.278  22.382  1.00  0.00     0.000 C 
BRANCH   5   6
ATOM      6  C   UNL     1      16.290 -23.604  21.646  1.00  0.00     0.000 C 
BRANCH   6   7
ATOM      7  C   UNL     1      17.791 -23.914  21.492  1.00  0.00     0.000 C 
BRANCH   7   8
ATOM      8  C   UNL     1      18.094 -24.761  20.246  1.00  0.00     0.000 C 
BRANCH   8   9
ATOM      9  C   UNL     1      17.738 -24.047  18.933  1.00  0.00     0.000 C 
BRANCH   9  10
ATOM     10  C   UNL     1      18.744 -22.926  18.636  1.00  0.00     0.000 C 
BRANCH  10  11
ATOM     11  C   UNL     1      18.072 -21.576  18.332  1.00  0.00     0.000 C 
BRANCH  11  12
ATOM     12  C   UNL     1      18.547 -20.888  17.040  1.00  0.00     0.000 C 
BRANCH  12  13
ATOM     13  C   UNL     1      17.387 -20.441  16.137  1.00  0.00     0.006 C 
BRANCH  13  14
ATOM     14  C   UNL     1      17.889 -19.542  15.001  1.00  0.00     0.053 C 
BRANCH  14  15
ATOM     15  C   UNL     1      17.843 -20.259  13.687  1.00  0.00     0.041 C 
ATOM     16  O   UNL     1      18.351 -21.406  13.571  1.00  0.00    -0.550 OA
ATOM     17  O   UNL     1      17.222 -19.668  12.593  1.00  0.00    -0.550 OA
ENDBRANCH  14  15
ENDBRANCH  13  14
ENDBRANCH  12  13
ENDBRANCH  11  12
ENDBRANCH  10  11
ENDBRANCH   9  10
ENDBRANCH   8   9
ENDBRANCH   7   8
ENDBRANCH   6   7
ENDBRANCH   5   6
ENDBRANCH   4   5
ENDBRANCH   3   4
ENDBRANCH   2   3
ENDBRANCH   1   2
BRANCH   1  18
ATOM     18  C   UNL     1      16.954 -18.929  26.011  1.00  0.00     0.000 C 
BRANCH  18  19
ATOM     19  C   UNL     1      16.941 -17.712  26.958  1.00  0.00     0.000 C 
BRANCH  19  20
ATOM     20  C   UNL     1      16.475 -17.991  28.398  1.00  0.00     0.000 C 
BRANCH  20  21
ATOM     21  C   UNL     1      17.218 -19.168  29.048  1.00  0.00     0.000 C 
BRANCH  21  22
ATOM     22  C   UNL     1      18.032 -19.960  28.018  1.00  0.00     0.000 C 
BRANCH  22  23
ATOM     23  C   UNL     1      19.509 -19.540  28.063  1.00  0.00     0.000 C 
BRANCH  23  24
ATOM     24  C   UNL     1      20.168 -19.502  26.676  1.00  0.00    -0.000 C 
BRANCH  24  25
ATOM     25  C   UNL     1      20.819 -20.840  26.290  1.00  0.00    -0.000 C 
BRANCH  25  26
ATOM     26  C   UNL     1      22.196 -20.656  25.628  1.00  0.00    -0.000 C 
BRANCH  26  27
ATOM     27  C   UNL     1      22.273 -21.303  24.235  1.00  0.00    -0.000 C 
BRANCH  27  28
ATOM     28  C   UNL     1      23.375 -20.660  23.383  1.00  0.00    -0.000 C 
BRANCH  28  29
ATOM     29  C   UNL     1      24.593 -21.590  23.270  1.00  0.00    -0.000 C 
BRANCH  29  30
ATOM     30  C   UNL     1      24.645 -22.630  24.408  1.00  0.00    -0.000 C 
BRANCH  30  31
ATOM     31  C   UNL     1      25.285 -22.092  25.699  1.00  0.00    -0.003 C 
ATOM     32  C   UNL     1      26.416 -22.978  26.220  1.00  0.00     0.004 C 
ENDBRANCH  30  31
ENDBRANCH  29  30
ENDBRANCH  28  29
ENDBRANCH  27  28
ENDBRANCH  26  27
ENDBRANCH  25  26
ENDBRANCH  24  25
ENDBRANCH  23  24
ENDBRANCH  22  23
ENDBRANCH  21  22
ENDBRANCH  20  21
ENDBRANCH  19  20
ENDBRANCH  18  19
ENDBRANCH   1  18
TORSDOF 28
ENDMDL
MODEL 2
REMARK VINA RESULT:    15.999      7.597     12.153
REMARK INTER + INTRA:          42.355
REMARK INTER:                  43.435
REMARK INTRA:                  -1.080
REMARK UNBOUND:                 0.167
REMARK SMILES CCCCCCCCCCCCCCCCCCCCCCCCCCCCCC(=O)[O-]
REMARK SMILES IDX 16 1 17 2 18 3 19 4 20 5 21 6 22 7 23 8 24 9 25 10 26 11
REMARK SMILES IDX 27 12 28 13 29 14 30 15 31 16 32 17 15 18 14 19 13 20 12 21
REMARK SMILES IDX 11 22 10 23 9 24 8 25 7 26 6 27 5 28 4 29 3 30 2 31 1 32
REMARK H PARENT
REMARK Flexibility Score: inf
ROOT
ATOM      1  C   UNL     1      24.296 -25.121  18.501  1.00  0.00     0.000 C 
ENDROOT
BRANCH   1   2
ATOM      2  C   UNL     1      22.988 -25.012  19.300  1.00  0.00     0.000 C 
BRANCH   2   3
ATOM      3  C   UNL     1      23.277 -24.817  20.795  1.00  0.00     0.000 C 
BRANCH   3   4
ATOM      4  C   UNL     1      23.140 -23.352  21.245  1.00  0.00     0.000 C 
BRANCH   4   5
ATOM      5  C   UNL     1      23.427 -23.094  22.741  1.00  0.00     0.000 C 
BRANCH   5   6
ATOM      6  C   UNL     1      23.868 -21.662  23.096  1.00  0.00     0.000 C 
BRANCH   6   7
ATOM      7  C   UNL     1      23.528 -21.270  24.546  1.00  0.00     0.000 C 
BRANCH   7   8
ATOM      8  C   UNL     1      22.051 -20.887  24.723  1.00  0.00     0.000 C 
BRANCH   8   9
ATOM      9  C   UNL     1      21.655 -20.681  26.193  1.00  0.00     0.000 C 
BRANCH   9  10
ATOM     10  C   UNL     1      20.564 -19.608  26.316  1.00  0.00     0.000 C 
BRANCH  10  11
ATOM     11  C   UNL     1      19.259 -19.988  25.594  1.00  0.00     0.000 C 
BRANCH  11  12
ATOM     12  C   UNL     1      18.355 -18.801  25.216  1.00  0.00     0.000 C 
BRANCH  12  13
ATOM     13  C   UNL     1      17.181 -18.608  26.189  1.00  0.00     0.006 C 
BRANCH  13  14
ATOM     14  C   UNL     1      17.316 -19.530  27.406  1.00  0.00     0.053 C 
BRANCH  14  15
ATOM     15  C   UNL     1      17.161 -18.762  28.682  1.00  0.00     0.041 C 
ATOM     16  O   UNL     1      17.760 -19.137  29.725  1.00  0.00    -0.550 OA
ATOM     17  O   UNL     1      16.368 -17.622  28.716  1.00  0.00    -0.550 OA
ENDBRANCH  14  15
ENDBRANCH  13  14
ENDBRANCH  12  13
ENDBRANCH  11  12
ENDBRANCH  10  11
ENDBRANCH   9  10
ENDBRANCH   8   9
ENDBRANCH   7   8
ENDBRANCH   6   7
ENDBRANCH   5   6
ENDBRANCH   4   5
ENDBRANCH   3   4
ENDBRANCH   2   3
ENDBRANCH   1   2
BRANCH   1  18
ATOM     18  C   UNL     1      24.079 -25.090  16.973  1.00  0.00     0.000 C 
BRANCH  18  19
ATOM     19  C   UNL     1      25.238 -24.457  16.177  1.00  0.00     0.000 C 
BRANCH  19  20
ATOM     20  C   UNL     1      24.847 -23.320  15.217  1.00  0.00     0.000 C 
BRANCH  20  21
ATOM     21  C   UNL     1      26.024 -22.388  14.886  1.00  0.00     0.000 C 
BRANCH  21  22
ATOM     22  C   UNL     1      25.563 -20.937  14.708  1.00  0.00     0.000 C 
BRANCH  22  23
ATOM     23  C   UNL     1      25.782 -20.477  13.258  1.00  0.00     0.000 C 
BRANCH  23  24
ATOM     24  C   UNL     1      27.009 -19.570  13.093  1.00  0.00    -0.000 C 
BRANCH  24  25
ATOM     25  C   UNL     1      26.781 -18.154  13.646  1.00  0.00    -0.000 C 
BRANCH  25  26
ATOM     26  C   UNL     1      27.660 -17.100  12.950  1.00  0.00    -0.000 C 
BRANCH  26  27
ATOM     27  C   UNL     1      29.027 -16.928  13.631  1.00  0.00    -0.000 C 
BRANCH  27  28
ATOM     28  C   UNL     1      28.871 -16.645  15.131  1.00  0.00    -0.000 C 
BRANCH  28  29
ATOM     29  C   UNL     1      28.306 -15.236  15.368  1.00  0.00    -0.000 C 
BRANCH  29  30
ATOM     30  C   UNL     1      29.073 -14.473  16.467  1.00  0.00    -0.000 C 
BRANCH  30  31
ATOM     31  C   UNL     1      29.488 -15.361  17.652  1.00  0.00    -0.003 C 
ATOM     32  C   UNL     1      28.582 -15.193  18.871  1.00  0.00     0.004 C 
ENDBRANCH  30  31
ENDBRANCH  29  30
ENDBRANCH  28  29
ENDBRANCH  27  28
ENDBRANCH  26  27
ENDBRANCH  25  26
ENDBRANCH  24  25
ENDBRANCH  23  24
ENDBRANCH  22  23
ENDBRANCH  21  22
ENDBRANCH  20  21
ENDBRANCH  19  20
ENDBRANCH  18  19
ENDBRANCH   1  18
TORSDOF 28
ENDMDL
MODEL 3
REMARK VINA RESULT:    16.081      2.923      6.046
REMARK INTER + INTRA:          42.572
REMARK INTER:                  43.917
REMARK INTRA:                  -1.345
REMARK UNBOUND:                 0.167
REMARK SMILES CCCCCCCCCCCCCCCCCCCCCCCCCCCCCC(=O)[O-]
REMARK SMILES IDX 16 1 17 2 18 3 19 4 20 5 21 6 22 7 23 8 24 9 25 10 26 11
REMARK SMILES IDX 27 12 28 13 29 14 30 15 31 16 32 17 15 18 14 19 13 20 12 21
REMARK SMILES IDX 11 22 10 23 9 24 8 25 7 26 6 27 5 28 4 29 3 30 2 31 1 32
REMARK H PARENT
REMARK Flexibility Score: inf
ROOT
ATOM      1  C   UNL     1      19.023 -18.851  28.407  1.00  0.00     0.000 C 
ENDROOT
BRANCH   1   2
ATOM      2  C   UNL     1      18.482 -19.010  29.836  1.00  0.00     0.000 C 
BRANCH   2   3
ATOM      3  C   UNL     1      17.194 -18.197  30.026  1.00  0.00     0.000 C 
BRANCH   3   4
ATOM      4  C   UNL     1      16.321 -18.154  28.758  1.00  0.00     0.000 C 
BRANCH   4   5
ATOM      5  C   UNL     1      15.918 -19.534  28.191  1.00  0.00     0.000 C 
BRANCH   5   6
ATOM      6  C   UNL     1      16.483 -19.871  26.799  1.00  0.00     0.000 C 
BRANCH   6   7
ATOM      7  C   UNL     1      17.118 -18.656  26.098  1.00  0.00     0.000 C 
BRANCH   7   8
ATOM      8  C   UNL     1      18.101 -19.062  24.989  1.00  0.00     0.000 C 
BRANCH   8   9
ATOM      9  C   UNL     1      17.626 -18.655  23.586  1.00  0.00     0.000 C 
BRANCH   9  10
ATOM     10  C   UNL     1      16.585 -19.651  23.056  1.00  0.00     0.000 C 
BRANCH  10  11
ATOM     11  C   UNL     1      17.211 -20.951  22.520  1.00  0.00     0.000 C 
BRANCH  11  12
ATOM     12  C   UNL     1      16.365 -22.218  22.737  1.00  0.00     0.000 C 
BRANCH  12  13
ATOM     13  C   UNL     1      16.190 -23.048  21.456  1.00  0.00     0.006 C 
BRANCH  13  14
ATOM     14  C   UNL     1      17.337 -22.793  20.472  1.00  0.00     0.053 C 
BRANCH  14  15
ATOM     15  C   UNL     1      18.091 -24.056  20.186  1.00  0.00     0.041 C 
ATOM     16  O   UNL     1      17.839 -25.106  20.834  1.00  0.00    -0.550 OA
ATOM     17  O   UNL     1      19.059 -24.077  19.189  1.00  0.00    -0.550 OA
ENDBRANCH  14  15
ENDBRANCH  13  14
ENDBRANCH  12  13
ENDBRANCH  11  12
ENDBRANCH  10  11
ENDBRANCH   9  10
ENDBRANCH   8   9
ENDBRANCH   7   8
ENDBRANCH   6   7
ENDBRANCH   5   6
ENDBRANCH   4   5
ENDBRANCH   3   4
ENDBRANCH   2   3
ENDBRANCH   1   2
BRANCH   1  18
ATOM     18  C   UNL     1      20.050 -19.936  28.022  1.00  0.00     0.000 C 
BRANCH  18  19
ATOM     19  C   UNL     1      20.779 -19.679  26.687  1.00  0.00     0.000 C 
BRANCH  19  20
ATOM     20  C   UNL     1      20.513 -20.705  25.571  1.00  0.00     0.000 C 
BRANCH  20  21
ATOM     21  C   UNL     1      21.798 -21.376  25.060  1.00  0.00     0.000 C 
BRANCH  21  22
ATOM     22  C   UNL     1      22.709 -20.375  24.340  1.00  0.00     0.000 C 
BRANCH  22  23
ATOM     23  C   UNL     1      23.692 -21.110  23.417  1.00  0.00     0.000 C 
BRANCH  23  24
ATOM     24  C   UNL     1      24.275 -22.383  24.047  1.00  0.00    -0.000 C 
BRANCH  24  25
ATOM     25  C   UNL     1      25.795 -22.501  23.852  1.00  0.00    -0.000 C 
BRANCH  25  26
ATOM     26  C   UNL     1      26.375 -23.775  24.492  1.00  0.00    -0.000 C 
BRANCH  26  27
ATOM     27  C   UNL     1      27.463 -23.471  25.534  1.00  0.00    -0.000 C 
BRANCH  27  28
ATOM     28  C   UNL     1      26.953 -22.499  26.606  1.00  0.00    -0.000 C 
BRANCH  28  29
ATOM     29  C   UNL     1      25.832 -23.140  27.439  1.00  0.00    -0.000 C 
BRANCH  29  30
ATOM     30  C   UNL     1      24.535 -22.305  27.419  1.00  0.00    -0.000 C 
BRANCH  30  31
ATOM     31  C   UNL     1      23.628 -22.555  28.636  1.00  0.00    -0.003 C 
ATOM     32  C   UNL     1      23.931 -21.623  29.809  1.00  0.00     0.004 C 
ENDBRANCH  30  31
ENDBRANCH  29  30
ENDBRANCH  28  29
ENDBRANCH  27  28
ENDBRANCH  26  27
ENDBRANCH  25  26
ENDBRANCH  24  25
ENDBRANCH  23  24
ENDBRANCH  22  23
ENDBRANCH  21  22
ENDBRANCH  20  21
ENDBRANCH  19  20
ENDBRANCH  18  19
ENDBRANCH   1  18
TORSDOF 28
ENDMDL
MODEL 4
REMARK VINA RESULT:    16.414      3.153      9.940
REMARK INTER + INTRA:          43.450
REMARK INTER:                  43.682
REMARK INTRA:                  -0.232
REMARK UNBOUND:                 0.167
REMARK SMILES CCCCCCCCCCCCCCCCCCCCCCCCCCCCCC(=O)[O-]
REMARK SMILES IDX 16 1 17 2 18 3 19 4 20 5 21 6 22 7 23 8 24 9 25 10 26 11
REMARK SMILES IDX 27 12 28 13 29 14 30 15 31 16 32 17 15 18 14 19 13 20 12 21
REMARK SMILES IDX 11 22 10 23 9 24 8 25 7 26 6 27 5 28 4 29 3 30 2 31 1 32
REMARK H PARENT
REMARK Flexibility Score: inf
ROOT
ATOM      1  C   UNL     1      17.355 -20.510  22.703  1.00  0.00     0.000 C 
ENDROOT
BRANCH   1   2
ATOM      2  C   UNL     1      17.021 -19.108  23.236  1.00  0.00     0.000 C 
BRANCH   2   3
ATOM      3  C   UNL     1      17.778 -18.828  24.543  1.00  0.00     0.000 C 
BRANCH   3   4
ATOM      4  C   UNL     1      16.892 -18.985  25.793  1.00  0.00     0.000 C 
BRANCH   4   5
ATOM      5  C   UNL     1      16.976 -17.824  26.808  1.00  0.00     0.000 C 
BRANCH   5   6
ATOM      6  C   UNL     1      16.436 -18.132  28.217  1.00  0.00     0.000 C 
BRANCH   6   7
ATOM      7  C   UNL     1      16.938 -19.479  28.772  1.00  0.00     0.000 C 
BRANCH   7   8
ATOM      8  C   UNL     1      18.011 -20.122  27.879  1.00  0.00     0.000 C 
BRANCH   8   9
ATOM      9  C   UNL     1      19.426 -19.600  28.170  1.00  0.00     0.000 C 
BRANCH   9  10
ATOM     10  C   UNL     1      20.191 -19.351  26.862  1.00  0.00     0.000 C 
BRANCH  10  11
ATOM     11  C   UNL     1      20.607 -20.649  26.149  1.00  0.00     0.000 C 
BRANCH  11  12
ATOM     12  C   UNL     1      22.069 -20.690  25.672  1.00  0.00     0.000 C 
BRANCH  12  13
ATOM     13  C   UNL     1      22.200 -20.916  24.157  1.00  0.00     0.006 C 
BRANCH  13  14
ATOM     14  C   UNL     1      23.634 -20.651  23.683  1.00  0.00     0.053 C 
BRANCH  14  15
ATOM     15  C   UNL     1      24.384 -21.934  23.497  1.00  0.00     0.041 C 
ATOM     16  O   UNL     1      24.982 -22.466  24.470  1.00  0.00    -0.550 OA
ATOM     17  O   UNL     1      24.409 -22.552  22.253  1.00  0.00    -0.550 OA
ENDBRANCH  14  15
ENDBRANCH  13  14
ENDBRANCH  12  13
ENDBRANCH  11  12
ENDBRANCH  10  11
ENDBRANCH   9  10
ENDBRANCH   8   9
ENDBRANCH   7   8
ENDBRANCH   6   7
ENDBRANCH   5   6
ENDBRANCH   4   5
ENDBRANCH   3   4
ENDBRANCH   2   3
ENDBRANCH   1   2
BRANCH   1  18
ATOM     18  C   UNL     1      16.106 -21.388  22.481  1.00  0.00     0.000 C 
BRANCH  18  19
ATOM     19  C   UNL     1      16.412 -22.830  22.028  1.00  0.00     0.000 C 
BRANCH  19  20
ATOM     20  C   UNL     1      17.800 -23.053  21.402  1.00  0.00     0.000 C 
BRANCH  20  21
ATOM     21  C   UNL     1      17.918 -24.405  20.680  1.00  0.00     0.000 C 
BRANCH  21  22
ATOM     22  C   UNL     1      17.729 -24.255  19.166  1.00  0.00     0.000 C 
BRANCH  22  23
ATOM     23  C   UNL     1      18.845 -23.384  18.569  1.00  0.00     0.000 C 
BRANCH  23  24
ATOM     24  C   UNL     1      18.487 -21.892  18.526  1.00  0.00    -0.000 C 
BRANCH  24  25
ATOM     25  C   UNL     1      17.656 -21.515  17.288  1.00  0.00    -0.000 C 
BRANCH  25  26
ATOM     26  C   UNL     1      18.445 -20.649  16.290  1.00  0.00    -0.000 C 
BRANCH  26  27
ATOM     27  C   UNL     1      17.550 -19.654  15.535  1.00  0.00    -0.000 C 
BRANCH  27  28
ATOM     28  C   UNL     1      17.617 -19.883  14.019  1.00  0.00    -0.000 C 
BRANCH  28  29
ATOM     29  C   UNL     1      17.534 -21.382  13.688  1.00  0.00    -0.000 C 
BRANCH  29  30
ATOM     30  C   UNL     1      18.381 -21.758  12.455  1.00  0.00    -0.000 C 
BRANCH  30  31
ATOM     31  C   UNL     1      17.552 -22.339  11.297  1.00  0.00    -0.003 C 
ATOM     32  C   UNL     1      18.263 -22.250   9.948  1.00  0.00     0.004 C 
ENDBRANCH  30  31
ENDBRANCH  29  30
ENDBRANCH  28  29
ENDBRANCH  27  28
ENDBRANCH  26  27
ENDBRANCH  25  26
ENDBRANCH  24  25
ENDBRANCH  23  24
ENDBRANCH  22  23
ENDBRANCH  21  22
ENDBRANCH  20  21
ENDBRANCH  19  20
ENDBRANCH  18  19
ENDBRANCH   1  18
TORSDOF 28
ENDMDL
MODEL 5
REMARK VINA RESULT:    16.712      6.610     11.600
REMARK INTER + INTRA:          44.233
REMARK INTER:                  46.043
REMARK INTRA:                  -1.809
REMARK UNBOUND:                 0.167
REMARK SMILES CCCCCCCCCCCCCCCCCCCCCCCCCCCCCC(=O)[O-]
REMARK SMILES IDX 16 1 17 2 18 3 19 4 20 5 21 6 22 7 23 8 24 9 25 10 26 11
REMARK SMILES IDX 27 12 28 13 29 14 30 15 31 16 32 17 15 18 14 19 13 20 12 21
REMARK SMILES IDX 11 22 10 23 9 24 8 25 7 26 6 27 5 28 4 29 3 30 2 31 1 32
REMARK H PARENT
REMARK Flexibility Score: inf
ROOT
ATOM      1  C   UNL     1      22.448 -21.579  25.040  1.00  0.00     0.000 C 
ENDROOT
BRANCH   1   2
ATOM      2  C   UNL     1      23.424 -20.948  24.035  1.00  0.00     0.000 C 
BRANCH   2   3
ATOM      3  C   UNL     1      24.706 -21.786  23.922  1.00  0.00     0.000 C 
BRANCH   3   4
ATOM      4  C   UNL     1      25.076 -22.495  25.237  1.00  0.00     0.000 C 
BRANCH   4   5
ATOM      5  C   UNL     1      26.502 -23.087  25.286  1.00  0.00     0.000 C 
BRANCH   5   6
ATOM      6  C   UNL     1      27.267 -22.870  26.605  1.00  0.00     0.000 C 
BRANCH   6   7
ATOM      7  C   UNL     1      28.207 -21.651  26.562  1.00  0.00     0.000 C 
BRANCH   7   8
ATOM      8  C   UNL     1      27.451 -20.318  26.681  1.00  0.00     0.000 C 
BRANCH   8   9
ATOM      9  C   UNL     1      28.328 -19.175  27.213  1.00  0.00     0.000 C 
BRANCH   9  10
ATOM     10  C   UNL     1      28.931 -18.370  26.054  1.00  0.00     0.000 C 
BRANCH  10  11
ATOM     11  C   UNL     1      30.347 -17.847  26.352  1.00  0.00     0.000 C 
BRANCH  11  12
ATOM     12  C   UNL     1      30.870 -16.786  25.368  1.00  0.00     0.000 C 
BRANCH  12  13
ATOM     13  C   UNL     1      32.084 -16.014  25.907  1.00  0.00     0.006 C 
BRANCH  13  14
ATOM     14  C   UNL     1      33.312 -16.226  25.014  1.00  0.00     0.053 C 
BRANCH  14  15
ATOM     15  C   UNL     1      34.573 -16.222  25.824  1.00  0.00     0.041 C 
ATOM     16  O   UNL     1      35.348 -17.214  25.796  1.00  0.00    -0.550 OA
ATOM     17  O   UNL     1      34.900 -15.113  26.595  1.00  0.00    -0.550 OA
ENDBRANCH  14  15
ENDBRANCH  13  14
ENDBRANCH  12  13
ENDBRANCH  11  12
ENDBRANCH  10  11
ENDBRANCH   9  10
ENDBRANCH   8   9
ENDBRANCH   7   8
ENDBRANCH   6   7
ENDBRANCH   5   6
ENDBRANCH   4   5
ENDBRANCH   3   4
ENDBRANCH   2   3
ENDBRANCH   1   2
BRANCH   1  18
ATOM     18  C   UNL     1      21.793 -20.545  25.980  1.00  0.00     0.000 C 
BRANCH  18  19
ATOM     19  C   UNL     1      20.252 -20.523  25.928  1.00  0.00     0.000 C 
BRANCH  19  20
ATOM     20  C   UNL     1      19.567 -19.487  26.838  1.00  0.00     0.000 C 
BRANCH  20  21
ATOM     21  C   UNL     1      18.081 -19.797  27.081  1.00  0.00     0.000 C 
BRANCH  21  22
ATOM     22  C   UNL     1      17.181 -18.647  26.615  1.00  0.00     0.000 C 
BRANCH  22  23
ATOM     23  C   UNL     1      17.489 -18.280  25.155  1.00  0.00     0.000 C 
BRANCH  23  24
ATOM     24  C   UNL     1      16.964 -19.316  24.150  1.00  0.00    -0.000 C 
BRANCH  24  25
ATOM     25  C   UNL     1      18.001 -19.680  23.075  1.00  0.00    -0.000 C 
BRANCH  25  26
ATOM     26  C   UNL     1      17.419 -20.587  21.977  1.00  0.00    -0.000 C 
BRANCH  26  27
ATOM     27  C   UNL     1      16.342 -21.545  22.511  1.00  0.00    -0.000 C 
BRANCH  27  28
ATOM     28  C   UNL     1      16.351 -22.875  21.746  1.00  0.00    -0.000 C 
BRANCH  28  29
ATOM     29  C   UNL     1      17.745 -23.520  21.784  1.00  0.00    -0.000 C 
BRANCH  29  30
ATOM     30  C   UNL     1      17.884 -24.677  20.772  1.00  0.00    -0.000 C 
BRANCH  30  31
ATOM     31  C   UNL     1      17.727 -24.231  19.309  1.00  0.00    -0.003 C 
ATOM     32  C   UNL     1      18.720 -23.144  18.904  1.00  0.00     0.004 C 
ENDBRANCH  30  31
ENDBRANCH  29  30
ENDBRANCH  28  29
ENDBRANCH  27  28
ENDBRANCH  26  27
ENDBRANCH  25  26
ENDBRANCH  24  25
ENDBRANCH  23  24
ENDBRANCH  22  23
ENDBRANCH  21  22
ENDBRANCH  20  21
ENDBRANCH  19  20
ENDBRANCH  18  19
ENDBRANCH   1  18
TORSDOF 28
ENDMDL
MODEL 6
REMARK VINA RESULT:    16.996      4.048     10.066
REMARK INTER + INTRA:          44.984
REMARK INTER:                  46.866
REMARK INTRA:                  -1.882
REMARK UNBOUND:                 0.167
REMARK SMILES CCCCCCCCCCCCCCCCCCCCCCCCCCCCCC(=O)[O-]
REMARK SMILES IDX 16 1 17 2 18 3 19 4 20 5 21 6 22 7 23 8 24 9 25 10 26 11
REMARK SMILES IDX 27 12 28 13 29 14 30 15 31 16 32 17 15 18 14 19 13 20 12 21
REMARK SMILES IDX 11 22 10 23 9 24 8 25 7 26 6 27 5 28 4 29 3 30 2 31 1 32
REMARK H PARENT
REMARK Flexibility Score: inf
ROOT
ATOM      1  C   UNL     1      17.373 -20.462  21.795  1.00  0.00     0.000 C 
ENDROOT
BRANCH   1   2
ATOM      2  C   UNL     1      17.985 -19.478  22.805  1.00  0.00     0.000 C 
BRANCH   2   3
ATOM      3  C   UNL     1      17.042 -19.265  23.998  1.00  0.00     0.000 C 
BRANCH   3   4
ATOM      4  C   UNL     1      17.733 -18.585  25.193  1.00  0.00     0.000 C 
BRANCH   4   5
ATOM      5  C   UNL     1      16.909 -18.556  26.500  1.00  0.00     0.000 C 
BRANCH   5   6
ATOM      6  C   UNL     1      17.190 -19.702  27.489  1.00  0.00     0.000 C 
BRANCH   6   7
ATOM      7  C   UNL     1      18.332 -19.382  28.471  1.00  0.00     0.000 C 
BRANCH   7   8
ATOM      8  C   UNL     1      19.704 -19.323  27.783  1.00  0.00     0.000 C 
BRANCH   8   9
ATOM      9  C   UNL     1      19.852 -20.348  26.648  1.00  0.00     0.000 C 
BRANCH   9  10
ATOM     10  C   UNL     1      21.053 -20.001  25.758  1.00  0.00     0.000 C 
BRANCH  10  11
ATOM     11  C   UNL     1      21.709 -21.238  25.119  1.00  0.00     0.000 C 
BRANCH  11  12
ATOM     12  C   UNL     1      22.947 -20.944  24.252  1.00  0.00     0.000 C 
BRANCH  12  13
ATOM     13  C   UNL     1      24.018 -22.042  24.345  1.00  0.00     0.006 C 
BRANCH  13  14
ATOM     14  C   UNL     1      25.226 -21.564  25.159  1.00  0.00     0.053 C 
BRANCH  14  15
ATOM     15  C   UNL     1      25.337 -22.316  26.449  1.00  0.00     0.041 C 
ATOM     16  O   UNL     1      26.380 -22.969  26.716  1.00  0.00    -0.550 OA
ATOM     17  O   UNL     1      24.294 -22.279  27.367  1.00  0.00    -0.550 OA
ENDBRANCH  14  15
ENDBRANCH  13  14
ENDBRANCH  12  13
ENDBRANCH  11  12
ENDBRANCH  10  11
ENDBRANCH   9  10
ENDBRANCH   8   9
ENDBRANCH   7   8
ENDBRANCH   6   7
ENDBRANCH   5   6
ENDBRANCH   4   5
ENDBRANCH   3   4
ENDBRANCH   2   3
ENDBRANCH   1   2
BRANCH   1  18
ATOM     18  C   UNL     1      16.225 -21.305  22.387  1.00  0.00     0.000 C 
BRANCH  18  19
ATOM     19  C   UNL     1      16.240 -22.788  21.966  1.00  0.00     0.000 C 
BRANCH  19  20
ATOM     20  C   UNL     1      17.629 -23.444  21.879  1.00  0.00     0.000 C 
BRANCH  20  21
ATOM     21  C   UNL     1      17.654 -24.667  20.948  1.00  0.00     0.000 C 
BRANCH  21  22
ATOM     22  C   UNL     1      17.470 -24.263  19.481  1.00  0.00     0.000 C 
BRANCH  22  23
ATOM     23  C   UNL     1      18.831 -24.155  18.777  1.00  0.00     0.000 C 
BRANCH  23  24
ATOM     24  C   UNL     1      19.284 -22.705  18.560  1.00  0.00    -0.000 C 
BRANCH  24  25
ATOM     25  C   UNL     1      18.105 -21.733  18.386  1.00  0.00    -0.000 C 
BRANCH  25  26
ATOM     26  C   UNL     1      18.393 -20.637  17.345  1.00  0.00    -0.000 C 
BRANCH  26  27
ATOM     27  C   UNL     1      17.338 -20.592  16.228  1.00  0.00    -0.000 C 
BRANCH  27  28
ATOM     28  C   UNL     1      17.537 -19.368  15.324  1.00  0.00    -0.000 C 
BRANCH  28  29
ATOM     29  C   UNL     1      17.371 -19.747  13.844  1.00  0.00    -0.000 C 
BRANCH  29  30
ATOM     30  C   UNL     1      18.181 -21.004  13.465  1.00  0.00    -0.000 C 
BRANCH  30  31
ATOM     31  C   UNL     1      17.612 -21.755  12.250  1.00  0.00    -0.003 C 
ATOM     32  C   UNL     1      18.567 -22.812  11.698  1.00  0.00     0.004 C 
ENDBRANCH  30  31
ENDBRANCH  29  30
ENDBRANCH  28  29
ENDBRANCH  27  28
ENDBRANCH  26  27
ENDBRANCH  25  26
ENDBRANCH  24  25
ENDBRANCH  23  24
ENDBRANCH  22  23
ENDBRANCH  21  22
ENDBRANCH  20  21
ENDBRANCH  19  20
ENDBRANCH  18  19
ENDBRANCH   1  18
TORSDOF 28
ENDMDL
MODEL 7
REMARK VINA RESULT:    17.001      6.902     11.537
REMARK INTER + INTRA:          44.997
REMARK INTER:                  44.799
REMARK INTRA:                   0.197
REMARK UNBOUND:                 0.167
REMARK SMILES CCCCCCCCCCCCCCCCCCCCCCCCCCCCCC(=O)[O-]
REMARK SMILES IDX 16 1 17 2 18 3 19 4 20 5 21 6 22 7 23 8 24 9 25 10 26 11
REMARK SMILES IDX 27 12 28 13 29 14 30 15 31 16 32 17 15 18 14 19 13 20 12 21
REMARK SMILES IDX 11 22 10 23 9 24 8 25 7 26 6 27 5 28 4 29 3 30 2 31 1 32
REMARK H PARENT
REMARK Flexibility Score: inf
ROOT
ATOM      1  C   UNL     1      24.153 -24.961  18.708  1.00  0.00     0.000 C 
ENDROOT
BRANCH   1   2
ATOM      2  C   UNL     1      22.891 -24.735  19.556  1.00  0.00     0.000 C 
BRANCH   2   3
ATOM      3  C   UNL     1      23.247 -24.636  21.046  1.00  0.00     0.000 C 
BRANCH   3   4
ATOM      4  C   UNL     1      23.245 -23.186  21.566  1.00  0.00     0.000 C 
BRANCH   4   5
ATOM      5  C   UNL     1      23.824 -22.997  22.986  1.00  0.00     0.000 C 
BRANCH   5   6
ATOM      6  C   UNL     1      24.149 -21.545  23.384  1.00  0.00     0.000 C 
BRANCH   6   7
ATOM      7  C   UNL     1      24.279 -21.353  24.906  1.00  0.00     0.000 C 
BRANCH   7   8
ATOM      8  C   UNL     1      22.928 -21.079  25.584  1.00  0.00     0.000 C 
BRANCH   8   9
ATOM      9  C   UNL     1      21.760 -21.006  24.589  1.00  0.00     0.000 C 
BRANCH   9  10
ATOM     10  C   UNL     1      20.416 -20.989  25.331  1.00  0.00     0.000 C 
BRANCH  10  11
ATOM     11  C   UNL     1      20.162 -19.675  26.091  1.00  0.00     0.000 C 
BRANCH  11  12
ATOM     12  C   UNL     1      18.956 -19.699  27.047  1.00  0.00     0.000 C 
BRANCH  12  13
ATOM     13  C   UNL     1      17.726 -18.973  26.479  1.00  0.00     0.006 C 
BRANCH  13  14
ATOM     14  C   UNL     1      18.026 -18.377  25.099  1.00  0.00     0.053 C 
BRANCH  14  15
ATOM     15  C   UNL     1      17.450 -19.228  24.010  1.00  0.00     0.041 C 
ATOM     16  O   UNL     1      16.354 -19.825  24.183  1.00  0.00    -0.550 OA
ATOM     17  O   UNL     1      18.113 -19.346  22.794  1.00  0.00    -0.550 OA
ENDBRANCH  14  15
ENDBRANCH  13  14
ENDBRANCH  12  13
ENDBRANCH  11  12
ENDBRANCH  10  11
ENDBRANCH   9  10
ENDBRANCH   8   9
ENDBRANCH   7   8
ENDBRANCH   6   7
ENDBRANCH   5   6
ENDBRANCH   4   5
ENDBRANCH   3   4
ENDBRANCH   2   3
ENDBRANCH   1   2
BRANCH   1  18
ATOM     18  C   UNL     1      23.864 -25.018  17.194  1.00  0.00     0.000 C 
BRANCH  18  19
ATOM     19  C   UNL     1      25.021 -24.516  16.305  1.00  0.00     0.000 C 
BRANCH  19  20
ATOM     20  C   UNL     1      24.660 -23.408  15.301  1.00  0.00     0.000 C 
BRANCH  20  21
ATOM     21  C   UNL     1      25.854 -22.504  14.956  1.00  0.00     0.000 C 
BRANCH  21  22
ATOM     22  C   UNL     1      25.453 -21.024  14.930  1.00  0.00     0.000 C 
BRANCH  22  23
ATOM     23  C   UNL     1      25.525 -20.473  13.498  1.00  0.00     0.000 C 
BRANCH  23  24
ATOM     24  C   UNL     1      26.847 -19.754  13.194  1.00  0.00    -0.000 C 
BRANCH  24  25
ATOM     25  C   UNL     1      26.778 -18.242  13.467  1.00  0.00    -0.000 C 
BRANCH  25  26
ATOM     26  C   UNL     1      28.143 -17.550  13.301  1.00  0.00    -0.000 C 
BRANCH  26  27
ATOM     27  C   UNL     1      28.104 -16.064  13.689  1.00  0.00    -0.000 C 
BRANCH  27  28
ATOM     28  C   UNL     1      29.012 -15.778  14.892  1.00  0.00    -0.000 C 
BRANCH  28  29
ATOM     29  C   UNL     1      28.435 -16.400  16.174  1.00  0.00    -0.000 C 
BRANCH  29  30
ATOM     30  C   UNL     1      29.188 -15.939  17.439  1.00  0.00    -0.000 C 
BRANCH  30  31
ATOM     31  C   UNL     1      29.203 -14.412  17.621  1.00  0.00    -0.003 C 
ATOM     32  C   UNL     1      28.847 -13.654  16.343  1.00  0.00     0.004 C 
ENDBRANCH  30  31
ENDBRANCH  29  30
ENDBRANCH  28  29
ENDBRANCH  27  28
ENDBRANCH  26  27
ENDBRANCH  25  26
ENDBRANCH  24  25
ENDBRANCH  23  24
ENDBRANCH  22  23
ENDBRANCH  21  22
ENDBRANCH  20  21
ENDBRANCH  19  20
ENDBRANCH  18  19
ENDBRANCH   1  18
TORSDOF 28
ENDMDL
MODEL 8
REMARK VINA RESULT:    17.197      6.898     10.013
REMARK INTER + INTRA:          45.514
REMARK INTER:                  46.974
REMARK INTRA:                  -1.461
REMARK UNBOUND:                 0.167
REMARK SMILES CCCCCCCCCCCCCCCCCCCCCCCCCCCCCC(=O)[O-]
REMARK SMILES IDX 16 1 17 2 18 3 19 4 20 5 21 6 22 7 23 8 24 9 25 10 26 11
REMARK SMILES IDX 27 12 28 13 29 14 30 15 31 16 32 17 15 18 14 19 13 20 12 21
REMARK SMILES IDX 11 22 10 23 9 24 8 25 7 26 6 27 5 28 4 29 3 30 2 31 1 32
REMARK H PARENT
REMARK Flexibility Score: inf
ROOT
ATOM      1  C   UNL     1      24.266 -24.547  18.929  1.00  0.00     0.000 C 
ENDROOT
BRANCH   1   2
ATOM      2  C   UNL     1      23.991 -25.125  17.532  1.00  0.00     0.000 C 
BRANCH   2   3
ATOM      3  C   UNL     1      25.059 -24.661  16.531  1.00  0.00     0.000 C 
BRANCH   3   4
ATOM      4  C   UNL     1      24.457 -24.001  15.276  1.00  0.00     0.000 C 
BRANCH   4   5
ATOM      5  C   UNL     1      25.244 -22.789  14.730  1.00  0.00     0.000 C 
BRANCH   5   6
ATOM      6  C   UNL     1      25.443 -21.625  15.718  1.00  0.00     0.000 C 
BRANCH   6   7
ATOM      7  C   UNL     1      25.198 -20.245  15.079  1.00  0.00     0.000 C 
BRANCH   7   8
ATOM      8  C   UNL     1      26.333 -19.823  14.133  1.00  0.00     0.000 C 
BRANCH   8   9
ATOM      9  C   UNL     1      26.733 -18.349  14.294  1.00  0.00     0.000 C 
BRANCH   9  10
ATOM     10  C   UNL     1      27.630 -17.901  13.132  1.00  0.00     0.000 C 
BRANCH  10  11
ATOM     11  C   UNL     1      28.720 -16.903  13.561  1.00  0.00     0.000 C 
BRANCH  11  12
ATOM     12  C   UNL     1      28.215 -15.483  13.873  1.00  0.00     0.000 C 
BRANCH  12  13
ATOM     13  C   UNL     1      27.816 -15.298  15.346  1.00  0.00     0.006 C 
BRANCH  13  14
ATOM     14  C   UNL     1      28.999 -14.790  16.177  1.00  0.00     0.053 C 
BRANCH  14  15
ATOM     15  C   UNL     1      29.377 -15.780  17.236  1.00  0.00     0.041 C 
ATOM     16  O   UNL     1      30.429 -16.463  17.121  1.00  0.00    -0.550 OA
ATOM     17  O   UNL     1      28.575 -15.936  18.360  1.00  0.00    -0.550 OA
ENDBRANCH  14  15
ENDBRANCH  13  14
ENDBRANCH  12  13
ENDBRANCH  11  12
ENDBRANCH  10  11
ENDBRANCH   9  10
ENDBRANCH   8   9
ENDBRANCH   7   8
ENDBRANCH   6   7
ENDBRANCH   5   6
ENDBRANCH   4   5
ENDBRANCH   3   4
ENDBRANCH   2   3
ENDBRANCH   1   2
BRANCH   1  18
ATOM     18  C   UNL     1      23.068 -24.688  19.891  1.00  0.00     0.000 C 
BRANCH  18  19
ATOM     19  C   UNL     1      23.361 -24.259  21.342  1.00  0.00     0.000 C 
BRANCH  19  20
ATOM     20  C   UNL     1      23.724 -22.776  21.541  1.00  0.00     0.000 C 
BRANCH  20  21
ATOM     21  C   UNL     1      23.918 -22.402  23.019  1.00  0.00     0.000 C 
BRANCH  21  22
ATOM     22  C   UNL     1      23.683 -20.906  23.258  1.00  0.00     0.000 C 
BRANCH  22  23
ATOM     23  C   UNL     1      23.573 -20.613  24.762  1.00  0.00     0.000 C 
BRANCH  23  24
ATOM     24  C   UNL     1      22.567 -21.523  25.482  1.00  0.00    -0.000 C 
BRANCH  24  25
ATOM     25  C   UNL     1      21.109 -21.085  25.266  1.00  0.00    -0.000 C 
BRANCH  25  26
ATOM     26  C   UNL     1      20.787 -19.747  25.954  1.00  0.00    -0.000 C 
BRANCH  26  27
ATOM     27  C   UNL     1      19.793 -19.903  27.116  1.00  0.00    -0.000 C 
BRANCH  27  28
ATOM     28  C   UNL     1      18.384 -19.456  26.707  1.00  0.00    -0.000 C 
BRANCH  28  29
ATOM     29  C   UNL     1      18.393 -18.830  25.303  1.00  0.00    -0.000 C 
BRANCH  29  30
ATOM     30  C   UNL     1      17.024 -18.944  24.601  1.00  0.00    -0.000 C 
BRANCH  30  31
ATOM     31  C   UNL     1      17.068 -19.772  23.306  1.00  0.00    -0.003 C 
ATOM     32  C   UNL     1      18.354 -19.566  22.507  1.00  0.00     0.004 C 
ENDBRANCH  30  31
ENDBRANCH  29  30
ENDBRANCH  28  29
ENDBRANCH  27  28
ENDBRANCH  26  27
ENDBRANCH  25  26
ENDBRANCH  24  25
ENDBRANCH  23  24
ENDBRANCH  22  23
ENDBRANCH  21  22
ENDBRANCH  20  21
ENDBRANCH  19  20
ENDBRANCH  18  19
ENDBRANCH   1  18
TORSDOF 28
ENDMDL
MODEL 9
REMARK VINA RESULT:    17.387      2.656      5.710
REMARK INTER + INTRA:          46.015
REMARK INTER:                  43.302
REMARK INTRA:                   2.713
REMARK UNBOUND:                 0.167
REMARK SMILES CCCCCCCCCCCCCCCCCCCCCCCCCCCCCC(=O)[O-]
REMARK SMILES IDX 16 1 17 2 18 3 19 4 20 5 21 6 22 7 23 8 24 9 25 10 26 11
REMARK SMILES IDX 27 12 28 13 29 14 30 15 31 16 32 17 15 18 14 19 13 20 12 21
REMARK SMILES IDX 11 22 10 23 9 24 8 25 7 26 6 27 5 28 4 29 3 30 2 31 1 32
REMARK H PARENT
REMARK Flexibility Score: inf
ROOT
ATOM      1  C   UNL     1      18.960 -19.007  28.300  1.00  0.00     0.000 C 
ENDROOT
BRANCH   1   2
ATOM      2  C   UNL     1      18.571 -19.175  29.777  1.00  0.00     0.000 C 
BRANCH   2   3
ATOM      3  C   UNL     1      17.228 -18.490  30.069  1.00  0.00     0.000 C 
BRANCH   3   4
ATOM      4  C   UNL     1      16.364 -18.306  28.808  1.00  0.00     0.000 C 
BRANCH   4   5
ATOM      5  C   UNL     1      15.976 -19.613  28.081  1.00  0.00     0.000 C 
BRANCH   5   6
ATOM      6  C   UNL     1      16.565 -19.788  26.669  1.00  0.00     0.000 C 
BRANCH   6   7
ATOM      7  C   UNL     1      17.395 -18.575  26.209  1.00  0.00     0.000 C 
BRANCH   7   8
ATOM      8  C   UNL     1      17.930 -18.734  24.778  1.00  0.00     0.000 C 
BRANCH   8   9
ATOM      9  C   UNL     1      16.952 -19.467  23.848  1.00  0.00     0.000 C 
BRANCH   9  10
ATOM     10  C   UNL     1      17.709 -20.185  22.722  1.00  0.00     0.000 C 
BRANCH  10  11
ATOM     11  C   UNL     1      16.790 -21.016  21.810  1.00  0.00     0.000 C 
BRANCH  11  12
ATOM     12  C   UNL     1      16.353 -22.374  22.389  1.00  0.00     0.000 C 
BRANCH  12  13
ATOM     13  C   UNL     1      16.490 -23.528  21.384  1.00  0.00     0.006 C 
BRANCH  13  14
ATOM     14  C   UNL     1      17.956 -23.747  20.995  1.00  0.00     0.053 C 
BRANCH  14  15
ATOM     15  C   UNL     1      18.118 -23.788  19.507  1.00  0.00     0.041 C 
ATOM     16  O   UNL     1      17.886 -24.851  18.872  1.00  0.00    -0.550 OA
ATOM     17  O   UNL     1      18.506 -22.646  18.818  1.00  0.00    -0.550 OA
ENDBRANCH  14  15
ENDBRANCH  13  14
ENDBRANCH  12  13
ENDBRANCH  11  12
ENDBRANCH  10  11
ENDBRANCH   9  10
ENDBRANCH   8   9
ENDBRANCH   7   8
ENDBRANCH   6   7
ENDBRANCH   5   6
ENDBRANCH   4   5
ENDBRANCH   3   4
ENDBRANCH   2   3
ENDBRANCH   1   2
BRANCH   1  18
ATOM     18  C   UNL     1      20.278 -19.721  27.935  1.00  0.00     0.000 C 
BRANCH  18  19
ATOM     19  C   UNL     1      20.678 -19.601  26.450  1.00  0.00     0.000 C 
BRANCH  19  20
ATOM     20  C   UNL     1      21.147 -20.903  25.776  1.00  0.00     0.000 C 
BRANCH  20  21
ATOM     21  C   UNL     1      22.668 -21.104  25.862  1.00  0.00     0.000 C 
BRANCH  21  22
ATOM     22  C   UNL     1      23.026 -22.391  26.615  1.00  0.00     0.000 C 
BRANCH  22  23
ATOM     23  C   UNL     1      23.705 -22.060  27.952  1.00  0.00     0.000 C 
BRANCH  23  24
ATOM     24  C   UNL     1      25.238 -22.089  27.873  1.00  0.00    -0.000 C 
BRANCH  24  25
ATOM     25  C   UNL     1      25.757 -22.267  26.437  1.00  0.00    -0.000 C 
BRANCH  25  26
ATOM     26  C   UNL     1      26.314 -23.678  26.182  1.00  0.00    -0.000 C 
BRANCH  26  27
ATOM     27  C   UNL     1      26.249 -24.081  24.700  1.00  0.00    -0.000 C 
BRANCH  27  28
ATOM     28  C   UNL     1      26.132 -22.850  23.792  1.00  0.00    -0.000 C 
BRANCH  28  29
ATOM     29  C   UNL     1      25.113 -21.847  24.357  1.00  0.00    -0.000 C 
BRANCH  29  30
ATOM     30  C   UNL     1      23.993 -21.518  23.348  1.00  0.00    -0.000 C 
BRANCH  30  31
ATOM     31  C   UNL     1      23.838 -22.574  22.240  1.00  0.00    -0.003 C 
ATOM     32  C   UNL     1      22.973 -23.760  22.660  1.00  0.00     0.004 C 
ENDBRANCH  30  31
ENDBRANCH  29  30
ENDBRANCH  28  29
ENDBRANCH  27  28
ENDBRANCH  26  27
ENDBRANCH  25  26
ENDBRANCH  24  25
ENDBRANCH  23  24
ENDBRANCH  22  23
ENDBRANCH  21  22
ENDBRANCH  20  21
ENDBRANCH  19  20
ENDBRANCH  18  19
ENDBRANCH   1  18
TORSDOF 28
ENDMDL
