MODEL 1
REMARK VINA RESULT:    -3.651      0.000      0.000
REMARK INTER + INTRA:          -5.487
REMARK INTER:                  -4.932
REMARK INTRA:                  -0.555
REMARK UNBOUND:                -0.555
REMARK SMILES O=C[C@H](O)[C@H](O)[C@H](O)CO
REMARK SMILES IDX 7 1 9 2 10 3 5 5 3 6 2 7 1 8 4 9 6 11 8 13
REMARK H PARENT 10 4 4 10 6 12 8 14
REMARK Flexibility Score: inf
ROOT
ATOM      1  C   UNL     1       5.672   7.052  10.922  1.00  0.00     0.171 C 
ENDROOT
BRANCH   1   2
ATOM      2  C   UNL     1       6.276   5.795  10.262  1.00  0.00     0.190 C 
BRANCH   2   3
ATOM      3  O   UNL     1       7.433   5.393  10.944  1.00  0.00    -0.394 OA
ATOM      4  H   UNL     1       8.102   6.116  10.821  1.00  0.00     0.210 HD
ENDBRANCH   2   3
ENDBRANCH   1   2
BRANCH   1   5
ATOM      5  C   UNL     1       5.816   8.335  10.059  1.00  0.00     0.181 C 
BRANCH   5   6
ATOM      6  C   UNL     1       6.850   9.335  10.632  1.00  0.00     0.209 C 
BRANCH   6   7
ATOM      7  C   UNL     1       6.697  10.689   9.993  1.00  0.00     0.258 C 
ATOM      8  O   UNL     1       5.851  11.474  10.392  1.00  0.00    -0.300 OA
ENDBRANCH   6   7
BRANCH   6   9
ATOM      9  O   UNL     1       8.153   8.862  10.409  1.00  0.00    -0.383 OA
ATOM     10  H   UNL     1       8.069   8.030   9.874  1.00  0.00     0.211 HD
ENDBRANCH   6   9
ENDBRANCH   5   6
BRANCH   5  11
ATOM     11  O   UNL     1       4.563   8.962   9.935  1.00  0.00    -0.387 OA
ATOM     12  H   UNL     1       3.924   8.457  10.503  1.00  0.00     0.211 HD
ENDBRANCH   5  11
ENDBRANCH   1   5
BRANCH   1  13
ATOM     13  O   UNL     1       6.241   7.262  12.192  1.00  0.00    -0.388 OA
ATOM     14  H   UNL     1       6.808   8.076  12.139  1.00  0.00     0.211 HD
ENDBRANCH   1  13
TORSDOF 8
ENDMDL
MODEL 2
REMARK VINA RESULT:    -3.613      1.614      3.852
REMARK INTER + INTRA:          -5.435
REMARK INTER:                  -4.733
REMARK INTRA:                  -0.703
REMARK UNBOUND:                -0.555
REMARK SMILES O=C[C@H](O)[C@H](O)[C@H](O)CO
REMARK SMILES IDX 7 1 9 2 10 3 5 5 3 6 2 7 1 8 4 9 6 11 8 13
REMARK H PARENT 10 4 4 10 6 12 8 14
REMARK Flexibility Score: inf
ROOT
ATOM      1  C   UNL     1       8.370   9.999   9.875  1.00  0.00     0.171 C 
ENDROOT
BRANCH   1   2
ATOM      2  C   UNL     1       8.897  11.399  10.256  1.00  0.00     0.190 C 
BRANCH   2   3
ATOM      3  O   UNL     1       8.524  11.722  11.568  1.00  0.00    -0.394 OA
ATOM      4  H   UNL     1       7.776  12.371  11.500  1.00  0.00     0.210 HD
ENDBRANCH   2   3
ENDBRANCH   1   2
BRANCH   1   5
ATOM      5  C   UNL     1       6.977   9.676  10.480  1.00  0.00     0.181 C 
BRANCH   5   6
ATOM      6  C   UNL     1       6.359   8.375   9.912  1.00  0.00     0.209 C 
BRANCH   6   7
ATOM      7  C   UNL     1       4.876   8.330  10.168  1.00  0.00     0.258 C 
ATOM      8  O   UNL     1       4.433   8.502  11.293  1.00  0.00    -0.300 OA
ENDBRANCH   6   7
BRANCH   6   9
ATOM      9  O   UNL     1       6.965   7.255  10.504  1.00  0.00    -0.383 OA
ATOM     10  H   UNL     1       7.932   7.462  10.586  1.00  0.00     0.211 HD
ENDBRANCH   6   9
ENDBRANCH   5   6
BRANCH   5  11
ATOM     11  O   UNL     1       6.104  10.757  10.256  1.00  0.00    -0.387 OA
ATOM     12  H   UNL     1       5.178  10.402  10.301  1.00  0.00     0.211 HD
ENDBRANCH   5  11
ENDBRANCH   1   5
BRANCH   1  13
ATOM     13  O   UNL     1       9.296   9.008  10.247  1.00  0.00    -0.388 OA
ATOM     14  H   UNL     1       9.896   8.849   9.472  1.00  0.00     0.211 HD
ENDBRANCH   1  13
TORSDOF 8
ENDMDL
MODEL 3
REMARK VINA RESULT:    -3.560      3.854      5.453
REMARK INTER + INTRA:          -5.363
REMARK INTER:                  -4.536
REMARK INTRA:                  -0.828
REMARK UNBOUND:                -0.555
REMARK SMILES O=C[C@H](O)[C@H](O)[C@H](O)CO
REMARK SMILES IDX 7 1 9 2 10 3 5 5 3 6 2 7 1 8 4 9 6 11 8 13
REMARK H PARENT 10 4 4 10 6 12 8 14
REMARK Flexibility Score: inf
ROOT
ATOM      1  C   UNL     1       4.388  11.926  11.107  1.00  0.00     0.171 C 
ENDROOT
BRANCH   1   2
ATOM      2  C   UNL     1       3.803  10.502  11.227  1.00  0.00     0.190 C 
BRANCH   2   3
ATOM      3  O   UNL     1       4.387   9.823  12.306  1.00  0.00    -0.394 OA
ATOM      4  H   UNL     1       4.936   9.092  11.918  1.00  0.00     0.210 HD
ENDBRANCH   2   3
ENDBRANCH   1   2
BRANCH   1   5
ATOM      5  C   UNL     1       3.975  12.865  12.272  1.00  0.00     0.181 C 
BRANCH   5   6
ATOM      6  C   UNL     1       5.150  13.197  13.225  1.00  0.00     0.209 C 
BRANCH   6   7
ATOM      7  C   UNL     1       4.901  12.637  14.599  1.00  0.00     0.258 C 
ATOM      8  O   UNL     1       4.968  11.435  14.803  1.00  0.00    -0.300 OA
ENDBRANCH   6   7
BRANCH   6   9
ATOM      9  O   UNL     1       5.319  14.588  13.315  1.00  0.00    -0.383 OA
ATOM     10  H   UNL     1       6.154  14.744  13.828  1.00  0.00     0.211 HD
ENDBRANCH   6   9
ENDBRANCH   5   6
BRANCH   5  11
ATOM     11  O   UNL     1       2.923  12.278  12.999  1.00  0.00    -0.387 OA
ATOM     12  H   UNL     1       2.308  13.009  13.269  1.00  0.00     0.211 HD
ENDBRANCH   5  11
ENDBRANCH   1   5
BRANCH   1  13
ATOM     13  O   UNL     1       4.027  12.502   9.875  1.00  0.00    -0.388 OA
ATOM     14  H   UNL     1       3.443  13.282  10.066  1.00  0.00     0.211 HD
ENDBRANCH   1  13
TORSDOF 8
ENDMDL
MODEL 4
REMARK VINA RESULT:    -3.554      6.434      8.383
REMARK INTER + INTRA:          -5.355
REMARK INTER:                  -4.774
REMARK INTRA:                  -0.582
REMARK UNBOUND:                -0.555
REMARK SMILES O=C[C@H](O)[C@H](O)[C@H](O)CO
REMARK SMILES IDX 7 1 9 2 10 3 5 5 3 6 2 7 1 8 4 9 6 11 8 13
REMARK H PARENT 10 4 4 10 6 12 8 14
REMARK Flexibility Score: inf
ROOT
ATOM      1  C   UNL     1       6.781  14.864  16.534  1.00  0.00     0.171 C 
ENDROOT
BRANCH   1   2
ATOM      2  C   UNL     1       5.432  14.325  17.058  1.00  0.00     0.190 C 
BRANCH   2   3
ATOM      3  O   UNL     1       4.697  15.354  17.663  1.00  0.00    -0.394 OA
ATOM      4  H   UNL     1       4.385  15.004  18.539  1.00  0.00     0.210 HD
ENDBRANCH   2   3
ENDBRANCH   1   2
BRANCH   1   5
ATOM      5  C   UNL     1       6.790  15.128  15.005  1.00  0.00     0.181 C 
BRANCH   5   6
ATOM      6  C   UNL     1       6.172  13.967  14.188  1.00  0.00     0.209 C 
BRANCH   6   7
ATOM      7  C   UNL     1       7.245  13.155  13.513  1.00  0.00     0.258 C 
ATOM      8  O   UNL     1       8.051  12.517  14.173  1.00  0.00    -0.300 OA
ENDBRANCH   6   7
BRANCH   6   9
ATOM      9  O   UNL     1       5.295  14.475  13.216  1.00  0.00    -0.383 OA
ATOM     10  H   UNL     1       4.579  13.798  13.093  1.00  0.00     0.211 HD
ENDBRANCH   6   9
ENDBRANCH   5   6
BRANCH   5  11
ATOM     11  O   UNL     1       8.110  15.364  14.576  1.00  0.00    -0.387 OA
ATOM     12  H   UNL     1       8.240  16.348  14.553  1.00  0.00     0.211 HD
ENDBRANCH   5  11
ENDBRANCH   1   5
BRANCH   1  13
ATOM     13  O   UNL     1       7.826  13.987  16.877  1.00  0.00    -0.388 OA
ATOM     14  H   UNL     1       8.684  14.455  16.702  1.00  0.00     0.211 HD
ENDBRANCH   1  13
TORSDOF 8
ENDMDL
MODEL 5
REMARK VINA RESULT:    -3.540     13.523     15.058
REMARK INTER + INTRA:          -5.337
REMARK INTER:                  -4.816
REMARK INTRA:                  -0.522
REMARK UNBOUND:                -0.555
REMARK SMILES O=C[C@H](O)[C@H](O)[C@H](O)CO
REMARK SMILES IDX 7 1 9 2 10 3 5 5 3 6 2 7 1 8 4 9 6 11 8 13
REMARK H PARENT 10 4 4 10 6 12 8 14
REMARK Flexibility Score: inf
ROOT
ATOM      1  C   UNL     1       7.333  19.004  19.924  1.00  0.00     0.171 C 
ENDROOT
BRANCH   1   2
ATOM      2  C   UNL     1       7.900  17.772  19.187  1.00  0.00     0.190 C 
BRANCH   2   3
ATOM      3  O   UNL     1       6.862  16.910  18.807  1.00  0.00    -0.394 OA
ATOM      4  H   UNL     1       7.162  16.451  17.979  1.00  0.00     0.210 HD
ENDBRANCH   2   3
ENDBRANCH   1   2
BRANCH   1   5
ATOM      5  C   UNL     1       7.036  18.745  21.426  1.00  0.00     0.181 C 
BRANCH   5   6
ATOM      6  C   UNL     1       8.320  18.563  22.273  1.00  0.00     0.209 C 
BRANCH   6   7
ATOM      7  C   UNL     1       7.978  18.177  23.687  1.00  0.00     0.258 C 
ATOM      8  O   UNL     1       6.913  18.511  24.183  1.00  0.00    -0.300 OA
ENDBRANCH   6   7
BRANCH   6   9
ATOM      9  O   UNL     1       9.064  19.753  22.284  1.00  0.00    -0.383 OA
ATOM     10  H   UNL     1       9.669  19.721  21.498  1.00  0.00     0.211 HD
ENDBRANCH   6   9
ENDBRANCH   5   6
BRANCH   5  11
ATOM     11  O   UNL     1       6.214  17.610  21.554  1.00  0.00    -0.387 OA
ATOM     12  H   UNL     1       6.054  17.471  22.524  1.00  0.00     0.211 HD
ENDBRANCH   5  11
ENDBRANCH   1   5
BRANCH   1  13
ATOM     13  O   UNL     1       6.174  19.472  19.279  1.00  0.00    -0.388 OA
ATOM     14  H   UNL     1       5.536  19.768  19.980  1.00  0.00     0.211 HD
ENDBRANCH   1  13
TORSDOF 8
ENDMDL
MODEL 6
REMARK VINA RESULT:    -3.526      7.803      9.415
REMARK INTER + INTRA:          -5.318
REMARK INTER:                  -4.590
REMARK INTRA:                  -0.728
REMARK UNBOUND:                -0.555
REMARK SMILES O=C[C@H](O)[C@H](O)[C@H](O)CO
REMARK SMILES IDX 7 1 9 2 10 3 5 5 3 6 2 7 1 8 4 9 6 11 8 13
REMARK H PARENT 10 4 4 10 6 12 8 14
REMARK Flexibility Score: inf
ROOT
ATOM      1  C   UNL     1       5.572  14.500  18.326  1.00  0.00     0.171 C 
ENDROOT
BRANCH   1   2
ATOM      2  C   UNL     1       6.558  15.273  19.229  1.00  0.00     0.190 C 
BRANCH   2   3
ATOM      3  O   UNL     1       6.787  16.557  18.715  1.00  0.00    -0.394 OA
ATOM      4  H   UNL     1       5.935  17.059  18.815  1.00  0.00     0.210 HD
ENDBRANCH   2   3
ENDBRANCH   1   2
BRANCH   1   5
ATOM      5  C   UNL     1       6.270  13.664  17.220  1.00  0.00     0.181 C 
BRANCH   5   6
ATOM      6  C   UNL     1       6.217  14.341  15.828  1.00  0.00     0.209 C 
BRANCH   6   7
ATOM      7  C   UNL     1       6.844  13.461  14.780  1.00  0.00     0.258 C 
ATOM      8  O   UNL     1       6.222  12.528  14.298  1.00  0.00    -0.300 OA
ENDBRANCH   6   7
BRANCH   6   9
ATOM      9  O   UNL     1       6.893  15.571  15.865  1.00  0.00    -0.383 OA
ATOM     10  H   UNL     1       7.542  15.521  16.614  1.00  0.00     0.211 HD
ENDBRANCH   6   9
ENDBRANCH   5   6
BRANCH   5  11
ATOM     11  O   UNL     1       5.681  12.388  17.152  1.00  0.00    -0.387 OA
ATOM     12  H   UNL     1       5.039  12.400  16.395  1.00  0.00     0.211 HD
ENDBRANCH   5  11
ENDBRANCH   1   5
BRANCH   1  13
ATOM     13  O   UNL     1       4.642  15.384  17.746  1.00  0.00    -0.388 OA
ATOM     14  H   UNL     1       4.696  15.275  16.761  1.00  0.00     0.211 HD
ENDBRANCH   1  13
TORSDOF 8
ENDMDL
MODEL 7
REMARK VINA RESULT:    -3.525      4.358      6.299
REMARK INTER + INTRA:          -5.316
REMARK INTER:                  -4.610
REMARK INTRA:                  -0.706
REMARK UNBOUND:                -0.555
REMARK SMILES O=C[C@H](O)[C@H](O)[C@H](O)CO
REMARK SMILES IDX 7 1 9 2 10 3 5 5 3 6 2 7 1 8 4 9 6 11 8 13
REMARK H PARENT 10 4 4 10 6 12 8 14
REMARK Flexibility Score: inf
ROOT
ATOM      1  C   UNL     1       7.583  13.259  13.153  1.00  0.00     0.171 C 
ENDROOT
BRANCH   1   2
ATOM      2  C   UNL     1       8.161  13.943  14.410  1.00  0.00     0.190 C 
BRANCH   2   3
ATOM      3  O   UNL     1       7.876  15.316  14.395  1.00  0.00    -0.394 OA
ATOM      4  H   UNL     1       8.558  15.742  13.812  1.00  0.00     0.210 HD
ENDBRANCH   2   3
ENDBRANCH   1   2
BRANCH   1   5
ATOM      5  C   UNL     1       6.043  13.071  13.204  1.00  0.00     0.181 C 
BRANCH   5   6
ATOM      6  C   UNL     1       5.507  12.174  12.061  1.00  0.00     0.209 C 
BRANCH   6   7
ATOM      7  C   UNL     1       4.100  12.563  11.691  1.00  0.00     0.258 C 
ATOM      8  O   UNL     1       3.198  12.491  12.511  1.00  0.00    -0.300 OA
ENDBRANCH   6   7
BRANCH   6   9
ATOM      9  O   UNL     1       5.527  10.827  12.454  1.00  0.00    -0.383 OA
ATOM     10  H   UNL     1       6.464  10.615  12.704  1.00  0.00     0.211 HD
ENDBRANCH   6   9
ENDBRANCH   5   6
BRANCH   5  11
ATOM     11  O   UNL     1       5.414  14.328  13.160  1.00  0.00    -0.387 OA
ATOM     12  H   UNL     1       5.890  14.919  13.801  1.00  0.00     0.211 HD
ENDBRANCH   5  11
ENDBRANCH   1   5
BRANCH   1  13
ATOM     13  O   UNL     1       8.212  12.019  12.937  1.00  0.00    -0.388 OA
ATOM     14  H   UNL     1       7.561  11.305  13.168  1.00  0.00     0.211 HD
ENDBRANCH   1  13
TORSDOF 8
ENDMDL
MODEL 8
REMARK VINA RESULT:    -3.490      3.784      5.172
REMARK INTER + INTRA:          -5.269
REMARK INTER:                  -4.510
REMARK INTRA:                  -0.760
REMARK UNBOUND:                -0.555
REMARK SMILES O=C[C@H](O)[C@H](O)[C@H](O)CO
REMARK SMILES IDX 7 1 9 2 10 3 5 5 3 6 2 7 1 8 4 9 6 11 8 13
REMARK H PARENT 10 4 4 10 6 12 8 14
REMARK Flexibility Score: inf
ROOT
ATOM      1  C   UNL     1       4.853  11.439  10.387  1.00  0.00     0.171 C 
ENDROOT
BRANCH   1   2
ATOM      2  C   UNL     1       4.148  10.074  10.240  1.00  0.00     0.190 C 
BRANCH   2   3
ATOM      3  O   UNL     1       2.808  10.170  10.642  1.00  0.00    -0.394 OA
ATOM      4  H   UNL     1       2.815  10.499  11.579  1.00  0.00     0.210 HD
ENDBRANCH   2   3
ENDBRANCH   1   2
BRANCH   1   5
ATOM      5  C   UNL     1       5.267  11.768  11.846  1.00  0.00     0.181 C 
BRANCH   5   6
ATOM      6  C   UNL     1       4.407  12.888  12.481  1.00  0.00     0.209 C 
BRANCH   6   7
ATOM      7  C   UNL     1       4.911  13.237  13.856  1.00  0.00     0.258 C 
ATOM      8  O   UNL     1       5.875  13.973  13.998  1.00  0.00    -0.300 OA
ENDBRANCH   6   7
BRANCH   6   9
ATOM      9  O   UNL     1       3.068  12.476  12.569  1.00  0.00    -0.383 OA
ATOM     10  H   UNL     1       2.998  11.617  12.075  1.00  0.00     0.211 HD
ENDBRANCH   6   9
ENDBRANCH   5   6
BRANCH   5  11
ATOM     11  O   UNL     1       6.626  12.133  11.878  1.00  0.00    -0.387 OA
ATOM     12  H   UNL     1       6.684  13.012  12.337  1.00  0.00     0.211 HD
ENDBRANCH   5  11
ENDBRANCH   1   5
BRANCH   1  13
ATOM     13  O   UNL     1       4.041  12.469   9.875  1.00  0.00    -0.388 OA
ATOM     14  H   UNL     1       3.155  12.076   9.660  1.00  0.00     0.211 HD
ENDBRANCH   1  13
TORSDOF 8
ENDMDL
MODEL 9
REMARK VINA RESULT:    -3.456      2.249      4.299
REMARK INTER + INTRA:          -5.223
REMARK INTER:                  -4.426
REMARK INTRA:                  -0.797
REMARK UNBOUND:                -0.555
REMARK SMILES O=C[C@H](O)[C@H](O)[C@H](O)CO
REMARK SMILES IDX 7 1 9 2 10 3 5 5 3 6 2 7 1 8 4 9 6 11 8 13
REMARK H PARENT 10 4 4 10 6 12 8 14
REMARK Flexibility Score: inf
ROOT
ATOM      1  C   UNL     1       7.494  11.823  12.036  1.00  0.00     0.171 C 
ENDROOT
BRANCH   1   2
ATOM      2  C   UNL     1       6.042  12.099  12.479  1.00  0.00     0.190 C 
BRANCH   2   3
ATOM      3  O   UNL     1       5.177  12.049  11.376  1.00  0.00    -0.394 OA
ATOM      4  H   UNL     1       5.304  12.898  10.876  1.00  0.00     0.210 HD
ENDBRANCH   2   3
ENDBRANCH   1   2
BRANCH   1   5
ATOM      5  C   UNL     1       7.810  10.314  11.856  1.00  0.00     0.181 C 
BRANCH   5   6
ATOM      6  C   UNL     1       7.998   9.910  10.373  1.00  0.00     0.209 C 
BRANCH   6   7
ATOM      7  C   UNL     1       6.808   9.132   9.875  1.00  0.00     0.258 C 
ATOM      8  O   UNL     1       5.694   9.632   9.876  1.00  0.00    -0.300 OA
ENDBRANCH   6   7
BRANCH   6   9
ATOM      9  O   UNL     1       9.155   9.128  10.228  1.00  0.00    -0.383 OA
ATOM     10  H   UNL     1       9.762   9.624   9.619  1.00  0.00     0.211 HD
ENDBRANCH   6   9
ENDBRANCH   5   6
BRANCH   5  11
ATOM     11  O   UNL     1       6.783   9.546  12.434  1.00  0.00    -0.387 OA
ATOM     12  H   UNL     1       6.468  10.035  13.239  1.00  0.00     0.211 HD
ENDBRANCH   5  11
ENDBRANCH   1   5
BRANCH   1  13
ATOM     13  O   UNL     1       8.402  12.398  12.945  1.00  0.00    -0.388 OA
ATOM     14  H   UNL     1       8.881  13.129  12.473  1.00  0.00     0.211 HD
ENDBRANCH   1  13
TORSDOF 8
ENDMDL
