MODEL 1
REMARK VINA RESULT:    -4.994      0.000      0.000
REMARK INTER + INTRA:          -9.681
REMARK INTER:                  -8.498
REMARK INTRA:                  -1.183
REMARK UNBOUND:                -1.183
REMARK SMILES CCCCCCCCCCCCCC(=O)[O-]
REMARK SMILES IDX 8 1 9 2 10 3 11 4 12 5 13 6 14 7 15 8 16 9 7 10 6 11 5 12
REMARK SMILES IDX 4 13 3 14 2 15 1 16
REMARK H PARENT
REMARK Flexibility Score: inf
ROOT
ATOM      1  C   UNL     1     -21.508 -24.175  39.892  1.00  0.00     0.000 C 
ENDROOT
BRANCH   1   2
ATOM      2  C   UNL     1     -20.311 -25.135  39.894  1.00  0.00     0.000 C 
BRANCH   2   3
ATOM      3  C   UNL     1     -20.774 -26.590  39.746  1.00  0.00     0.000 C 
BRANCH   3   4
ATOM      4  C   UNL     1     -21.184 -26.894  38.300  1.00  0.00     0.000 C 
BRANCH   4   5
ATOM      5  C   UNL     1     -22.043 -28.166  38.227  1.00  0.00     0.006 C 
BRANCH   5   6
ATOM      6  C   UNL     1     -22.634 -28.546  39.591  1.00  0.00     0.053 C 
BRANCH   6   7
ATOM      7  C   UNL     1     -23.997 -29.152  39.457  1.00  0.00     0.041 C 
ATOM      8  O   UNL     1     -24.602 -29.111  38.353  1.00  0.00    -0.550 OA
ATOM      9  O   UNL     1     -24.613 -29.731  40.559  1.00  0.00    -0.550 OA
ENDBRANCH   6   7
ENDBRANCH   5   6
ENDBRANCH   4   5
ENDBRANCH   3   4
ENDBRANCH   2   3
ENDBRANCH   1   2
BRANCH   1  10
ATOM     10  C   UNL     1     -22.237 -24.126  41.248  1.00  0.00     0.000 C 
BRANCH  10  11
ATOM     11  C   UNL     1     -23.739 -24.472  41.191  1.00  0.00    -0.000 C 
BRANCH  11  12
ATOM     12  C   UNL     1     -24.086 -25.942  41.500  1.00  0.00    -0.000 C 
BRANCH  12  13
ATOM     13  C   UNL     1     -25.365 -26.150  42.331  1.00  0.00    -0.000 C 
BRANCH  13  14
ATOM     14  C   UNL     1     -26.490 -26.831  41.533  1.00  0.00    -0.000 C 
BRANCH  14  15
ATOM     15  C   UNL     1     -27.864 -26.196  41.795  1.00  0.00    -0.003 C 
ATOM     16  C   UNL     1     -27.802 -25.033  42.785  1.00  0.00     0.004 C 
ENDBRANCH  14  15
ENDBRANCH  13  14
ENDBRANCH  12  13
ENDBRANCH  11  12
ENDBRANCH  10  11
ENDBRANCH   1  10
TORSDOF 12
ENDMDL
MODEL 2
REMARK VINA RESULT:    -4.948      0.969      1.947
REMARK INTER + INTRA:          -9.602
REMARK INTER:                  -8.440
REMARK INTRA:                  -1.162
REMARK UNBOUND:                -1.183
REMARK SMILES CCCCCCCCCCCCCC(=O)[O-]
REMARK SMILES IDX 8 1 9 2 10 3 11 4 12 5 13 6 14 7 15 8 16 9 7 10 6 11 5 12
REMARK SMILES IDX 4 13 3 14 2 15 1 16
REMARK H PARENT
REMARK Flexibility Score: inf
ROOT
ATOM      1  C   UNL     1     -20.216 -25.073  39.796  1.00  0.00     0.000 C 
ENDROOT
BRANCH   1   2
ATOM      2  C   UNL     1     -21.068 -26.339  39.628  1.00  0.00     0.000 C 
BRANCH   2   3
ATOM      3  C   UNL     1     -20.920 -26.916  38.215  1.00  0.00     0.000 C 
BRANCH   3   4
ATOM      4  C   UNL     1     -21.955 -28.019  37.960  1.00  0.00     0.000 C 
BRANCH   4   5
ATOM      5  C   UNL     1     -22.516 -28.564  39.283  1.00  0.00     0.006 C 
BRANCH   5   6
ATOM      6  C   UNL     1     -23.929 -29.140  39.120  1.00  0.00     0.053 C 
BRANCH   6   7
ATOM      7  C   UNL     1     -24.668 -29.176  40.423  1.00  0.00     0.041 C 
ATOM      8  O   UNL     1     -24.036 -29.287  41.506  1.00  0.00    -0.550 OA
ATOM      9  O   UNL     1     -26.056 -29.122  40.438  1.00  0.00    -0.550 OA
ENDBRANCH   6   7
ENDBRANCH   5   6
ENDBRANCH   4   5
ENDBRANCH   3   4
ENDBRANCH   2   3
ENDBRANCH   1   2
BRANCH   1  10
ATOM     10  C   UNL     1     -21.063 -23.809  40.033  1.00  0.00     0.000 C 
BRANCH  10  11
ATOM     11  C   UNL     1     -22.168 -23.958  41.098  1.00  0.00    -0.000 C 
BRANCH  11  12
ATOM     12  C   UNL     1     -23.513 -23.291  40.747  1.00  0.00    -0.000 C 
BRANCH  12  13
ATOM     13  C   UNL     1     -24.765 -24.066  41.197  1.00  0.00    -0.000 C 
BRANCH  13  14
ATOM     14  C   UNL     1     -24.455 -25.520  41.592  1.00  0.00    -0.000 C 
BRANCH  14  15
ATOM     15  C   UNL     1     -25.588 -26.163  42.405  1.00  0.00    -0.003 C 
ATOM     16  C   UNL     1     -26.959 -25.993  41.750  1.00  0.00     0.004 C 
ENDBRANCH  14  15
ENDBRANCH  13  14
ENDBRANCH  12  13
ENDBRANCH  11  12
ENDBRANCH  10  11
ENDBRANCH   1  10
TORSDOF 12
ENDMDL
MODEL 3
REMARK VINA RESULT:    -4.823      3.066      4.691
REMARK INTER + INTRA:          -9.389
REMARK INTER:                  -8.084
REMARK INTRA:                  -1.306
REMARK UNBOUND:                -1.183
REMARK SMILES CCCCCCCCCCCCCC(=O)[O-]
REMARK SMILES IDX 8 1 9 2 10 3 11 4 12 5 13 6 14 7 15 8 16 9 7 10 6 11 5 12
REMARK SMILES IDX 4 13 3 14 2 15 1 16
REMARK H PARENT
REMARK Flexibility Score: inf
ROOT
ATOM      1  C   UNL     1     -21.541 -27.364  38.701  1.00  0.00     0.000 C 
ENDROOT
BRANCH   1   2
ATOM      2  C   UNL     1     -21.318 -26.612  40.021  1.00  0.00     0.000 C 
BRANCH   2   3
ATOM      3  C   UNL     1     -20.404 -25.399  39.814  1.00  0.00     0.000 C 
BRANCH   3   4
ATOM      4  C   UNL     1     -21.109 -24.101  40.228  1.00  0.00     0.000 C 
BRANCH   4   5
ATOM      5  C   UNL     1     -22.243 -24.385  41.225  1.00  0.00     0.006 C 
BRANCH   5   6
ATOM      6  C   UNL     1     -23.499 -23.556  40.927  1.00  0.00     0.053 C 
BRANCH   6   7
ATOM      7  C   UNL     1     -23.171 -22.111  40.705  1.00  0.00     0.041 C 
ATOM      8  O   UNL     1     -22.804 -21.389  41.670  1.00  0.00    -0.550 OA
ATOM      9  O   UNL     1     -23.305 -21.554  39.440  1.00  0.00    -0.550 OA
ENDBRANCH   6   7
ENDBRANCH   5   6
ENDBRANCH   4   5
ENDBRANCH   3   4
ENDBRANCH   2   3
ENDBRANCH   1   2
BRANCH   1  10
ATOM     10  C   UNL     1     -22.571 -28.501  38.827  1.00  0.00     0.000 C 
BRANCH  10  11
ATOM     11  C   UNL     1     -22.836 -28.981  40.268  1.00  0.00    -0.000 C 
BRANCH  11  12
ATOM     12  C   UNL     1     -24.299 -29.361  40.575  1.00  0.00    -0.000 C 
BRANCH  12  13
ATOM     13  C   UNL     1     -25.258 -28.170  40.758  1.00  0.00    -0.000 C 
BRANCH  13  14
ATOM     14  C   UNL     1     -24.670 -27.064  41.651  1.00  0.00    -0.000 C 
BRANCH  14  15
ATOM     15  C   UNL     1     -25.755 -26.175  42.278  1.00  0.00    -0.003 C 
ATOM     16  C   UNL     1     -27.085 -26.244  41.528  1.00  0.00     0.004 C 
ENDBRANCH  14  15
ENDBRANCH  13  14
ENDBRANCH  12  13
ENDBRANCH  11  12
ENDBRANCH  10  11
ENDBRANCH   1  10
TORSDOF 12
ENDMDL
MODEL 4
REMARK VINA RESULT:    -4.791      1.331      4.537
REMARK INTER + INTRA:          -9.335
REMARK INTER:                  -8.088
REMARK INTRA:                  -1.247
REMARK UNBOUND:                -1.183
REMARK SMILES CCCCCCCCCCCCCC(=O)[O-]
REMARK SMILES IDX 8 1 9 2 10 3 11 4 12 5 13 6 14 7 15 8 16 9 7 10 6 11 5 12
REMARK SMILES IDX 4 13 3 14 2 15 1 16
REMARK H PARENT
REMARK Flexibility Score: inf
ROOT
ATOM      1  C   UNL     1     -24.472 -24.299  41.216  1.00  0.00     0.000 C 
ENDROOT
BRANCH   1   2
ATOM      2  C   UNL     1     -25.453 -25.179  42.003  1.00  0.00     0.000 C 
BRANCH   2   3
ATOM      3  C   UNL     1     -25.168 -26.667  41.765  1.00  0.00     0.000 C 
BRANCH   3   4
ATOM      4  C   UNL     1     -26.383 -27.368  41.146  1.00  0.00     0.000 C 
BRANCH   4   5
ATOM      5  C   UNL     1     -25.981 -28.156  39.889  1.00  0.00     0.006 C 
BRANCH   5   6
ATOM      6  C   UNL     1     -25.610 -29.611  40.209  1.00  0.00     0.053 C 
BRANCH   6   7
ATOM      7  C   UNL     1     -25.408 -30.420  38.965  1.00  0.00     0.041 C 
ATOM      8  O   UNL     1     -25.727 -31.638  38.944  1.00  0.00    -0.550 OA
ATOM      9  O   UNL     1     -24.838 -29.838  37.841  1.00  0.00    -0.550 OA
ENDBRANCH   6   7
ENDBRANCH   5   6
ENDBRANCH   4   5
ENDBRANCH   3   4
ENDBRANCH   2   3
ENDBRANCH   1   2
BRANCH   1  10
ATOM     10  C   UNL     1     -23.006 -24.735  41.389  1.00  0.00     0.000 C 
BRANCH  10  11
ATOM     11  C   UNL     1     -21.965 -23.760  40.802  1.00  0.00    -0.000 C 
BRANCH  11  12
ATOM     12  C   UNL     1     -20.856 -24.416  39.954  1.00  0.00    -0.000 C 
BRANCH  12  13
ATOM     13  C   UNL     1     -20.821 -25.954  40.001  1.00  0.00    -0.000 C 
BRANCH  13  14
ATOM     14  C   UNL     1     -20.964 -26.596  38.611  1.00  0.00    -0.000 C 
BRANCH  14  15
ATOM     15  C   UNL     1     -21.884 -27.826  38.622  1.00  0.00    -0.003 C 
ATOM     16  C   UNL     1     -22.339 -28.215  40.029  1.00  0.00     0.004 C 
ENDBRANCH  14  15
ENDBRANCH  13  14
ENDBRANCH  12  13
ENDBRANCH  11  12
ENDBRANCH  10  11
ENDBRANCH   1  10
TORSDOF 12
ENDMDL
MODEL 5
REMARK VINA RESULT:    -4.780      2.182      4.716
REMARK INTER + INTRA:          -9.317
REMARK INTER:                  -8.117
REMARK INTRA:                  -1.200
REMARK UNBOUND:                -1.183
REMARK SMILES CCCCCCCCCCCCCC(=O)[O-]
REMARK SMILES IDX 8 1 9 2 10 3 11 4 12 5 13 6 14 7 15 8 16 9 7 10 6 11 5 12
REMARK SMILES IDX 4 13 3 14 2 15 1 16
REMARK H PARENT
REMARK Flexibility Score: inf
ROOT
ATOM      1  C   UNL     1     -22.074 -28.152  38.348  1.00  0.00     0.000 C 
ENDROOT
BRANCH   1   2
ATOM      2  C   UNL     1     -22.296 -28.284  39.861  1.00  0.00     0.000 C 
BRANCH   2   3
ATOM      3  C   UNL     1     -23.487 -29.201  40.164  1.00  0.00     0.000 C 
BRANCH   3   4
ATOM      4  C   UNL     1     -24.293 -28.681  41.360  1.00  0.00     0.000 C 
BRANCH   4   5
ATOM      5  C   UNL     1     -24.489 -27.159  41.271  1.00  0.00     0.006 C 
BRANCH   5   6
ATOM      6  C   UNL     1     -25.022 -26.565  42.581  1.00  0.00     0.053 C 
BRANCH   6   7
ATOM      7  C   UNL     1     -26.388 -25.973  42.409  1.00  0.00     0.041 C 
ATOM      8  O   UNL     1     -26.964 -25.418  43.382  1.00  0.00    -0.550 OA
ATOM      9  O   UNL     1     -27.036 -26.063  41.184  1.00  0.00    -0.550 OA
ENDBRANCH   6   7
ENDBRANCH   5   6
ENDBRANCH   4   5
ENDBRANCH   3   4
ENDBRANCH   2   3
ENDBRANCH   1   2
BRANCH   1  10
ATOM     10  C   UNL     1     -21.190 -26.948  37.975  1.00  0.00     0.000 C 
BRANCH  10  11
ATOM     11  C   UNL     1     -20.508 -26.249  39.169  1.00  0.00    -0.000 C 
BRANCH  11  12
ATOM     12  C   UNL     1     -21.023 -24.828  39.478  1.00  0.00    -0.000 C 
BRANCH  12  13
ATOM     13  C   UNL     1     -21.689 -24.661  40.856  1.00  0.00    -0.000 C 
BRANCH  13  14
ATOM     14  C   UNL     1     -23.015 -23.884  40.785  1.00  0.00    -0.000 C 
BRANCH  14  15
ATOM     15  C   UNL     1     -22.963 -22.720  39.784  1.00  0.00    -0.003 C 
ATOM     16  C   UNL     1     -24.214 -21.842  39.827  1.00  0.00     0.004 C 
ENDBRANCH  14  15
ENDBRANCH  13  14
ENDBRANCH  12  13
ENDBRANCH  11  12
ENDBRANCH  10  11
ENDBRANCH   1  10
TORSDOF 12
ENDMDL
MODEL 6
REMARK VINA RESULT:    -4.693      2.833      4.363
REMARK INTER + INTRA:          -9.169
REMARK INTER:                  -7.949
REMARK INTRA:                  -1.221
REMARK UNBOUND:                -1.183
REMARK SMILES CCCCCCCCCCCCCC(=O)[O-]
REMARK SMILES IDX 8 1 9 2 10 3 11 4 12 5 13 6 14 7 15 8 16 9 7 10 6 11 5 12
REMARK SMILES IDX 4 13 3 14 2 15 1 16
REMARK H PARENT
REMARK Flexibility Score: inf
ROOT
ATOM      1  C   UNL     1     -22.670 -28.853  38.522  1.00  0.00     0.000 C 
ENDROOT
BRANCH   1   2
ATOM      2  C   UNL     1     -21.808 -27.584  38.567  1.00  0.00     0.000 C 
BRANCH   2   3
ATOM      3  C   UNL     1     -21.724 -27.027  39.993  1.00  0.00     0.000 C 
BRANCH   3   4
ATOM      4  C   UNL     1     -20.784 -25.818  40.058  1.00  0.00     0.000 C 
BRANCH   4   5
ATOM      5  C   UNL     1     -21.572 -24.502  39.966  1.00  0.00     0.006 C 
BRANCH   5   6
ATOM      6  C   UNL     1     -22.223 -24.120  41.302  1.00  0.00     0.053 C 
BRANCH   6   7
ATOM      7  C   UNL     1     -23.050 -22.877  41.183  1.00  0.00     0.041 C 
ATOM      8  O   UNL     1     -24.188 -22.924  40.646  1.00  0.00    -0.550 OA
ATOM      9  O   UNL     1     -22.551 -21.663  41.635  1.00  0.00    -0.550 OA
ENDBRANCH   6   7
ENDBRANCH   5   6
ENDBRANCH   4   5
ENDBRANCH   3   4
ENDBRANCH   2   3
ENDBRANCH   1   2
BRANCH   1  10
ATOM     10  C   UNL     1     -23.427 -29.109  39.838  1.00  0.00     0.000 C 
BRANCH  10  11
ATOM     11  C   UNL     1     -24.961 -28.986  39.739  1.00  0.00    -0.000 C 
BRANCH  11  12
ATOM     12  C   UNL     1     -25.590 -27.884  40.615  1.00  0.00    -0.000 C 
BRANCH  12  13
ATOM     13  C   UNL     1     -24.765 -27.483  41.852  1.00  0.00    -0.000 C 
BRANCH  13  14
ATOM     14  C   UNL     1     -25.165 -26.109  42.414  1.00  0.00    -0.000 C 
BRANCH  14  15
ATOM     15  C   UNL     1     -26.444 -25.557  41.766  1.00  0.00    -0.003 C 
ATOM     16  C   UNL     1     -27.395 -24.918  42.779  1.00  0.00     0.004 C 
ENDBRANCH  14  15
ENDBRANCH  13  14
ENDBRANCH  12  13
ENDBRANCH  11  12
ENDBRANCH  10  11
ENDBRANCH   1  10
TORSDOF 12
ENDMDL
MODEL 7
REMARK VINA RESULT:    -4.653      2.678      5.893
REMARK INTER + INTRA:          -9.101
REMARK INTER:                  -8.166
REMARK INTRA:                  -0.934
REMARK UNBOUND:                -1.183
REMARK SMILES CCCCCCCCCCCCCC(=O)[O-]
REMARK SMILES IDX 8 1 9 2 10 3 11 4 12 5 13 6 14 7 15 8 16 9 7 10 6 11 5 12
REMARK SMILES IDX 4 13 3 14 2 15 1 16
REMARK H PARENT
REMARK Flexibility Score: inf
ROOT
ATOM      1  C   UNL     1     -24.168 -28.928  39.555  1.00  0.00     0.000 C 
ENDROOT
BRANCH   1   2
ATOM      2  C   UNL     1     -24.767 -28.679  40.947  1.00  0.00     0.000 C 
BRANCH   2   3
ATOM      3  C   UNL     1     -25.644 -27.422  40.950  1.00  0.00     0.000 C 
BRANCH   3   4
ATOM      4  C   UNL     1     -25.234 -26.467  42.078  1.00  0.00     0.000 C 
BRANCH   4   5
ATOM      5  C   UNL     1     -26.413 -25.577  42.502  1.00  0.00     0.006 C 
BRANCH   5   6
ATOM      6  C   UNL     1     -27.755 -26.101  41.974  1.00  0.00     0.053 C 
BRANCH   6   7
ATOM      7  C   UNL     1     -28.914 -25.527  42.731  1.00  0.00     0.041 C 
ATOM      8  O   UNL     1     -29.771 -26.290  43.250  1.00  0.00    -0.550 OA
ATOM      9  O   UNL     1     -29.064 -24.151  42.835  1.00  0.00    -0.550 OA
ENDBRANCH   6   7
ENDBRANCH   5   6
ENDBRANCH   4   5
ENDBRANCH   3   4
ENDBRANCH   2   3
ENDBRANCH   1   2
BRANCH   1  10
ATOM     10  C   UNL     1     -22.629 -28.888  39.550  1.00  0.00     0.000 C 
BRANCH  10  11
ATOM     11  C   UNL     1     -22.004 -28.121  38.367  1.00  0.00    -0.000 C 
BRANCH  11  12
ATOM     12  C   UNL     1     -21.239 -26.837  38.747  1.00  0.00    -0.000 C 
BRANCH  12  13
ATOM     13  C   UNL     1     -21.374 -26.408  40.219  1.00  0.00    -0.000 C 
BRANCH  13  14
ATOM     14  C   UNL     1     -21.224 -24.890  40.413  1.00  0.00    -0.000 C 
BRANCH  14  15
ATOM     15  C   UNL     1     -22.263 -24.316  41.389  1.00  0.00    -0.003 C 
ATOM     16  C   UNL     1     -22.441 -22.804  41.246  1.00  0.00     0.004 C 
ENDBRANCH  14  15
ENDBRANCH  13  14
ENDBRANCH  12  13
ENDBRANCH  11  12
ENDBRANCH  10  11
ENDBRANCH   1  10
TORSDOF 12
ENDMDL
MODEL 8
REMARK VINA RESULT:    -4.589      2.297      4.889
REMARK INTER + INTRA:          -8.992
REMARK INTER:                  -7.731
REMARK INTRA:                  -1.261
REMARK UNBOUND:                -1.183
REMARK SMILES CCCCCCCCCCCCCC(=O)[O-]
REMARK SMILES IDX 8 1 9 2 10 3 11 4 12 5 13 6 14 7 15 8 16 9 7 10 6 11 5 12
REMARK SMILES IDX 4 13 3 14 2 15 1 16
REMARK H PARENT
REMARK Flexibility Score: inf
ROOT
ATOM      1  C   UNL     1     -21.452 -24.168  40.088  1.00  0.00     0.000 C 
ENDROOT
BRANCH   1   2
ATOM      2  C   UNL     1     -22.455 -23.787  41.186  1.00  0.00     0.000 C 
BRANCH   2   3
ATOM      3  C   UNL     1     -23.084 -25.036  41.814  1.00  0.00     0.000 C 
BRANCH   3   4
ATOM      4  C   UNL     1     -24.457 -25.330  41.198  1.00  0.00     0.000 C 
BRANCH   4   5
ATOM      5  C   UNL     1     -25.212 -26.389  42.017  1.00  0.00     0.006 C 
BRANCH   5   6
ATOM      6  C   UNL     1     -26.668 -26.548  41.558  1.00  0.00     0.053 C 
BRANCH   6   7
ATOM      7  C   UNL     1     -27.600 -25.690  42.358  1.00  0.00     0.041 C 
ATOM      8  O   UNL     1     -28.566 -26.211  42.976  1.00  0.00    -0.550 OA
ATOM      9  O   UNL     1     -27.422 -24.313  42.393  1.00  0.00    -0.550 OA
ENDBRANCH   6   7
ENDBRANCH   5   6
ENDBRANCH   4   5
ENDBRANCH   3   4
ENDBRANCH   2   3
ENDBRANCH   1   2
BRANCH   1  10
ATOM     10  C   UNL     1     -20.759 -25.517  40.353  1.00  0.00     0.000 C 
BRANCH  10  11
ATOM     11  C   UNL     1     -20.345 -26.294  39.087  1.00  0.00    -0.000 C 
BRANCH  11  12
ATOM     12  C   UNL     1     -21.511 -26.747  38.184  1.00  0.00    -0.000 C 
BRANCH  12  13
ATOM     13  C   UNL     1     -21.996 -28.189  38.418  1.00  0.00    -0.000 C 
BRANCH  13  14
ATOM     14  C   UNL     1     -22.702 -28.368  39.773  1.00  0.00    -0.000 C 
BRANCH  14  15
ATOM     15  C   UNL     1     -24.043 -29.106  39.644  1.00  0.00    -0.003 C 
ATOM     16  C   UNL     1     -24.545 -29.179  38.202  1.00  0.00     0.004 C 
ENDBRANCH  14  15
ENDBRANCH  13  14
ENDBRANCH  12  13
ENDBRANCH  11  12
ENDBRANCH  10  11
ENDBRANCH   1  10
TORSDOF 12
ENDMDL
MODEL 9
REMARK VINA RESULT:    -4.588      4.146      7.887
REMARK INTER + INTRA:          -8.989
REMARK INTER:                  -8.334
REMARK INTRA:                  -0.655
REMARK UNBOUND:                -1.183
REMARK SMILES CCCCCCCCCCCCCC(=O)[O-]
REMARK SMILES IDX 8 1 9 2 10 3 11 4 12 5 13 6 14 7 15 8 16 9 7 10 6 11 5 12
REMARK SMILES IDX 4 13 3 14 2 15 1 16
REMARK H PARENT
REMARK Flexibility Score: inf
ROOT
ATOM      1  C   UNL     1     -19.022 -26.249  38.874  1.00  0.00     0.000 C 
ENDROOT
BRANCH   1   2
ATOM      2  C   UNL     1     -20.557 -26.246  38.903  1.00  0.00     0.000 C 
BRANCH   2   3
ATOM      3  C   UNL     1     -21.129 -27.075  37.747  1.00  0.00     0.000 C 
BRANCH   3   4
ATOM      4  C   UNL     1     -22.115 -28.131  38.262  1.00  0.00     0.000 C 
BRANCH   4   5
ATOM      5  C   UNL     1     -22.282 -28.031  39.786  1.00  0.00     0.006 C 
BRANCH   5   6
ATOM      6  C   UNL     1     -22.988 -29.260  40.374  1.00  0.00     0.053 C 
BRANCH   6   7
ATOM      7  C   UNL     1     -24.353 -28.923  40.892  1.00  0.00     0.041 C 
ATOM      8  O   UNL     1     -25.369 -29.498  40.421  1.00  0.00    -0.550 OA
ATOM      9  O   UNL     1     -24.505 -27.949  41.871  1.00  0.00    -0.550 OA
ENDBRANCH   6   7
ENDBRANCH   5   6
ENDBRANCH   4   5
ENDBRANCH   3   4
ENDBRANCH   2   3
ENDBRANCH   1   2
BRANCH   1  10
ATOM     10  C   UNL     1     -18.447 -27.005  37.662  1.00  0.00     0.000 C 
BRANCH  10  11
ATOM     11  C   UNL     1     -16.944 -27.334  37.756  1.00  0.00    -0.000 C 
BRANCH  11  12
ATOM     12  C   UNL     1     -16.173 -27.269  36.422  1.00  0.00    -0.000 C 
BRANCH  12  13
ATOM     13  C   UNL     1     -15.792 -28.633  35.820  1.00  0.00    -0.000 C 
BRANCH  13  14
ATOM     14  C   UNL     1     -15.751 -29.757  36.870  1.00  0.00    -0.000 C 
BRANCH  14  15
ATOM     15  C   UNL     1     -15.505 -31.138  36.244  1.00  0.00    -0.003 C 
ATOM     16  C   UNL     1     -14.490 -31.100  35.101  1.00  0.00     0.004 C 
ENDBRANCH  14  15
ENDBRANCH  13  14
ENDBRANCH  12  13
ENDBRANCH  11  12
ENDBRANCH  10  11
ENDBRANCH   1  10
TORSDOF 12
ENDMDL
