MODEL 1
REMARK VINA RESULT:    -5.787      0.000      0.000
REMARK INTER + INTRA:          -9.029
REMARK INTER:                  -7.986
REMARK INTRA:                  -1.043
REMARK UNBOUND:                -1.043
REMARK SMILES CCCCc1cccc(O)c1CCCC
REMARK SMILES IDX 5 1 11 2 9 3 8 4 7 5 6 6 4 7 3 8 2 9 1 10 12 11 13 12 14 13
REMARK SMILES IDX 15 14 10 15
REMARK H PARENT 10 16
REMARK Flexibility Score: inf
ROOT
ATOM      1  C   UNL     1       2.576  27.981  79.652  1.00  0.00    -0.041 A 
ATOM      2  C   UNL     1       3.035  28.784  78.565  1.00  0.00    -0.003 A 
ATOM      3  C   UNL     1       2.612  30.130  78.468  1.00  0.00     0.119 A 
ATOM      4  C   UNL     1       1.763  30.675  79.435  1.00  0.00     0.046 A 
ATOM      5  C   UNL     1       1.313  29.896  80.493  1.00  0.00     0.004 A 
ATOM      6  C   UNL     1       1.703  28.563  80.599  1.00  0.00     0.004 A 
ENDROOT
BRANCH   1   7
ATOM      7  C   UNL     1       2.963  26.507  79.745  1.00  0.00     0.036 C 
BRANCH   7   8
ATOM      8  C   UNL     1       2.338  25.716  80.907  1.00  0.00     0.004 C 
BRANCH   8   9
ATOM      9  C   UNL     1       1.580  24.487  80.390  1.00  0.00    -0.003 C 
ATOM     10  C   UNL     1       1.429  24.530  78.873  1.00  0.00     0.004 C 
ENDBRANCH   8   9
ENDBRANCH   7   8
ENDBRANCH   1   7
BRANCH   2  11
ATOM     11  C   UNL     1       3.973  28.246  77.493  1.00  0.00     0.040 C 
BRANCH  11  12
ATOM     12  C   UNL     1       3.222  27.786  76.231  1.00  0.00     0.005 C 
BRANCH  12  13
ATOM     13  C   UNL     1       3.264  26.265  76.038  1.00  0.00    -0.003 C 
ATOM     14  C   UNL     1       4.570  25.679  76.567  1.00  0.00     0.004 C 
ENDBRANCH  12  13
ENDBRANCH  11  12
ENDBRANCH   2  11
BRANCH   3  15
ATOM     15  O   UNL     1       3.035  30.926  77.402  1.00  0.00    -0.508 OA
ATOM     16  H   UNL     1       2.981  31.937  77.437  1.00  0.00     0.293 HD
ENDBRANCH   3  15
TORSDOF 7
ENDMDL
MODEL 2
REMARK VINA RESULT:    -5.646      0.951      1.386
REMARK INTER + INTRA:          -8.835
REMARK INTER:                  -7.900
REMARK INTRA:                  -0.934
REMARK UNBOUND:                -1.043
REMARK SMILES CCCCc1cccc(O)c1CCCC
REMARK SMILES IDX 5 1 11 2 9 3 8 4 7 5 6 6 4 7 3 8 2 9 1 10 12 11 13 12 14 13
REMARK SMILES IDX 15 14 10 15
REMARK H PARENT 10 16
REMARK Flexibility Score: inf
ROOT
ATOM      1  C   UNL     1       2.559  27.847  79.775  1.00  0.00    -0.041 A 
ATOM      2  C   UNL     1       3.074  28.592  78.671  1.00  0.00    -0.003 A 
ATOM      3  C   UNL     1       2.728  29.956  78.530  1.00  0.00     0.119 A 
ATOM      4  C   UNL     1       1.899  30.575  79.470  1.00  0.00     0.046 A 
ATOM      5  C   UNL     1       1.394  29.853  80.543  1.00  0.00     0.004 A 
ATOM      6  C   UNL     1       1.709  28.504  80.693  1.00  0.00     0.004 A 
ENDROOT
BRANCH   1   7
ATOM      7  C   UNL     1       2.864  26.358  79.914  1.00  0.00     0.036 C 
BRANCH   7   8
ATOM      8  C   UNL     1       2.696  25.763  81.323  1.00  0.00     0.004 C 
BRANCH   8   9
ATOM      9  C   UNL     1       4.056  25.423  81.942  1.00  0.00    -0.003 C 
ATOM     10  C   UNL     1       5.088  25.102  80.865  1.00  0.00     0.004 C 
ENDBRANCH   8   9
ENDBRANCH   7   8
ENDBRANCH   1   7
BRANCH   2  11
ATOM     11  C   UNL     1       3.993  27.973  77.626  1.00  0.00     0.040 C 
BRANCH  11  12
ATOM     12  C   UNL     1       3.215  27.338  76.461  1.00  0.00     0.005 C 
BRANCH  12  13
ATOM     13  C   UNL     1       3.915  26.100  75.886  1.00  0.00    -0.003 C 
ATOM     14  C   UNL     1       4.793  25.427  76.937  1.00  0.00     0.004 C 
ENDBRANCH  12  13
ENDBRANCH  11  12
ENDBRANCH   2  11
BRANCH   3  15
ATOM     15  O   UNL     1       3.205  30.696  77.447  1.00  0.00    -0.508 OA
ATOM     16  H   UNL     1       2.873  31.633  77.254  1.00  0.00     0.293 HD
ENDBRANCH   3  15
TORSDOF 7
ENDMDL
MODEL 3
REMARK VINA RESULT:    -5.590      2.573      5.194
REMARK INTER + INTRA:          -8.757
REMARK INTER:                  -8.304
REMARK INTRA:                  -0.453
REMARK UNBOUND:                -1.043
REMARK SMILES CCCCc1cccc(O)c1CCCC
REMARK SMILES IDX 5 1 11 2 9 3 8 4 7 5 6 6 4 7 3 8 2 9 1 10 12 11 13 12 14 13
REMARK SMILES IDX 15 14 10 15
REMARK H PARENT 10 16
REMARK Flexibility Score: inf
ROOT
ATOM      1  C   UNL     1       1.940  29.406  77.736  1.00  0.00    -0.041 A 
ATOM      2  C   UNL     1       1.556  30.580  77.019  1.00  0.00    -0.003 A 
ATOM      3  C   UNL     1       1.053  30.458  75.703  1.00  0.00     0.119 A 
ATOM      4  C   UNL     1       0.920  29.199  75.112  1.00  0.00     0.046 A 
ATOM      5  C   UNL     1       1.295  28.055  75.805  1.00  0.00     0.004 A 
ATOM      6  C   UNL     1       1.808  28.153  77.096  1.00  0.00     0.004 A 
ENDROOT
BRANCH   1   7
ATOM      7  C   UNL     1       2.547  29.515  79.132  1.00  0.00     0.036 C 
BRANCH   7   8
ATOM      8  C   UNL     1       1.776  28.807  80.260  1.00  0.00     0.004 C 
BRANCH   8   9
ATOM      9  C   UNL     1       1.015  29.819  81.126  1.00  0.00    -0.003 C 
ATOM     10  C   UNL     1       1.480  29.762  82.577  1.00  0.00     0.004 C 
ENDBRANCH   8   9
ENDBRANCH   7   8
ENDBRANCH   1   7
BRANCH   2  11
ATOM     11  C   UNL     1       1.665  31.975  77.620  1.00  0.00     0.040 C 
BRANCH  11  12
ATOM     12  C   UNL     1       0.293  32.646  77.803  1.00  0.00     0.005 C 
BRANCH  12  13
ATOM     13  C   UNL     1       0.315  34.141  77.459  1.00  0.00    -0.003 C 
ATOM     14  C   UNL     1       1.668  34.763  77.793  1.00  0.00     0.004 C 
ENDBRANCH  12  13
ENDBRANCH  11  12
ENDBRANCH   2  11
BRANCH   3  15
ATOM     15  O   UNL     1       0.691  31.595  74.979  1.00  0.00    -0.508 OA
ATOM     16  H   UNL     1       1.382  32.253  74.638  1.00  0.00     0.293 HD
ENDBRANCH   3  15
TORSDOF 7
ENDMDL
MODEL 4
REMARK VINA RESULT:    -5.433      3.207      4.695
REMARK INTER + INTRA:          -8.540
REMARK INTER:                  -7.245
REMARK INTRA:                  -1.296
REMARK UNBOUND:                -1.043
REMARK SMILES CCCCc1cccc(O)c1CCCC
REMARK SMILES IDX 5 1 11 2 9 3 8 4 7 5 6 6 4 7 3 8 2 9 1 10 12 11 13 12 14 13
REMARK SMILES IDX 15 14 10 15
REMARK H PARENT 10 16
REMARK Flexibility Score: inf
ROOT
ATOM      1  C   UNL     1       4.589  24.711  80.618  1.00  0.00    -0.041 A 
ATOM      2  C   UNL     1       5.633  24.757  79.646  1.00  0.00    -0.003 A 
ATOM      3  C   UNL     1       6.925  25.184  80.032  1.00  0.00     0.119 A 
ATOM      4  C   UNL     1       7.182  25.547  81.357  1.00  0.00     0.046 A 
ATOM      5  C   UNL     1       6.168  25.505  82.305  1.00  0.00     0.004 A 
ATOM      6  C   UNL     1       4.884  25.103  81.944  1.00  0.00     0.004 A 
ENDROOT
BRANCH   1   7
ATOM      7  C   UNL     1       3.171  24.317  80.215  1.00  0.00     0.036 C 
BRANCH   7   8
ATOM      8  C   UNL     1       2.095  25.404  80.381  1.00  0.00     0.004 C 
BRANCH   8   9
ATOM      9  C   UNL     1       2.125  26.391  79.208  1.00  0.00    -0.003 C 
ATOM     10  C   UNL     1       2.262  27.828  79.701  1.00  0.00     0.004 C 
ENDBRANCH   8   9
ENDBRANCH   7   8
ENDBRANCH   1   7
BRANCH   2  11
ATOM     11  C   UNL     1       5.412  24.359  78.192  1.00  0.00     0.040 C 
BRANCH  11  12
ATOM     12  C   UNL     1       5.070  25.563  77.298  1.00  0.00     0.005 C 
BRANCH  12  13
ATOM     13  C   UNL     1       4.121  25.198  76.150  1.00  0.00    -0.003 C 
ATOM     14  C   UNL     1       3.247  24.002  76.518  1.00  0.00     0.004 C 
ENDBRANCH  12  13
ENDBRANCH  11  12
ENDBRANCH   2  11
BRANCH   3  15
ATOM     15  O   UNL     1       7.954  25.255  79.091  1.00  0.00    -0.508 OA
ATOM     16  H   UNL     1       8.913  25.038  79.334  1.00  0.00     0.293 HD
ENDBRANCH   3  15
TORSDOF 7
ENDMDL
MODEL 5
REMARK VINA RESULT:    -5.429      2.229      4.559
REMARK INTER + INTRA:          -8.534
REMARK INTER:                  -7.604
REMARK INTRA:                  -0.930
REMARK UNBOUND:                -1.043
REMARK SMILES CCCCc1cccc(O)c1CCCC
REMARK SMILES IDX 5 1 11 2 9 3 8 4 7 5 6 6 4 7 3 8 2 9 1 10 12 11 13 12 14 13
REMARK SMILES IDX 15 14 10 15
REMARK H PARENT 10 16
REMARK Flexibility Score: inf
ROOT
ATOM      1  C   UNL     1       2.195  26.932  79.452  1.00  0.00    -0.041 A 
ATOM      2  C   UNL     1       1.674  26.013  78.492  1.00  0.00    -0.003 A 
ATOM      3  C   UNL     1       1.467  24.664  78.861  1.00  0.00     0.119 A 
ATOM      4  C   UNL     1       1.756  24.235  80.160  1.00  0.00     0.046 A 
ATOM      5  C   UNL     1       2.265  25.126  81.096  1.00  0.00     0.004 A 
ATOM      6  C   UNL     1       2.492  26.456  80.749  1.00  0.00     0.004 A 
ENDROOT
BRANCH   1   7
ATOM      7  C   UNL     1       2.489  28.378  79.061  1.00  0.00     0.036 C 
BRANCH   7   8
ATOM      8  C   UNL     1       1.769  29.460  79.883  1.00  0.00     0.004 C 
BRANCH   8   9
ATOM      9  C   UNL     1       1.137  30.517  78.967  1.00  0.00    -0.003 C 
ATOM     10  C   UNL     1       2.160  31.571  78.555  1.00  0.00     0.004 C 
ENDBRANCH   8   9
ENDBRANCH   7   8
ENDBRANCH   1   7
BRANCH   2  11
ATOM     11  C   UNL     1       1.327  26.430  77.069  1.00  0.00     0.040 C 
BRANCH  11  12
ATOM     12  C   UNL     1       2.537  26.353  76.122  1.00  0.00     0.005 C 
BRANCH  12  13
ATOM     13  C   UNL     1       2.836  27.690  75.433  1.00  0.00    -0.003 C 
ATOM     14  C   UNL     1       1.618  28.609  75.461  1.00  0.00     0.004 C 
ENDBRANCH  12  13
ENDBRANCH  11  12
ENDBRANCH   2  11
BRANCH   3  15
ATOM     15  O   UNL     1       0.977  23.746  77.931  1.00  0.00    -0.508 OA
ATOM     16  H   UNL     1       0.257  23.075  78.172  1.00  0.00     0.293 HD
ENDBRANCH   3  15
TORSDOF 7
ENDMDL
MODEL 6
REMARK VINA RESULT:    -5.372      2.791      4.198
REMARK INTER + INTRA:          -8.456
REMARK INTER:                  -7.321
REMARK INTRA:                  -1.135
REMARK UNBOUND:                -1.043
REMARK SMILES CCCCc1cccc(O)c1CCCC
REMARK SMILES IDX 5 1 11 2 9 3 8 4 7 5 6 6 4 7 3 8 2 9 1 10 12 11 13 12 14 13
REMARK SMILES IDX 15 14 10 15
REMARK H PARENT 10 16
REMARK Flexibility Score: inf
ROOT
ATOM      1  C   UNL     1       4.006  25.514  80.787  1.00  0.00    -0.041 A 
ATOM      2  C   UNL     1       5.002  25.660  79.774  1.00  0.00    -0.003 A 
ATOM      3  C   UNL     1       6.369  25.643  80.135  1.00  0.00     0.119 A 
ATOM      4  C   UNL     1       6.745  25.472  81.470  1.00  0.00     0.046 A 
ATOM      5  C   UNL     1       5.779  25.331  82.458  1.00  0.00     0.004 A 
ATOM      6  C   UNL     1       4.426  25.361  82.128  1.00  0.00     0.004 A 
ENDROOT
BRANCH   1   7
ATOM      7  C   UNL     1       2.523  25.594  80.433  1.00  0.00     0.036 C 
BRANCH   7   8
ATOM      8  C   UNL     1       1.775  24.252  80.349  1.00  0.00     0.004 C 
BRANCH   8   9
ATOM      9  C   UNL     1       0.829  24.225  79.142  1.00  0.00    -0.003 C 
ATOM     10  C   UNL     1       1.608  24.147  77.833  1.00  0.00     0.004 C 
ENDBRANCH   8   9
ENDBRANCH   7   8
ENDBRANCH   1   7
BRANCH   2  11
ATOM     11  C   UNL     1       4.649  25.834  78.303  1.00  0.00     0.040 C 
BRANCH  11  12
ATOM     12  C   UNL     1       4.371  27.302  77.934  1.00  0.00     0.005 C 
BRANCH  12  13
ATOM     13  C   UNL     1       3.242  27.451  76.906  1.00  0.00    -0.003 C 
ATOM     14  C   UNL     1       1.949  27.913  77.571  1.00  0.00     0.004 C 
ENDBRANCH  12  13
ENDBRANCH  11  12
ENDBRANCH   2  11
BRANCH   3  15
ATOM     15  O   UNL     1       7.356  25.804  79.162  1.00  0.00    -0.508 OA
ATOM     16  H   UNL     1       7.131  26.080  78.214  1.00  0.00     0.293 HD
ENDBRANCH   3  15
TORSDOF 7
ENDMDL
MODEL 7
REMARK VINA RESULT:    -5.359      2.574      6.020
REMARK INTER + INTRA:          -8.438
REMARK INTER:                  -7.718
REMARK INTRA:                  -0.719
REMARK UNBOUND:                -1.043
REMARK SMILES CCCCc1cccc(O)c1CCCC
REMARK SMILES IDX 5 1 11 2 9 3 8 4 7 5 6 6 4 7 3 8 2 9 1 10 12 11 13 12 14 13
REMARK SMILES IDX 15 14 10 15
REMARK H PARENT 10 16
REMARK Flexibility Score: inf
ROOT
ATOM      1  C   UNL     1       1.384  30.277  76.623  1.00  0.00    -0.041 A 
ATOM      2  C   UNL     1       2.385  30.044  77.615  1.00  0.00    -0.003 A 
ATOM      3  C   UNL     1       3.277  28.957  77.462  1.00  0.00     0.119 A 
ATOM      4  C   UNL     1       3.189  28.124  76.343  1.00  0.00     0.046 A 
ATOM      5  C   UNL     1       2.215  28.346  75.378  1.00  0.00     0.004 A 
ATOM      6  C   UNL     1       1.316  29.401  75.516  1.00  0.00     0.004 A 
ENDROOT
BRANCH   1   7
ATOM      7  C   UNL     1       0.368  31.402  76.797  1.00  0.00     0.036 C 
BRANCH   7   8
ATOM      8  C   UNL     1       0.831  32.803  76.360  1.00  0.00     0.004 C 
BRANCH   8   9
ATOM      9  C   UNL     1       0.511  33.848  77.437  1.00  0.00    -0.003 C 
ATOM     10  C   UNL     1       1.762  34.619  77.846  1.00  0.00     0.004 C 
ENDBRANCH   8   9
ENDBRANCH   7   8
ENDBRANCH   1   7
BRANCH   2  11
ATOM     11  C   UNL     1       2.535  30.930  78.845  1.00  0.00     0.040 C 
BRANCH  11  12
ATOM     12  C   UNL     1       1.415  30.700  79.875  1.00  0.00     0.005 C 
BRANCH  12  13
ATOM     13  C   UNL     1       1.594  29.396  80.663  1.00  0.00    -0.003 C 
ATOM     14  C   UNL     1       1.322  29.610  82.149  1.00  0.00     0.004 C 
ENDBRANCH  12  13
ENDBRANCH  11  12
ENDBRANCH   2  11
BRANCH   3  15
ATOM     15  O   UNL     1       4.249  28.702  78.430  1.00  0.00    -0.508 OA
ATOM     16  H   UNL     1       4.003  28.452  79.380  1.00  0.00     0.293 HD
ENDBRANCH   3  15
TORSDOF 7
ENDMDL
MODEL 8
REMARK VINA RESULT:    -5.327     12.270     13.698
REMARK INTER + INTRA:          -8.395
REMARK INTER:                  -7.482
REMARK INTRA:                  -0.912
REMARK UNBOUND:                -1.043
REMARK SMILES CCCCc1cccc(O)c1CCCC
REMARK SMILES IDX 5 1 11 2 9 3 8 4 7 5 6 6 4 7 3 8 2 9 1 10 12 11 13 12 14 13
REMARK SMILES IDX 15 14 10 15
REMARK H PARENT 10 16
REMARK Flexibility Score: inf
ROOT
ATOM      1  C   UNL     1       8.126  29.954  91.390  1.00  0.00    -0.041 A 
ATOM      2  C   UNL     1       7.482  29.349  90.268  1.00  0.00    -0.003 A 
ATOM      3  C   UNL     1       6.239  28.700  90.448  1.00  0.00     0.119 A 
ATOM      4  C   UNL     1       5.637  28.662  91.709  1.00  0.00     0.046 A 
ATOM      5  C   UNL     1       6.262  29.247  92.802  1.00  0.00     0.004 A 
ATOM      6  C   UNL     1       7.495  29.878  92.652  1.00  0.00     0.004 A 
ENDROOT
BRANCH   1   7
ATOM      7  C   UNL     1       9.500  30.603  91.237  1.00  0.00     0.036 C 
BRANCH   7   8
ATOM      8  C   UNL     1      10.654  29.926  91.996  1.00  0.00     0.004 C 
BRANCH   8   9
ATOM      9  C   UNL     1      11.949  29.964  91.175  1.00  0.00    -0.003 C 
ATOM     10  C   UNL     1      11.677  30.390  89.736  1.00  0.00     0.004 C 
ENDBRANCH   8   9
ENDBRANCH   7   8
ENDBRANCH   1   7
BRANCH   2  11
ATOM     11  C   UNL     1       8.085  29.374  88.870  1.00  0.00     0.040 C 
BRANCH  11  12
ATOM     12  C   UNL     1       8.164  30.796  88.289  1.00  0.00     0.005 C 
BRANCH  12  13
ATOM     13  C   UNL     1       6.807  31.511  88.287  1.00  0.00    -0.003 C 
ATOM     14  C   UNL     1       6.872  32.819  89.069  1.00  0.00     0.004 C 
ENDBRANCH  12  13
ENDBRANCH  11  12
ENDBRANCH   2  11
BRANCH   3  15
ATOM     15  O   UNL     1       5.602  28.086  89.368  1.00  0.00    -0.508 OA
ATOM     16  H   UNL     1       6.073  27.943  88.483  1.00  0.00     0.293 HD
ENDBRANCH   3  15
TORSDOF 7
ENDMDL
MODEL 9
REMARK VINA RESULT:    -5.295      2.370      4.360
REMARK INTER + INTRA:          -8.350
REMARK INTER:                  -7.334
REMARK INTRA:                  -1.016
REMARK UNBOUND:                -1.043
REMARK SMILES CCCCc1cccc(O)c1CCCC
REMARK SMILES IDX 5 1 11 2 9 3 8 4 7 5 6 6 4 7 3 8 2 9 1 10 12 11 13 12 14 13
REMARK SMILES IDX 15 14 10 15
REMARK H PARENT 10 16
REMARK Flexibility Score: inf
ROOT
ATOM      1  C   UNL     1       3.376  26.325  79.972  1.00  0.00    -0.041 A 
ATOM      2  C   UNL     1       4.623  26.181  79.291  1.00  0.00    -0.003 A 
ATOM      3  C   UNL     1       5.704  25.548  79.946  1.00  0.00     0.119 A 
ATOM      4  C   UNL     1       5.552  25.055  81.245  1.00  0.00     0.046 A 
ATOM      5  C   UNL     1       4.342  25.195  81.911  1.00  0.00     0.004 A 
ATOM      6  C   UNL     1       3.268  25.830  81.291  1.00  0.00     0.004 A 
ENDROOT
BRANCH   1   7
ATOM      7  C   UNL     1       2.214  27.062  79.312  1.00  0.00     0.036 C 
BRANCH   7   8
ATOM      8  C   UNL     1       1.990  28.515  79.768  1.00  0.00     0.004 C 
BRANCH   8   9
ATOM      9  C   UNL     1       2.734  29.498  78.855  1.00  0.00    -0.003 C 
ATOM     10  C   UNL     1       2.272  30.931  79.097  1.00  0.00     0.004 C 
ENDBRANCH   8   9
ENDBRANCH   7   8
ENDBRANCH   1   7
BRANCH   2  11
ATOM     11  C   UNL     1       4.839  26.686  77.870  1.00  0.00     0.040 C 
BRANCH  11  12
ATOM     12  C   UNL     1       4.583  25.597  76.814  1.00  0.00     0.005 C 
BRANCH  12  13
ATOM     13  C   UNL     1       3.605  26.050  75.722  1.00  0.00    -0.003 C 
ATOM     14  C   UNL     1       3.328  27.548  75.819  1.00  0.00     0.004 C 
ENDBRANCH  12  13
ENDBRANCH  11  12
ENDBRANCH   2  11
BRANCH   3  15
ATOM     15  O   UNL     1       6.937  25.415  79.304  1.00  0.00    -0.508 OA
ATOM     16  H   UNL     1       7.195  24.566  78.817  1.00  0.00     0.293 HD
ENDBRANCH   3  15
TORSDOF 7
ENDMDL
