MODEL 1
REMARK VINA RESULT:    -1.788      0.000      0.000
REMARK INTER + INTRA:          -2.376
REMARK INTER:                  -1.893
REMARK INTRA:                  -0.484
REMARK UNBOUND:                -0.484
REMARK SMILES CC1=CC[C@@]23[C@H]([C@@H]12)[C@H](C(C)C)CC[C@H]3C
REMARK SMILES IDX 15 1 14 2 13 3 12 4 8 5 6 6 5 7 7 8 2 9 3 10 4 11 1 12 9 13
REMARK SMILES IDX 10 14 11 15
REMARK H PARENT
REMARK Flexibility Score: inf
ROOT
ATOM      1  C   UNL     1       2.963   4.875  13.140  1.00  0.00     0.008 C 
ATOM      2  C   UNL     1       4.020   5.531  12.234  1.00  0.00    -0.007 C 
ATOM      3  C   UNL     1       5.422   4.885  12.373  1.00  0.00     0.004 C 
ATOM      4  C   UNL     1       6.196   5.317  13.646  1.00  0.00     0.004 C 
ATOM      5  C   UNL     1       6.096   6.833  14.049  1.00  0.00    -0.004 C 
ATOM      6  C   UNL     1       4.624   7.303  13.920  1.00  0.00     0.007 C 
ATOM      7  C   UNL     1       4.224   7.041  12.414  1.00  0.00    -0.013 C 
ATOM      8  C   UNL     1       3.554   8.122  13.210  1.00  0.00     0.025 C 
ATOM      9  C   UNL     1       4.007   9.407  12.608  1.00  0.00    -0.073 C 
ATOM     10  C   UNL     1       4.732   9.221  11.520  1.00  0.00    -0.027 C 
ATOM     11  C   UNL     1       4.838   7.776  11.198  1.00  0.00     0.035 C 
ATOM     12  C   UNL     1       3.649  10.756  13.148  1.00  0.00     0.039 C 
ENDROOT
BRANCH   5  13
ATOM     13  C   UNL     1       7.210   7.819  13.564  1.00  0.00    -0.014 C 
ATOM     14  C   UNL     1       8.315   7.111  12.760  1.00  0.00     0.007 C 
ATOM     15  C   UNL     1       7.857   8.532  14.765  1.00  0.00     0.007 C 
ENDBRANCH   5  13
TORSDOF 1
ENDMDL
MODEL 2
REMARK VINA RESULT:     0.944      1.082      3.614
REMARK INTER + INTRA:           0.516
REMARK INTER:                   0.857
REMARK INTRA:                  -0.341
REMARK UNBOUND:                -0.484
REMARK SMILES CC1=CC[C@@]23[C@H]([C@@H]12)[C@H](C(C)C)CC[C@H]3C
REMARK SMILES IDX 15 1 14 2 13 3 12 4 8 5 6 6 5 7 7 8 2 9 3 10 4 11 1 12 9 13
REMARK SMILES IDX 10 14 11 15
REMARK H PARENT
REMARK Flexibility Score: inf
ROOT
ATOM      1  C   UNL     1       8.145   7.947  13.883  1.00  0.00     0.008 C 
ATOM      2  C   UNL     1       6.799   7.513  14.490  1.00  0.00    -0.007 C 
ATOM      3  C   UNL     1       6.629   5.974  14.549  1.00  0.00     0.004 C 
ATOM      4  C   UNL     1       6.263   5.323  13.190  1.00  0.00     0.004 C 
ATOM      5  C   UNL     1       5.225   6.094  12.298  1.00  0.00    -0.004 C 
ATOM      6  C   UNL     1       5.575   7.604  12.290  1.00  0.00     0.007 C 
ATOM      7  C   UNL     1       5.539   8.058  13.803  1.00  0.00    -0.013 C 
ATOM      8  C   UNL     1       5.262   9.038  12.701  1.00  0.00     0.025 C 
ATOM      9  C   UNL     1       3.818   9.382  12.821  1.00  0.00    -0.073 C 
ATOM     10  C   UNL     1       3.263   8.845  13.892  1.00  0.00    -0.027 C 
ATOM     11  C   UNL     1       4.267   8.091  14.684  1.00  0.00     0.035 C 
ATOM     12  C   UNL     1       3.087  10.269  11.862  1.00  0.00     0.039 C 
ENDROOT
BRANCH   5  13
ATOM     13  C   UNL     1       3.711   5.708  12.396  1.00  0.00    -0.014 C 
ATOM     14  C   UNL     1       3.391   4.892  13.660  1.00  0.00     0.007 C 
ATOM     15  C   UNL     1       3.284   4.890  11.163  1.00  0.00     0.007 C 
ENDBRANCH   5  13
TORSDOF 1
ENDMDL
