MODEL 1
REMARK VINA RESULT:    -2.227      0.000      0.000
REMARK INTER + INTRA:          -3.271
REMARK INTER:                  -3.203
REMARK INTRA:                  -0.068
REMARK UNBOUND:                -0.068
REMARK SMILES O=C(CO)[C@H](O)[C@H](O)[C@@H](O)CO
REMARK SMILES IDX 7 1 9 2 11 3 12 4 10 6 5 8 2 9 1 10 3 11 4 12 6 14 8 16
REMARK H PARENT 12 5 10 7 4 13 6 15 8 17
REMARK Flexibility Score: inf
ROOT
ATOM      1  C   UNL     1       8.476  33.614  -8.426  1.00  0.00     0.181 C 
ENDROOT
BRANCH   1   2
ATOM      2  C   UNL     1       7.681  32.310  -8.737  1.00  0.00     0.171 C 
BRANCH   2   3
ATOM      3  C   UNL     1       6.897  32.349 -10.065  1.00  0.00     0.190 C 
BRANCH   3   4
ATOM      4  O   UNL     1       5.560  31.965  -9.881  1.00  0.00    -0.394 OA
ATOM      5  H   UNL     1       5.443  31.783  -8.912  1.00  0.00     0.210 HD
ENDBRANCH   3   4
ENDBRANCH   2   3
BRANCH   2   6
ATOM      6  O   UNL     1       6.808  32.007  -7.676  1.00  0.00    -0.388 OA
ATOM      7  H   UNL     1       6.804  31.021  -7.561  1.00  0.00     0.211 HD
ENDBRANCH   2   6
ENDBRANCH   1   2
BRANCH   1   8
ATOM      8  C   UNL     1       9.865  33.715  -9.124  1.00  0.00     0.214 C 
BRANCH   8   9
ATOM      9  C   UNL     1      10.692  32.448  -9.006  1.00  0.00     0.189 C 
ATOM     10  O   UNL     1      11.053  31.879 -10.026  1.00  0.00    -0.294 OA
BRANCH   9  11
ATOM     11  C   UNL     1      11.125  31.911  -7.665  1.00  0.00     0.234 C 
BRANCH  11  12
ATOM     12  O   UNL     1      10.951  32.879  -6.666  1.00  0.00    -0.388 OA
ATOM     13  H   UNL     1      11.857  33.070  -6.308  1.00  0.00     0.211 HD
ENDBRANCH  11  12
ENDBRANCH   9  11
ENDBRANCH   8   9
BRANCH   8  14
ATOM     14  O   UNL     1      10.578  34.835  -8.656  1.00  0.00    -0.382 OA
ATOM     15  H   UNL     1      11.538  34.709  -8.876  1.00  0.00     0.211 HD
ENDBRANCH   8  14
ENDBRANCH   1   8
BRANCH   1  16
ATOM     16  O   UNL     1       8.606  33.783  -7.034  1.00  0.00    -0.387 OA
ATOM     17  H   UNL     1       9.573  33.846  -6.826  1.00  0.00     0.211 HD
ENDBRANCH   1  16
TORSDOF 10
ENDMDL
MODEL 2
REMARK VINA RESULT:    -1.856      1.527      2.681
REMARK INTER + INTRA:          -2.737
REMARK INTER:                  -2.194
REMARK INTRA:                  -0.544
REMARK UNBOUND:                -0.068
REMARK SMILES O=C(CO)[C@H](O)[C@H](O)[C@@H](O)CO
REMARK SMILES IDX 7 1 9 2 11 3 12 4 10 6 5 8 2 9 1 10 3 11 4 12 6 14 8 16
REMARK H PARENT 12 5 10 7 4 13 6 15 8 17
REMARK Flexibility Score: inf
ROOT
ATOM      1  C   UNL     1       7.597  32.806  -8.285  1.00  0.00     0.181 C 
ENDROOT
BRANCH   1   2
ATOM      2  C   UNL     1       7.170  33.139  -9.746  1.00  0.00     0.171 C 
BRANCH   2   3
ATOM      3  C   UNL     1       7.143  34.647 -10.068  1.00  0.00     0.190 C 
BRANCH   3   4
ATOM      4  O   UNL     1       8.438  35.186 -10.099  1.00  0.00    -0.394 OA
ATOM      5  H   UNL     1       9.045  34.460 -10.398  1.00  0.00     0.210 HD
ENDBRANCH   3   4
ENDBRANCH   2   3
BRANCH   2   6
ATOM      6  O   UNL     1       5.917  32.567 -10.030  1.00  0.00    -0.388 OA
ATOM      7  H   UNL     1       5.305  32.796  -9.283  1.00  0.00     0.211 HD
ENDBRANCH   2   6
ENDBRANCH   1   2
BRANCH   1   8
ATOM      8  C   UNL     1       8.841  31.877  -8.162  1.00  0.00     0.214 C 
BRANCH   8   9
ATOM      9  C   UNL     1       9.723  32.205  -6.971  1.00  0.00     0.189 C 
ATOM     10  O   UNL     1       9.306  31.975  -5.845  1.00  0.00    -0.294 OA
BRANCH   9  11
ATOM     11  C   UNL     1      11.116  32.754  -7.148  1.00  0.00     0.234 C 
BRANCH  11  12
ATOM     12  O   UNL     1      11.125  33.779  -8.103  1.00  0.00    -0.388 OA
ATOM     13  H   UNL     1      11.125  34.631  -7.593  1.00  0.00     0.211 HD
ENDBRANCH  11  12
ENDBRANCH   9  11
ENDBRANCH   8   9
BRANCH   8  14
ATOM     14  O   UNL     1       9.583  31.875  -9.360  1.00  0.00    -0.382 OA
ATOM     15  H   UNL     1       9.680  32.813  -9.668  1.00  0.00     0.211 HD
ENDBRANCH   8  14
ENDBRANCH   1   8
BRANCH   1  16
ATOM     16  O   UNL     1       6.507  32.273  -7.570  1.00  0.00    -0.387 OA
ATOM     17  H   UNL     1       5.694  32.386  -8.128  1.00  0.00     0.211 HD
ENDBRANCH   1  16
TORSDOF 10
ENDMDL
MODEL 3
REMARK VINA RESULT:    -0.866      1.833      3.012
REMARK INTER + INTRA:          -1.313
REMARK INTER:                  -1.486
REMARK INTRA:                   0.173
REMARK UNBOUND:                -0.068
REMARK SMILES O=C(CO)[C@H](O)[C@H](O)[C@@H](O)CO
REMARK SMILES IDX 7 1 9 2 11 3 12 4 10 6 5 8 2 9 1 10 3 11 4 12 6 14 8 16
REMARK H PARENT 12 5 10 7 4 13 6 15 8 17
REMARK Flexibility Score: inf
ROOT
ATOM      1  C   UNL     1       9.539  32.943  -7.744  1.00  0.00     0.181 C 
ENDROOT
BRANCH   1   2
ATOM      2  C   UNL     1       8.688  31.875  -6.992  1.00  0.00     0.171 C 
BRANCH   2   3
ATOM      3  C   UNL     1       7.165  32.031  -7.183  1.00  0.00     0.190 C 
BRANCH   3   4
ATOM      4  O   UNL     1       6.839  33.310  -7.661  1.00  0.00    -0.394 OA
ATOM      5  H   UNL     1       5.958  33.548  -7.271  1.00  0.00     0.210 HD
ENDBRANCH   3   4
ENDBRANCH   2   3
BRANCH   2   6
ATOM      6  O   UNL     1       9.000  31.882  -5.621  1.00  0.00    -0.388 OA
ATOM      7  H   UNL     1       9.975  32.038  -5.534  1.00  0.00     0.211 HD
ENDBRANCH   2   6
ENDBRANCH   1   2
BRANCH   1   8
ATOM      8  C   UNL     1       9.391  32.922  -9.295  1.00  0.00     0.214 C 
BRANCH   8   9
ATOM      9  C   UNL     1       9.008  34.268  -9.881  1.00  0.00     0.189 C 
ATOM     10  O   UNL     1       7.830  34.498 -10.117  1.00  0.00    -0.294 OA
BRANCH   9  11
ATOM     11  C   UNL     1      10.036  35.344 -10.125  1.00  0.00     0.234 C 
BRANCH  11  12
ATOM     12  O   UNL     1      10.850  35.514  -8.997  1.00  0.00    -0.388 OA
ATOM     13  H   UNL     1      11.151  34.604  -8.735  1.00  0.00     0.211 HD
ENDBRANCH  11  12
ENDBRANCH   9  11
ENDBRANCH   8   9
BRANCH   8  14
ATOM     14  O   UNL     1       8.491  31.916  -9.697  1.00  0.00    -0.382 OA
ATOM     15  H   UNL     1       7.600  32.122  -9.313  1.00  0.00     0.211 HD
ENDBRANCH   8  14
ENDBRANCH   1   8
BRANCH   1  16
ATOM     16  O   UNL     1      10.892  32.835  -7.372  1.00  0.00    -0.387 OA
ATOM     17  H   UNL     1      11.085  31.876  -7.205  1.00  0.00     0.211 HD
ENDBRANCH   1  16
TORSDOF 10
ENDMDL
MODEL 4
REMARK VINA RESULT:    -0.757      1.557      2.581
REMARK INTER + INTRA:          -1.157
REMARK INTER:                  -1.423
REMARK INTRA:                   0.266
REMARK UNBOUND:                -0.068
REMARK SMILES O=C(CO)[C@H](O)[C@H](O)[C@@H](O)CO
REMARK SMILES IDX 7 1 9 2 11 3 12 4 10 6 5 8 2 9 1 10 3 11 4 12 6 14 8 16
REMARK H PARENT 12 5 10 7 4 13 6 15 8 17
REMARK Flexibility Score: inf
ROOT
ATOM      1  C   UNL     1       7.932  33.064  -7.956  1.00  0.00     0.181 C 
ENDROOT
BRANCH   1   2
ATOM      2  C   UNL     1       6.991  31.910  -8.417  1.00  0.00     0.171 C 
BRANCH   2   3
ATOM      3  C   UNL     1       6.595  31.975  -9.907  1.00  0.00     0.190 C 
BRANCH   3   4
ATOM      4  O   UNL     1       5.274  32.419 -10.065  1.00  0.00    -0.394 OA
ATOM      5  H   UNL     1       4.750  31.650 -10.409  1.00  0.00     0.210 HD
ENDBRANCH   3   4
ENDBRANCH   2   3
BRANCH   2   6
ATOM      6  O   UNL     1       5.835  31.875  -7.617  1.00  0.00    -0.388 OA
ATOM      7  H   UNL     1       5.839  32.686  -7.046  1.00  0.00     0.211 HD
ENDBRANCH   2   6
ENDBRANCH   1   2
BRANCH   1   8
ATOM      8  C   UNL     1       9.244  33.208  -8.784  1.00  0.00     0.214 C 
BRANCH   8   9
ATOM      9  C   UNL     1       9.236  34.402  -9.721  1.00  0.00     0.189 C 
ATOM     10  O   UNL     1       8.164  34.836 -10.119  1.00  0.00    -0.294 OA
BRANCH   9  11
ATOM     11  C   UNL     1      10.513  35.096 -10.125  1.00  0.00     0.234 C 
BRANCH  11  12
ATOM     12  O   UNL     1      10.346  36.487 -10.103  1.00  0.00    -0.388 OA
ATOM     13  H   UNL     1       9.936  36.729 -10.974  1.00  0.00     0.211 HD
ENDBRANCH  11  12
ENDBRANCH   9  11
ENDBRANCH   8   9
BRANCH   8  14
ATOM     14  O   UNL     1       9.530  32.017  -9.479  1.00  0.00    -0.382 OA
ATOM     15  H   UNL     1       8.896  31.939 -10.238  1.00  0.00     0.211 HD
ENDBRANCH   8  14
ENDBRANCH   1   8
BRANCH   1  16
ATOM     16  O   UNL     1       8.222  32.936  -6.584  1.00  0.00    -0.387 OA
ATOM     17  H   UNL     1       8.661  33.774  -6.287  1.00  0.00     0.211 HD
ENDBRANCH   1  16
TORSDOF 10
ENDMDL
MODEL 5
REMARK VINA RESULT:    -0.721      1.350      1.913
REMARK INTER + INTRA:          -1.105
REMARK INTER:                  -0.440
REMARK INTRA:                  -0.665
REMARK UNBOUND:                -0.068
REMARK SMILES O=C(CO)[C@H](O)[C@H](O)[C@@H](O)CO
REMARK SMILES IDX 7 1 9 2 11 3 12 4 10 6 5 8 2 9 1 10 3 11 4 12 6 14 8 16
REMARK H PARENT 12 5 10 7 4 13 6 15 8 17
REMARK Flexibility Score: inf
ROOT
ATOM      1  C   UNL     1       8.072  33.479  -8.396  1.00  0.00     0.181 C 
ENDROOT
BRANCH   1   2
ATOM      2  C   UNL     1       6.557  33.110  -8.374  1.00  0.00     0.171 C 
BRANCH   2   3
ATOM      3  C   UNL     1       6.221  31.875  -7.512  1.00  0.00     0.190 C 
BRANCH   3   4
ATOM      4  O   UNL     1       4.883  31.898  -7.089  1.00  0.00    -0.394 OA
ATOM      5  H   UNL     1       4.408  31.187  -7.595  1.00  0.00     0.210 HD
ENDBRANCH   3   4
ENDBRANCH   2   3
BRANCH   2   6
ATOM      6  O   UNL     1       6.083  32.921  -9.685  1.00  0.00    -0.388 OA
ATOM      7  H   UNL     1       6.160  33.788 -10.160  1.00  0.00     0.211 HD
ENDBRANCH   2   6
ENDBRANCH   1   2
BRANCH   1   8
ATOM      8  C   UNL     1       9.030  32.294  -8.717  1.00  0.00     0.214 C 
BRANCH   8   9
ATOM      9  C   UNL     1      10.476  32.571  -8.350  1.00  0.00     0.189 C 
ATOM     10  O   UNL     1      11.123  33.347  -9.039  1.00  0.00    -0.294 OA
BRANCH   9  11
ATOM     11  C   UNL     1      11.111  31.957  -7.128  1.00  0.00     0.234 C 
BRANCH  11  12
ATOM     12  O   UNL     1      10.762  32.676  -5.977  1.00  0.00    -0.388 OA
ATOM     13  H   UNL     1       9.849  33.030  -6.140  1.00  0.00     0.211 HD
ENDBRANCH  11  12
ENDBRANCH   9  11
ENDBRANCH   8   9
BRANCH   8  14
ATOM     14  O   UNL     1       8.911  31.908 -10.067  1.00  0.00    -0.382 OA
ATOM     15  H   UNL     1       8.862  32.729 -10.623  1.00  0.00     0.211 HD
ENDBRANCH   8  14
ENDBRANCH   1   8
BRANCH   1  16
ATOM     16  O   UNL     1       8.437  34.100  -7.186  1.00  0.00    -0.387 OA
ATOM     17  H   UNL     1       7.661  34.045  -6.571  1.00  0.00     0.211 HD
ENDBRANCH   1  16
TORSDOF 10
ENDMDL
MODEL 6
REMARK VINA RESULT:    -0.286     24.790     25.778
REMARK INTER + INTRA:          -0.479
REMARK INTER:                   0.268
REMARK INTRA:                  -0.747
REMARK UNBOUND:                -0.068
REMARK SMILES O=C(CO)[C@H](O)[C@H](O)[C@@H](O)CO
REMARK SMILES IDX 7 1 9 2 11 3 12 4 10 6 5 8 2 9 1 10 3 11 4 12 6 14 8 16
REMARK H PARENT 12 5 10 7 4 13 6 15 8 17
REMARK Flexibility Score: inf
ROOT
ATOM      1  C   UNL     1      -8.173  51.180  -3.053  1.00  0.00     0.181 C 
ENDROOT
BRANCH   1   2
ATOM      2  C   UNL     1      -8.021  50.038  -4.102  1.00  0.00     0.171 C 
BRANCH   2   3
ATOM      3  C   UNL     1      -7.848  50.533  -5.553  1.00  0.00     0.190 C 
BRANCH   3   4
ATOM      4  O   UNL     1      -7.086  51.710  -5.604  1.00  0.00    -0.394 OA
ATOM      5  H   UNL     1      -7.298  52.226  -4.783  1.00  0.00     0.210 HD
ENDBRANCH   3   4
ENDBRANCH   2   3
BRANCH   2   6
ATOM      6  O   UNL     1      -9.114  49.157  -4.025  1.00  0.00    -0.388 OA
ATOM      7  H   UNL     1      -9.353  48.892  -4.951  1.00  0.00     0.211 HD
ENDBRANCH   2   6
ENDBRANCH   1   2
BRANCH   1   8
ATOM      8  C   UNL     1      -8.499  50.701  -1.607  1.00  0.00     0.214 C 
BRANCH   8   9
ATOM      9  C   UNL     1      -7.994  51.644  -0.531  1.00  0.00     0.189 C 
ATOM     10  O   UNL     1      -8.787  52.088   0.288  1.00  0.00    -0.294 OA
BRANCH   9  11
ATOM     11  C   UNL     1      -6.533  52.000  -0.416  1.00  0.00     0.234 C 
BRANCH  11  12
ATOM     12  O   UNL     1      -5.831  50.993   0.259  1.00  0.00    -0.388 OA
ATOM     13  H   UNL     1      -5.082  51.446   0.728  1.00  0.00     0.211 HD
ENDBRANCH  11  12
ENDBRANCH   9  11
ENDBRANCH   8   9
BRANCH   8  14
ATOM     14  O   UNL     1      -8.029  49.390  -1.398  1.00  0.00    -0.382 OA
ATOM     15  H   UNL     1      -7.169  49.442  -0.905  1.00  0.00     0.211 HD
ENDBRANCH   8  14
ENDBRANCH   1   8
BRANCH   1  16
ATOM     16  O   UNL     1      -9.124  52.120  -3.492  1.00  0.00    -0.387 OA
ATOM     17  H   UNL     1      -8.867  53.006  -3.127  1.00  0.00     0.211 HD
ENDBRANCH   1  16
TORSDOF 10
ENDMDL
MODEL 7
REMARK VINA RESULT:    -0.145      1.287      4.196
REMARK INTER + INTRA:          -0.276
REMARK INTER:                  -0.358
REMARK INTRA:                   0.083
REMARK UNBOUND:                -0.068
REMARK SMILES O=C(CO)[C@H](O)[C@H](O)[C@@H](O)CO
REMARK SMILES IDX 7 1 9 2 11 3 12 4 10 6 5 8 2 9 1 10 3 11 4 12 6 14 8 16
REMARK H PARENT 12 5 10 7 4 13 6 15 8 17
REMARK Flexibility Score: inf
ROOT
ATOM      1  C   UNL     1       9.212  33.181  -7.651  1.00  0.00     0.181 C 
ENDROOT
BRANCH   1   2
ATOM      2  C   UNL     1      10.590  33.144  -8.379  1.00  0.00     0.171 C 
BRANCH   2   3
ATOM      3  C   UNL     1      10.766  34.235  -9.455  1.00  0.00     0.190 C 
BRANCH   3   4
ATOM      4  O   UNL     1      10.149  35.435  -9.071  1.00  0.00    -0.394 OA
ATOM      5  H   UNL     1       9.608  35.742  -9.844  1.00  0.00     0.210 HD
ENDBRANCH   3   4
ENDBRANCH   2   3
BRANCH   2   6
ATOM      6  O   UNL     1      10.808  31.875  -8.945  1.00  0.00    -0.388 OA
ATOM      7  H   UNL     1      10.911  31.227  -8.202  1.00  0.00     0.211 HD
ENDBRANCH   2   6
ENDBRANCH   1   2
BRANCH   1   8
ATOM      8  C   UNL     1       8.057  32.454  -8.401  1.00  0.00     0.214 C 
BRANCH   8   9
ATOM      9  C   UNL     1       7.334  33.341  -9.398  1.00  0.00     0.189 C 
ATOM     10  O   UNL     1       7.992  34.073 -10.125  1.00  0.00    -0.294 OA
BRANCH   9  11
ATOM     11  C   UNL     1       5.834  33.299  -9.551  1.00  0.00     0.234 C 
BRANCH  11  12
ATOM     12  O   UNL     1       5.423  32.047 -10.029  1.00  0.00    -0.388 OA
ATOM     13  H   UNL     1       4.466  31.957  -9.777  1.00  0.00     0.211 HD
ENDBRANCH  11  12
ENDBRANCH   9  11
ENDBRANCH   8   9
BRANCH   8  14
ATOM     14  O   UNL     1       7.155  31.875  -7.487  1.00  0.00    -0.382 OA
ATOM     15  H   UNL     1       6.494  32.565  -7.221  1.00  0.00     0.211 HD
ENDBRANCH   8  14
ENDBRANCH   1   8
BRANCH   1  16
ATOM     16  O   UNL     1       8.855  34.510  -7.356  1.00  0.00    -0.387 OA
ATOM     17  H   UNL     1       9.451  35.107  -7.878  1.00  0.00     0.211 HD
ENDBRANCH   1  16
TORSDOF 10
ENDMDL
