MODEL 1
REMARK VINA RESULT:    -3.659      0.000      0.000
REMARK INTER + INTRA:          -5.460
REMARK INTER:                  -5.156
REMARK INTRA:                  -0.305
REMARK UNBOUND:                -0.305
REMARK SMILES CCCCCCCCC(=O)[O-]
REMARK SMILES IDX 6 1 7 2 8 3 9 4 10 5 11 6 5 7 4 8 3 9 2 10 1 11
REMARK H PARENT
REMARK Flexibility Score: inf
ROOT
ATOM      1  C   UNL     1       0.735 -10.324 -41.179  1.00  0.00     0.000 C 
ENDROOT
BRANCH   1   2
ATOM      2  C   UNL     1       1.964 -10.005 -42.048  1.00  0.00     0.006 C 
BRANCH   2   3
ATOM      3  C   UNL     1       2.636 -11.275 -42.588  1.00  0.00     0.053 C 
BRANCH   3   4
ATOM      4  C   UNL     1       2.414 -11.439 -44.060  1.00  0.00     0.041 C 
ATOM      5  O   UNL     1       2.278 -10.428 -44.798  1.00  0.00    -0.550 OA
ATOM      6  O   UNL     1       2.327 -12.710 -44.612  1.00  0.00    -0.550 OA
ENDBRANCH   3   4
ENDBRANCH   2   3
ENDBRANCH   1   2
BRANCH   1   7
ATOM      7  C   UNL     1      -0.589  -9.988 -41.883  1.00  0.00     0.000 C 
BRANCH   7   8
ATOM      8  C   UNL     1      -1.448  -8.991 -41.091  1.00  0.00    -0.000 C 
BRANCH   8   9
ATOM      9  C   UNL     1      -0.871  -8.766 -39.685  1.00  0.00    -0.000 C 
BRANCH   9  10
ATOM     10  C   UNL     1      -1.532  -7.587 -38.955  1.00  0.00    -0.003 C 
ATOM     11  C   UNL     1      -0.654  -7.012 -37.844  1.00  0.00     0.004 C 
ENDBRANCH   9  10
ENDBRANCH   8   9
ENDBRANCH   7   8
ENDBRANCH   1   7
TORSDOF 7
ENDMDL
MODEL 2
REMARK VINA RESULT:    -3.613      1.643      2.228
REMARK INTER + INTRA:          -5.396
REMARK INTER:                  -5.028
REMARK INTRA:                  -0.369
REMARK UNBOUND:                -0.305
REMARK SMILES CCCCCCCCC(=O)[O-]
REMARK SMILES IDX 6 1 7 2 8 3 9 4 10 5 11 6 5 7 4 8 3 9 2 10 1 11
REMARK H PARENT
REMARK Flexibility Score: inf
ROOT
ATOM      1  C   UNL     1      -0.743  -9.511 -41.749  1.00  0.00     0.000 C 
ENDROOT
BRANCH   1   2
ATOM      2  C   UNL     1       0.546  -9.969 -41.044  1.00  0.00     0.006 C 
BRANCH   2   3
ATOM      3  C   UNL     1       1.763  -9.924 -41.978  1.00  0.00     0.053 C 
BRANCH   3   4
ATOM      4  C   UNL     1       2.684 -11.082 -41.747  1.00  0.00     0.041 C 
ATOM      5  O   UNL     1       3.919 -10.889 -41.589  1.00  0.00    -0.550 OA
ATOM      6  O   UNL     1       2.184 -12.377 -41.736  1.00  0.00    -0.550 OA
ENDBRANCH   3   4
ENDBRANCH   2   3
ENDBRANCH   1   2
BRANCH   1   7
ATOM      7  C   UNL     1      -1.710  -8.787 -40.799  1.00  0.00     0.000 C 
BRANCH   7   8
ATOM      8  C   UNL     1      -1.271  -8.867 -39.329  1.00  0.00    -0.000 C 
BRANCH   8   9
ATOM      9  C   UNL     1      -1.070  -7.462 -38.739  1.00  0.00    -0.000 C 
BRANCH   9  10
ATOM     10  C   UNL     1      -0.562  -7.496 -37.290  1.00  0.00    -0.003 C 
ATOM     11  C   UNL     1      -0.507  -8.912 -36.716  1.00  0.00     0.004 C 
ENDBRANCH   9  10
ENDBRANCH   8   9
ENDBRANCH   7   8
ENDBRANCH   1   7
TORSDOF 7
ENDMDL
MODEL 3
REMARK VINA RESULT:    -3.539      4.253      6.420
REMARK INTER + INTRA:          -5.291
REMARK INTER:                  -5.007
REMARK INTRA:                  -0.284
REMARK UNBOUND:                -0.305
REMARK SMILES CCCCCCCCC(=O)[O-]
REMARK SMILES IDX 6 1 7 2 8 3 9 4 10 5 11 6 5 7 4 8 3 9 2 10 1 11
REMARK H PARENT
REMARK Flexibility Score: inf
ROOT
ATOM      1  C   UNL     1      -0.724  -8.829 -39.523  1.00  0.00     0.000 C 
ENDROOT
BRANCH   1   2
ATOM      2  C   UNL     1      -1.324  -7.661 -38.721  1.00  0.00     0.006 C 
BRANCH   2   3
ATOM      3  C   UNL     1      -0.442  -7.266 -37.528  1.00  0.00     0.053 C 
BRANCH   3   4
ATOM      4  C   UNL     1      -0.785  -8.052 -36.300  1.00  0.00     0.041 C 
ATOM      5  O   UNL     1      -1.587  -7.583 -35.450  1.00  0.00    -0.550 OA
ATOM      6  O   UNL     1      -0.196  -9.290 -36.080  1.00  0.00    -0.550 OA
ENDBRANCH   3   4
ENDBRANCH   2   3
ENDBRANCH   1   2
BRANCH   1   7
ATOM      7  C   UNL     1      -1.496  -9.112 -40.821  1.00  0.00     0.000 C 
BRANCH   7   8
ATOM      8  C   UNL     1      -0.577  -9.514 -41.984  1.00  0.00    -0.000 C 
BRANCH   8   9
ATOM      9  C   UNL     1       0.596 -10.371 -41.486  1.00  0.00    -0.000 C 
BRANCH   9  10
ATOM     10  C   UNL     1       1.952  -9.888 -42.021  1.00  0.00    -0.003 C 
ATOM     11  C   UNL     1       3.058 -10.931 -41.860  1.00  0.00     0.004 C 
ENDBRANCH   9  10
ENDBRANCH   8   9
ENDBRANCH   7   8
ENDBRANCH   1   7
TORSDOF 7
ENDMDL
MODEL 4
REMARK VINA RESULT:    -3.524      0.967      1.628
REMARK INTER + INTRA:          -5.270
REMARK INTER:                  -4.775
REMARK INTRA:                  -0.495
REMARK UNBOUND:                -0.305
REMARK SMILES CCCCCCCCC(=O)[O-]
REMARK SMILES IDX 6 1 7 2 8 3 9 4 10 5 11 6 5 7 4 8 3 9 2 10 1 11
REMARK H PARENT
REMARK Flexibility Score: inf
ROOT
ATOM      1  C   UNL     1       0.021 -10.754 -41.573  1.00  0.00     0.000 C 
ENDROOT
BRANCH   1   2
ATOM      2  C   UNL     1       1.173  -9.843 -42.032  1.00  0.00     0.006 C 
BRANCH   2   3
ATOM      3  C   UNL     1       2.414 -10.644 -42.446  1.00  0.00     0.053 C 
BRANCH   3   4
ATOM      4  C   UNL     1       2.304 -11.152 -43.851  1.00  0.00     0.041 C 
ATOM      5  O   UNL     1       2.245 -12.391 -44.075  1.00  0.00    -0.550 OA
ATOM      6  O   UNL     1       2.297 -10.259 -44.914  1.00  0.00    -0.550 OA
ENDBRANCH   3   4
ENDBRANCH   2   3
ENDBRANCH   1   2
BRANCH   1   7
ATOM      7  C   UNL     1      -1.312 -10.410 -42.257  1.00  0.00     0.000 C 
BRANCH   7   8
ATOM      8  C   UNL     1      -1.506  -8.900 -42.457  1.00  0.00    -0.000 C 
BRANCH   8   9
ATOM      9  C   UNL     1      -2.619  -8.364 -41.543  1.00  0.00    -0.000 C 
BRANCH   9  10
ATOM     10  C   UNL     1      -2.426  -8.770 -40.074  1.00  0.00    -0.003 C 
ATOM     11  C   UNL     1      -1.326  -7.968 -39.379  1.00  0.00     0.004 C 
ENDBRANCH   9  10
ENDBRANCH   8   9
ENDBRANCH   7   8
ENDBRANCH   1   7
TORSDOF 7
ENDMDL
MODEL 5
REMARK VINA RESULT:    -3.495      4.091      5.799
REMARK INTER + INTRA:          -5.230
REMARK INTER:                  -4.506
REMARK INTRA:                  -0.724
REMARK UNBOUND:                -0.305
REMARK SMILES CCCCCCCCC(=O)[O-]
REMARK SMILES IDX 6 1 7 2 8 3 9 4 10 5 11 6 5 7 4 8 3 9 2 10 1 11
REMARK H PARENT
REMARK Flexibility Score: inf
ROOT
ATOM      1  C   UNL     1      -2.458  -8.893 -40.224  1.00  0.00     0.000 C 
ENDROOT
BRANCH   1   2
ATOM      2  C   UNL     1      -1.463  -8.109 -39.350  1.00  0.00     0.006 C 
BRANCH   2   3
ATOM      3  C   UNL     1      -0.418  -9.025 -38.700  1.00  0.00     0.053 C 
BRANCH   3   4
ATOM      4  C   UNL     1      -0.664  -9.195 -37.232  1.00  0.00     0.041 C 
ATOM      5  O   UNL     1      -1.334 -10.174 -36.810  1.00  0.00    -0.550 OA
ATOM      6  O   UNL     1      -0.179  -8.254 -36.333  1.00  0.00    -0.550 OA
ENDBRANCH   3   4
ENDBRANCH   2   3
ENDBRANCH   1   2
BRANCH   1   7
ATOM      7  C   UNL     1      -2.637  -8.272 -41.618  1.00  0.00     0.000 C 
BRANCH   7   8
ATOM      8  C   UNL     1      -1.881  -9.039 -42.712  1.00  0.00    -0.000 C 
BRANCH   8   9
ATOM      9  C   UNL     1      -1.456 -10.429 -42.214  1.00  0.00    -0.000 C 
BRANCH   9  10
ATOM     10  C   UNL     1       0.032 -10.718 -42.463  1.00  0.00    -0.003 C 
ATOM     11  C   UNL     1       0.920  -9.499 -42.217  1.00  0.00     0.004 C 
ENDBRANCH   9  10
ENDBRANCH   8   9
ENDBRANCH   7   8
ENDBRANCH   1   7
TORSDOF 7
ENDMDL
MODEL 6
REMARK VINA RESULT:    -3.490      2.068      2.812
REMARK INTER + INTRA:          -5.223
REMARK INTER:                  -4.540
REMARK INTRA:                  -0.684
REMARK UNBOUND:                -0.305
REMARK SMILES CCCCCCCCC(=O)[O-]
REMARK SMILES IDX 6 1 7 2 8 3 9 4 10 5 11 6 5 7 4 8 3 9 2 10 1 11
REMARK H PARENT
REMARK Flexibility Score: inf
ROOT
ATOM      1  C   UNL     1       0.129  -9.918 -40.707  1.00  0.00     0.000 C 
ENDROOT
BRANCH   1   2
ATOM      2  C   UNL     1       0.907  -9.620 -42.001  1.00  0.00     0.006 C 
BRANCH   2   3
ATOM      3  C   UNL     1       2.309 -10.247 -41.989  1.00  0.00     0.053 C 
BRANCH   3   4
ATOM      4  C   UNL     1       2.273 -11.696 -42.367  1.00  0.00     0.041 C 
ATOM      5  O   UNL     1       2.105 -12.034 -43.569  1.00  0.00    -0.550 OA
ATOM      6  O   UNL     1       2.395 -12.673 -41.388  1.00  0.00    -0.550 OA
ENDBRANCH   3   4
ENDBRANCH   2   3
ENDBRANCH   1   2
BRANCH   1   7
ATOM      7  C   UNL     1      -0.992 -10.948 -40.916  1.00  0.00     0.000 C 
BRANCH   7   8
ATOM      8  C   UNL     1      -1.403 -11.089 -42.389  1.00  0.00    -0.000 C 
BRANCH   8   9
ATOM      9  C   UNL     1      -2.791 -10.479 -42.633  1.00  0.00    -0.000 C 
BRANCH   9  10
ATOM     10  C   UNL     1      -2.729  -8.979 -42.959  1.00  0.00    -0.003 C 
ATOM     11  C   UNL     1      -3.183  -8.101 -41.793  1.00  0.00     0.004 C 
ENDBRANCH   9  10
ENDBRANCH   8   9
ENDBRANCH   7   8
ENDBRANCH   1   7
TORSDOF 7
ENDMDL
MODEL 7
REMARK VINA RESULT:    -3.467      1.719      3.082
REMARK INTER + INTRA:          -5.191
REMARK INTER:                  -4.564
REMARK INTRA:                  -0.626
REMARK UNBOUND:                -0.305
REMARK SMILES CCCCCCCCC(=O)[O-]
REMARK SMILES IDX 6 1 7 2 8 3 9 4 10 5 11 6 5 7 4 8 3 9 2 10 1 11
REMARK H PARENT
REMARK Flexibility Score: inf
ROOT
ATOM      1  C   UNL     1       0.195  -9.619 -40.979  1.00  0.00     0.000 C 
ENDROOT
BRANCH   1   2
ATOM      2  C   UNL     1       0.856  -9.838 -42.352  1.00  0.00     0.006 C 
BRANCH   2   3
ATOM      3  C   UNL     1       1.218 -11.311 -42.590  1.00  0.00     0.053 C 
BRANCH   3   4
ATOM      4  C   UNL     1       1.933 -11.503 -43.892  1.00  0.00     0.041 C 
ATOM      5  O   UNL     1       2.255 -10.507 -44.593  1.00  0.00    -0.550 OA
ATOM      6  O   UNL     1       2.220 -12.784 -44.345  1.00  0.00    -0.550 OA
ENDBRANCH   3   4
ENDBRANCH   2   3
ENDBRANCH   1   2
BRANCH   1   7
ATOM      7  C   UNL     1      -1.258  -9.132 -41.094  1.00  0.00     0.000 C 
BRANCH   7   8
ATOM      8  C   UNL     1      -1.859  -9.377 -42.486  1.00  0.00    -0.000 C 
BRANCH   8   9
ATOM      9  C   UNL     1      -2.961 -10.446 -42.427  1.00  0.00    -0.000 C 
BRANCH   9  10
ATOM     10  C   UNL     1      -2.411 -11.873 -42.573  1.00  0.00    -0.003 C 
ATOM     11  C   UNL     1      -2.660 -12.732 -41.334  1.00  0.00     0.004 C 
ENDBRANCH   9  10
ENDBRANCH   8   9
ENDBRANCH   7   8
ENDBRANCH   1   7
TORSDOF 7
ENDMDL
MODEL 8
REMARK VINA RESULT:    -3.462      2.212      2.954
REMARK INTER + INTRA:          -5.183
REMARK INTER:                  -4.909
REMARK INTRA:                  -0.274
REMARK UNBOUND:                -0.305
REMARK SMILES CCCCCCCCC(=O)[O-]
REMARK SMILES IDX 6 1 7 2 8 3 9 4 10 5 11 6 5 7 4 8 3 9 2 10 1 11
REMARK H PARENT
REMARK Flexibility Score: inf
ROOT
ATOM      1  C   UNL     1      -0.463  -9.213 -40.388  1.00  0.00     0.000 C 
ENDROOT
BRANCH   1   2
ATOM      2  C   UNL     1       0.315 -10.410 -40.963  1.00  0.00     0.006 C 
BRANCH   2   3
ATOM      3  C   UNL     1       1.604  -9.973 -41.672  1.00  0.00     0.053 C 
BRANCH   3   4
ATOM      4  C   UNL     1       2.617 -11.076 -41.712  1.00  0.00     0.041 C 
ATOM      5  O   UNL     1       3.845 -10.808 -41.801  1.00  0.00    -0.550 OA
ATOM      6  O   UNL     1       2.203 -12.401 -41.681  1.00  0.00    -0.550 OA
ENDBRANCH   3   4
ENDBRANCH   2   3
ENDBRANCH   1   2
BRANCH   1   7
ATOM      7  C   UNL     1      -0.658  -9.312 -38.866  1.00  0.00     0.000 C 
BRANCH   7   8
ATOM      8  C   UNL     1      -0.519  -7.956 -38.160  1.00  0.00    -0.000 C 
BRANCH   8   9
ATOM      9  C   UNL     1      -0.455  -8.135 -36.635  1.00  0.00    -0.000 C 
BRANCH   9  10
ATOM     10  C   UNL     1      -1.029  -9.483 -36.173  1.00  0.00    -0.003 C 
ATOM     11  C   UNL     1      -0.088 -10.234 -35.231  1.00  0.00     0.004 C 
ENDBRANCH   9  10
ENDBRANCH   8   9
ENDBRANCH   7   8
ENDBRANCH   1   7
TORSDOF 7
ENDMDL
MODEL 9
REMARK VINA RESULT:    -3.426      3.761      5.682
REMARK INTER + INTRA:          -5.133
REMARK INTER:                  -4.641
REMARK INTRA:                  -0.492
REMARK UNBOUND:                -0.305
REMARK SMILES CCCCCCCCC(=O)[O-]
REMARK SMILES IDX 6 1 7 2 8 3 9 4 10 5 11 6 5 7 4 8 3 9 2 10 1 11
REMARK H PARENT
REMARK Flexibility Score: inf
ROOT
ATOM      1  C   UNL     1      -1.592  -9.098 -41.809  1.00  0.00     0.000 C 
ENDROOT
BRANCH   1   2
ATOM      2  C   UNL     1      -1.785  -8.549 -40.385  1.00  0.00     0.006 C 
BRANCH   2   3
ATOM      3  C   UNL     1      -0.783  -9.154 -39.391  1.00  0.00     0.053 C 
BRANCH   3   4
ATOM      4  C   UNL     1      -0.597  -8.280 -38.189  1.00  0.00     0.041 C 
ATOM      5  O   UNL     1      -0.335  -8.791 -37.068  1.00  0.00    -0.550 OA
ATOM      6  O   UNL     1      -0.740  -6.904 -38.301  1.00  0.00    -0.550 OA
ENDBRANCH   3   4
ENDBRANCH   2   3
ENDBRANCH   1   2
BRANCH   1   7
ATOM      7  C   UNL     1      -1.558 -10.633 -41.851  1.00  0.00     0.000 C 
BRANCH   7   8
ATOM      8  C   UNL     1      -0.239 -11.184 -42.412  1.00  0.00    -0.000 C 
BRANCH   8   9
ATOM      9  C   UNL     1       0.737 -10.043 -42.740  1.00  0.00    -0.000 C 
BRANCH   9  10
ATOM     10  C   UNL     1       1.937  -9.997 -41.781  1.00  0.00    -0.003 C 
ATOM     11  C   UNL     1       3.019 -11.015 -42.140  1.00  0.00     0.004 C 
ENDBRANCH   9  10
ENDBRANCH   8   9
ENDBRANCH   7   8
ENDBRANCH   1   7
TORSDOF 7
ENDMDL
