MODEL 1
REMARK VINA RESULT:    -3.693      0.000      0.000
REMARK INTER + INTRA:          -7.316
REMARK INTER:                  -6.715
REMARK INTRA:                  -0.601
REMARK UNBOUND:                -0.601
REMARK SMILES CCCCCCCCCCCCCC[C@@H](C)C(=O)[O-]
REMARK SMILES IDX 9 1 10 2 11 3 12 4 13 5 14 6 15 7 16 8 17 9 18 10 19 11 8 12
REMARK SMILES IDX 7 13 6 14 5 15 4 16 3 17 2 18 1 19
REMARK H PARENT
REMARK Flexibility Score: inf
ROOT
ATOM      1  C   UNL     1     121.196  71.089   1.849  1.00  0.00     0.000 C 
ENDROOT
BRANCH   1   2
ATOM      2  C   UNL     1     120.907  71.087   0.337  1.00  0.00     0.000 C 
BRANCH   2   3
ATOM      3  C   UNL     1     121.396  69.809  -0.366  1.00  0.00     0.000 C 
BRANCH   3   4
ATOM      4  C   UNL     1     120.244  68.949  -0.918  1.00  0.00     0.000 C 
BRANCH   4   5
ATOM      5  C   UNL     1     119.876  69.214  -2.390  1.00  0.00     0.001 C 
BRANCH   5   6
ATOM      6  C   UNL     1     120.223  68.036  -3.317  1.00  0.00     0.009 C 
BRANCH   6   7
ATOM      7  C   UNL     1     120.000  68.369  -4.809  1.00  0.00     0.032 C 
ATOM      8  C   UNL     1     120.618  69.719  -5.199  1.00  0.00     0.014 C 
BRANCH   7   9
ATOM      9  C   UNL     1     120.589  67.280  -5.664  1.00  0.00     0.044 C 
ATOM     10  O   UNL     1     120.776  66.131  -5.184  1.00  0.00    -0.550 OA
ATOM     11  O   UNL     1     120.930  67.533  -6.987  1.00  0.00    -0.550 OA
ENDBRANCH   7   9
ENDBRANCH   6   7
ENDBRANCH   5   6
ENDBRANCH   4   5
ENDBRANCH   3   4
ENDBRANCH   2   3
ENDBRANCH   1   2
BRANCH   1  12
ATOM     12  C   UNL     1     120.876  72.409   2.576  1.00  0.00     0.000 C 
BRANCH  12  13
ATOM     13  C   UNL     1     120.541  72.212   4.061  1.00  0.00    -0.000 C 
BRANCH  13  14
ATOM     14  C   UNL     1     120.408  70.719   4.401  1.00  0.00    -0.000 C 
BRANCH  14  15
ATOM     15  C   UNL     1     120.202  70.467   5.903  1.00  0.00    -0.000 C 
BRANCH  15  16
ATOM     16  C   UNL     1     119.876  71.755   6.679  1.00  0.00    -0.000 C 
BRANCH  16  17
ATOM     17  C   UNL     1     120.500  71.780   8.085  1.00  0.00    -0.000 C 
BRANCH  17  18
ATOM     18  C   UNL     1     120.814  73.184   8.633  1.00  0.00    -0.003 C 
ATOM     19  C   UNL     1     119.961  73.559   9.844  1.00  0.00     0.004 C 
ENDBRANCH  17  18
ENDBRANCH  16  17
ENDBRANCH  15  16
ENDBRANCH  14  15
ENDBRANCH  13  14
ENDBRANCH  12  13
ENDBRANCH   1  12
TORSDOF 14
ENDMDL
MODEL 2
REMARK VINA RESULT:    -3.661      1.025      1.847
REMARK INTER + INTRA:          -7.257
REMARK INTER:                  -6.686
REMARK INTRA:                  -0.572
REMARK UNBOUND:                -0.601
REMARK SMILES CCCCCCCCCCCCCC[C@@H](C)C(=O)[O-]
REMARK SMILES IDX 9 1 10 2 11 3 12 4 13 5 14 6 15 7 16 8 17 9 18 10 19 11 8 12
REMARK SMILES IDX 7 13 6 14 5 15 4 16 3 17 2 18 1 19
REMARK H PARENT
REMARK Flexibility Score: inf
ROOT
ATOM      1  C   UNL     1     120.576  69.828   0.592  1.00  0.00     0.000 C 
ENDROOT
BRANCH   1   2
ATOM      2  C   UNL     1     120.530  69.499  -0.912  1.00  0.00     0.000 C 
BRANCH   2   3
ATOM      3  C   UNL     1     120.727  68.002  -1.205  1.00  0.00     0.000 C 
BRANCH   3   4
ATOM      4  C   UNL     1     119.931  67.520  -2.432  1.00  0.00     0.000 C 
BRANCH   4   5
ATOM      5  C   UNL     1     120.019  68.432  -3.669  1.00  0.00     0.001 C 
BRANCH   5   6
ATOM      6  C   UNL     1     119.875  67.662  -4.994  1.00  0.00     0.009 C 
BRANCH   6   7
ATOM      7  C   UNL     1     120.046  68.571  -6.231  1.00  0.00     0.032 C 
ATOM      8  C   UNL     1     120.660  69.930  -5.870  1.00  0.00     0.014 C 
BRANCH   7   9
ATOM      9  C   UNL     1     120.912  67.882  -7.250  1.00  0.00     0.044 C 
ATOM     10  O   UNL     1     121.024  66.628  -7.240  1.00  0.00    -0.550 OA
ATOM     11  O   UNL     1     121.593  68.622  -8.209  1.00  0.00    -0.550 OA
ENDBRANCH   7   9
ENDBRANCH   6   7
ENDBRANCH   5   6
ENDBRANCH   4   5
ENDBRANCH   3   4
ENDBRANCH   2   3
ENDBRANCH   1   2
BRANCH   1  12
ATOM     12  C   UNL     1     121.087  71.239   0.939  1.00  0.00     0.000 C 
BRANCH  12  13
ATOM     13  C   UNL     1     120.135  72.015   1.860  1.00  0.00    -0.000 C 
BRANCH  13  14
ATOM     14  C   UNL     1     120.847  72.439   3.154  1.00  0.00    -0.000 C 
BRANCH  14  15
ATOM     15  C   UNL     1     119.993  72.197   4.409  1.00  0.00    -0.000 C 
BRANCH  15  16
ATOM     16  C   UNL     1     120.465  70.977   5.218  1.00  0.00    -0.000 C 
BRANCH  16  17
ATOM     17  C   UNL     1     120.723  71.306   6.700  1.00  0.00    -0.000 C 
BRANCH  17  18
ATOM     18  C   UNL     1     119.915  72.494   7.253  1.00  0.00    -0.003 C 
ATOM     19  C   UNL     1     120.400  72.962   8.625  1.00  0.00     0.004 C 
ENDBRANCH  17  18
ENDBRANCH  16  17
ENDBRANCH  15  16
ENDBRANCH  14  15
ENDBRANCH  13  14
ENDBRANCH  12  13
ENDBRANCH   1  12
TORSDOF 14
ENDMDL
MODEL 3
REMARK VINA RESULT:    -3.499      5.349     10.625
REMARK INTER + INTRA:          -6.963
REMARK INTER:                  -5.922
REMARK INTRA:                  -1.041
REMARK UNBOUND:                -0.601
REMARK SMILES CCCCCCCCCCCCCC[C@@H](C)C(=O)[O-]
REMARK SMILES IDX 9 1 10 2 11 3 12 4 13 5 14 6 15 7 16 8 17 9 18 10 19 11 8 12
REMARK SMILES IDX 7 13 6 14 5 15 4 16 3 17 2 18 1 19
REMARK H PARENT
REMARK Flexibility Score: inf
ROOT
ATOM      1  C   UNL     1     121.326  72.089   2.289  1.00  0.00     0.000 C 
ENDROOT
BRANCH   1   2
ATOM      2  C   UNL     1     120.805  73.164   3.261  1.00  0.00     0.000 C 
BRANCH   2   3
ATOM      3  C   UNL     1     120.552  72.621   4.677  1.00  0.00     0.000 C 
BRANCH   3   4
ATOM      4  C   UNL     1     120.062  71.161   4.683  1.00  0.00     0.000 C 
BRANCH   4   5
ATOM      5  C   UNL     1     120.086  70.468   6.058  1.00  0.00     0.001 C 
BRANCH   5   6
ATOM      6  C   UNL     1     120.832  71.285   7.129  1.00  0.00     0.009 C 
BRANCH   6   7
ATOM      7  C   UNL     1     119.921  71.690   8.308  1.00  0.00     0.032 C 
ATOM      8  C   UNL     1     119.875  70.613   9.400  1.00  0.00     0.014 C 
BRANCH   7   9
ATOM      9  C   UNL     1     120.403  72.987   8.899  1.00  0.00     0.044 C 
ATOM     10  O   UNL     1     121.265  73.676   8.292  1.00  0.00    -0.550 OA
ATOM     11  O   UNL     1     119.904  73.433  10.116  1.00  0.00    -0.550 OA
ENDBRANCH   7   9
ENDBRANCH   6   7
ENDBRANCH   5   6
ENDBRANCH   4   5
ENDBRANCH   3   4
ENDBRANCH   2   3
ENDBRANCH   1   2
BRANCH   1  12
ATOM     12  C   UNL     1     121.011  72.340   0.803  1.00  0.00     0.000 C 
BRANCH  12  13
ATOM     13  C   UNL     1     120.056  71.297   0.205  1.00  0.00    -0.000 C 
BRANCH  13  14
ATOM     14  C   UNL     1     120.168  69.958   0.952  1.00  0.00    -0.000 C 
BRANCH  14  15
ATOM     15  C   UNL     1     120.393  68.767   0.008  1.00  0.00    -0.000 C 
BRANCH  15  16
ATOM     16  C   UNL     1     120.378  69.178  -1.475  1.00  0.00    -0.000 C 
BRANCH  16  17
ATOM     17  C   UNL     1     119.875  68.057  -2.402  1.00  0.00    -0.000 C 
BRANCH  17  18
ATOM     18  C   UNL     1     119.901  68.393  -3.904  1.00  0.00    -0.003 C 
ATOM     19  C   UNL     1     120.173  69.871  -4.182  1.00  0.00     0.004 C 
ENDBRANCH  17  18
ENDBRANCH  16  17
ENDBRANCH  15  16
ENDBRANCH  14  15
ENDBRANCH  13  14
ENDBRANCH  12  13
ENDBRANCH   1  12
TORSDOF 14
ENDMDL
MODEL 4
REMARK VINA RESULT:    -3.389      1.390      2.651
REMARK INTER + INTRA:          -6.763
REMARK INTER:                  -5.962
REMARK INTRA:                  -0.801
REMARK UNBOUND:                -0.601
REMARK SMILES CCCCCCCCCCCCCC[C@@H](C)C(=O)[O-]
REMARK SMILES IDX 9 1 10 2 11 3 12 4 13 5 14 6 15 7 16 8 17 9 18 10 19 11 8 12
REMARK SMILES IDX 7 13 6 14 5 15 4 16 3 17 2 18 1 19
REMARK H PARENT
REMARK Flexibility Score: inf
ROOT
ATOM      1  C   UNL     1     121.260  70.489  -0.429  1.00  0.00     0.000 C 
ENDROOT
BRANCH   1   2
ATOM      2  C   UNL     1     121.376  69.032  -0.915  1.00  0.00     0.000 C 
BRANCH   2   3
ATOM      3  C   UNL     1     120.129  68.553  -1.677  1.00  0.00     0.000 C 
BRANCH   3   4
ATOM      4  C   UNL     1     119.975  67.021  -1.673  1.00  0.00     0.000 C 
BRANCH   4   5
ATOM      5  C   UNL     1     119.952  66.362  -3.065  1.00  0.00     0.001 C 
BRANCH   5   6
ATOM      6  C   UNL     1     120.007  67.384  -4.214  1.00  0.00     0.009 C 
BRANCH   6   7
ATOM      7  C   UNL     1     120.963  66.952  -5.347  1.00  0.00     0.032 C 
ATOM      8  C   UNL     1     120.629  65.554  -5.884  1.00  0.00     0.014 C 
BRANCH   7   9
ATOM      9  C   UNL     1     120.900  67.951  -6.470  1.00  0.00     0.044 C 
ATOM     10  O   UNL     1     121.305  67.635  -7.620  1.00  0.00    -0.550 OA
ATOM     11  O   UNL     1     120.397  69.227  -6.249  1.00  0.00    -0.550 OA
ENDBRANCH   7   9
ENDBRANCH   6   7
ENDBRANCH   5   6
ENDBRANCH   4   5
ENDBRANCH   3   4
ENDBRANCH   2   3
ENDBRANCH   1   2
BRANCH   1  12
ATOM     12  C   UNL     1     119.875  70.891   0.113  1.00  0.00     0.000 C 
BRANCH  12  13
ATOM     13  C   UNL     1     119.929  71.465   1.536  1.00  0.00    -0.000 C 
BRANCH  13  14
ATOM     14  C   UNL     1     121.358  71.405   2.098  1.00  0.00    -0.000 C 
BRANCH  14  15
ATOM     15  C   UNL     1     121.619  72.471   3.174  1.00  0.00    -0.000 C 
BRANCH  15  16
ATOM     16  C   UNL     1     120.536  72.484   4.267  1.00  0.00    -0.000 C 
BRANCH  16  17
ATOM     17  C   UNL     1     120.685  71.326   5.270  1.00  0.00    -0.000 C 
BRANCH  17  18
ATOM     18  C   UNL     1     119.949  71.524   6.607  1.00  0.00    -0.003 C 
ATOM     19  C   UNL     1     120.889  71.540   7.812  1.00  0.00     0.004 C 
ENDBRANCH  17  18
ENDBRANCH  16  17
ENDBRANCH  15  16
ENDBRANCH  14  15
ENDBRANCH  13  14
ENDBRANCH  12  13
ENDBRANCH   1  12
TORSDOF 14
ENDMDL
MODEL 5
REMARK VINA RESULT:    -3.120      1.331      2.548
REMARK INTER + INTRA:          -6.275
REMARK INTER:                  -5.625
REMARK INTRA:                  -0.650
REMARK UNBOUND:                -0.601
REMARK SMILES CCCCCCCCCCCCCC[C@@H](C)C(=O)[O-]
REMARK SMILES IDX 9 1 10 2 11 3 12 4 13 5 14 6 15 7 16 8 17 9 18 10 19 11 8 12
REMARK SMILES IDX 7 13 6 14 5 15 4 16 3 17 2 18 1 19
REMARK H PARENT
REMARK Flexibility Score: inf
ROOT
ATOM      1  C   UNL     1     121.258  69.889   0.494  1.00  0.00     0.000 C 
ENDROOT
BRANCH   1   2
ATOM      2  C   UNL     1     120.667  69.206  -0.753  1.00  0.00     0.000 C 
BRANCH   2   3
ATOM      3  C   UNL     1     120.897  67.685  -0.770  1.00  0.00     0.000 C 
BRANCH   3   4
ATOM      4  C   UNL     1     119.929  66.941  -1.708  1.00  0.00     0.000 C 
BRANCH   4   5
ATOM      5  C   UNL     1     119.965  67.395  -3.179  1.00  0.00     0.001 C 
BRANCH   5   6
ATOM      6  C   UNL     1     119.887  66.220  -4.171  1.00  0.00     0.009 C 
BRANCH   6   7
ATOM      7  C   UNL     1     119.914  66.684  -5.644  1.00  0.00     0.032 C 
ATOM      8  C   UNL     1     120.590  68.052  -5.807  1.00  0.00     0.014 C 
BRANCH   7   9
ATOM      9  C   UNL     1     120.634  65.664  -6.483  1.00  0.00     0.044 C 
ATOM     10  O   UNL     1     121.029  65.963  -7.641  1.00  0.00    -0.550 OA
ATOM     11  O   UNL     1     120.869  64.387  -5.988  1.00  0.00    -0.550 OA
ENDBRANCH   7   9
ENDBRANCH   6   7
ENDBRANCH   5   6
ENDBRANCH   4   5
ENDBRANCH   3   4
ENDBRANCH   2   3
ENDBRANCH   1   2
BRANCH   1  12
ATOM     12  C   UNL     1     121.161  71.427   0.507  1.00  0.00     0.000 C 
BRANCH  12  13
ATOM     13  C   UNL     1     119.875  71.943   1.167  1.00  0.00    -0.000 C 
BRANCH  13  14
ATOM     14  C   UNL     1     120.155  73.200   2.006  1.00  0.00    -0.000 C 
BRANCH  14  15
ATOM     15  C   UNL     1     120.373  72.886   3.494  1.00  0.00    -0.000 C 
BRANCH  15  16
ATOM     16  C   UNL     1     120.044  71.423   3.842  1.00  0.00    -0.000 C 
BRANCH  16  17
ATOM     17  C   UNL     1     120.513  71.025   5.254  1.00  0.00    -0.000 C 
BRANCH  17  18
ATOM     18  C   UNL     1     119.877  71.830   6.402  1.00  0.00    -0.003 C 
ATOM     19  C   UNL     1     120.834  72.067   7.569  1.00  0.00     0.004 C 
ENDBRANCH  17  18
ENDBRANCH  16  17
ENDBRANCH  15  16
ENDBRANCH  14  15
ENDBRANCH  13  14
ENDBRANCH  12  13
ENDBRANCH   1  12
TORSDOF 14
ENDMDL
MODEL 6
REMARK VINA RESULT:    -2.808      4.326     10.515
REMARK INTER + INTRA:          -5.707
REMARK INTER:                  -5.076
REMARK INTRA:                  -0.631
REMARK UNBOUND:                -0.601
REMARK SMILES CCCCCCCCCCCCCC[C@@H](C)C(=O)[O-]
REMARK SMILES IDX 9 1 10 2 11 3 12 4 13 5 14 6 15 7 16 8 17 9 18 10 19 11 8 12
REMARK SMILES IDX 7 13 6 14 5 15 4 16 3 17 2 18 1 19
REMARK H PARENT
REMARK Flexibility Score: inf
ROOT
ATOM      1  C   UNL     1     120.773  68.002  -0.349  1.00  0.00     0.000 C 
ENDROOT
BRANCH   1   2
ATOM      2  C   UNL     1     121.707  69.220  -0.480  1.00  0.00     0.000 C 
BRANCH   2   3
ATOM      3  C   UNL     1     121.067  70.523   0.026  1.00  0.00     0.000 C 
BRANCH   3   4
ATOM      4  C   UNL     1     119.877  70.281   0.972  1.00  0.00     0.000 C 
BRANCH   4   5
ATOM      5  C   UNL     1     120.101  70.722   2.431  1.00  0.00     0.001 C 
BRANCH   5   6
ATOM      6  C   UNL     1     120.719  72.127   2.544  1.00  0.00     0.009 C 
BRANCH   6   7
ATOM      7  C   UNL     1     121.087  72.498   3.998  1.00  0.00     0.032 C 
ATOM      8  C   UNL     1     119.880  73.031   4.782  1.00  0.00     0.014 C 
BRANCH   7   9
ATOM      9  C   UNL     1     121.653  71.295   4.700  1.00  0.00     0.044 C 
ATOM     10  O   UNL     1     120.987  70.717   5.599  1.00  0.00    -0.550 OA
ATOM     11  O   UNL     1     122.911  70.812   4.364  1.00  0.00    -0.550 OA
ENDBRANCH   7   9
ENDBRANCH   6   7
ENDBRANCH   5   6
ENDBRANCH   4   5
ENDBRANCH   3   4
ENDBRANCH   2   3
ENDBRANCH   1   2
BRANCH   1  12
ATOM     12  C   UNL     1     121.086  66.830  -1.299  1.00  0.00     0.000 C 
BRANCH  12  13
ATOM     13  C   UNL     1     119.880  65.912  -1.540  1.00  0.00    -0.000 C 
BRANCH  13  14
ATOM     14  C   UNL     1     119.875  65.379  -2.981  1.00  0.00    -0.000 C 
BRANCH  14  15
ATOM     15  C   UNL     1     120.202  66.465  -4.018  1.00  0.00    -0.000 C 
BRANCH  15  16
ATOM     16  C   UNL     1     120.611  65.877  -5.380  1.00  0.00    -0.000 C 
BRANCH  16  17
ATOM     17  C   UNL     1     121.350  66.892  -6.272  1.00  0.00    -0.000 C 
BRANCH  17  18
ATOM     18  C   UNL     1     120.473  67.589  -7.328  1.00  0.00    -0.003 C 
ATOM     19  C   UNL     1     121.242  67.957  -8.597  1.00  0.00     0.004 C 
ENDBRANCH  17  18
ENDBRANCH  16  17
ENDBRANCH  15  16
ENDBRANCH  14  15
ENDBRANCH  13  14
ENDBRANCH  12  13
ENDBRANCH   1  12
TORSDOF 14
ENDMDL
