MODEL 1
REMARK VINA RESULT:    -4.245      0.000      0.000
REMARK INTER + INTRA:          -5.134
REMARK INTER:                  -5.983
REMARK INTRA:                   0.849
REMARK UNBOUND:                 0.849
REMARK SMILES CC1=CCC(=C(C)C)C(=O)CC(C)=CCC1
REMARK SMILES IDX 12 1 14 2 13 3 15 4 16 5 2 6 1 7 3 8 11 10 9 11 10 12 5 13
REMARK SMILES IDX 6 14 7 15 8 16 4 17
REMARK H PARENT
REMARK Flexibility Score: 60.00
ROOT
ATOM      1  C   UNL     1      -8.242   2.092 -18.695  1.00  0.00    -0.070 C 
ATOM      2  C   UNL     1      -8.133   3.075 -17.768  1.00  0.00    -0.027 C 
ATOM      3  C   UNL     1      -7.258   0.950 -18.628  1.00  0.00     0.039 C 
ENDROOT
BRANCH   2   4
ATOM      4  C   UNL     1      -9.040   4.277 -17.669  1.00  0.00     0.032 C 
BRANCH   4   5
ATOM      5  C   UNL     1     -10.347   3.925 -16.939  1.00  0.00     0.034 C 
BRANCH   5   6
ATOM      6  C   UNL     1     -11.561   3.921 -17.849  1.00  0.00    -0.077 C 
ATOM      7  C   UNL     1     -12.128   5.244 -18.302  1.00  0.00     0.039 C 
ATOM      8  C   UNL     1     -12.223   2.795 -18.218  1.00  0.00    -0.023 CG0
ATOM      9  G   UNL     1     -11.790   1.365 -17.976  1.00  0.00     0.000 G0
ENDBRANCH   5   6
ENDBRANCH   4   5
ENDBRANCH   2   4
BRANCH   1  10
ATOM     10  C   UNL     1      -9.294   2.093 -19.795  1.00  0.00     0.111 C 
BRANCH  10  11
ATOM     11  C   UNL     1     -10.052   0.787 -19.840  1.00  0.00     0.163 C 
ATOM     12  O   UNL     1      -9.473  -0.183 -20.401  1.00  0.00    -0.294 OA
BRANCH  11  13
ATOM     13  C   UNL     1     -11.423   0.589 -19.245  1.00  0.00    -0.002 C 
ATOM     14  C   UNL     1     -12.325  -0.272 -19.814  1.00  0.00    -0.069 C 
ATOM     15  C   UNL     1     -13.678  -0.532 -19.185  1.00  0.00     0.039 C 
ATOM     16  C   UNL     1     -12.049  -0.970 -21.129  1.00  0.00     0.039 C 
BRANCH  13  17
ATOM     17  C   UNL     1     -11.803   1.355 -17.980  1.00  0.00     0.066 CG0
ATOM     18  G   UNL     1     -12.221   2.791 -18.216  1.00  0.00     0.000 G0
ENDBRANCH  13  17
ENDBRANCH  11  13
ENDBRANCH  10  11
ENDBRANCH   1  10
TORSDOF 0
ENDMDL
MODEL 2
REMARK VINA RESULT:    -3.637      1.668      3.429
REMARK INTER + INTRA:          -4.277
REMARK INTER:                  -4.594
REMARK INTRA:                   0.318
REMARK UNBOUND:                 0.849
REMARK SMILES CC1=CCC(=C(C)C)C(=O)CC(C)=CCC1
REMARK SMILES IDX 12 1 14 2 13 3 15 4 16 5 2 6 1 7 3 8 11 10 9 11 10 12 5 13
REMARK SMILES IDX 6 14 7 15 8 16 4 17
REMARK H PARENT
REMARK Flexibility Score: 60.00
ROOT
ATOM      1  C   UNL     1     -11.776   3.911 -17.614  1.00  0.00    -0.070 C 
ATOM      2  C   UNL     1     -10.817   4.563 -18.316  1.00  0.00    -0.027 C 
ATOM      3  C   UNL     1     -12.036   4.358 -16.197  1.00  0.00     0.039 C 
ENDROOT
BRANCH   2   4
ATOM      4  C   UNL     1     -10.439   4.268 -19.746  1.00  0.00     0.032 C 
BRANCH   4   5
ATOM      5  C   UNL     1      -8.965   3.842 -19.852  1.00  0.00     0.034 C 
BRANCH   5   6
ATOM      6  C   UNL     1      -8.587   2.740 -18.881  1.00  0.00    -0.077 C 
ATOM      7  C   UNL     1      -7.630   3.063 -17.760  1.00  0.00     0.039 C 
ATOM      8  C   UNL     1      -8.993   1.451 -19.006  1.00  0.00    -0.023 CG0
ATOM      9  G   UNL     1     -10.023   0.914 -19.977  1.00  0.00     0.000 G0
ENDBRANCH   5   6
ENDBRANCH   4   5
ENDBRANCH   2   4
BRANCH   1  10
ATOM     10  C   UNL     1     -12.586   2.754 -18.180  1.00  0.00     0.111 C 
BRANCH  10  11
ATOM     11  C   UNL     1     -11.816   1.455 -18.121  1.00  0.00     0.163 C 
ATOM     12  O   UNL     1     -11.520   1.027 -16.973  1.00  0.00    -0.294 OA
BRANCH  11  13
ATOM     13  C   UNL     1     -11.413   0.660 -19.336  1.00  0.00    -0.002 C 
ATOM     14  C   UNL     1     -12.259  -0.265 -19.891  1.00  0.00    -0.069 C 
ATOM     15  C   UNL     1     -11.892  -1.018 -21.152  1.00  0.00     0.039 C 
ATOM     16  C   UNL     1     -13.581  -0.630 -19.250  1.00  0.00     0.039 C 
BRANCH  13  17
ATOM     17  C   UNL     1     -10.041   0.901 -19.961  1.00  0.00     0.066 CG0
ATOM     18  G   UNL     1      -9.001   1.446 -19.006  1.00  0.00     0.000 G0
ENDBRANCH  13  17
ENDBRANCH  11  13
ENDBRANCH  10  11
ENDBRANCH   1  10
TORSDOF 0
ENDMDL
MODEL 3
REMARK VINA RESULT:    -3.611      2.052      4.307
REMARK INTER + INTRA:          -4.240
REMARK INTER:                  -4.693
REMARK INTRA:                   0.453
REMARK UNBOUND:                 0.849
REMARK SMILES CC1=CCC(=C(C)C)C(=O)CC(C)=CCC1
REMARK SMILES IDX 12 1 14 2 13 3 15 4 16 5 2 6 1 7 3 8 11 10 9 11 10 12 5 13
REMARK SMILES IDX 6 14 7 15 8 16 4 17
REMARK H PARENT
REMARK Flexibility Score: 60.00
ROOT
ATOM      1  C   UNL     1      -8.846   3.799 -18.666  1.00  0.00    -0.070 C 
ATOM      2  C   UNL     1      -8.270   2.719 -19.248  1.00  0.00    -0.027 C 
ATOM      3  C   UNL     1      -8.480   5.162 -19.197  1.00  0.00     0.039 C 
ENDROOT
BRANCH   2   4
ATOM      4  C   UNL     1      -8.534   1.284 -18.864  1.00  0.00     0.032 C 
BRANCH   4   5
ATOM      5  C   UNL     1      -9.434   0.590 -19.900  1.00  0.00     0.034 C 
BRANCH   5   6
ATOM      6  C   UNL     1     -10.897   0.557 -19.499  1.00  0.00    -0.077 C 
ATOM      7  C   UNL     1     -11.430  -0.679 -18.816  1.00  0.00     0.039 C 
ATOM      8  C   UNL     1     -11.782   1.543 -19.792  1.00  0.00    -0.023 CG0
ATOM      9  G   UNL     1     -11.465   2.905 -20.372  1.00  0.00     0.000 G0
ENDBRANCH   5   6
ENDBRANCH   4   5
ENDBRANCH   2   4
BRANCH   1  10
ATOM     10  C   UNL     1      -9.826   3.701 -17.505  1.00  0.00     0.111 C 
BRANCH  10  11
ATOM     11  C   UNL     1     -11.251   3.900 -17.964  1.00  0.00     0.163 C 
ATOM     12  O   UNL     1     -12.134   3.936 -17.064  1.00  0.00    -0.294 OA
BRANCH  11  13
ATOM     13  C   UNL     1     -11.655   4.073 -19.405  1.00  0.00    -0.002 C 
ATOM     14  C   UNL     1     -12.171   5.259 -19.860  1.00  0.00    -0.069 C 
ATOM     15  C   UNL     1     -12.514   5.466 -21.320  1.00  0.00     0.039 C 
ATOM     16  C   UNL     1     -12.481   6.410 -18.926  1.00  0.00     0.039 C 
BRANCH  13  17
ATOM     17  C   UNL     1     -11.474   2.907 -20.374  1.00  0.00     0.066 CG0
ATOM     18  G   UNL     1     -11.785   1.546 -19.786  1.00  0.00     0.000 G0
ENDBRANCH  13  17
ENDBRANCH  11  13
ENDBRANCH  10  11
ENDBRANCH   1  10
TORSDOF 0
ENDMDL
MODEL 4
REMARK VINA RESULT:    -2.894      2.216      2.750
REMARK INTER + INTRA:          -3.229
REMARK INTER:                  -3.743
REMARK INTRA:                   0.514
REMARK UNBOUND:                 0.849
REMARK SMILES CC1=CCC(=C(C)C)C(=O)CC(C)=CCC1
REMARK SMILES IDX 12 1 14 2 13 3 15 4 16 5 2 6 1 7 3 8 11 10 9 11 10 12 5 13
REMARK SMILES IDX 6 14 7 15 8 16 4 17
REMARK H PARENT
REMARK Flexibility Score: 60.00
ROOT
ATOM      1  C   UNL     1      -8.762   3.049 -18.110  1.00  0.00    -0.070 C 
ATOM      2  C   UNL     1      -8.740   4.041 -19.033  1.00  0.00    -0.027 C 
ATOM      3  C   UNL     1      -7.631   2.051 -18.124  1.00  0.00     0.039 C 
ENDROOT
BRANCH   2   4
ATOM      4  C   UNL     1      -9.771   5.136 -19.153  1.00  0.00     0.032 C 
BRANCH   4   5
ATOM      5  C   UNL     1     -10.287   5.254 -20.597  1.00  0.00     0.034 C 
BRANCH   5   6
ATOM      6  C   UNL     1     -11.733   4.824 -20.755  1.00  0.00    -0.077 C 
ATOM      7  C   UNL     1     -12.768   5.876 -21.070  1.00  0.00     0.039 C 
ATOM      8  C   UNL     1     -12.170   3.556 -20.549  1.00  0.00    -0.023 CG0
ATOM      9  G   UNL     1     -11.316   2.326 -20.328  1.00  0.00     0.000 G0
ENDBRANCH   5   6
ENDBRANCH   4   5
ENDBRANCH   2   4
BRANCH   1  10
ATOM     10  C   UNL     1      -9.869   2.891 -17.078  1.00  0.00     0.111 C 
BRANCH  10  11
ATOM     11  C   UNL     1     -11.207   2.641 -17.734  1.00  0.00     0.163 C 
ATOM     12  O   UNL     1     -12.197   3.255 -17.249  1.00  0.00    -0.294 OA
BRANCH  11  13
ATOM     13  C   UNL     1     -11.407   1.732 -18.919  1.00  0.00    -0.002 C 
ATOM     14  C   UNL     1     -11.673   0.397 -18.753  1.00  0.00    -0.069 C 
ATOM     15  C   UNL     1     -11.946  -0.510 -19.934  1.00  0.00     0.039 C 
ATOM     16  C   UNL     1     -11.656  -0.260 -17.390  1.00  0.00     0.039 C 
BRANCH  13  17
ATOM     17  C   UNL     1     -11.321   2.316 -20.327  1.00  0.00     0.066 CG0
ATOM     18  G   UNL     1     -12.165   3.554 -20.548  1.00  0.00     0.000 G0
ENDBRANCH  13  17
ENDBRANCH  11  13
ENDBRANCH  10  11
ENDBRANCH   1  10
TORSDOF 0
ENDMDL
MODEL 5
REMARK VINA RESULT:    -2.579      1.323      3.878
REMARK INTER + INTRA:          -2.786
REMARK INTER:                  -4.444
REMARK INTRA:                   1.659
REMARK UNBOUND:                 0.849
REMARK SMILES CC1=CCC(=C(C)C)C(=O)CC(C)=CCC1
REMARK SMILES IDX 12 1 14 2 13 3 15 4 16 5 2 6 1 7 3 8 11 10 9 11 10 12 5 13
REMARK SMILES IDX 6 14 7 15 8 16 4 17
REMARK H PARENT
REMARK Flexibility Score: 60.00
ROOT
ATOM      1  C   UNL     1     -11.996   0.037 -19.485  1.00  0.00    -0.070 C 
ATOM      2  C   UNL     1     -12.087   0.143 -18.137  1.00  0.00    -0.027 C 
ATOM      3  C   UNL     1     -12.449  -1.253 -20.121  1.00  0.00     0.039 C 
ENDROOT
BRANCH   2   4
ATOM      4  C   UNL     1     -11.703   1.362 -17.335  1.00  0.00     0.032 C 
BRANCH   4   5
ATOM      5  C   UNL     1     -12.501   2.597 -17.787  1.00  0.00     0.034 C 
BRANCH   5   6
ATOM      6  C   UNL     1     -11.810   3.909 -17.471  1.00  0.00    -0.077 C 
ATOM      7  C   UNL     1     -12.142   4.606 -16.175  1.00  0.00     0.039 C 
ATOM      8  C   UNL     1     -10.966   4.542 -18.325  1.00  0.00    -0.023 CG0
ATOM      9  G   UNL     1     -10.409   3.996 -19.622  1.00  0.00     0.000 G0
ENDBRANCH   5   6
ENDBRANCH   4   5
ENDBRANCH   2   4
BRANCH   1  10
ATOM     10  C   UNL     1     -11.453   1.146 -20.376  1.00  0.00     0.111 C 
BRANCH  10  11
ATOM     11  C   UNL     1     -10.007   1.450 -20.064  1.00  0.00     0.163 C 
ATOM     12  O   UNL     1      -9.167   0.553 -20.348  1.00  0.00    -0.294 OA
BRANCH  11  13
ATOM     13  C   UNL     1      -9.530   2.748 -19.465  1.00  0.00    -0.002 C 
ATOM     14  C   UNL     1      -8.338   2.823 -18.791  1.00  0.00    -0.069 C 
ATOM     15  C   UNL     1      -7.817   4.136 -18.246  1.00  0.00     0.039 C 
ATOM     16  C   UNL     1      -7.502   1.595 -18.502  1.00  0.00     0.039 C 
BRANCH  13  17
ATOM     17  C   UNL     1     -10.389   4.000 -19.623  1.00  0.00     0.066 CG0
ATOM     18  G   UNL     1     -10.975   4.529 -18.331  1.00  0.00     0.000 G0
ENDBRANCH  13  17
ENDBRANCH  11  13
ENDBRANCH  10  11
ENDBRANCH   1  10
TORSDOF 0
ENDMDL
MODEL 6
REMARK VINA RESULT:    -2.417      1.840      4.519
REMARK INTER + INTRA:          -2.557
REMARK INTER:                  -2.723
REMARK INTRA:                   0.166
REMARK UNBOUND:                 0.849
REMARK SMILES CC1=CCC(=C(C)C)C(=O)CC(C)=CCC1
REMARK SMILES IDX 12 1 14 2 13 3 15 4 16 5 2 6 1 7 3 8 11 10 9 11 10 12 5 13
REMARK SMILES IDX 6 14 7 15 8 16 4 17
REMARK H PARENT
REMARK Flexibility Score: 60.00
ROOT
ATOM      1  C   UNL     1     -11.065   3.017 -17.136  1.00  0.00    -0.070 C 
ATOM      2  C   UNL     1     -11.405   1.791 -16.671  1.00  0.00    -0.027 C 
ATOM      3  C   UNL     1     -10.029   3.799 -16.367  1.00  0.00     0.039 C 
ENDROOT
BRANCH   2   4
ATOM      4  C   UNL     1     -12.401   0.862 -17.320  1.00  0.00     0.032 C 
BRANCH   4   5
ATOM      5  C   UNL     1     -11.689  -0.260 -18.095  1.00  0.00     0.034 C 
BRANCH   5   6
ATOM      6  C   UNL     1     -11.708  -0.057 -19.598  1.00  0.00    -0.077 C 
ATOM      7  C   UNL     1     -12.897  -0.561 -20.379  1.00  0.00     0.039 C 
ATOM      8  C   UNL     1     -10.678   0.478 -20.300  1.00  0.00    -0.023 CG0
ATOM      9  G   UNL     1      -9.439   1.140 -19.734  1.00  0.00     0.000 G0
ENDBRANCH   5   6
ENDBRANCH   4   5
ENDBRANCH   2   4
BRANCH   1  10
ATOM     10  C   UNL     1     -11.682   3.639 -18.381  1.00  0.00     0.111 C 
BRANCH  10  11
ATOM     11  C   UNL     1     -10.872   3.327 -19.618  1.00  0.00     0.163 C 
ATOM     12  O   UNL     1     -11.375   3.667 -20.723  1.00  0.00    -0.294 OA
BRANCH  11  13
ATOM     13  C   UNL     1      -9.520   2.662 -19.592  1.00  0.00    -0.002 C 
ATOM     14  C   UNL     1      -8.372   3.395 -19.428  1.00  0.00    -0.069 C 
ATOM     15  C   UNL     1      -7.015   2.731 -19.330  1.00  0.00     0.039 C 
ATOM     16  C   UNL     1      -8.385   4.908 -19.390  1.00  0.00     0.039 C 
BRANCH  13  17
ATOM     17  C   UNL     1      -9.433   1.145 -19.742  1.00  0.00     0.066 CG0
ATOM     18  G   UNL     1     -10.680   0.496 -20.304  1.00  0.00     0.000 G0
ENDBRANCH  13  17
ENDBRANCH  11  13
ENDBRANCH  10  11
ENDBRANCH   1  10
TORSDOF 0
ENDMDL
MODEL 7
REMARK VINA RESULT:    -2.344      2.346      4.107
REMARK INTER + INTRA:          -2.454
REMARK INTER:                  -2.871
REMARK INTRA:                   0.417
REMARK UNBOUND:                 0.849
REMARK SMILES CC1=CCC(=C(C)C)C(=O)CC(C)=CCC1
REMARK SMILES IDX 12 1 14 2 13 3 15 4 16 5 2 6 1 7 3 8 11 10 9 11 10 12 5 13
REMARK SMILES IDX 6 14 7 15 8 16 4 17
REMARK H PARENT
REMARK Flexibility Score: 60.00
ROOT
ATOM      1  C   UNL     1     -10.604   1.711 -19.444  1.00  0.00    -0.070 C 
ATOM      2  C   UNL     1     -10.967   1.631 -18.141  1.00  0.00    -0.027 C 
ATOM      3  C   UNL     1      -9.360   0.973 -19.873  1.00  0.00     0.039 C 
ENDROOT
BRANCH   2   4
ATOM      4  C   UNL     1     -12.188   2.283 -17.540  1.00  0.00     0.032 C 
BRANCH   4   5
ATOM      5  C   UNL     1     -11.793   3.381 -16.538  1.00  0.00     0.034 C 
BRANCH   5   6
ATOM      6  C   UNL     1     -10.607   4.210 -16.992  1.00  0.00    -0.077 C 
ATOM      7  C   UNL     1      -9.263   3.957 -16.354  1.00  0.00     0.039 C 
ATOM      8  C   UNL     1     -10.695   5.228 -17.885  1.00  0.00    -0.023 CG0
ATOM      9  G   UNL     1     -11.899   5.599 -18.724  1.00  0.00     0.000 G0
ENDBRANCH   5   6
ENDBRANCH   4   5
ENDBRANCH   2   4
BRANCH   1  10
ATOM     10  C   UNL     1     -11.380   2.510 -20.481  1.00  0.00     0.111 C 
BRANCH  10  11
ATOM     11  C   UNL     1     -10.933   3.953 -20.518  1.00  0.00     0.163 C 
ATOM     12  O   UNL     1      -9.743   4.166 -20.877  1.00  0.00    -0.294 OA
BRANCH  11  13
ATOM     13  C   UNL     1     -11.824   5.119 -20.175  1.00  0.00    -0.002 C 
ATOM     14  C   UNL     1     -12.571   5.748 -21.138  1.00  0.00    -0.069 C 
ATOM     15  C   UNL     1     -13.523   6.874 -20.792  1.00  0.00     0.039 C 
ATOM     16  C   UNL     1     -12.451   5.394 -22.605  1.00  0.00     0.039 C 
BRANCH  13  17
ATOM     17  C   UNL     1     -11.899   5.597 -18.727  1.00  0.00     0.066 CG0
ATOM     18  G   UNL     1     -10.691   5.246 -17.885  1.00  0.00     0.000 G0
ENDBRANCH  13  17
ENDBRANCH  11  13
ENDBRANCH  10  11
ENDBRANCH   1  10
TORSDOF 0
ENDMDL
MODEL 8
REMARK VINA RESULT:    -2.251      2.077      4.588
REMARK INTER + INTRA:          -2.324
REMARK INTER:                  -3.483
REMARK INTRA:                   1.159
REMARK UNBOUND:                 0.849
REMARK SMILES CC1=CCC(=C(C)C)C(=O)CC(C)=CCC1
REMARK SMILES IDX 12 1 14 2 13 3 15 4 16 5 2 6 1 7 3 8 11 10 9 11 10 12 5 13
REMARK SMILES IDX 6 14 7 15 8 16 4 17
REMARK H PARENT
REMARK Flexibility Score: 60.00
ROOT
ATOM      1  C   UNL     1     -11.815   0.535 -18.934  1.00  0.00    -0.070 C 
ATOM      2  C   UNL     1     -10.875   0.250 -19.868  1.00  0.00    -0.027 C 
ATOM      3  C   UNL     1     -13.250   0.199 -19.256  1.00  0.00     0.039 C 
ENDROOT
BRANCH   2   4
ATOM      4  C   UNL     1      -9.395   0.495 -19.711  1.00  0.00     0.032 C 
BRANCH   4   5
ATOM      5  C   UNL     1      -9.092   1.998 -19.590  1.00  0.00     0.034 C 
BRANCH   5   6
ATOM      6  C   UNL     1      -8.090   2.323 -18.499  1.00  0.00    -0.077 C 
ATOM      7  C   UNL     1      -6.755   1.620 -18.511  1.00  0.00     0.039 C 
ATOM      8  C   UNL     1      -8.352   3.152 -17.456  1.00  0.00    -0.023 CG0
ATOM      9  G   UNL     1      -9.567   4.039 -17.284  1.00  0.00     0.000 G0
ENDBRANCH   5   6
ENDBRANCH   4   5
ENDBRANCH   2   4
BRANCH   1  10
ATOM     10  C   UNL     1     -11.493   1.182 -17.595  1.00  0.00     0.111 C 
BRANCH  10  11
ATOM     11  C   UNL     1     -11.761   2.669 -17.617  1.00  0.00     0.163 C 
ATOM     12  O   UNL     1     -12.875   3.049 -17.165  1.00  0.00    -0.294 OA
BRANCH  11  13
ATOM     13  C   UNL     1     -10.778   3.693 -18.123  1.00  0.00    -0.002 C 
ATOM     14  C   UNL     1     -10.958   4.313 -19.333  1.00  0.00    -0.069 C 
ATOM     15  C   UNL     1     -10.016   5.394 -19.818  1.00  0.00     0.039 C 
ATOM     16  C   UNL     1     -12.073   3.918 -20.278  1.00  0.00     0.039 C 
BRANCH  13  17
ATOM     17  C   UNL     1      -9.567   4.050 -17.264  1.00  0.00     0.066 CG0
ATOM     18  G   UNL     1      -8.364   3.155 -17.469  1.00  0.00     0.000 G0
ENDBRANCH  13  17
ENDBRANCH  11  13
ENDBRANCH  10  11
ENDBRANCH   1  10
TORSDOF 0
ENDMDL
MODEL 9
REMARK VINA RESULT:    -2.211      1.781      3.913
REMARK INTER + INTRA:          -2.267
REMARK INTER:                  -3.135
REMARK INTRA:                   0.868
REMARK UNBOUND:                 0.849
REMARK SMILES CC1=CCC(=C(C)C)C(=O)CC(C)=CCC1
REMARK SMILES IDX 12 1 14 2 13 3 15 4 16 5 2 6 1 7 3 8 11 10 9 11 10 12 5 13
REMARK SMILES IDX 6 14 7 15 8 16 4 17
REMARK H PARENT
REMARK Flexibility Score: 60.00
ROOT
ATOM      1  C   UNL     1      -8.299   1.450 -18.964  1.00  0.00    -0.070 C 
ATOM      2  C   UNL     1      -9.331   0.949 -19.685  1.00  0.00    -0.027 C 
ATOM      3  C   UNL     1      -7.245   0.485 -18.482  1.00  0.00     0.039 C 
ENDROOT
BRANCH   2   4
ATOM      4  C   UNL     1     -10.460   1.765 -20.265  1.00  0.00     0.032 C 
BRANCH   4   5
ATOM      5  C   UNL     1     -11.810   1.358 -19.650  1.00  0.00     0.034 C 
BRANCH   5   6
ATOM      6  C   UNL     1     -11.697   0.884 -18.214  1.00  0.00    -0.077 C 
ATOM      7  C   UNL     1     -11.613  -0.599 -17.948  1.00  0.00     0.039 C 
ATOM      8  C   UNL     1     -11.751   1.712 -17.139  1.00  0.00    -0.023 CG0
ATOM      9  G   UNL     1     -11.731   3.225 -17.157  1.00  0.00     0.000 G0
ENDBRANCH   5   6
ENDBRANCH   4   5
ENDBRANCH   2   4
BRANCH   1  10
ATOM     10  C   UNL     1      -8.162   2.924 -18.612  1.00  0.00     0.111 C 
BRANCH  10  11
ATOM     11  C   UNL     1      -9.156   3.337 -17.552  1.00  0.00     0.163 C 
ATOM     12  O   UNL     1      -8.772   3.250 -16.353  1.00  0.00    -0.294 OA
BRANCH  11  13
ATOM     13  C   UNL     1     -10.540   3.852 -17.851  1.00  0.00    -0.002 C 
ATOM     14  C   UNL     1     -10.742   4.859 -18.760  1.00  0.00    -0.069 C 
ATOM     15  C   UNL     1     -12.133   5.335 -19.120  1.00  0.00     0.039 C 
ATOM     16  C   UNL     1      -9.589   5.591 -19.414  1.00  0.00     0.039 C 
BRANCH  13  17
ATOM     17  C   UNL     1     -11.737   3.230 -17.134  1.00  0.00     0.066 CG0
ATOM     18  G   UNL     1     -11.752   1.717 -17.132  1.00  0.00     0.000 G0
ENDBRANCH  13  17
ENDBRANCH  11  13
ENDBRANCH  10  11
ENDBRANCH   1  10
TORSDOF 0
ENDMDL
