MODEL 1
REMARK VINA RESULT:    -3.688      0.000      0.000
REMARK INTER + INTRA:          -6.048
REMARK INTER:                  -5.413
REMARK INTRA:                  -0.634
REMARK UNBOUND:                -0.634
REMARK SMILES O=C([O-])CCCCCCCC(=O)[O-]
REMARK SMILES IDX 7 1 6 2 5 3 4 4 2 5 1 6 3 7 8 8 9 9 10 10 11 11 12 12 13 13
REMARK H PARENT
REMARK Flexibility Score: inf
ROOT
ATOM      1  C   UNL     1       2.881  14.524  12.288  1.00  0.00     0.000 C 
ENDROOT
BRANCH   1   2
ATOM      2  C   UNL     1       4.398  14.650  12.514  1.00  0.00     0.000 C 
BRANCH   2   3
ATOM      3  C   UNL     1       5.283  14.137  11.362  1.00  0.00     0.006 C 
BRANCH   3   4
ATOM      4  C   UNL     1       5.851  12.723  11.586  1.00  0.00     0.053 C 
BRANCH   4   5
ATOM      5  C   UNL     1       5.113  11.674  10.810  1.00  0.00     0.041 C 
ATOM      6  O   UNL     1       3.943  11.343  11.142  1.00  0.00    -0.550 OA
ATOM      7  O   UNL     1       5.700  11.091   9.694  1.00  0.00    -0.550 OA
ENDBRANCH   4   5
ENDBRANCH   3   4
ENDBRANCH   2   3
ENDBRANCH   1   2
BRANCH   1   8
ATOM      8  C   UNL     1       2.419  15.144  10.958  1.00  0.00     0.000 C 
BRANCH   8   9
ATOM      9  C   UNL     1       1.877  14.093   9.976  1.00  0.00     0.006 C 
BRANCH   9  10
ATOM     10  C   UNL     1       1.736  14.634   8.547  1.00  0.00     0.053 C 
BRANCH  10  11
ATOM     11  C   UNL     1       2.563  13.824   7.599  1.00  0.00     0.041 C 
ATOM     12  O   UNL     1       2.104  13.507   6.469  1.00  0.00    -0.550 OA
ATOM     13  O   UNL     1       3.820  13.375   7.981  1.00  0.00    -0.550 OA
ENDBRANCH  10  11
ENDBRANCH   9  10
ENDBRANCH   8   9
ENDBRANCH   1   8
TORSDOF 8
ENDMDL
MODEL 2
REMARK VINA RESULT:    -3.590      1.002      4.534
REMARK INTER + INTRA:          -5.904
REMARK INTER:                  -5.307
REMARK INTRA:                  -0.597
REMARK UNBOUND:                -0.634
REMARK SMILES O=C([O-])CCCCCCCC(=O)[O-]
REMARK SMILES IDX 7 1 6 2 5 3 4 4 2 5 1 6 3 7 8 8 9 9 10 10 11 11 12 12 13 13
REMARK H PARENT
REMARK Flexibility Score: inf
ROOT
ATOM      1  C   UNL     1       2.529  14.393  11.348  1.00  0.00     0.000 C 
ENDROOT
BRANCH   1   2
ATOM      2  C   UNL     1       1.903  15.571  10.582  1.00  0.00     0.000 C 
BRANCH   2   3
ATOM      3  C   UNL     1       1.601  15.307   9.094  1.00  0.00     0.006 C 
BRANCH   3   4
ATOM      4  C   UNL     1       1.664  13.821   8.693  1.00  0.00     0.053 C 
BRANCH   4   5
ATOM      5  C   UNL     1       2.499  13.588   7.470  1.00  0.00     0.041 C 
ATOM      6  O   UNL     1       3.723  13.307   7.579  1.00  0.00    -0.550 OA
ATOM      7  O   UNL     1       1.918  13.638   6.209  1.00  0.00    -0.550 OA
ENDBRANCH   4   5
ENDBRANCH   3   4
ENDBRANCH   2   3
ENDBRANCH   1   2
BRANCH   1   8
ATOM      8  C   UNL     1       3.732  14.810  12.211  1.00  0.00     0.000 C 
BRANCH   8   9
ATOM      9  C   UNL     1       5.062  14.252  11.678  1.00  0.00     0.006 C 
BRANCH   9  10
ATOM     10  C   UNL     1       4.880  12.968  10.858  1.00  0.00     0.053 C 
BRANCH  10  11
ATOM     11  C   UNL     1       5.459  11.797  11.588  1.00  0.00     0.041 C 
ATOM     12  O   UNL     1       5.180  11.605  12.801  1.00  0.00    -0.550 OA
ATOM     13  O   UNL     1       6.347  10.946  10.943  1.00  0.00    -0.550 OA
ENDBRANCH  10  11
ENDBRANCH   9  10
ENDBRANCH   8   9
ENDBRANCH   1   8
TORSDOF 8
ENDMDL
MODEL 3
REMARK VINA RESULT:    -3.563      1.737      2.263
REMARK INTER + INTRA:          -5.864
REMARK INTER:                  -5.007
REMARK INTRA:                  -0.857
REMARK UNBOUND:                -0.634
REMARK SMILES O=C([O-])CCCCCCCC(=O)[O-]
REMARK SMILES IDX 7 1 6 2 5 3 4 4 2 5 1 6 3 7 8 8 9 9 10 10 11 11 12 12 13 13
REMARK H PARENT
REMARK Flexibility Score: inf
ROOT
ATOM      1  C   UNL     1       2.211  14.293  11.235  1.00  0.00     0.000 C 
ENDROOT
BRANCH   1   2
ATOM      2  C   UNL     1       3.410  14.880  11.998  1.00  0.00     0.000 C 
BRANCH   2   3
ATOM      3  C   UNL     1       4.550  13.888  12.303  1.00  0.00     0.006 C 
BRANCH   3   4
ATOM      4  C   UNL     1       5.692  13.904  11.268  1.00  0.00     0.053 C 
BRANCH   4   5
ATOM      5  C   UNL     1       6.607  12.723  11.399  1.00  0.00     0.041 C 
ATOM      6  O   UNL     1       6.187  11.647  11.903  1.00  0.00    -0.550 OA
ATOM      7  O   UNL     1       7.911  12.796  10.928  1.00  0.00    -0.550 OA
ENDBRANCH   4   5
ENDBRANCH   3   4
ENDBRANCH   2   3
ENDBRANCH   1   2
BRANCH   1   8
ATOM      8  C   UNL     1       2.226  14.638   9.736  1.00  0.00     0.000 C 
BRANCH   8   9
ATOM      9  C   UNL     1       2.131  13.390   8.843  1.00  0.00     0.006 C 
BRANCH   9  10
ATOM     10  C   UNL     1       3.472  13.019   8.198  1.00  0.00     0.053 C 
BRANCH  10  11
ATOM     11  C   UNL     1       4.031  11.784   8.832  1.00  0.00     0.041 C 
ATOM     12  O   UNL     1       3.449  11.258   9.818  1.00  0.00    -0.550 OA
ATOM     13  O   UNL     1       5.222  11.241   8.367  1.00  0.00    -0.550 OA
ENDBRANCH  10  11
ENDBRANCH   9  10
ENDBRANCH   8   9
ENDBRANCH   1   8
TORSDOF 8
ENDMDL
MODEL 4
REMARK VINA RESULT:    -3.539      2.375      3.512
REMARK INTER + INTRA:          -5.828
REMARK INTER:                  -5.040
REMARK INTRA:                  -0.788
REMARK UNBOUND:                -0.634
REMARK SMILES O=C([O-])CCCCCCCC(=O)[O-]
REMARK SMILES IDX 7 1 6 2 5 3 4 4 2 5 1 6 3 7 8 8 9 9 10 10 11 11 12 12 13 13
REMARK H PARENT
REMARK Flexibility Score: inf
ROOT
ATOM      1  C   UNL     1       4.569  14.564  12.380  1.00  0.00     0.000 C 
ENDROOT
BRANCH   1   2
ATOM      2  C   UNL     1       5.524  14.021  11.304  1.00  0.00     0.000 C 
BRANCH   2   3
ATOM      3  C   UNL     1       6.513  12.940  11.782  1.00  0.00     0.006 C 
BRANCH   3   4
ATOM      4  C   UNL     1       5.964  12.035  12.902  1.00  0.00     0.053 C 
BRANCH   4   5
ATOM      5  C   UNL     1       6.835  12.035  14.123  1.00  0.00     0.041 C 
ATOM      6  O   UNL     1       8.090  12.052  14.009  1.00  0.00    -0.550 OA
ATOM      7  O   UNL     1       6.261  12.058  15.387  1.00  0.00    -0.550 OA
ENDBRANCH   4   5
ENDBRANCH   3   4
ENDBRANCH   2   3
ENDBRANCH   1   2
BRANCH   1   8
ATOM      8  C   UNL     1       3.090  14.487  11.964  1.00  0.00     0.000 C 
BRANCH   8   9
ATOM      9  C   UNL     1       2.901  13.873  10.568  1.00  0.00     0.006 C 
BRANCH   9  10
ATOM     10  C   UNL     1       2.019  12.618  10.586  1.00  0.00     0.053 C 
BRANCH  10  11
ATOM     11  C   UNL     1       2.844  11.404  10.878  1.00  0.00     0.041 C 
ATOM     12  O   UNL     1       2.586  10.690  11.883  1.00  0.00    -0.550 OA
ATOM     13  O   UNL     1       3.929  11.090  10.070  1.00  0.00    -0.550 OA
ENDBRANCH  10  11
ENDBRANCH   9  10
ENDBRANCH   8   9
ENDBRANCH   1   8
TORSDOF 8
ENDMDL
MODEL 5
REMARK VINA RESULT:    -3.534      1.424      3.975
REMARK INTER + INTRA:          -5.821
REMARK INTER:                  -5.014
REMARK INTRA:                  -0.808
REMARK UNBOUND:                -0.634
REMARK SMILES O=C([O-])CCCCCCCC(=O)[O-]
REMARK SMILES IDX 7 1 6 2 5 3 4 4 2 5 1 6 3 7 8 8 9 9 10 10 11 11 12 12 13 13
REMARK H PARENT
REMARK Flexibility Score: inf
ROOT
ATOM      1  C   UNL     1       1.672  14.190  10.211  1.00  0.00     0.000 C 
ENDROOT
BRANCH   1   2
ATOM      2  C   UNL     1       1.688  14.685   8.754  1.00  0.00     0.000 C 
BRANCH   2   3
ATOM      3  C   UNL     1       2.355  13.735   7.741  1.00  0.00     0.006 C 
BRANCH   3   4
ATOM      4  C   UNL     1       3.729  13.199   8.189  1.00  0.00     0.053 C 
BRANCH   4   5
ATOM      5  C   UNL     1       3.740  11.709   8.359  1.00  0.00     0.041 C 
ATOM      6  O   UNL     1       4.818  11.065   8.251  1.00  0.00    -0.550 OA
ATOM      7  O   UNL     1       2.568  11.035   8.679  1.00  0.00    -0.550 OA
ENDBRANCH   4   5
ENDBRANCH   3   4
ENDBRANCH   2   3
ENDBRANCH   1   2
BRANCH   1   8
ATOM      8  C   UNL     1       2.550  15.042  11.144  1.00  0.00     0.000 C 
BRANCH   8   9
ATOM      9  C   UNL     1       3.276  14.197  12.203  1.00  0.00     0.006 C 
BRANCH   9  10
ATOM     10  C   UNL     1       4.699  13.810  11.780  1.00  0.00     0.053 C 
BRANCH  10  11
ATOM     11  C   UNL     1       4.836  12.322  11.708  1.00  0.00     0.041 C 
ATOM     12  O   UNL     1       5.914  11.803  11.315  1.00  0.00    -0.550 OA
ATOM     13  O   UNL     1       3.757  11.508  12.026  1.00  0.00    -0.550 OA
ENDBRANCH  10  11
ENDBRANCH   9  10
ENDBRANCH   8   9
ENDBRANCH   1   8
TORSDOF 8
ENDMDL
MODEL 6
REMARK VINA RESULT:    -3.468      1.379      4.595
REMARK INTER + INTRA:          -5.725
REMARK INTER:                  -5.146
REMARK INTRA:                  -0.579
REMARK UNBOUND:                -0.634
REMARK SMILES O=C([O-])CCCCCCCC(=O)[O-]
REMARK SMILES IDX 7 1 6 2 5 3 4 4 2 5 1 6 3 7 8 8 9 9 10 10 11 11 12 12 13 13
REMARK H PARENT
REMARK Flexibility Score: inf
ROOT
ATOM      1  C   UNL     1       3.404  14.671  12.041  1.00  0.00     0.000 C 
ENDROOT
BRANCH   1   2
ATOM      2  C   UNL     1       2.404  13.504  12.107  1.00  0.00     0.000 C 
BRANCH   2   3
ATOM      3  C   UNL     1       1.476  13.358  10.886  1.00  0.00     0.006 C 
BRANCH   3   4
ATOM      4  C   UNL     1       2.219  13.179   9.548  1.00  0.00     0.053 C 
BRANCH   4   5
ATOM      5  C   UNL     1       1.928  14.280   8.573  1.00  0.00     0.041 C 
ATOM      6  O   UNL     1       1.173  15.235   8.900  1.00  0.00    -0.550 OA
ATOM      7  O   UNL     1       2.523  14.276   7.318  1.00  0.00    -0.550 OA
ENDBRANCH   4   5
ENDBRANCH   3   4
ENDBRANCH   2   3
ENDBRANCH   1   2
BRANCH   1   8
ATOM      8  C   UNL     1       4.855  14.234  12.305  1.00  0.00     0.000 C 
BRANCH   8   9
ATOM      9  C   UNL     1       5.596  13.840  11.018  1.00  0.00     0.006 C 
BRANCH   9  10
ATOM     10  C   UNL     1       6.749  12.862  11.272  1.00  0.00     0.053 C 
BRANCH  10  11
ATOM     11  C   UNL     1       6.303  11.454  11.030  1.00  0.00     0.041 C 
ATOM     12  O   UNL     1       7.077  10.492  11.280  1.00  0.00    -0.550 OA
ATOM     13  O   UNL     1       5.052  11.206  10.481  1.00  0.00    -0.550 OA
ENDBRANCH  10  11
ENDBRANCH   9  10
ENDBRANCH   8   9
ENDBRANCH   1   8
TORSDOF 8
ENDMDL
MODEL 7
REMARK VINA RESULT:    -3.458      1.524      4.024
REMARK INTER + INTRA:          -5.710
REMARK INTER:                  -4.866
REMARK INTRA:                  -0.844
REMARK UNBOUND:                -0.634
REMARK SMILES O=C([O-])CCCCCCCC(=O)[O-]
REMARK SMILES IDX 7 1 6 2 5 3 4 4 2 5 1 6 3 7 8 8 9 9 10 10 11 11 12 12 13 13
REMARK H PARENT
REMARK Flexibility Score: inf
ROOT
ATOM      1  C   UNL     1       2.287  15.158  10.875  1.00  0.00     0.000 C 
ENDROOT
BRANCH   1   2
ATOM      2  C   UNL     1       1.639  14.514   9.637  1.00  0.00     0.000 C 
BRANCH   2   3
ATOM      3  C   UNL     1       2.623  13.922   8.609  1.00  0.00     0.006 C 
BRANCH   3   4
ATOM      4  C   UNL     1       2.456  12.408   8.377  1.00  0.00     0.053 C 
BRANCH   4   5
ATOM      5  C   UNL     1       3.595  11.609   8.935  1.00  0.00     0.041 C 
ATOM      6  O   UNL     1       3.499  11.072  10.070  1.00  0.00    -0.550 OA
ATOM      7  O   UNL     1       4.749  11.423   8.184  1.00  0.00    -0.550 OA
ENDBRANCH   4   5
ENDBRANCH   3   4
ENDBRANCH   2   3
ENDBRANCH   1   2
BRANCH   1   8
ATOM      8  C   UNL     1       2.959  14.131  11.803  1.00  0.00     0.000 C 
BRANCH   8   9
ATOM      9  C   UNL     1       4.403  14.518  12.161  1.00  0.00     0.006 C 
BRANCH   9  10
ATOM     10  C   UNL     1       5.427  13.995  11.145  1.00  0.00     0.053 C 
BRANCH  10  11
ATOM     11  C   UNL     1       6.175  12.829  11.711  1.00  0.00     0.041 C 
ATOM     12  O   UNL     1       6.328  12.719  12.957  1.00  0.00    -0.550 OA
ATOM     13  O   UNL     1       6.748  11.892  10.862  1.00  0.00    -0.550 OA
ENDBRANCH  10  11
ENDBRANCH   9  10
ENDBRANCH   8   9
ENDBRANCH   1   8
TORSDOF 8
ENDMDL
MODEL 8
REMARK VINA RESULT:    -3.442      2.504      4.778
REMARK INTER + INTRA:          -5.686
REMARK INTER:                  -5.004
REMARK INTRA:                  -0.682
REMARK UNBOUND:                -0.634
REMARK SMILES O=C([O-])CCCCCCCC(=O)[O-]
REMARK SMILES IDX 7 1 6 2 5 3 4 4 2 5 1 6 3 7 8 8 9 9 10 10 11 11 12 12 13 13
REMARK H PARENT
REMARK Flexibility Score: inf
ROOT
ATOM      1  C   UNL     1       7.270  11.819  12.194  1.00  0.00     0.000 C 
ENDROOT
BRANCH   1   2
ATOM      2  C   UNL     1       6.078  12.778  12.353  1.00  0.00     0.000 C 
BRANCH   2   3
ATOM      3  C   UNL     1       5.872  13.775  11.197  1.00  0.00     0.006 C 
BRANCH   3   4
ATOM      4  C   UNL     1       4.573  13.555  10.398  1.00  0.00     0.053 C 
BRANCH   4   5
ATOM      5  C   UNL     1       3.342  13.777  11.225  1.00  0.00     0.041 C 
ATOM      6  O   UNL     1       2.523  12.838  11.411  1.00  0.00    -0.550 OA
ATOM      7  O   UNL     1       3.119  15.010  11.825  1.00  0.00    -0.550 OA
ENDBRANCH   4   5
ENDBRANCH   3   4
ENDBRANCH   2   3
ENDBRANCH   1   2
BRANCH   1   8
ATOM      8  C   UNL     1       8.296  12.305  11.156  1.00  0.00     0.000 C 
BRANCH   8   9
ATOM      9  C   UNL     1       8.493  11.301  10.009  1.00  0.00     0.006 C 
BRANCH   9  10
ATOM     10  C   UNL     1       7.383  10.245   9.946  1.00  0.00     0.053 C 
BRANCH  10  11
ATOM     11  C   UNL     1       6.566  10.420   8.705  1.00  0.00     0.041 C 
ATOM     12  O   UNL     1       5.308  10.463   8.774  1.00  0.00    -0.550 OA
ATOM     13  O   UNL     1       7.189  10.485   7.465  1.00  0.00    -0.550 OA
ENDBRANCH  10  11
ENDBRANCH   9  10
ENDBRANCH   8   9
ENDBRANCH   1   8
TORSDOF 8
ENDMDL
MODEL 9
REMARK VINA RESULT:    -3.421      2.708      4.484
REMARK INTER + INTRA:          -5.656
REMARK INTER:                  -5.015
REMARK INTRA:                  -0.641
REMARK UNBOUND:                -0.634
REMARK SMILES O=C([O-])CCCCCCCC(=O)[O-]
REMARK SMILES IDX 7 1 6 2 5 3 4 4 2 5 1 6 3 7 8 8 9 9 10 10 11 11 12 12 13 13
REMARK H PARENT
REMARK Flexibility Score: inf
ROOT
ATOM      1  C   UNL     1       8.204  11.997  13.080  1.00  0.00     0.000 C 
ENDROOT
BRANCH   1   2
ATOM      2  C   UNL     1       9.305  11.885  12.011  1.00  0.00     0.000 C 
BRANCH   2   3
ATOM      3  C   UNL     1       9.353  10.546  11.249  1.00  0.00     0.006 C 
BRANCH   3   4
ATOM      4  C   UNL     1       9.312  10.692   9.716  1.00  0.00     0.053 C 
BRANCH   4   5
ATOM      5  C   UNL     1       7.993  10.282   9.132  1.00  0.00     0.041 C 
ATOM      6  O   UNL     1       7.124   9.724   9.854  1.00  0.00    -0.550 OA
ATOM      7  O   UNL     1       7.706  10.553   7.800  1.00  0.00    -0.550 OA
ENDBRANCH   4   5
ENDBRANCH   3   4
ENDBRANCH   2   3
ENDBRANCH   1   2
BRANCH   1   8
ATOM      8  C   UNL     1       6.793  12.108  12.478  1.00  0.00     0.000 C 
BRANCH   8   9
ATOM      9  C   UNL     1       6.736  13.073  11.283  1.00  0.00     0.006 C 
BRANCH   9  10
ATOM     10  C   UNL     1       5.447  13.904  11.253  1.00  0.00     0.053 C 
BRANCH  10  11
ATOM     11  C   UNL     1       4.475  13.323  10.274  1.00  0.00     0.041 C 
ATOM     12  O   UNL     1       3.346  13.856  10.110  1.00  0.00    -0.550 OA
ATOM     13  O   UNL     1       4.796  12.163   9.580  1.00  0.00    -0.550 OA
ENDBRANCH  10  11
ENDBRANCH   9  10
ENDBRANCH   8   9
ENDBRANCH   1   8
TORSDOF 8
ENDMDL
