MODEL 1
REMARK VINA RESULT:    -5.962      0.000      0.000
REMARK INTER + INTRA:          -8.077
REMARK INTER:                  -7.530
REMARK INTRA:                  -0.547
REMARK UNBOUND:                -0.547
REMARK SMILES CC(C)[C@@H](C)C=C[C@@H](C)[C@H]1CC[C@@H]2C3=CC=C4C[C@H](O)CC[C@@]4(C)[C@@H]3CC[C@]21C
REMARK SMILES IDX 8 1 9 2 7 3 6 4 4 5 5 6 2 7 1 8 3 9 10 10 11 11 28 12 12 13
REMARK SMILES IDX 13 14 27 15 29 16 14 17 26 18 25 19 15 20 23 21 16 22 17 23
REMARK SMILES IDX 22 24 24 25 18 26 21 27 19 28 20 29
REMARK H PARENT 20 30
REMARK Flexibility Score: inf
ROOT
ATOM      1  C   UNL     1       5.276  -1.160  -2.673  1.00  0.00     0.012 C 
ATOM      2  C   UNL     1       6.257  -0.657  -3.747  1.00  0.00     0.012 C 
ENDROOT
BRANCH   1   3
ATOM      3  C   UNL     1       5.413  -0.370  -1.378  1.00  0.00    -0.028 C 
ATOM      4  C   UNL     1       5.887   0.885  -1.301  1.00  0.00    -0.028 C 
BRANCH   4   5
ATOM      5  C   UNL     1       5.971   1.613   0.026  1.00  0.00     0.011 C 
ATOM      6  C   UNL     1       5.276   2.983  -0.082  1.00  0.00     0.012 C 
BRANCH   5   7
ATOM      7  C   UNL     1       7.445   1.701   0.527  1.00  0.00    -0.011 C 
ATOM      8  C   UNL     1       7.521   2.162   1.990  1.00  0.00     0.008 C 
ATOM      9  C   UNL     1       8.343   2.588  -0.354  1.00  0.00     0.008 C 
ENDBRANCH   5   7
ENDBRANCH   4   5
ENDBRANCH   1   3
BRANCH   1  10
ATOM     10  C   UNL     1       5.312  -2.722  -2.529  1.00  0.00     0.002 C 
ATOM     11  C   UNL     1       4.843  -3.253  -1.144  1.00  0.00     0.005 C 
ATOM     12  C   UNL     1       4.467  -3.550  -3.548  1.00  0.00    -0.023 C 
ATOM     13  C   UNL     1       3.515  -4.004  -1.353  1.00  0.00     0.009 C 
ATOM     14  C   UNL     1       3.140  -3.711  -2.802  1.00  0.00     0.021 C 
ATOM     15  C   UNL     1       4.176  -2.921  -4.945  1.00  0.00     0.008 C 
ATOM     16  C   UNL     1       5.196  -4.916  -3.764  1.00  0.00     0.012 C 
ATOM     17  C   UNL     1       2.203  -4.588  -3.594  1.00  0.00    -0.063 C 
ATOM     18  C   UNL     1       3.110  -3.729  -5.745  1.00  0.00     0.009 C 
ATOM     19  C   UNL     1       1.803  -3.984  -4.928  1.00  0.00     0.025 C 
ATOM     20  C   UNL     1       2.085  -5.904  -3.376  1.00  0.00    -0.000 C 
ATOM     21  C   UNL     1       0.666  -4.803  -5.668  1.00  0.00    -0.005 C 
ATOM     22  C   UNL     1       1.410  -6.781  -4.336  1.00  0.00    -0.000 C 
ATOM     23  C   UNL     1       0.782  -6.306  -5.424  1.00  0.00    -0.061 C 
ATOM     24  C   UNL     1      -0.722  -4.396  -5.084  1.00  0.00     0.014 C 
ATOM     25  C   UNL     1       0.690  -4.488  -7.189  1.00  0.00     0.017 C 
ATOM     26  C   UNL     1      -0.273  -7.178  -6.057  1.00  0.00     0.063 C 
ATOM     27  C   UNL     1      -1.898  -5.258  -5.609  1.00  0.00     0.033 C 
ATOM     28  C   UNL     1      -1.641  -6.776  -5.475  1.00  0.00     0.118 C 
BRANCH  28  29
ATOM     29  O   UNL     1      -2.665  -7.475  -6.133  1.00  0.00    -0.393 OA
ATOM     30  H   UNL     1      -3.521  -7.070  -5.837  1.00  0.00     0.210 HD
ENDBRANCH  28  29
ENDBRANCH   1  10
TORSDOF 5
ENDMDL
MODEL 2
REMARK VINA RESULT:    -5.623      2.902      6.121
REMARK INTER + INTRA:          -7.649
REMARK INTER:                  -5.880
REMARK INTRA:                  -1.770
REMARK UNBOUND:                -0.547
REMARK SMILES CC(C)[C@@H](C)C=C[C@@H](C)[C@H]1CC[C@@H]2C3=CC=C4C[C@H](O)CC[C@@]4(C)[C@@H]3CC[C@]21C
REMARK SMILES IDX 8 1 9 2 7 3 6 4 4 5 5 6 2 7 1 8 3 9 10 10 11 11 28 12 12 13
REMARK SMILES IDX 13 14 27 15 29 16 14 17 26 18 25 19 15 20 23 21 16 22 17 23
REMARK SMILES IDX 22 24 24 25 18 26 21 27 19 28 20 29
REMARK H PARENT 20 30
REMARK Flexibility Score: inf
ROOT
ATOM      1  C   UNL     1       8.517   3.379  -2.020  1.00  0.00     0.012 C 
ATOM      2  C   UNL     1       9.726   4.221  -1.573  1.00  0.00     0.012 C 
ENDROOT
BRANCH   1   3
ATOM      3  C   UNL     1       7.523   4.209  -2.821  1.00  0.00    -0.028 C 
ATOM      4  C   UNL     1       6.889   3.778  -3.925  1.00  0.00    -0.028 C 
BRANCH   4   5
ATOM      5  C   UNL     1       5.895   4.658  -4.654  1.00  0.00     0.011 C 
ATOM      6  C   UNL     1       5.561   5.894  -3.798  1.00  0.00     0.012 C 
BRANCH   5   7
ATOM      7  C   UNL     1       4.637   3.846  -5.090  1.00  0.00    -0.011 C 
ATOM      8  C   UNL     1       3.344   4.453  -4.524  1.00  0.00     0.008 C 
ATOM      9  C   UNL     1       4.717   2.350  -4.738  1.00  0.00     0.008 C 
ENDBRANCH   5   7
ENDBRANCH   4   5
ENDBRANCH   1   3
BRANCH   1  10
ATOM     10  C   UNL     1       7.913   2.544  -0.836  1.00  0.00     0.002 C 
ATOM     11  C   UNL     1       6.563   3.089  -0.286  1.00  0.00     0.005 C 
ATOM     12  C   UNL     1       7.619   1.035  -1.108  1.00  0.00    -0.023 C 
ATOM     13  C   UNL     1       5.465   2.070  -0.640  1.00  0.00     0.009 C 
ATOM     14  C   UNL     1       6.159   1.073  -1.564  1.00  0.00     0.021 C 
ATOM     15  C   UNL     1       8.460   0.306  -2.201  1.00  0.00     0.008 C 
ATOM     16  C   UNL     1       7.799   0.270   0.244  1.00  0.00     0.012 C 
ATOM     17  C   UNL     1       5.646  -0.329  -1.781  1.00  0.00    -0.063 C 
ATOM     18  C   UNL     1       7.883  -1.099  -2.550  1.00  0.00     0.009 C 
ATOM     19  C   UNL     1       6.362  -1.059  -2.903  1.00  0.00     0.025 C 
ATOM     20  C   UNL     1       4.972  -1.007  -0.843  1.00  0.00    -0.000 C 
ATOM     21  C   UNL     1       5.693  -2.449  -3.267  1.00  0.00    -0.005 C 
ATOM     22  C   UNL     1       4.749  -2.451  -0.955  1.00  0.00    -0.000 C 
ATOM     23  C   UNL     1       5.108  -3.150  -2.044  1.00  0.00    -0.061 C 
ATOM     24  C   UNL     1       4.483  -2.203  -4.220  1.00  0.00     0.014 C 
ATOM     25  C   UNL     1       6.726  -3.362  -3.985  1.00  0.00     0.017 C 
ATOM     26  C   UNL     1       4.418  -4.469  -2.285  1.00  0.00     0.063 C 
ATOM     27  C   UNL     1       3.644  -3.473  -4.507  1.00  0.00     0.033 C 
ATOM     28  C   UNL     1       3.221  -4.220  -3.222  1.00  0.00     0.118 C 
BRANCH  28  29
ATOM     29  O   UNL     1       2.628  -5.442  -3.575  1.00  0.00    -0.393 OA
ATOM     30  H   UNL     1       2.782  -5.562  -4.549  1.00  0.00     0.210 HD
ENDBRANCH  28  29
ENDBRANCH   1  10
TORSDOF 5
ENDMDL
MODEL 3
REMARK VINA RESULT:    -5.577      4.039      5.634
REMARK INTER + INTRA:          -7.592
REMARK INTER:                  -5.863
REMARK INTRA:                  -1.728
REMARK UNBOUND:                -0.547
REMARK SMILES CC(C)[C@@H](C)C=C[C@@H](C)[C@H]1CC[C@@H]2C3=CC=C4C[C@H](O)CC[C@@]4(C)[C@@H]3CC[C@]21C
REMARK SMILES IDX 8 1 9 2 7 3 6 4 4 5 5 6 2 7 1 8 3 9 10 10 11 11 28 12 12 13
REMARK SMILES IDX 13 14 27 15 29 16 14 17 26 18 25 19 15 20 23 21 16 22 17 23
REMARK SMILES IDX 22 24 24 25 18 26 21 27 19 28 20 29
REMARK H PARENT 20 30
REMARK Flexibility Score: inf
ROOT
ATOM      1  C   UNL     1       4.245  -7.823  -3.748  1.00  0.00     0.012 C 
ATOM      2  C   UNL     1       5.382  -8.821  -3.461  1.00  0.00     0.012 C 
ENDROOT
BRANCH   1   3
ATOM      3  C   UNL     1       3.857  -7.045  -2.498  1.00  0.00    -0.028 C 
ATOM      4  C   UNL     1       3.834  -5.704  -2.416  1.00  0.00    -0.028 C 
BRANCH   4   5
ATOM      5  C   UNL     1       3.413  -5.002  -1.141  1.00  0.00     0.011 C 
ATOM      6  C   UNL     1       2.632  -5.976  -0.239  1.00  0.00     0.012 C 
BRANCH   5   7
ATOM      7  C   UNL     1       2.635  -3.686  -1.453  1.00  0.00    -0.011 C 
ATOM      8  C   UNL     1       1.596  -3.370  -0.367  1.00  0.00     0.008 C 
ATOM      9  C   UNL     1       1.970  -3.678  -2.841  1.00  0.00     0.008 C 
ENDBRANCH   5   7
ENDBRANCH   4   5
ENDBRANCH   1   3
BRANCH   1  10
ATOM     10  C   UNL     1       3.062  -8.492  -4.533  1.00  0.00     0.002 C 
ATOM     11  C   UNL     1       2.054  -9.270  -3.639  1.00  0.00     0.005 C 
ATOM     12  C   UNL     1       2.152  -7.550  -5.384  1.00  0.00    -0.023 C 
ATOM     13  C   UNL     1       0.716  -8.509  -3.666  1.00  0.00     0.009 C 
ATOM     14  C   UNL     1       1.038  -7.206  -4.393  1.00  0.00     0.021 C 
ATOM     15  C   UNL     1       2.766  -6.221  -5.920  1.00  0.00     0.008 C 
ATOM     16  C   UNL     1       1.628  -8.378  -6.602  1.00  0.00     0.012 C 
ATOM     17  C   UNL     1      -0.018  -6.370  -5.071  1.00  0.00    -0.063 C 
ATOM     18  C   UNL     1       1.684  -5.268  -6.511  1.00  0.00     0.009 C 
ATOM     19  C   UNL     1       0.495  -5.017  -5.530  1.00  0.00     0.025 C 
ATOM     20  C   UNL     1      -1.130  -6.896  -5.601  1.00  0.00    -0.000 C 
ATOM     21  C   UNL     1      -0.654  -4.060  -6.055  1.00  0.00    -0.005 C 
ATOM     22  C   UNL     1      -1.985  -6.125  -6.507  1.00  0.00    -0.000 C 
ATOM     23  C   UNL     1      -1.766  -4.826  -6.768  1.00  0.00    -0.061 C 
ATOM     24  C   UNL     1      -1.342  -3.368  -4.839  1.00  0.00     0.014 C 
ATOM     25  C   UNL     1      -0.052  -2.970  -6.985  1.00  0.00     0.017 C 
ATOM     26  C   UNL     1      -2.928  -4.012  -7.280  1.00  0.00     0.063 C 
ATOM     27  C   UNL     1      -2.597  -2.541  -5.217  1.00  0.00     0.033 C 
ATOM     28  C   UNL     1      -3.608  -3.335  -6.075  1.00  0.00     0.118 C 
BRANCH  28  29
ATOM     29  O   UNL     1      -4.615  -2.465  -6.520  1.00  0.00    -0.393 OA
ATOM     30  H   UNL     1      -5.239  -3.009  -7.068  1.00  0.00     0.210 HD
ENDBRANCH  28  29
ENDBRANCH   1  10
TORSDOF 5
ENDMDL
MODEL 4
REMARK VINA RESULT:    -5.555      5.932      9.744
REMARK INTER + INTRA:          -7.564
REMARK INTER:                  -5.378
REMARK INTRA:                  -2.186
REMARK UNBOUND:                -0.547
REMARK SMILES CC(C)[C@@H](C)C=C[C@@H](C)[C@H]1CC[C@@H]2C3=CC=C4C[C@H](O)CC[C@@]4(C)[C@@H]3CC[C@]21C
REMARK SMILES IDX 8 1 9 2 7 3 6 4 4 5 5 6 2 7 1 8 3 9 10 10 11 11 28 12 12 13
REMARK SMILES IDX 13 14 27 15 29 16 14 17 26 18 25 19 15 20 23 21 16 22 17 23
REMARK SMILES IDX 22 24 24 25 18 26 21 27 19 28 20 29
REMARK H PARENT 20 30
REMARK Flexibility Score: inf
ROOT
ATOM      1  C   UNL     1       5.170   4.687  -7.330  1.00  0.00     0.012 C 
ATOM      2  C   UNL     1       4.561   5.491  -8.493  1.00  0.00     0.012 C 
ENDROOT
BRANCH   1   3
ATOM      3  C   UNL     1       4.857   3.202  -7.453  1.00  0.00    -0.028 C 
ATOM      4  C   UNL     1       5.774   2.223  -7.365  1.00  0.00    -0.028 C 
BRANCH   4   5
ATOM      5  C   UNL     1       5.379   0.765  -7.475  1.00  0.00     0.011 C 
ATOM      6  C   UNL     1       3.872   0.650  -7.771  1.00  0.00     0.012 C 
BRANCH   5   7
ATOM      7  C   UNL     1       5.827  -0.037  -6.215  1.00  0.00    -0.011 C 
ATOM      8  C   UNL     1       4.891   0.210  -5.021  1.00  0.00     0.008 C 
ATOM      9  C   UNL     1       7.287   0.225  -5.805  1.00  0.00     0.008 C 
ENDBRANCH   5   7
ENDBRANCH   4   5
ENDBRANCH   1   3
BRANCH   1  10
ATOM     10  C   UNL     1       4.856   5.339  -5.938  1.00  0.00     0.002 C 
ATOM     11  C   UNL     1       3.411   5.086  -5.419  1.00  0.00     0.005 C 
ATOM     12  C   UNL     1       5.760   4.919  -4.736  1.00  0.00    -0.023 C 
ATOM     13  C   UNL     1       3.509   4.173  -4.183  1.00  0.00     0.009 C 
ATOM     14  C   UNL     1       4.973   3.748  -4.142  1.00  0.00     0.021 C 
ATOM     15  C   UNL     1       7.211   4.437  -5.040  1.00  0.00     0.008 C 
ATOM     16  C   UNL     1       5.839   6.137  -3.759  1.00  0.00     0.012 C 
ATOM     17  C   UNL     1       5.645   3.258  -2.883  1.00  0.00    -0.063 C 
ATOM     18  C   UNL     1       7.895   3.801  -3.792  1.00  0.00     0.009 C 
ATOM     19  C   UNL     1       7.028   2.684  -3.128  1.00  0.00     0.025 C 
ATOM     20  C   UNL     1       5.280   3.668  -1.661  1.00  0.00    -0.000 C 
ATOM     21  C   UNL     1       7.649   1.987  -1.848  1.00  0.00    -0.005 C 
ATOM     22  C   UNL     1       6.124   3.423  -0.489  1.00  0.00    -0.000 C 
ATOM     23  C   UNL     1       7.244   2.685  -0.553  1.00  0.00    -0.061 C 
ATOM     24  C   UNL     1       7.086   0.537  -1.730  1.00  0.00     0.014 C 
ATOM     25  C   UNL     1       9.197   1.920  -1.979  1.00  0.00     0.017 C 
ATOM     26  C   UNL     1       7.756   2.081   0.731  1.00  0.00     0.063 C 
ATOM     27  C   UNL     1       7.488  -0.185  -0.419  1.00  0.00     0.033 C 
ATOM     28  C   UNL     1       7.193   0.652   0.846  1.00  0.00     0.118 C 
BRANCH  28  29
ATOM     29  O   UNL     1       7.749   0.008   1.962  1.00  0.00    -0.393 OA
ATOM     30  H   UNL     1       7.466   0.526   2.761  1.00  0.00     0.210 HD
ENDBRANCH  28  29
ENDBRANCH   1  10
TORSDOF 5
ENDMDL
MODEL 5
REMARK VINA RESULT:    -5.528      5.322      8.725
REMARK INTER + INTRA:          -7.529
REMARK INTER:                  -5.546
REMARK INTRA:                  -1.983
REMARK UNBOUND:                -0.547
REMARK SMILES CC(C)[C@@H](C)C=C[C@@H](C)[C@H]1CC[C@@H]2C3=CC=C4C[C@H](O)CC[C@@]4(C)[C@@H]3CC[C@]21C
REMARK SMILES IDX 8 1 9 2 7 3 6 4 4 5 5 6 2 7 1 8 3 9 10 10 11 11 28 12 12 13
REMARK SMILES IDX 13 14 27 15 29 16 14 17 26 18 25 19 15 20 23 21 16 22 17 23
REMARK SMILES IDX 22 24 24 25 18 26 21 27 19 28 20 29
REMARK H PARENT 20 30
REMARK Flexibility Score: inf
ROOT
ATOM      1  C   UNL     1       7.680   0.995   0.864  1.00  0.00     0.012 C 
ATOM      2  C   UNL     1       8.300   0.834   2.264  1.00  0.00     0.012 C 
ENDROOT
BRANCH   1   3
ATOM      3  C   UNL     1       7.101  -0.319   0.356  1.00  0.00    -0.028 C 
ATOM      4  C   UNL     1       5.988  -0.419  -0.391  1.00  0.00    -0.028 C 
BRANCH   4   5
ATOM      5  C   UNL     1       5.489  -1.764  -0.879  1.00  0.00     0.011 C 
ATOM      6  C   UNL     1       6.400  -2.887  -0.349  1.00  0.00     0.012 C 
BRANCH   5   7
ATOM      7  C   UNL     1       5.326  -1.776  -2.429  1.00  0.00    -0.011 C 
ATOM      8  C   UNL     1       6.556  -2.378  -3.126  1.00  0.00     0.008 C 
ATOM      9  C   UNL     1       5.005  -0.393  -3.026  1.00  0.00     0.008 C 
ENDBRANCH   5   7
ENDBRANCH   4   5
ENDBRANCH   1   3
BRANCH   1  10
ATOM     10  C   UNL     1       8.643   1.745  -0.122  1.00  0.00     0.002 C 
ATOM     11  C   UNL     1       9.536   0.810  -0.987  1.00  0.00     0.005 C 
ATOM     12  C   UNL     1       7.986   2.700  -1.167  1.00  0.00    -0.023 C 
ATOM     13  C   UNL     1       9.075   0.939  -2.450  1.00  0.00     0.009 C 
ATOM     14  C   UNL     1       7.800   1.773  -2.370  1.00  0.00     0.021 C 
ATOM     15  C   UNL     1       6.608   3.339  -0.817  1.00  0.00     0.008 C 
ATOM     16  C   UNL     1       9.003   3.852  -1.457  1.00  0.00     0.012 C 
ATOM     17  C   UNL     1       7.261   2.550  -3.545  1.00  0.00    -0.063 C 
ATOM     18  C   UNL     1       5.953   4.042  -2.044  1.00  0.00     0.009 C 
ATOM     19  C   UNL     1       5.874   3.118  -3.301  1.00  0.00     0.025 C 
ATOM     20  C   UNL     1       8.049   3.058  -4.501  1.00  0.00    -0.000 C 
ATOM     21  C   UNL     1       5.224   3.756  -4.597  1.00  0.00    -0.005 C 
ATOM     22  C   UNL     1       7.551   4.052  -5.456  1.00  0.00    -0.000 C 
ATOM     23  C   UNL     1       6.261   4.424  -5.497  1.00  0.00    -0.061 C 
ATOM     24  C   UNL     1       4.591   2.625  -5.465  1.00  0.00     0.014 C 
ATOM     25  C   UNL     1       4.114   4.766  -4.192  1.00  0.00     0.017 C 
ATOM     26  C   UNL     1       5.753   5.037  -6.778  1.00  0.00     0.063 C 
ATOM     27  C   UNL     1       4.078   3.109  -6.845  1.00  0.00     0.033 C 
ATOM     28  C   UNL     1       5.133   3.916  -7.633  1.00  0.00     0.118 C 
BRANCH  28  29
ATOM     29  O   UNL     1       4.532   4.464  -8.777  1.00  0.00    -0.393 OA
ATOM     30  H   UNL     1       4.662   5.447  -8.723  1.00  0.00     0.210 HD
ENDBRANCH  28  29
ENDBRANCH   1  10
TORSDOF 5
ENDMDL
MODEL 6
REMARK VINA RESULT:    -5.480      3.455      8.483
REMARK INTER + INTRA:          -7.469
REMARK INTER:                  -5.725
REMARK INTRA:                  -1.744
REMARK UNBOUND:                -0.547
REMARK SMILES CC(C)[C@@H](C)C=C[C@@H](C)[C@H]1CC[C@@H]2C3=CC=C4C[C@H](O)CC[C@@]4(C)[C@@H]3CC[C@]21C
REMARK SMILES IDX 8 1 9 2 7 3 6 4 4 5 5 6 2 7 1 8 3 9 10 10 11 11 28 12 12 13
REMARK SMILES IDX 13 14 27 15 29 16 14 17 26 18 25 19 15 20 23 21 16 22 17 23
REMARK SMILES IDX 22 24 24 25 18 26 21 27 19 28 20 29
REMARK H PARENT 20 30
REMARK Flexibility Score: inf
ROOT
ATOM      1  C   UNL     1       0.437  -8.793  -6.262  1.00  0.00     0.012 C 
ATOM      2  C   UNL     1       0.189 -10.107  -7.026  1.00  0.00     0.012 C 
ENDROOT
BRANCH   1   3
ATOM      3  C   UNL     1      -0.649  -7.766  -6.552  1.00  0.00    -0.028 C 
ATOM      4  C   UNL     1      -1.174  -6.937  -5.633  1.00  0.00    -0.028 C 
BRANCH   4   5
ATOM      5  C   UNL     1      -2.237  -5.924  -6.006  1.00  0.00     0.011 C 
ATOM      6  C   UNL     1      -2.293  -5.760  -7.536  1.00  0.00     0.012 C 
BRANCH   5   7
ATOM      7  C   UNL     1      -2.026  -4.580  -5.244  1.00  0.00    -0.011 C 
ATOM      8  C   UNL     1      -2.976  -3.483  -5.752  1.00  0.00     0.008 C 
ATOM      9  C   UNL     1      -0.573  -4.075  -5.275  1.00  0.00     0.008 C 
ENDBRANCH   5   7
ENDBRANCH   4   5
ENDBRANCH   1   3
BRANCH   1  10
ATOM     10  C   UNL     1       1.914  -8.290  -6.424  1.00  0.00     0.002 C 
ATOM     11  C   UNL     1       2.111  -7.208  -7.525  1.00  0.00     0.005 C 
ATOM     12  C   UNL     1       2.593  -7.663  -5.165  1.00  0.00    -0.023 C 
ATOM     13  C   UNL     1       2.478  -5.886  -6.827  1.00  0.00     0.009 C 
ATOM     14  C   UNL     1       2.278  -6.176  -5.342  1.00  0.00     0.021 C 
ATOM     15  C   UNL     1       2.092  -8.111  -3.758  1.00  0.00     0.008 C 
ATOM     16  C   UNL     1       4.125  -7.960  -5.260  1.00  0.00     0.012 C 
ATOM     17  C   UNL     1       2.949  -5.371  -4.258  1.00  0.00    -0.063 C 
ATOM     18  C   UNL     1       2.662  -7.217  -2.616  1.00  0.00     0.009 C 
ATOM     19  C   UNL     1       2.432  -5.693  -2.867  1.00  0.00     0.025 C 
ATOM     20  C   UNL     1       4.140  -4.780  -4.426  1.00  0.00    -0.000 C 
ATOM     21  C   UNL     1       2.986  -4.710  -1.754  1.00  0.00    -0.005 C 
ATOM     22  C   UNL     1       4.906  -4.267  -3.288  1.00  0.00    -0.000 C 
ATOM     23  C   UNL     1       4.416  -4.259  -2.038  1.00  0.00    -0.061 C 
ATOM     24  C   UNL     1       2.133  -3.404  -1.752  1.00  0.00     0.014 C 
ATOM     25  C   UNL     1       2.886  -5.383  -0.356  1.00  0.00     0.017 C 
ATOM     26  C   UNL     1       5.029  -3.294  -1.054  1.00  0.00     0.063 C 
ATOM     27  C   UNL     1       2.689  -2.296  -0.822  1.00  0.00     0.033 C 
ATOM     28  C   UNL     1       4.187  -2.004  -1.059  1.00  0.00     0.118 C 
BRANCH  28  29
ATOM     29  O   UNL     1       4.648  -1.129  -0.063  1.00  0.00    -0.393 OA
ATOM     30  H   UNL     1       3.860  -0.607   0.243  1.00  0.00     0.210 HD
ENDBRANCH  28  29
ENDBRANCH   1  10
TORSDOF 5
ENDMDL
MODEL 7
REMARK VINA RESULT:    -5.431      3.383      9.354
REMARK INTER + INTRA:          -7.407
REMARK INTER:                  -6.569
REMARK INTRA:                  -0.838
REMARK UNBOUND:                -0.547
REMARK SMILES CC(C)[C@@H](C)C=C[C@@H](C)[C@H]1CC[C@@H]2C3=CC=C4C[C@H](O)CC[C@@]4(C)[C@@H]3CC[C@]21C
REMARK SMILES IDX 8 1 9 2 7 3 6 4 4 5 5 6 2 7 1 8 3 9 10 10 11 11 28 12 12 13
REMARK SMILES IDX 13 14 27 15 29 16 14 17 26 18 25 19 15 20 23 21 16 22 17 23
REMARK SMILES IDX 22 24 24 25 18 26 21 27 19 28 20 29
REMARK H PARENT 20 30
REMARK Flexibility Score: inf
ROOT
ATOM      1  C   UNL     1       2.868  -4.503  -2.699  1.00  0.00     0.012 C 
ATOM      2  C   UNL     1       2.735  -5.840  -1.947  1.00  0.00     0.012 C 
ENDROOT
BRANCH   1   3
ATOM      3  C   UNL     1       1.691  -4.268  -3.636  1.00  0.00    -0.028 C 
ATOM      4  C   UNL     1       1.150  -5.212  -4.425  1.00  0.00    -0.028 C 
BRANCH   4   5
ATOM      5  C   UNL     1      -0.038  -4.905  -5.314  1.00  0.00     0.011 C 
ATOM      6  C   UNL     1      -0.616  -3.523  -4.960  1.00  0.00     0.012 C 
BRANCH   5   7
ATOM      7  C   UNL     1      -1.093  -6.052  -5.260  1.00  0.00    -0.011 C 
ATOM      8  C   UNL     1      -0.427  -7.434  -5.171  1.00  0.00     0.008 C 
ATOM      9  C   UNL     1      -2.096  -6.023  -6.427  1.00  0.00     0.008 C 
ENDBRANCH   5   7
ENDBRANCH   4   5
ENDBRANCH   1   3
BRANCH   1  10
ATOM     10  C   UNL     1       4.293  -4.326  -3.333  1.00  0.00     0.002 C 
ATOM     11  C   UNL     1       4.284  -3.891  -4.827  1.00  0.00     0.005 C 
ATOM     12  C   UNL     1       5.251  -3.296  -2.654  1.00  0.00    -0.023 C 
ATOM     13  C   UNL     1       4.841  -2.457  -4.903  1.00  0.00     0.009 C 
ATOM     14  C   UNL     1       4.957  -2.020  -3.446  1.00  0.00     0.021 C 
ATOM     15  C   UNL     1       5.051  -2.994  -1.137  1.00  0.00     0.008 C 
ATOM     16  C   UNL     1       6.714  -3.804  -2.866  1.00  0.00     0.012 C 
ATOM     17  C   UNL     1       5.877  -0.911  -3.000  1.00  0.00    -0.063 C 
ATOM     18  C   UNL     1       5.886  -1.766  -0.665  1.00  0.00     0.009 C 
ATOM     19  C   UNL     1       5.662  -0.502  -1.554  1.00  0.00     0.025 C 
ATOM     20  C   UNL     1       7.023  -0.622  -3.630  1.00  0.00    -0.000 C 
ATOM     21  C   UNL     1       6.478   0.793  -1.145  1.00  0.00    -0.005 C 
ATOM     22  C   UNL     1       8.035   0.242  -3.018  1.00  0.00    -0.000 C 
ATOM     23  C   UNL     1       7.829   0.875  -1.852  1.00  0.00    -0.061 C 
ATOM     24  C   UNL     1       5.694   2.061  -1.603  1.00  0.00     0.014 C 
ATOM     25  C   UNL     1       6.660   0.839   0.398  1.00  0.00     0.017 C 
ATOM     26  C   UNL     1       8.675   2.089  -1.558  1.00  0.00     0.063 C 
ATOM     27  C   UNL     1       6.477   3.384  -1.412  1.00  0.00     0.033 C 
ATOM     28  C   UNL     1       7.898   3.338  -2.016  1.00  0.00     0.118 C 
BRANCH  28  29
ATOM     29  O   UNL     1       8.594   4.497  -1.643  1.00  0.00    -0.393 OA
ATOM     30  H   UNL     1       9.329   4.207  -1.041  1.00  0.00     0.210 HD
ENDBRANCH  28  29
ENDBRANCH   1  10
TORSDOF 5
ENDMDL
MODEL 8
REMARK VINA RESULT:    -5.377      6.608      9.953
REMARK INTER + INTRA:          -7.339
REMARK INTER:                  -6.402
REMARK INTRA:                  -0.937
REMARK UNBOUND:                -0.547
REMARK SMILES CC(C)[C@@H](C)C=C[C@@H](C)[C@H]1CC[C@@H]2C3=CC=C4C[C@H](O)CC[C@@]4(C)[C@@H]3CC[C@]21C
REMARK SMILES IDX 8 1 9 2 7 3 6 4 4 5 5 6 2 7 1 8 3 9 10 10 11 11 28 12 12 13
REMARK SMILES IDX 13 14 27 15 29 16 14 17 26 18 25 19 15 20 23 21 16 22 17 23
REMARK SMILES IDX 22 24 24 25 18 26 21 27 19 28 20 29
REMARK H PARENT 20 30
REMARK Flexibility Score: inf
ROOT
ATOM      1  C   UNL     1       2.177   3.681  -5.736  1.00  0.00     0.012 C 
ATOM      2  C   UNL     1       1.785   3.127  -7.118  1.00  0.00     0.012 C 
ENDROOT
BRANCH   1   3
ATOM      3  C   UNL     1       1.092   4.588  -5.170  1.00  0.00    -0.028 C 
ATOM      4  C   UNL     1      -0.185   4.215  -4.978  1.00  0.00    -0.028 C 
BRANCH   4   5
ATOM      5  C   UNL     1      -1.201   5.171  -4.388  1.00  0.00     0.011 C 
ATOM      6  C   UNL     1      -0.985   6.586  -4.956  1.00  0.00     0.012 C 
BRANCH   5   7
ATOM      7  C   UNL     1      -1.185   5.119  -2.829  1.00  0.00    -0.011 C 
ATOM      8  C   UNL     1      -1.816   3.823  -2.297  1.00  0.00     0.008 C 
ATOM      9  C   UNL     1      -1.845   6.340  -2.165  1.00  0.00     0.008 C 
ENDBRANCH   5   7
ENDBRANCH   4   5
ENDBRANCH   1   3
BRANCH   1  10
ATOM     10  C   UNL     1       3.632   4.269  -5.730  1.00  0.00     0.002 C 
ATOM     11  C   UNL     1       3.757   5.673  -5.071  1.00  0.00     0.005 C 
ATOM     12  C   UNL     1       4.736   3.426  -5.017  1.00  0.00    -0.023 C 
ATOM     13  C   UNL     1       4.569   5.513  -3.773  1.00  0.00     0.009 C 
ATOM     14  C   UNL     1       4.710   4.004  -3.600  1.00  0.00     0.021 C 
ATOM     15  C   UNL     1       4.539   1.882  -4.926  1.00  0.00     0.008 C 
ATOM     16  C   UNL     1       6.089   3.708  -5.749  1.00  0.00     0.012 C 
ATOM     17  C   UNL     1       5.800   3.378  -2.766  1.00  0.00    -0.063 C 
ATOM     18  C   UNL     1       5.567   1.212  -3.965  1.00  0.00     0.009 C 
ATOM     19  C   UNL     1       5.611   1.886  -2.557  1.00  0.00     0.025 C 
ATOM     20  C   UNL     1       7.002   3.946  -2.600  1.00  0.00    -0.000 C 
ATOM     21  C   UNL     1       6.635   1.268  -1.518  1.00  0.00    -0.005 C 
ATOM     22  C   UNL     1       8.132   3.195  -2.047  1.00  0.00    -0.000 C 
ATOM     23  C   UNL     1       8.003   1.944  -1.578  1.00  0.00    -0.061 C 
ATOM     24  C   UNL     1       6.113   1.520  -0.070  1.00  0.00     0.014 C 
ATOM     25  C   UNL     1       6.766  -0.264  -1.750  1.00  0.00     0.017 C 
ATOM     26  C   UNL     1       9.045   1.452  -0.605  1.00  0.00     0.063 C 
ATOM     27  C   UNL     1       7.118   1.113   1.037  1.00  0.00     0.033 C 
ATOM     28  C   UNL     1       8.527   1.708   0.822  1.00  0.00     0.118 C 
BRANCH  28  29
ATOM     29  O   UNL     1       9.410   1.147   1.759  1.00  0.00    -0.393 OA
ATOM     30  H   UNL     1       8.955   0.348   2.135  1.00  0.00     0.210 HD
ENDBRANCH  28  29
ENDBRANCH   1  10
TORSDOF 5
ENDMDL
MODEL 9
REMARK VINA RESULT:    -5.338      5.570      7.673
REMARK INTER + INTRA:          -7.290
REMARK INTER:                  -5.164
REMARK INTRA:                  -2.126
REMARK UNBOUND:                -0.547
REMARK SMILES CC(C)[C@@H](C)C=C[C@@H](C)[C@H]1CC[C@@H]2C3=CC=C4C[C@H](O)CC[C@@]4(C)[C@@H]3CC[C@]21C
REMARK SMILES IDX 8 1 9 2 7 3 6 4 4 5 5 6 2 7 1 8 3 9 10 10 11 11 28 12 12 13
REMARK SMILES IDX 13 14 27 15 29 16 14 17 26 18 25 19 15 20 23 21 16 22 17 23
REMARK SMILES IDX 22 24 24 25 18 26 21 27 19 28 20 29
REMARK H PARENT 20 30
REMARK Flexibility Score: inf
ROOT
ATOM      1  C   UNL     1       1.765  -6.236  -7.107  1.00  0.00     0.012 C 
ATOM      2  C   UNL     1       2.835  -7.320  -6.884  1.00  0.00     0.012 C 
ENDROOT
BRANCH   1   3
ATOM      3  C   UNL     1       2.387  -4.925  -7.570  1.00  0.00    -0.028 C 
ATOM      4  C   UNL     1       1.861  -4.127  -8.514  1.00  0.00    -0.028 C 
BRANCH   4   5
ATOM      5  C   UNL     1       2.529  -2.824  -8.903  1.00  0.00     0.011 C 
ATOM      6  C   UNL     1       3.910  -2.720  -8.229  1.00  0.00     0.012 C 
BRANCH   5   7
ATOM      7  C   UNL     1       1.602  -1.605  -8.610  1.00  0.00    -0.011 C 
ATOM      8  C   UNL     1       1.542  -1.284  -7.109  1.00  0.00     0.008 C 
ATOM      9  C   UNL     1       0.178  -1.765  -9.173  1.00  0.00     0.008 C 
ENDBRANCH   5   7
ENDBRANCH   4   5
ENDBRANCH   1   3
BRANCH   1  10
ATOM     10  C   UNL     1       0.772  -6.132  -5.897  1.00  0.00     0.002 C 
ATOM     11  C   UNL     1       1.240  -5.179  -4.759  1.00  0.00     0.005 C 
ATOM     12  C   UNL     1      -0.680  -5.651  -6.208  1.00  0.00    -0.023 C 
ATOM     13  C   UNL     1       0.289  -3.968  -4.738  1.00  0.00     0.009 C 
ATOM     14  C   UNL     1      -0.568  -4.141  -5.989  1.00  0.00     0.021 C 
ATOM     15  C   UNL     1      -1.249  -5.903  -7.638  1.00  0.00     0.008 C 
ATOM     16  C   UNL     1      -1.633  -6.332  -5.172  1.00  0.00     0.012 C 
ATOM     17  C   UNL     1      -1.921  -3.493  -6.144  1.00  0.00    -0.063 C 
ATOM     18  C   UNL     1      -2.585  -5.141  -7.885  1.00  0.00     0.009 C 
ATOM     19  C   UNL     1      -2.487  -3.619  -7.548  1.00  0.00     0.025 C 
ATOM     20  C   UNL     1      -2.723  -3.232  -5.104  1.00  0.00    -0.000 C 
ATOM     21  C   UNL     1      -3.805  -2.768  -7.767  1.00  0.00    -0.005 C 
ATOM     22  C   UNL     1      -4.134  -2.888  -5.294  1.00  0.00    -0.000 C 
ATOM     23  C   UNL     1      -4.672  -2.707  -6.511  1.00  0.00    -0.061 C 
ATOM     24  C   UNL     1      -3.417  -1.289  -8.073  1.00  0.00     0.014 C 
ATOM     25  C   UNL     1      -4.612  -3.340  -8.966  1.00  0.00     0.017 C 
ATOM     26  C   UNL     1      -5.938  -1.893  -6.602  1.00  0.00     0.063 C 
ATOM     27  C   UNL     1      -4.628  -0.325  -8.135  1.00  0.00     0.033 C 
ATOM     28  C   UNL     1      -5.550  -0.433  -6.899  1.00  0.00     0.118 C 
BRANCH  28  29
ATOM     29  O   UNL     1      -6.705   0.333  -7.120  1.00  0.00    -0.393 OA
ATOM     30  H   UNL     1      -6.704   0.579  -8.082  1.00  0.00     0.210 HD
ENDBRANCH  28  29
ENDBRANCH   1  10
TORSDOF 5
ENDMDL
