MODEL 1
REMARK VINA RESULT:    -4.395      0.000      0.000
REMARK INTER + INTRA:         -10.778
REMARK INTER:                  -8.507
REMARK INTRA:                  -2.271
REMARK UNBOUND:                -2.271
REMARK SMILES CCCCCCCCCCCCCCCCCC(=O)[O-]
REMARK SMILES IDX 10 1 11 2 12 3 13 4 14 5 15 6 16 7 17 8 18 9 19 10 20 11
REMARK SMILES IDX 9 12 8 13 7 14 6 15 5 16 4 17 3 18 2 19 1 20
REMARK H PARENT
REMARK Flexibility Score: inf
ROOT
ATOM      1  C   UNL     1     100.985  86.875  90.685  1.00  0.00     0.000 C 
ENDROOT
BRANCH   1   2
ATOM      2  C   UNL     1     101.052  87.098  92.208  1.00  0.00     0.000 C 
BRANCH   2   3
ATOM      3  C   UNL     1     100.004  88.074  92.775  1.00  0.00     0.000 C 
BRANCH   3   4
ATOM      4  C   UNL     1     100.360  89.549  92.520  1.00  0.00     0.000 C 
BRANCH   4   5
ATOM      5  C   UNL     1      99.120  90.459  92.462  1.00  0.00     0.000 C 
BRANCH   5   6
ATOM      6  C   UNL     1      98.004  89.981  91.510  1.00  0.00     0.000 C 
BRANCH   6   7
ATOM      7  C   UNL     1      97.949  90.701  90.151  1.00  0.00     0.006 C 
BRANCH   7   8
ATOM      8  C   UNL     1      99.304  91.284  89.727  1.00  0.00     0.053 C 
BRANCH   8   9
ATOM      9  C   UNL     1      99.108  92.420  88.774  1.00  0.00     0.041 C 
ATOM     10  O   UNL     1      98.018  92.546  88.155  1.00  0.00    -0.550 OA
ATOM     11  O   UNL     1     100.143  93.315  88.536  1.00  0.00    -0.550 OA
ENDBRANCH   8   9
ENDBRANCH   7   8
ENDBRANCH   6   7
ENDBRANCH   5   6
ENDBRANCH   4   5
ENDBRANCH   3   4
ENDBRANCH   2   3
ENDBRANCH   1   2
BRANCH   1  12
ATOM     12  C   UNL     1     102.097  87.611  89.919  1.00  0.00     0.000 C 
BRANCH  12  13
ATOM     13  C   UNL     1     101.603  88.224  88.597  1.00  0.00    -0.000 C 
BRANCH  13  14
ATOM     14  C   UNL     1     100.071  88.163  88.420  1.00  0.00    -0.000 C 
BRANCH  14  15
ATOM     15  C   UNL     1      99.670  87.562  87.062  1.00  0.00    -0.000 C 
BRANCH  15  16
ATOM     16  C   UNL     1      99.991  88.494  85.882  1.00  0.00    -0.000 C 
BRANCH  16  17
ATOM     17  C   UNL     1      99.194  89.807  85.927  1.00  0.00    -0.000 C 
BRANCH  17  18
ATOM     18  C   UNL     1     100.087  91.001  85.558  1.00  0.00    -0.000 C 
BRANCH  18  19
ATOM     19  C   UNL     1     101.468  90.937  86.228  1.00  0.00    -0.003 C 
ATOM     20  C   UNL     1     102.359  92.121  85.858  1.00  0.00     0.004 C 
ENDBRANCH  18  19
ENDBRANCH  17  18
ENDBRANCH  16  17
ENDBRANCH  15  16
ENDBRANCH  14  15
ENDBRANCH  13  14
ENDBRANCH  12  13
ENDBRANCH   1  12
TORSDOF 16
ENDMDL
MODEL 2
REMARK VINA RESULT:    -4.355     10.315     12.222
REMARK INTER + INTRA:         -10.700
REMARK INTER:                  -7.815
REMARK INTRA:                  -2.884
REMARK UNBOUND:                -2.271
REMARK SMILES CCCCCCCCCCCCCCCCCC(=O)[O-]
REMARK SMILES IDX 10 1 11 2 12 3 13 4 14 5 15 6 16 7 17 8 18 9 19 10 20 11
REMARK SMILES IDX 9 12 8 13 7 14 6 15 5 16 4 17 3 18 2 19 1 20
REMARK H PARENT
REMARK Flexibility Score: inf
ROOT
ATOM      1  C   UNL     1     102.421  98.104  99.643  1.00  0.00     0.000 C 
ENDROOT
BRANCH   1   2
ATOM      2  C   UNL     1     100.951  98.493  99.889  1.00  0.00     0.000 C 
BRANCH   2   3
ATOM      3  C   UNL     1     100.317  99.382  98.803  1.00  0.00     0.000 C 
BRANCH   3   4
ATOM      4  C   UNL     1     101.177  99.481  97.531  1.00  0.00     0.000 C 
BRANCH   4   5
ATOM      5  C   UNL     1     100.490  98.870  96.297  1.00  0.00     0.000 C 
BRANCH   5   6
ATOM      6  C   UNL     1     100.665  97.345  96.142  1.00  0.00     0.000 C 
BRANCH   6   7
ATOM      7  C   UNL     1      99.417  96.505  96.467  1.00  0.00     0.006 C 
BRANCH   7   8
ATOM      8  C   UNL     1      99.622  95.570  97.666  1.00  0.00     0.053 C 
BRANCH   8   9
ATOM      9  C   UNL     1      98.488  94.600  97.772  1.00  0.00     0.041 C 
ATOM     10  O   UNL     1      98.572  93.467  97.227  1.00  0.00    -0.550 OA
ATOM     11  O   UNL     1      97.322  94.962  98.434  1.00  0.00    -0.550 OA
ENDBRANCH   8   9
ENDBRANCH   7   8
ENDBRANCH   6   7
ENDBRANCH   5   6
ENDBRANCH   4   5
ENDBRANCH   3   4
ENDBRANCH   2   3
ENDBRANCH   1   2
BRANCH   1  12
ATOM     12  C   UNL     1     102.638  96.583  99.574  1.00  0.00     0.000 C 
BRANCH  12  13
ATOM     13  C   UNL     1     103.445  96.153  98.338  1.00  0.00    -0.000 C 
BRANCH  13  14
ATOM     14  C   UNL     1     104.123  97.327  97.601  1.00  0.00    -0.000 C 
BRANCH  14  15
ATOM     15  C   UNL     1     105.258  96.852  96.677  1.00  0.00    -0.000 C 
BRANCH  15  16
ATOM     16  C   UNL     1     105.272  97.587  95.327  1.00  0.00    -0.000 C 
BRANCH  16  17
ATOM     17  C   UNL     1     103.957  98.327  95.040  1.00  0.00    -0.000 C 
BRANCH  17  18
ATOM     18  C   UNL     1     104.206  99.832  94.856  1.00  0.00    -0.000 C 
BRANCH  18  19
ATOM     19  C   UNL     1     105.215 100.393  95.869  1.00  0.00    -0.003 C 
ATOM     20  C   UNL     1     104.541 101.086  97.051  1.00  0.00     0.004 C 
ENDBRANCH  18  19
ENDBRANCH  17  18
ENDBRANCH  16  17
ENDBRANCH  15  16
ENDBRANCH  14  15
ENDBRANCH  13  14
ENDBRANCH  12  13
ENDBRANCH   1  12
TORSDOF 16
ENDMDL
MODEL 3
REMARK VINA RESULT:    -4.227      1.589      3.076
REMARK INTER + INTRA:         -10.452
REMARK INTER:                  -8.642
REMARK INTRA:                  -1.811
REMARK UNBOUND:                -2.271
REMARK SMILES CCCCCCCCCCCCCCCCCC(=O)[O-]
REMARK SMILES IDX 10 1 11 2 12 3 13 4 14 5 15 6 16 7 17 8 18 9 19 10 20 11
REMARK SMILES IDX 9 12 8 13 7 14 6 15 5 16 4 17 3 18 2 19 1 20
REMARK H PARENT
REMARK Flexibility Score: inf
ROOT
ATOM      1  C   UNL     1     100.603  88.612  88.544  1.00  0.00     0.000 C 
ENDROOT
BRANCH   1   2
ATOM      2  C   UNL     1     100.714  87.420  89.514  1.00  0.00     0.000 C 
BRANCH   2   3
ATOM      3  C   UNL     1     102.117  87.180  90.100  1.00  0.00     0.000 C 
BRANCH   3   4
ATOM      4  C   UNL     1     102.178  87.408  91.621  1.00  0.00     0.000 C 
BRANCH   4   5
ATOM      5  C   UNL     1     102.083  88.896  92.004  1.00  0.00     0.000 C 
BRANCH   5   6
ATOM      6  C   UNL     1     100.964  89.239  93.009  1.00  0.00     0.000 C 
BRANCH   6   7
ATOM      7  C   UNL     1      99.534  88.947  92.523  1.00  0.00     0.006 C 
BRANCH   7   8
ATOM      8  C   UNL     1      98.629  90.186  92.544  1.00  0.00     0.053 C 
BRANCH   8   9
ATOM      9  C   UNL     1      97.851  90.287  91.271  1.00  0.00     0.041 C 
ATOM     10  O   UNL     1      98.384  90.781  90.242  1.00  0.00    -0.550 OA
ATOM     11  O   UNL     1      96.524  89.877  91.231  1.00  0.00    -0.550 OA
ENDBRANCH   8   9
ENDBRANCH   7   8
ENDBRANCH   6   7
ENDBRANCH   5   6
ENDBRANCH   4   5
ENDBRANCH   3   4
ENDBRANCH   2   3
ENDBRANCH   1   2
BRANCH   1  12
ATOM     12  C   UNL     1     101.164  88.305  87.146  1.00  0.00     0.000 C 
BRANCH  12  13
ATOM     13  C   UNL     1     100.068  87.929  86.134  1.00  0.00    -0.000 C 
BRANCH  13  14
ATOM     14  C   UNL     1      99.705  89.071  85.161  1.00  0.00    -0.000 C 
BRANCH  14  15
ATOM     15  C   UNL     1      98.378  89.752  85.538  1.00  0.00    -0.000 C 
BRANCH  15  16
ATOM     16  C   UNL     1      98.522  91.272  85.720  1.00  0.00    -0.000 C 
BRANCH  16  17
ATOM     17  C   UNL     1      99.456  91.645  86.880  1.00  0.00    -0.000 C 
BRANCH  17  18
ATOM     18  C   UNL     1     100.624  92.511  86.384  1.00  0.00    -0.000 C 
BRANCH  18  19
ATOM     19  C   UNL     1     101.840  91.675  85.958  1.00  0.00    -0.003 C 
ATOM     20  C   UNL     1     103.138  92.480  85.953  1.00  0.00     0.004 C 
ENDBRANCH  18  19
ENDBRANCH  17  18
ENDBRANCH  16  17
ENDBRANCH  15  16
ENDBRANCH  14  15
ENDBRANCH  13  14
ENDBRANCH  12  13
ENDBRANCH   1  12
TORSDOF 16
ENDMDL
MODEL 4
REMARK VINA RESULT:    -4.159     11.522     13.901
REMARK INTER + INTRA:         -10.321
REMARK INTER:                  -7.548
REMARK INTRA:                  -2.773
REMARK UNBOUND:                -2.271
REMARK SMILES CCCCCCCCCCCCCCCCCC(=O)[O-]
REMARK SMILES IDX 10 1 11 2 12 3 13 4 14 5 15 6 16 7 17 8 18 9 19 10 20 11
REMARK SMILES IDX 9 12 8 13 7 14 6 15 5 16 4 17 3 18 2 19 1 20
REMARK H PARENT
REMARK Flexibility Score: inf
ROOT
ATOM      1  C   UNL     1     103.352  99.730  94.647  1.00  0.00     0.000 C 
ENDROOT
BRANCH   1   2
ATOM      2  C   UNL     1     102.384 100.496  95.568  1.00  0.00     0.000 C 
BRANCH   2   3
ATOM      3  C   UNL     1     102.787 100.541  97.054  1.00  0.00     0.000 C 
BRANCH   3   4
ATOM      4  C   UNL     1     103.357 101.905  97.479  1.00  0.00     0.000 C 
BRANCH   4   5
ATOM      5  C   UNL     1     104.807 101.813  97.987  1.00  0.00     0.000 C 
BRANCH   5   6
ATOM      6  C   UNL     1     105.651 100.691  97.348  1.00  0.00     0.000 C 
BRANCH   6   7
ATOM      7  C   UNL     1     106.549 101.131  96.178  1.00  0.00     0.006 C 
BRANCH   7   8
ATOM      8  C   UNL     1     107.689 100.143  95.894  1.00  0.00     0.053 C 
BRANCH   8   9
ATOM      9  C   UNL     1     108.376  99.760  97.166  1.00  0.00     0.041 C 
ATOM     10  O   UNL     1     109.079 100.604  97.784  1.00  0.00    -0.550 OA
ATOM     11  O   UNL     1     108.278  98.461  97.647  1.00  0.00    -0.550 OA
ENDBRANCH   8   9
ENDBRANCH   7   8
ENDBRANCH   6   7
ENDBRANCH   5   6
ENDBRANCH   4   5
ENDBRANCH   3   4
ENDBRANCH   2   3
ENDBRANCH   1   2
BRANCH   1  12
ATOM     12  C   UNL     1     103.532  98.258  95.053  1.00  0.00     0.000 C 
BRANCH  12  13
ATOM     13  C   UNL     1     105.009  97.831  95.103  1.00  0.00    -0.000 C 
BRANCH  13  14
ATOM     14  C   UNL     1     105.381  97.037  96.373  1.00  0.00    -0.000 C 
BRANCH  14  15
ATOM     15  C   UNL     1     104.287  97.125  97.452  1.00  0.00    -0.000 C 
BRANCH  15  16
ATOM     16  C   UNL     1     103.964  95.761  98.082  1.00  0.00    -0.000 C 
BRANCH  16  17
ATOM     17  C   UNL     1     102.800  95.829  99.081  1.00  0.00    -0.000 C 
BRANCH  17  18
ATOM     18  C   UNL     1     101.843  96.977  98.728  1.00  0.00    -0.000 C 
BRANCH  18  19
ATOM     19  C   UNL     1     100.609  96.499  97.947  1.00  0.00    -0.003 C 
ATOM     20  C   UNL     1     100.390  97.279  96.652  1.00  0.00     0.004 C 
ENDBRANCH  18  19
ENDBRANCH  17  18
ENDBRANCH  16  17
ENDBRANCH  15  16
ENDBRANCH  14  15
ENDBRANCH  13  14
ENDBRANCH  12  13
ENDBRANCH   1  12
TORSDOF 16
ENDMDL
MODEL 5
REMARK VINA RESULT:    -4.155     11.207     12.930
REMARK INTER + INTRA:         -10.313
REMARK INTER:                  -7.301
REMARK INTRA:                  -3.012
REMARK UNBOUND:                -2.271
REMARK SMILES CCCCCCCCCCCCCCCCCC(=O)[O-]
REMARK SMILES IDX 10 1 11 2 12 3 13 4 14 5 15 6 16 7 17 8 18 9 19 10 20 11
REMARK SMILES IDX 9 12 8 13 7 14 6 15 5 16 4 17 3 18 2 19 1 20
REMARK H PARENT
REMARK Flexibility Score: inf
ROOT
ATOM      1  C   UNL     1     102.605 100.737  96.252  1.00  0.00     0.000 C 
ENDROOT
BRANCH   1   2
ATOM      2  C   UNL     1     101.108 100.881  96.589  1.00  0.00     0.000 C 
BRANCH   2   3
ATOM      3  C   UNL     1     100.149 100.741  95.392  1.00  0.00     0.000 C 
BRANCH   3   4
ATOM      4  C   UNL     1      99.221  99.519  95.508  1.00  0.00     0.000 C 
BRANCH   4   5
ATOM      5  C   UNL     1      99.506  98.672  96.761  1.00  0.00     0.000 C 
BRANCH   5   6
ATOM      6  C   UNL     1     100.021  97.245  96.480  1.00  0.00     0.000 C 
BRANCH   6   7
ATOM      7  C   UNL     1     100.841  96.608  97.615  1.00  0.00     0.006 C 
BRANCH   7   8
ATOM      8  C   UNL     1     101.216  97.609  98.716  1.00  0.00     0.053 C 
BRANCH   8   9
ATOM      9  C   UNL     1     102.261  97.028  99.615  1.00  0.00     0.041 C 
ATOM     10  O   UNL     1     102.507  97.565 100.728  1.00  0.00    -0.550 OA
ATOM     11  O   UNL     1     102.994  95.921  99.208  1.00  0.00    -0.550 OA
ENDBRANCH   8   9
ENDBRANCH   7   8
ENDBRANCH   6   7
ENDBRANCH   5   6
ENDBRANCH   4   5
ENDBRANCH   3   4
ENDBRANCH   2   3
ENDBRANCH   1   2
BRANCH   1  12
ATOM     12  C   UNL     1     102.854 100.061  94.894  1.00  0.00     0.000 C 
BRANCH  12  13
ATOM     13  C   UNL     1     103.288  98.592  95.031  1.00  0.00    -0.000 C 
BRANCH  13  14
ATOM     14  C   UNL     1     103.789  98.223  96.444  1.00  0.00    -0.000 C 
BRANCH  14  15
ATOM     15  C   UNL     1     104.826  97.087  96.412  1.00  0.00    -0.000 C 
BRANCH  15  16
ATOM     16  C   UNL     1     105.912  97.304  95.346  1.00  0.00    -0.000 C 
BRANCH  16  17
ATOM     17  C   UNL     1     106.909  98.407  95.730  1.00  0.00    -0.000 C 
BRANCH  17  18
ATOM     18  C   UNL     1     107.046  99.438  94.600  1.00  0.00    -0.000 C 
BRANCH  18  19
ATOM     19  C   UNL     1     106.629 100.851  95.033  1.00  0.00    -0.003 C 
ATOM     20  C   UNL     1     106.368 100.955  96.534  1.00  0.00     0.004 C 
ENDBRANCH  18  19
ENDBRANCH  17  18
ENDBRANCH  16  17
ENDBRANCH  15  16
ENDBRANCH  14  15
ENDBRANCH  13  14
ENDBRANCH  12  13
ENDBRANCH   1  12
TORSDOF 16
ENDMDL
MODEL 6
REMARK VINA RESULT:    -4.129     10.947     13.344
REMARK INTER + INTRA:         -10.262
REMARK INTER:                  -8.044
REMARK INTRA:                  -2.218
REMARK UNBOUND:                -2.271
REMARK SMILES CCCCCCCCCCCCCCCCCC(=O)[O-]
REMARK SMILES IDX 10 1 11 2 12 3 13 4 14 5 15 6 16 7 17 8 18 9 19 10 20 11
REMARK SMILES IDX 9 12 8 13 7 14 6 15 5 16 4 17 3 18 2 19 1 20
REMARK H PARENT
REMARK Flexibility Score: inf
ROOT
ATOM      1  C   UNL     1     105.448  96.981  96.231  1.00  0.00     0.000 C 
ENDROOT
BRANCH   1   2
ATOM      2  C   UNL     1     104.906  97.875  95.099  1.00  0.00     0.000 C 
BRANCH   2   3
ATOM      3  C   UNL     1     103.421  98.262  95.222  1.00  0.00     0.000 C 
BRANCH   3   4
ATOM      4  C   UNL     1     103.202  99.784  95.294  1.00  0.00     0.000 C 
BRANCH   4   5
ATOM      5  C   UNL     1     104.446 100.541  95.792  1.00  0.00     0.000 C 
BRANCH   5   6
ATOM      6  C   UNL     1     104.548 100.690  97.324  1.00  0.00     0.000 C 
BRANCH   6   7
ATOM      7  C   UNL     1     105.975 100.869  97.872  1.00  0.00     0.006 C 
BRANCH   7   8
ATOM      8  C   UNL     1     107.044 100.864  96.770  1.00  0.00     0.053 C 
BRANCH   8   9
ATOM      9  C   UNL     1     107.855  99.609  96.835  1.00  0.00     0.041 C 
ATOM     10  O   UNL     1     108.092  99.066  97.947  1.00  0.00    -0.550 OA
ATOM     11  O   UNL     1     108.386  99.063  95.674  1.00  0.00    -0.550 OA
ENDBRANCH   8   9
ENDBRANCH   7   8
ENDBRANCH   6   7
ENDBRANCH   5   6
ENDBRANCH   4   5
ENDBRANCH   3   4
ENDBRANCH   2   3
ENDBRANCH   1   2
BRANCH   1  12
ATOM     12  C   UNL     1     104.579  97.021  97.498  1.00  0.00     0.000 C 
BRANCH  12  13
ATOM     13  C   UNL     1     104.208  95.619  98.009  1.00  0.00    -0.000 C 
BRANCH  13  14
ATOM     14  C   UNL     1     102.893  95.582  98.818  1.00  0.00    -0.000 C 
BRANCH  14  15
ATOM     15  C   UNL     1     102.601  96.925  99.508  1.00  0.00    -0.000 C 
BRANCH  15  16
ATOM     16  C   UNL     1     101.317  97.592  98.987  1.00  0.00    -0.000 C 
BRANCH  16  17
ATOM     17  C   UNL     1     100.907  97.087  97.596  1.00  0.00    -0.000 C 
BRANCH  17  18
ATOM     18  C   UNL     1      99.450  96.601  97.599  1.00  0.00    -0.000 C 
BRANCH  18  19
ATOM     19  C   UNL     1      99.337  95.072  97.700  1.00  0.00    -0.003 C 
ATOM     20  C   UNL     1      97.969  94.613  98.202  1.00  0.00     0.004 C 
ENDBRANCH  18  19
ENDBRANCH  17  18
ENDBRANCH  16  17
ENDBRANCH  15  16
ENDBRANCH  14  15
ENDBRANCH  13  14
ENDBRANCH  12  13
ENDBRANCH   1  12
TORSDOF 16
ENDMDL
MODEL 7
REMARK VINA RESULT:    -4.109     10.378     12.498
REMARK INTER + INTRA:         -10.223
REMARK INTER:                  -8.517
REMARK INTRA:                  -1.706
REMARK UNBOUND:                -2.271
REMARK SMILES CCCCCCCCCCCCCCCCCC(=O)[O-]
REMARK SMILES IDX 10 1 11 2 12 3 13 4 14 5 15 6 16 7 17 8 18 9 19 10 20 11
REMARK SMILES IDX 9 12 8 13 7 14 6 15 5 16 4 17 3 18 2 19 1 20
REMARK H PARENT
REMARK Flexibility Score: inf
ROOT
ATOM      1  C   UNL     1     102.658  97.080  98.474  1.00  0.00     0.000 C 
ENDROOT
BRANCH   1   2
ATOM      2  C   UNL     1     103.651  95.941  98.179  1.00  0.00     0.000 C 
BRANCH   2   3
ATOM      3  C   UNL     1     104.847  96.327  97.289  1.00  0.00     0.000 C 
BRANCH   3   4
ATOM      4  C   UNL     1     104.848  97.815  96.899  1.00  0.00     0.000 C 
BRANCH   4   5
ATOM      5  C   UNL     1     104.663  98.036  95.388  1.00  0.00     0.000 C 
BRANCH   5   6
ATOM      6  C   UNL     1     103.241  98.451  94.959  1.00  0.00     0.000 C 
BRANCH   6   7
ATOM      7  C   UNL     1     103.088  99.920  94.526  1.00  0.00     0.006 C 
BRANCH   7   8
ATOM      8  C   UNL     1     102.680 100.843  95.682  1.00  0.00     0.053 C 
BRANCH   8   9
ATOM      9  C   UNL     1     101.277 100.552  96.113  1.00  0.00     0.041 C 
ATOM     10  O   UNL     1     100.355 100.478  95.257  1.00  0.00    -0.550 OA
ATOM     11  O   UNL     1     100.980 100.405  97.462  1.00  0.00    -0.550 OA
ENDBRANCH   8   9
ENDBRANCH   7   8
ENDBRANCH   6   7
ENDBRANCH   5   6
ENDBRANCH   4   5
ENDBRANCH   3   4
ENDBRANCH   2   3
ENDBRANCH   1   2
BRANCH   1  12
ATOM     12  C   UNL     1     101.189  96.627  98.428  1.00  0.00     0.000 C 
BRANCH  12  13
ATOM     13  C   UNL     1     100.499  96.980  97.100  1.00  0.00    -0.000 C 
BRANCH  13  14
ATOM     14  C   UNL     1      99.362  96.010  96.715  1.00  0.00    -0.000 C 
BRANCH  14  15
ATOM     15  C   UNL     1      99.312  94.782  97.641  1.00  0.00    -0.000 C 
BRANCH  15  16
ATOM     16  C   UNL     1      97.889  94.462  98.127  1.00  0.00    -0.000 C 
BRANCH  16  17
ATOM     17  C   UNL     1      97.044  95.722  98.362  1.00  0.00    -0.000 C 
BRANCH  17  18
ATOM     18  C   UNL     1      96.548  95.785  99.814  1.00  0.00    -0.000 C 
BRANCH  18  19
ATOM     19  C   UNL     1      96.307  94.393 100.418  1.00  0.00    -0.003 C 
ATOM     20  C   UNL     1      96.073  94.436 101.927  1.00  0.00     0.004 C 
ENDBRANCH  18  19
ENDBRANCH  17  18
ENDBRANCH  16  17
ENDBRANCH  15  16
ENDBRANCH  14  15
ENDBRANCH  13  14
ENDBRANCH  12  13
ENDBRANCH   1  12
TORSDOF 16
ENDMDL
MODEL 8
REMARK VINA RESULT:    -4.048     11.479     13.240
REMARK INTER + INTRA:         -10.106
REMARK INTER:                  -7.280
REMARK INTRA:                  -2.826
REMARK UNBOUND:                -2.271
REMARK SMILES CCCCCCCCCCCCCCCCCC(=O)[O-]
REMARK SMILES IDX 10 1 11 2 12 3 13 4 14 5 15 6 16 7 17 8 18 9 19 10 20 11
REMARK SMILES IDX 9 12 8 13 7 14 6 15 5 16 4 17 3 18 2 19 1 20
REMARK H PARENT
REMARK Flexibility Score: inf
ROOT
ATOM      1  C   UNL     1     105.132  96.981  96.088  1.00  0.00     0.000 C 
ENDROOT
BRANCH   1   2
ATOM      2  C   UNL     1     104.492  97.957  95.083  1.00  0.00     0.000 C 
BRANCH   2   3
ATOM      3  C   UNL     1     103.088  98.463  95.462  1.00  0.00     0.000 C 
BRANCH   3   4
ATOM      4  C   UNL     1     103.007  99.996  95.551  1.00  0.00     0.000 C 
BRANCH   4   5
ATOM      5  C   UNL     1     103.102 100.515  96.997  1.00  0.00     0.000 C 
BRANCH   5   6
ATOM      6  C   UNL     1     104.324 101.410  97.289  1.00  0.00     0.000 C 
BRANCH   6   7
ATOM      7  C   UNL     1     105.629 100.657  97.601  1.00  0.00     0.006 C 
BRANCH   7   8
ATOM      8  C   UNL     1     106.621 100.670  96.430  1.00  0.00     0.053 C 
BRANCH   8   9
ATOM      9  C   UNL     1     107.606  99.553  96.568  1.00  0.00     0.041 C 
ATOM     10  O   UNL     1     108.240  99.141  95.560  1.00  0.00    -0.550 OA
ATOM     11  O   UNL     1     107.793  98.937  97.799  1.00  0.00    -0.550 OA
ENDBRANCH   8   9
ENDBRANCH   7   8
ENDBRANCH   6   7
ENDBRANCH   5   6
ENDBRANCH   4   5
ENDBRANCH   3   4
ENDBRANCH   2   3
ENDBRANCH   1   2
BRANCH   1  12
ATOM     12  C   UNL     1     104.484  97.038  97.481  1.00  0.00     0.000 C 
BRANCH  12  13
ATOM     13  C   UNL     1     104.223  95.643  98.074  1.00  0.00    -0.000 C 
BRANCH  13  14
ATOM     14  C   UNL     1     102.943  95.565  98.933  1.00  0.00    -0.000 C 
BRANCH  14  15
ATOM     15  C   UNL     1     101.939  96.675  98.578  1.00  0.00    -0.000 C 
BRANCH  15  16
ATOM     16  C   UNL     1     100.620  96.123  98.014  1.00  0.00    -0.000 C 
BRANCH  16  17
ATOM     17  C   UNL     1      99.736  97.216  97.394  1.00  0.00    -0.000 C 
BRANCH  17  18
ATOM     18  C   UNL     1     100.026  98.582  98.035  1.00  0.00    -0.000 C 
BRANCH  18  19
ATOM     19  C   UNL     1      99.494  99.753  97.195  1.00  0.00    -0.003 C 
ATOM     20  C   UNL     1      99.301  99.387  95.725  1.00  0.00     0.004 C 
ENDBRANCH  18  19
ENDBRANCH  17  18
ENDBRANCH  16  17
ENDBRANCH  15  16
ENDBRANCH  14  15
ENDBRANCH  13  14
ENDBRANCH  12  13
ENDBRANCH   1  12
TORSDOF 16
ENDMDL
MODEL 9
REMARK VINA RESULT:    -4.042     11.025     12.949
REMARK INTER + INTRA:         -10.095
REMARK INTER:                  -7.180
REMARK INTRA:                  -2.914
REMARK UNBOUND:                -2.271
REMARK SMILES CCCCCCCCCCCCCCCCCC(=O)[O-]
REMARK SMILES IDX 10 1 11 2 12 3 13 4 14 5 15 6 16 7 17 8 18 9 19 10 20 11
REMARK SMILES IDX 9 12 8 13 7 14 6 15 5 16 4 17 3 18 2 19 1 20
REMARK H PARENT
REMARK Flexibility Score: inf
ROOT
ATOM      1  C   UNL     1     102.236 100.502  96.451  1.00  0.00     0.000 C 
ENDROOT
BRANCH   1   2
ATOM      2  C   UNL     1     102.607 100.713  97.931  1.00  0.00     0.000 C 
BRANCH   2   3
ATOM      3  C   UNL     1     104.069 100.390  98.293  1.00  0.00     0.000 C 
BRANCH   3   4
ATOM      4  C   UNL     1     104.206  99.127  99.161  1.00  0.00     0.000 C 
BRANCH   4   5
ATOM      5  C   UNL     1     102.847  98.579  99.634  1.00  0.00     0.000 C 
BRANCH   5   6
ATOM      6  C   UNL     1     102.718  97.042  99.602  1.00  0.00     0.000 C 
BRANCH   6   7
ATOM      7  C   UNL     1     101.881  96.478  98.441  1.00  0.00     0.006 C 
BRANCH   7   8
ATOM      8  C   UNL     1     100.713  97.392  98.047  1.00  0.00     0.053 C 
BRANCH   8   9
ATOM      9  C   UNL     1      99.595  96.588  97.462  1.00  0.00     0.041 C 
ATOM     10  O   UNL     1      99.650  96.206  96.263  1.00  0.00    -0.550 OA
ATOM     11  O   UNL     1      98.472  96.298  98.227  1.00  0.00    -0.550 OA
ENDBRANCH   8   9
ENDBRANCH   7   8
ENDBRANCH   6   7
ENDBRANCH   5   6
ENDBRANCH   4   5
ENDBRANCH   3   4
ENDBRANCH   2   3
ENDBRANCH   1   2
BRANCH   1  12
ATOM     12  C   UNL     1     103.451 100.192  95.563  1.00  0.00     0.000 C 
BRANCH  12  13
ATOM     13  C   UNL     1     103.391  98.786  94.941  1.00  0.00    -0.000 C 
BRANCH  13  14
ATOM     14  C   UNL     1     104.036  97.692  95.818  1.00  0.00    -0.000 C 
BRANCH  14  15
ATOM     15  C   UNL     1     105.489  97.402  95.404  1.00  0.00    -0.000 C 
BRANCH  15  16
ATOM     16  C   UNL     1     106.460  97.413  96.596  1.00  0.00    -0.000 C 
BRANCH  16  17
ATOM     17  C   UNL     1     107.164  98.767  96.776  1.00  0.00    -0.000 C 
BRANCH  17  18
ATOM     18  C   UNL     1     107.684  99.295  95.431  1.00  0.00    -0.000 C 
BRANCH  18  19
ATOM     19  C   UNL     1     107.076 100.655  95.056  1.00  0.00    -0.003 C 
ATOM     20  C   UNL     1     106.764 100.771  93.565  1.00  0.00     0.004 C 
ENDBRANCH  18  19
ENDBRANCH  17  18
ENDBRANCH  16  17
ENDBRANCH  15  16
ENDBRANCH  14  15
ENDBRANCH  13  14
ENDBRANCH  12  13
ENDBRANCH   1  12
TORSDOF 16
ENDMDL
