MODEL 1
REMARK VINA RESULT:    -0.068      0.000      0.000
REMARK INTER + INTRA:          -2.649
REMARK INTER:                  -0.105
REMARK INTRA:                  -2.544
REMARK UNBOUND:                -2.544
REMARK SMILES COc1cc(CNC(=O)CCCCC=CC(C)C)ccc1O
REMARK SMILES IDX 11 1 12 2 13 3 14 4 15 5 16 6 17 7 18 8 10 9 8 10 9 11 7 12
REMARK SMILES IDX 6 14 5 15 4 16 19 17 3 18 20 19 21 20 2 21 1 22 22 23
REMARK H PARENT 7 13 22 24
REMARK Flexibility Score: inf
ROOT
ATOM      1  C   UNL     1      25.185  29.055  53.355  1.00  0.00     0.010 C 
ENDROOT
BRANCH   1   2
ATOM      2  C   UNL     1      23.721  28.660  53.096  1.00  0.00     0.005 C 
BRANCH   2   3
ATOM      3  C   UNL     1      23.552  27.562  52.030  1.00  0.00     0.027 C 
BRANCH   3   4
ATOM      4  C   UNL     1      22.710  28.014  50.866  1.00  0.00    -0.031 C 
ATOM      5  C   UNL     1      22.579  29.313  50.553  1.00  0.00    -0.028 C 
BRANCH   5   6
ATOM      6  C   UNL     1      21.752  29.757  49.372  1.00  0.00     0.005 C 
ATOM      7  C   UNL     1      21.266  28.544  48.572  1.00  0.00     0.012 C 
ATOM      8  C   UNL     1      22.562  30.698  48.474  1.00  0.00     0.012 C 
ENDBRANCH   5   6
ENDBRANCH   3   4
ENDBRANCH   2   3
ENDBRANCH   1   2
BRANCH   1   9
ATOM      9  C   UNL     1      25.535  30.427  52.775  1.00  0.00     0.100 C 
BRANCH   9  10
ATOM     10  C   UNL     1      26.006  30.288  51.360  1.00  0.00     0.220 C 
ATOM     11  O   UNL     1      25.678  31.155  50.506  1.00  0.00    -0.275 OA
ATOM     12  N   UNL     1      26.787  29.151  50.973  1.00  0.00    -0.352 N 
ATOM     13  H   UNL     1      27.038  28.450  51.704  1.00  0.00     0.163 HD
BRANCH  12  14
ATOM     14  C   UNL     1      27.159  28.913  49.578  1.00  0.00     0.151 C 
BRANCH  14  15
ATOM     15  C   UNL     1      26.122  28.066  48.893  1.00  0.00    -0.025 A 
ATOM     16  C   UNL     1      25.875  26.758  49.339  1.00  0.00     0.056 A 
ATOM     17  C   UNL     1      25.442  28.551  47.767  1.00  0.00     0.009 A 
ATOM     18  C   UNL     1      24.937  25.940  48.677  1.00  0.00     0.160 A 
ATOM     19  C   UNL     1      24.508  27.748  47.109  1.00  0.00     0.050 A 
ATOM     20  C   UNL     1      24.251  26.449  47.558  1.00  0.00     0.157 A 
BRANCH  18  21
ATOM     21  O   UNL     1      24.669  24.627  49.096  1.00  0.00    -0.493 OA
ATOM     22  C   UNL     1      23.778  24.282  50.150  1.00  0.00     0.278 C 
ENDBRANCH  18  21
BRANCH  20  23
ATOM     23  O   UNL     1      23.312  25.675  46.875  1.00  0.00    -0.504 OA
ATOM     24  H   UNL     1      23.039  25.876  45.921  1.00  0.00     0.293 HD
ENDBRANCH  20  23
ENDBRANCH  14  15
ENDBRANCH  12  14
ENDBRANCH   9  10
ENDBRANCH   1   9
TORSDOF 10
ENDMDL
MODEL 2
REMARK VINA RESULT:    -0.039      2.416      3.740
REMARK INTER + INTRA:          -2.605
REMARK INTER:                  -0.081
REMARK INTRA:                  -2.525
REMARK UNBOUND:                -2.544
REMARK SMILES COc1cc(CNC(=O)CCCCC=CC(C)C)ccc1O
REMARK SMILES IDX 11 1 12 2 13 3 14 4 15 5 16 6 17 7 18 8 10 9 8 10 9 11 7 12
REMARK SMILES IDX 6 14 5 15 4 16 19 17 3 18 20 19 21 20 2 21 1 22 22 23
REMARK H PARENT 7 13 22 24
REMARK Flexibility Score: inf
ROOT
ATOM      1  C   UNL     1      24.998  29.455  52.502  1.00  0.00     0.010 C 
ENDROOT
BRANCH   1   2
ATOM      2  C   UNL     1      24.223  30.759  52.247  1.00  0.00     0.005 C 
BRANCH   2   3
ATOM      3  C   UNL     1      22.891  30.556  51.502  1.00  0.00     0.027 C 
BRANCH   3   4
ATOM      4  C   UNL     1      22.921  31.122  50.106  1.00  0.00    -0.031 C 
ATOM      5  C   UNL     1      24.012  31.729  49.615  1.00  0.00    -0.028 C 
BRANCH   5   6
ATOM      6  C   UNL     1      24.041  32.273  48.207  1.00  0.00     0.005 C 
ATOM      7  C   UNL     1      22.622  32.368  47.639  1.00  0.00     0.012 C 
ATOM      8  C   UNL     1      24.916  31.392  47.310  1.00  0.00     0.012 C 
ENDBRANCH   5   6
ENDBRANCH   3   4
ENDBRANCH   2   3
ENDBRANCH   1   2
BRANCH   1   9
ATOM      9  C   UNL     1      26.185  29.281  51.552  1.00  0.00     0.100 C 
BRANCH   9  10
ATOM     10  C   UNL     1      25.767  28.521  50.331  1.00  0.00     0.220 C 
ATOM     11  O   UNL     1      26.312  28.774  49.224  1.00  0.00    -0.275 OA
ATOM     12  N   UNL     1      24.719  27.548  50.416  1.00  0.00    -0.352 N 
ATOM     13  H   UNL     1      24.286  27.366  51.348  1.00  0.00     0.163 HD
BRANCH  12  14
ATOM     14  C   UNL     1      24.195  26.876  49.227  1.00  0.00     0.151 C 
BRANCH  14  15
ATOM     15  C   UNL     1      23.019  27.632  48.672  1.00  0.00    -0.025 A 
ATOM     16  C   UNL     1      21.815  27.688  49.391  1.00  0.00     0.056 A 
ATOM     17  C   UNL     1      23.094  28.228  47.405  1.00  0.00     0.009 A 
ATOM     18  C   UNL     1      20.692  28.355  48.860  1.00  0.00     0.160 A 
ATOM     19  C   UNL     1      21.987  28.896  46.875  1.00  0.00     0.050 A 
ATOM     20  C   UNL     1      20.791  28.963  47.595  1.00  0.00     0.157 A 
BRANCH  18  21
ATOM     21  O   UNL     1      19.474  28.427  49.554  1.00  0.00    -0.493 OA
ATOM     22  C   UNL     1      19.213  29.312  50.638  1.00  0.00     0.278 C 
ENDBRANCH  18  21
BRANCH  20  23
ATOM     23  O   UNL     1      19.706  29.637  47.033  1.00  0.00    -0.504 OA
ATOM     24  H   UNL     1      18.908  29.148  46.646  1.00  0.00     0.293 HD
ENDBRANCH  20  23
ENDBRANCH  14  15
ENDBRANCH  12  14
ENDBRANCH   9  10
ENDBRANCH   1   9
TORSDOF 10
ENDMDL
MODEL 3
REMARK VINA RESULT:    -0.035      2.485      4.176
REMARK INTER + INTRA:          -2.599
REMARK INTER:                  -0.066
REMARK INTRA:                  -2.533
REMARK UNBOUND:                -2.544
REMARK SMILES COc1cc(CNC(=O)CCCCC=CC(C)C)ccc1O
REMARK SMILES IDX 11 1 12 2 13 3 14 4 15 5 16 6 17 7 18 8 10 9 8 10 9 11 7 12
REMARK SMILES IDX 6 14 5 15 4 16 19 17 3 18 20 19 21 20 2 21 1 22 22 23
REMARK H PARENT 7 13 22 24
REMARK Flexibility Score: inf
ROOT
ATOM      1  C   UNL     1      26.811  29.952  54.389  1.00  0.00     0.010 C 
ENDROOT
BRANCH   1   2
ATOM      2  C   UNL     1      26.741  31.154  53.432  1.00  0.00     0.005 C 
BRANCH   2   3
ATOM      3  C   UNL     1      25.630  31.042  52.372  1.00  0.00     0.027 C 
BRANCH   3   4
ATOM      4  C   UNL     1      26.158  31.180  50.968  1.00  0.00    -0.031 C 
ATOM      5  C   UNL     1      27.344  30.666  50.607  1.00  0.00    -0.028 C 
BRANCH   5   6
ATOM      6  C   UNL     1      27.856  30.788  49.192  1.00  0.00     0.005 C 
ATOM      7  C   UNL     1      29.159  31.593  49.162  1.00  0.00     0.012 C 
ATOM      8  C   UNL     1      26.802  31.447  48.296  1.00  0.00     0.012 C 
ENDBRANCH   5   6
ENDBRANCH   3   4
ENDBRANCH   2   3
ENDBRANCH   1   2
BRANCH   1   9
ATOM      9  C   UNL     1      28.129  29.183  54.272  1.00  0.00     0.100 C 
BRANCH   9  10
ATOM     10  C   UNL     1      28.032  28.146  53.195  1.00  0.00     0.220 C 
ATOM     11  O   UNL     1      29.002  27.970  52.411  1.00  0.00    -0.275 OA
ATOM     12  N   UNL     1      26.824  27.394  53.031  1.00  0.00    -0.352 N 
ATOM     13  H   UNL     1      26.038  27.568  53.696  1.00  0.00     0.163 HD
BRANCH  12  14
ATOM     14  C   UNL     1      26.642  26.464  51.917  1.00  0.00     0.151 C 
BRANCH  14  15
ATOM     15  C   UNL     1      25.892  27.128  50.794  1.00  0.00    -0.025 A 
ATOM     16  C   UNL     1      26.464  27.206  49.514  1.00  0.00     0.056 A 
ATOM     17  C   UNL     1      24.647  27.729  51.032  1.00  0.00     0.009 A 
ATOM     18  C   UNL     1      25.788  27.865  48.467  1.00  0.00     0.160 A 
ATOM     19  C   UNL     1      23.971  28.378  49.997  1.00  0.00     0.050 A 
ATOM     20  C   UNL     1      24.532  28.448  48.719  1.00  0.00     0.157 A 
BRANCH  18  21
ATOM     21  O   UNL     1      26.334  27.963  47.177  1.00  0.00    -0.493 OA
ATOM     22  C   UNL     1      27.720  27.847  46.876  1.00  0.00     0.278 C 
ENDBRANCH  18  21
BRANCH  20  23
ATOM     23  O   UNL     1      23.827  29.105  47.710  1.00  0.00    -0.504 OA
ATOM     24  H   UNL     1      23.859  30.111  47.598  1.00  0.00     0.293 HD
ENDBRANCH  20  23
ENDBRANCH  14  15
ENDBRANCH  12  14
ENDBRANCH   9  10
ENDBRANCH   1   9
TORSDOF 10
ENDMDL
MODEL 4
REMARK VINA RESULT:    -0.030      2.534      4.584
REMARK INTER + INTRA:          -2.591
REMARK INTER:                  -0.111
REMARK INTRA:                  -2.480
REMARK UNBOUND:                -2.544
REMARK SMILES COc1cc(CNC(=O)CCCCC=CC(C)C)ccc1O
REMARK SMILES IDX 11 1 12 2 13 3 14 4 15 5 16 6 17 7 18 8 10 9 8 10 9 11 7 12
REMARK SMILES IDX 6 14 5 15 4 16 19 17 3 18 20 19 21 20 2 21 1 22 22 23
REMARK H PARENT 7 13 22 24
REMARK Flexibility Score: inf
ROOT
ATOM      1  C   UNL     1      24.096  26.244  54.492  1.00  0.00     0.010 C 
ENDROOT
BRANCH   1   2
ATOM      2  C   UNL     1      24.215  24.841  53.876  1.00  0.00     0.005 C 
BRANCH   2   3
ATOM      3  C   UNL     1      25.191  24.763  52.688  1.00  0.00     0.027 C 
BRANCH   3   4
ATOM      4  C   UNL     1      25.590  26.125  52.182  1.00  0.00    -0.031 C 
ATOM      5  C   UNL     1      26.023  26.310  50.924  1.00  0.00    -0.028 C 
BRANCH   5   6
ATOM      6  C   UNL     1      26.400  27.681  50.418  1.00  0.00     0.005 C 
ATOM      7  C   UNL     1      27.912  27.898  50.535  1.00  0.00     0.012 C 
ATOM      8  C   UNL     1      25.644  28.765  51.192  1.00  0.00     0.012 C 
ENDBRANCH   5   6
ENDBRANCH   3   4
ENDBRANCH   2   3
ENDBRANCH   1   2
BRANCH   1   9
ATOM      9  C   UNL     1      22.652  26.612  54.842  1.00  0.00     0.100 C 
BRANCH   9  10
ATOM     10  C   UNL     1      21.837  26.763  53.594  1.00  0.00     0.220 C 
ATOM     11  O   UNL     1      20.745  26.144  53.485  1.00  0.00    -0.275 OA
ATOM     12  N   UNL     1      22.323  27.568  52.514  1.00  0.00    -0.352 N 
ATOM     13  H   UNL     1      23.233  28.064  52.636  1.00  0.00     0.163 HD
BRANCH  12  14
ATOM     14  C   UNL     1      21.620  27.641  51.233  1.00  0.00     0.151 C 
BRANCH  14  15
ATOM     15  C   UNL     1      22.345  26.835  50.189  1.00  0.00    -0.025 A 
ATOM     16  C   UNL     1      22.893  27.471  49.063  1.00  0.00     0.056 A 
ATOM     17  C   UNL     1      22.424  25.440  50.299  1.00  0.00     0.009 A 
ATOM     18  C   UNL     1      23.535  26.721  48.058  1.00  0.00     0.160 A 
ATOM     19  C   UNL     1      23.064  24.691  49.309  1.00  0.00     0.050 A 
ATOM     20  C   UNL     1      23.619  25.322  48.193  1.00  0.00     0.157 A 
BRANCH  18  21
ATOM     21  O   UNL     1      24.090  27.326  46.919  1.00  0.00    -0.493 OA
ATOM     22  C   UNL     1      25.374  27.939  46.875  1.00  0.00     0.278 C 
ENDBRANCH  18  21
BRANCH  20  23
ATOM     23  O   UNL     1      24.250  24.541  47.224  1.00  0.00    -0.504 OA
ATOM     24  H   UNL     1      23.808  24.317  46.341  1.00  0.00     0.293 HD
ENDBRANCH  20  23
ENDBRANCH  14  15
ENDBRANCH  12  14
ENDBRANCH   9  10
ENDBRANCH   1   9
TORSDOF 10
ENDMDL
MODEL 5
REMARK VINA RESULT:    -0.027      2.442      3.495
REMARK INTER + INTRA:          -2.586
REMARK INTER:                  -0.072
REMARK INTRA:                  -2.514
REMARK UNBOUND:                -2.544
REMARK SMILES COc1cc(CNC(=O)CCCCC=CC(C)C)ccc1O
REMARK SMILES IDX 11 1 12 2 13 3 14 4 15 5 16 6 17 7 18 8 10 9 8 10 9 11 7 12
REMARK SMILES IDX 6 14 5 15 4 16 19 17 3 18 20 19 21 20 2 21 1 22 22 23
REMARK H PARENT 7 13 22 24
REMARK Flexibility Score: inf
ROOT
ATOM      1  C   UNL     1      24.843  25.410  54.369  1.00  0.00     0.010 C 
ENDROOT
BRANCH   1   2
ATOM      2  C   UNL     1      23.999  24.202  53.931  1.00  0.00     0.005 C 
BRANCH   2   3
ATOM      3  C   UNL     1      24.229  23.780  52.468  1.00  0.00     0.027 C 
BRANCH   3   4
ATOM      4  C   UNL     1      23.045  24.084  51.588  1.00  0.00    -0.031 C 
ATOM      5  C   UNL     1      21.911  24.602  52.087  1.00  0.00    -0.028 C 
BRANCH   5   6
ATOM      6  C   UNL     1      20.737  24.926  51.195  1.00  0.00     0.005 C 
ATOM      7  C   UNL     1      20.846  24.167  49.869  1.00  0.00     0.012 C 
ATOM      8  C   UNL     1      20.658  26.435  50.941  1.00  0.00     0.012 C 
ENDBRANCH   5   6
ENDBRANCH   3   4
ENDBRANCH   2   3
ENDBRANCH   1   2
BRANCH   1   9
ATOM      9  C   UNL     1      24.034  26.708  54.412  1.00  0.00     0.100 C 
BRANCH   9  10
ATOM     10  C   UNL     1      24.151  27.437  53.109  1.00  0.00     0.220 C 
ATOM     11  O   UNL     1      23.204  28.171  52.719  1.00  0.00    -0.275 OA
ATOM     12  N   UNL     1      25.313  27.260  52.290  1.00  0.00    -0.352 N 
ATOM     13  H   UNL     1      26.077  26.641  52.641  1.00  0.00     0.163 HD
BRANCH  12  14
ATOM     14  C   UNL     1      25.411  27.853  50.956  1.00  0.00     0.151 C 
BRANCH  14  15
ATOM     15  C   UNL     1      24.923  26.884  49.913  1.00  0.00    -0.025 A 
ATOM     16  C   UNL     1      25.663  25.727  49.626  1.00  0.00     0.056 A 
ATOM     17  C   UNL     1      23.763  27.162  49.177  1.00  0.00     0.009 A 
ATOM     18  C   UNL     1      25.238  24.836  48.620  1.00  0.00     0.160 A 
ATOM     19  C   UNL     1      23.333  26.280  48.182  1.00  0.00     0.050 A 
ATOM     20  C   UNL     1      24.062  25.121  47.902  1.00  0.00     0.157 A 
BRANCH  18  21
ATOM     21  O   UNL     1      25.958  23.671  48.307  1.00  0.00    -0.493 OA
ATOM     22  C   UNL     1      25.992  22.501  49.116  1.00  0.00     0.278 C 
ENDBRANCH  18  21
BRANCH  20  23
ATOM     23  O   UNL     1      23.603  24.265  46.900  1.00  0.00    -0.504 OA
ATOM     24  H   UNL     1      22.919  24.556  46.212  1.00  0.00     0.293 HD
ENDBRANCH  20  23
ENDBRANCH  14  15
ENDBRANCH  12  14
ENDBRANCH   9  10
ENDBRANCH   1   9
TORSDOF 10
ENDMDL
MODEL 6
REMARK VINA RESULT:    -0.019      2.854      4.182
REMARK INTER + INTRA:          -2.573
REMARK INTER:                  -0.095
REMARK INTRA:                  -2.479
REMARK UNBOUND:                -2.544
REMARK SMILES COc1cc(CNC(=O)CCCCC=CC(C)C)ccc1O
REMARK SMILES IDX 11 1 12 2 13 3 14 4 15 5 16 6 17 7 18 8 10 9 8 10 9 11 7 12
REMARK SMILES IDX 6 14 5 15 4 16 19 17 3 18 20 19 21 20 2 21 1 22 22 23
REMARK H PARENT 7 13 22 24
REMARK Flexibility Score: inf
ROOT
ATOM      1  C   UNL     1      28.154  26.975  52.761  1.00  0.00     0.010 C 
ENDROOT
BRANCH   1   2
ATOM      2  C   UNL     1      27.495  28.232  52.170  1.00  0.00     0.005 C 
BRANCH   2   3
ATOM      3  C   UNL     1      26.079  27.991  51.616  1.00  0.00     0.027 C 
BRANCH   3   4
ATOM      4  C   UNL     1      25.953  28.382  50.167  1.00  0.00    -0.031 C 
ATOM      5  C   UNL     1      26.768  27.876  49.227  1.00  0.00    -0.028 C 
BRANCH   5   6
ATOM      6  C   UNL     1      26.621  28.255  47.773  1.00  0.00     0.005 C 
ATOM      7  C   UNL     1      25.143  28.438  47.415  1.00  0.00     0.012 C 
ATOM      8  C   UNL     1      27.260  27.191  46.875  1.00  0.00     0.012 C 
ENDBRANCH   5   6
ENDBRANCH   3   4
ENDBRANCH   2   3
ENDBRANCH   1   2
BRANCH   1   9
ATOM      9  C   UNL     1      29.281  26.431  51.880  1.00  0.00     0.100 C 
BRANCH   9  10
ATOM     10  C   UNL     1      28.749  25.399  50.934  1.00  0.00     0.220 C 
ATOM     11  O   UNL     1      29.241  25.301  49.778  1.00  0.00    -0.275 OA
ATOM     12  N   UNL     1      27.657  24.561  51.329  1.00  0.00    -0.352 N 
ATOM     13  H   UNL     1      27.270  24.670  52.292  1.00  0.00     0.163 HD
BRANCH  12  14
ATOM     14  C   UNL     1      27.027  23.628  50.394  1.00  0.00     0.151 C 
BRANCH  14  15
ATOM     15  C   UNL     1      25.816  24.256  49.760  1.00  0.00    -0.025 A 
ATOM     16  C   UNL     1      24.810  24.817  50.564  1.00  0.00     0.056 A 
ATOM     17  C   UNL     1      25.651  24.230  48.367  1.00  0.00     0.009 A 
ATOM     18  C   UNL     1      23.651  25.368  49.981  1.00  0.00     0.160 A 
ATOM     19  C   UNL     1      24.508  24.779  47.784  1.00  0.00     0.050 A 
ATOM     20  C   UNL     1      23.510  25.348  48.581  1.00  0.00     0.157 A 
BRANCH  18  21
ATOM     21  O   UNL     1      22.627  25.933  50.758  1.00  0.00    -0.493 OA
ATOM     22  C   UNL     1      21.633  25.187  51.450  1.00  0.00     0.278 C 
ENDBRANCH  18  21
BRANCH  20  23
ATOM     23  O   UNL     1      22.381  25.886  47.962  1.00  0.00    -0.504 OA
ATOM     24  H   UNL     1      22.087  25.603  47.036  1.00  0.00     0.293 HD
ENDBRANCH  20  23
ENDBRANCH  14  15
ENDBRANCH  12  14
ENDBRANCH   9  10
ENDBRANCH   1   9
TORSDOF 10
ENDMDL
MODEL 7
REMARK VINA RESULT:    -0.017      2.254      3.938
REMARK INTER + INTRA:          -2.571
REMARK INTER:                  -0.161
REMARK INTRA:                  -2.410
REMARK UNBOUND:                -2.544
REMARK SMILES COc1cc(CNC(=O)CCCCC=CC(C)C)ccc1O
REMARK SMILES IDX 11 1 12 2 13 3 14 4 15 5 16 6 17 7 18 8 10 9 8 10 9 11 7 12
REMARK SMILES IDX 6 14 5 15 4 16 19 17 3 18 20 19 21 20 2 21 1 22 22 23
REMARK H PARENT 7 13 22 24
REMARK Flexibility Score: inf
ROOT
ATOM      1  C   UNL     1      25.301  26.179  52.140  1.00  0.00     0.010 C 
ENDROOT
BRANCH   1   2
ATOM      2  C   UNL     1      25.883  27.603  52.142  1.00  0.00     0.005 C 
BRANCH   2   3
ATOM      3  C   UNL     1      25.002  28.635  51.415  1.00  0.00     0.027 C 
BRANCH   3   4
ATOM      4  C   UNL     1      23.683  28.058  50.973  1.00  0.00    -0.031 C 
ATOM      5  C   UNL     1      22.652  28.843  50.622  1.00  0.00    -0.028 C 
BRANCH   5   6
ATOM      6  C   UNL     1      21.340  28.257  50.159  1.00  0.00     0.005 C 
ATOM      7  C   UNL     1      20.206  28.671  51.101  1.00  0.00     0.012 C 
ATOM      8  C   UNL     1      21.435  26.730  50.076  1.00  0.00     0.012 C 
ENDBRANCH   5   6
ENDBRANCH   3   4
ENDBRANCH   2   3
ENDBRANCH   1   2
BRANCH   1   9
ATOM      9  C   UNL     1      26.269  25.150  51.551  1.00  0.00     0.100 C 
BRANCH   9  10
ATOM     10  C   UNL     1      26.454  25.390  50.084  1.00  0.00     0.220 C 
ATOM     11  O   UNL     1      27.600  25.662  49.637  1.00  0.00    -0.275 OA
ATOM     12  N   UNL     1      25.324  25.358  49.204  1.00  0.00    -0.352 N 
ATOM     13  H   UNL     1      24.388  25.134  49.608  1.00  0.00     0.163 HD
BRANCH  12  14
ATOM     14  C   UNL     1      25.441  25.710  47.789  1.00  0.00     0.151 C 
BRANCH  14  15
ATOM     15  C   UNL     1      24.882  27.085  47.542  1.00  0.00    -0.025 A 
ATOM     16  C   UNL     1      25.647  28.222  47.845  1.00  0.00     0.056 A 
ATOM     17  C   UNL     1      23.571  27.242  47.067  1.00  0.00     0.009 A 
ATOM     18  C   UNL     1      25.117  29.514  47.659  1.00  0.00     0.160 A 
ATOM     19  C   UNL     1      23.042  28.519  46.875  1.00  0.00     0.050 A 
ATOM     20  C   UNL     1      23.805  29.653  47.166  1.00  0.00     0.157 A 
BRANCH  18  21
ATOM     21  O   UNL     1      25.856  30.670  47.955  1.00  0.00    -0.493 OA
ATOM     22  C   UNL     1      27.164  30.672  48.515  1.00  0.00     0.278 C 
ENDBRANCH  18  21
BRANCH  20  23
ATOM     23  O   UNL     1      23.242  30.914  46.962  1.00  0.00    -0.504 OA
ATOM     24  H   UNL     1      23.797  31.715  46.687  1.00  0.00     0.293 HD
ENDBRANCH  20  23
ENDBRANCH  14  15
ENDBRANCH  12  14
ENDBRANCH   9  10
ENDBRANCH   1   9
TORSDOF 10
ENDMDL
MODEL 8
REMARK VINA RESULT:    -0.016      1.759      3.014
REMARK INTER + INTRA:          -2.569
REMARK INTER:                  -0.088
REMARK INTRA:                  -2.482
REMARK UNBOUND:                -2.544
REMARK SMILES COc1cc(CNC(=O)CCCCC=CC(C)C)ccc1O
REMARK SMILES IDX 11 1 12 2 13 3 14 4 15 5 16 6 17 7 18 8 10 9 8 10 9 11 7 12
REMARK SMILES IDX 6 14 5 15 4 16 19 17 3 18 20 19 21 20 2 21 1 22 22 23
REMARK H PARENT 7 13 22 24
REMARK Flexibility Score: inf
ROOT
ATOM      1  C   UNL     1      26.422  27.356  54.405  1.00  0.00     0.010 C 
ENDROOT
BRANCH   1   2
ATOM      2  C   UNL     1      25.598  26.059  54.348  1.00  0.00     0.005 C 
BRANCH   2   3
ATOM      3  C   UNL     1      25.844  25.220  53.081  1.00  0.00     0.027 C 
BRANCH   3   4
ATOM      4  C   UNL     1      24.690  25.283  52.115  1.00  0.00    -0.031 C 
ATOM      5  C   UNL     1      23.542  25.905  52.429  1.00  0.00    -0.028 C 
BRANCH   5   6
ATOM      6  C   UNL     1      22.398  25.984  51.447  1.00  0.00     0.005 C 
ATOM      7  C   UNL     1      22.519  24.878  50.394  1.00  0.00     0.012 C 
ATOM      8  C   UNL     1      22.363  27.360  50.775  1.00  0.00     0.012 C 
ENDBRANCH   5   6
ENDBRANCH   3   4
ENDBRANCH   2   3
ENDBRANCH   1   2
BRANCH   1   9
ATOM      9  C   UNL     1      25.603  28.591  54.021  1.00  0.00     0.100 C 
BRANCH   9  10
ATOM     10  C   UNL     1      25.810  28.922  52.575  1.00  0.00     0.220 C 
ATOM     11  O   UNL     1      24.916  29.548  51.945  1.00  0.00    -0.275 OA
ATOM     12  N   UNL     1      26.998  28.487  51.903  1.00  0.00    -0.352 N 
ATOM     13  H   UNL     1      27.717  27.967  52.453  1.00  0.00     0.163 HD
BRANCH  12  14
ATOM     14  C   UNL     1      27.182  28.680  50.465  1.00  0.00     0.151 C 
BRANCH  14  15
ATOM     15  C   UNL     1      26.704  27.471  49.706  1.00  0.00    -0.025 A 
ATOM     16  C   UNL     1      25.532  27.541  48.936  1.00  0.00     0.056 A 
ATOM     17  C   UNL     1      27.387  26.251  49.814  1.00  0.00     0.009 A 
ATOM     18  C   UNL     1      25.052  26.403  48.258  1.00  0.00     0.160 A 
ATOM     19  C   UNL     1      26.919  25.121  49.141  1.00  0.00     0.050 A 
ATOM     20  C   UNL     1      25.759  25.190  48.364  1.00  0.00     0.157 A 
BRANCH  18  21
ATOM     21  O   UNL     1      23.882  26.439  47.482  1.00  0.00    -0.493 OA
ATOM     22  C   UNL     1      23.210  27.631  47.089  1.00  0.00     0.278 C 
ENDBRANCH  18  21
BRANCH  20  23
ATOM     23  O   UNL     1      25.321  24.041  47.706  1.00  0.00    -0.504 OA
ATOM     24  H   UNL     1      24.527  24.047  47.079  1.00  0.00     0.293 HD
ENDBRANCH  20  23
ENDBRANCH  14  15
ENDBRANCH  12  14
ENDBRANCH   9  10
ENDBRANCH   1   9
TORSDOF 10
ENDMDL
MODEL 9
REMARK VINA RESULT:    -0.013      2.457      3.424
REMARK INTER + INTRA:          -2.565
REMARK INTER:                  -0.026
REMARK INTRA:                  -2.539
REMARK UNBOUND:                -2.544
REMARK SMILES COc1cc(CNC(=O)CCCCC=CC(C)C)ccc1O
REMARK SMILES IDX 11 1 12 2 13 3 14 4 15 5 16 6 17 7 18 8 10 9 8 10 9 11 7 12
REMARK SMILES IDX 6 14 5 15 4 16 19 17 3 18 20 19 21 20 2 21 1 22 22 23
REMARK H PARENT 7 13 22 24
REMARK Flexibility Score: inf
ROOT
ATOM      1  C   UNL     1      28.855  28.332  54.371  1.00  0.00     0.010 C 
ENDROOT
BRANCH   1   2
ATOM      2  C   UNL     1      27.588  27.473  54.523  1.00  0.00     0.005 C 
BRANCH   2   3
ATOM      3  C   UNL     1      27.394  26.445  53.394  1.00  0.00     0.027 C 
BRANCH   3   4
ATOM      4  C   UNL     1      26.081  26.619  52.677  1.00  0.00    -0.031 C 
ATOM      5  C   UNL     1      25.324  27.715  52.849  1.00  0.00    -0.028 C 
BRANCH   5   6
ATOM      6  C   UNL     1      24.020  27.892  52.109  1.00  0.00     0.005 C 
ATOM      7  C   UNL     1      24.031  27.091  50.804  1.00  0.00     0.012 C 
ATOM      8  C   UNL     1      23.764  29.376  51.822  1.00  0.00     0.012 C 
ENDBRANCH   5   6
ENDBRANCH   3   4
ENDBRANCH   2   3
ENDBRANCH   1   2
BRANCH   1   9
ATOM      9  C   UNL     1      28.586  29.821  54.601  1.00  0.00     0.100 C 
BRANCH   9  10
ATOM     10  C   UNL     1      27.727  30.369  53.503  1.00  0.00     0.220 C 
ATOM     11  O   UNL     1      26.636  30.931  53.789  1.00  0.00    -0.275 OA
ATOM     12  N   UNL     1      28.124  30.212  52.136  1.00  0.00    -0.352 N 
ATOM     13  H   UNL     1      29.032  29.738  51.935  1.00  0.00     0.163 HD
BRANCH  12  14
ATOM     14  C   UNL     1      27.256  30.620  51.032  1.00  0.00     0.151 C 
BRANCH  14  15
ATOM     15  C   UNL     1      27.091  29.494  50.048  1.00  0.00    -0.025 A 
ATOM     16  C   UNL     1      27.904  28.353  50.141  1.00  0.00     0.056 A 
ATOM     17  C   UNL     1      26.173  29.602  48.994  1.00  0.00     0.009 A 
ATOM     18  C   UNL     1      27.789  27.312  49.197  1.00  0.00     0.160 A 
ATOM     19  C   UNL     1      26.050  28.572  48.059  1.00  0.00     0.050 A 
ATOM     20  C   UNL     1      26.850  27.430  48.156  1.00  0.00     0.157 A 
BRANCH  18  21
ATOM     21  O   UNL     1      28.588  26.159  49.262  1.00  0.00    -0.493 OA
ATOM     22  C   UNL     1      28.285  25.008  50.041  1.00  0.00     0.278 C 
ENDBRANCH  18  21
BRANCH  20  23
ATOM     23  O   UNL     1      26.700  26.422  47.203  1.00  0.00    -0.504 OA
ATOM     24  H   UNL     1      26.352  25.501  47.441  1.00  0.00     0.293 HD
ENDBRANCH  20  23
ENDBRANCH  14  15
ENDBRANCH  12  14
ENDBRANCH   9  10
ENDBRANCH   1   9
TORSDOF 10
ENDMDL
