MODEL 1
REMARK VINA RESULT:    -6.683      0.000      0.000
REMARK INTER + INTRA:         -11.128
REMARK INTER:                 -10.004
REMARK INTRA:                  -1.124
REMARK UNBOUND:                -1.124
REMARK SMILES COC(=O)C1=CO[C@H](O[C@H]2O[C@H](CO)[C@@H](O)[C@@H](O)[C@H]2O)[C@H]2C(CO)=CC[C@@H]12
REMARK SMILES IDX 9 1 8 2 5 3 6 4 27 5 7 6 21 7 26 8 22 9 25 10 3 11 4 12 2 13
REMARK SMILES IDX 1 14 23 15 24 16 10 18 19 19 11 20 17 21 12 22 15 23 20 24
REMARK SMILES IDX 18 26 13 28 14 29 16 31
REMARK H PARENT 24 17 20 25 18 27 14 30 16 32
REMARK Flexibility Score: inf
ROOT
ATOM      1  O   UNL     1     -15.695 -17.159  99.886  1.00  0.00    -0.310 OA
ENDROOT
BRANCH   1   2
ATOM      2  C   UNL     1     -16.421 -16.463 100.889  1.00  0.00     0.316 C 
ATOM      3  C   UNL     1     -16.968 -14.652 103.055  1.00  0.00     0.076 C 
ATOM      4  C   UNL     1     -16.204 -15.745 103.232  1.00  0.00     0.202 C 
ATOM      5  C   UNL     1     -17.341 -14.174 101.658  1.00  0.00     0.047 C 
ATOM      6  O   UNL     1     -15.776 -16.517 102.152  1.00  0.00    -0.471 OA
ATOM      7  C   UNL     1     -16.805 -15.018 100.475  1.00  0.00     0.094 C 
ATOM      8  C   UNL     1     -18.862 -14.091 101.449  1.00  0.00     0.037 C 
ATOM      9  C   UNL     1     -17.953 -15.034  99.513  1.00  0.00    -0.039 C 
ATOM     10  C   UNL     1     -19.065 -14.557 100.053  1.00  0.00    -0.024 C 
BRANCH   3  11
ATOM     11  C   UNL     1     -17.384 -13.847 104.229  1.00  0.00     0.337 C 
ATOM     12  O   UNL     1     -16.547 -13.107 104.818  1.00  0.00    -0.246 OA
BRANCH  11  13
ATOM     13  O   UNL     1     -18.707 -13.898 104.687  1.00  0.00    -0.466 OA
ATOM     14  C   UNL     1     -19.068 -13.600 106.029  1.00  0.00     0.282 C 
ENDBRANCH  11  13
ENDBRANCH   3  11
BRANCH   9  15
ATOM     15  C   UNL     1     -17.923 -15.692  98.154  1.00  0.00     0.187 C 
BRANCH  15  16
ATOM     16  O   UNL     1     -16.727 -15.385  97.489  1.00  0.00    -0.392 OA
ATOM     17  H   UNL     1     -16.017 -15.306  98.181  1.00  0.00     0.211 HD
ENDBRANCH  15  16
ENDBRANCH   9  15
ENDBRANCH   1   2
BRANCH   1  18
ATOM     18  C   UNL     1     -14.364 -16.720  99.612  1.00  0.00     0.286 C 
ATOM     19  C   UNL     1     -13.233 -17.480 100.396  1.00  0.00     0.202 C 
ATOM     20  O   UNL     1     -14.231 -15.314  99.405  1.00  0.00    -0.341 OA
ATOM     21  C   UNL     1     -12.385 -16.605 101.342  1.00  0.00     0.179 C 
ATOM     22  C   UNL     1     -13.572 -14.608 100.440  1.00  0.00     0.178 C 
ATOM     23  C   UNL     1     -12.189 -15.218 100.734  1.00  0.00     0.177 C 
BRANCH  19  24
ATOM     24  O   UNL     1     -13.755 -18.586 101.094  1.00  0.00    -0.385 OA
ATOM     25  H   UNL     1     -14.743 -18.463 101.123  1.00  0.00     0.211 HD
ENDBRANCH  19  24
BRANCH  21  26
ATOM     26  O   UNL     1     -12.977 -16.497 102.615  1.00  0.00    -0.387 OA
ATOM     27  H   UNL     1     -12.254 -16.617 103.283  1.00  0.00     0.211 HD
ENDBRANCH  21  26
BRANCH  22  28
ATOM     28  C   UNL     1     -13.478 -13.126 100.038  1.00  0.00     0.191 C 
BRANCH  28  29
ATOM     29  O   UNL     1     -12.354 -12.868  99.238  1.00  0.00    -0.394 OA
ATOM     30  H   UNL     1     -11.656 -12.496  99.839  1.00  0.00     0.210 HD
ENDBRANCH  28  29
ENDBRANCH  22  28
BRANCH  23  31
ATOM     31  O   UNL     1     -11.402 -14.407 101.572  1.00  0.00    -0.387 OA
ATOM     32  H   UNL     1     -10.687 -14.966 101.969  1.00  0.00     0.211 HD
ENDBRANCH  23  31
ENDBRANCH   1  18
TORSDOF 11
ENDMDL
MODEL 2
REMARK VINA RESULT:    -6.606      1.973      5.673
REMARK INTER + INTRA:         -11.012
REMARK INTER:                  -9.726
REMARK INTRA:                  -1.286
REMARK UNBOUND:                -1.124
REMARK SMILES COC(=O)C1=CO[C@H](O[C@H]2O[C@H](CO)[C@@H](O)[C@@H](O)[C@H]2O)[C@H]2C(CO)=CC[C@@H]12
REMARK SMILES IDX 9 1 8 2 5 3 6 4 27 5 7 6 21 7 26 8 22 9 25 10 3 11 4 12 2 13
REMARK SMILES IDX 1 14 23 15 24 16 10 18 19 19 11 20 17 21 12 22 15 23 20 24
REMARK SMILES IDX 18 26 13 28 14 29 16 31
REMARK H PARENT 24 17 20 25 18 27 14 30 16 32
REMARK Flexibility Score: inf
ROOT
ATOM      1  O   UNL     1     -14.880 -16.617 100.635  1.00  0.00    -0.310 OA
ENDROOT
BRANCH   1   2
ATOM      2  C   UNL     1     -13.852 -15.872 101.274  1.00  0.00     0.316 C 
ATOM      3  C   UNL     1     -11.303 -15.262 102.458  1.00  0.00     0.076 C 
ATOM      4  C   UNL     1     -12.167 -16.105 103.051  1.00  0.00     0.202 C 
ATOM      5  C   UNL     1     -11.508 -14.816 101.016  1.00  0.00     0.047 C 
ATOM      6  O   UNL     1     -13.312 -16.555 102.394  1.00  0.00    -0.471 OA
ATOM      7  C   UNL     1     -12.757 -15.376 100.293  1.00  0.00     0.094 C 
ATOM      8  C   UNL     1     -11.602 -13.287 100.879  1.00  0.00     0.037 C 
ATOM      9  C   UNL     1     -13.252 -14.205  99.501  1.00  0.00    -0.039 C 
ATOM     10  C   UNL     1     -12.643 -13.078  99.840  1.00  0.00    -0.024 C 
BRANCH   3  11
ATOM     11  C   UNL     1     -10.087 -14.824 103.185  1.00  0.00     0.337 C 
ATOM     12  O   UNL     1      -9.929 -15.134 104.400  1.00  0.00    -0.246 OA
BRANCH  11  13
ATOM     13  O   UNL     1      -9.104 -14.072 102.528  1.00  0.00    -0.466 OA
ATOM     14  C   UNL     1      -8.681 -12.795 102.986  1.00  0.00     0.282 C 
ENDBRANCH  11  13
ENDBRANCH   3  11
BRANCH   9  15
ATOM     15  C   UNL     1     -14.438 -14.241  98.566  1.00  0.00     0.187 C 
BRANCH  15  16
ATOM     16  O   UNL     1     -14.547 -15.504  97.965  1.00  0.00    -0.392 OA
ATOM     17  H   UNL     1     -13.701 -15.667  97.467  1.00  0.00     0.211 HD
ENDBRANCH  15  16
ENDBRANCH   9  15
ENDBRANCH   1   2
BRANCH   1  18
ATOM     18  C   UNL     1     -16.231 -16.301 100.977  1.00  0.00     0.286 C 
ATOM     19  C   UNL     1     -17.302 -16.685  99.894  1.00  0.00     0.202 C 
ATOM     20  O   UNL     1     -16.392 -15.083 101.703  1.00  0.00    -0.341 OA
ATOM     21  C   UNL     1     -18.103 -15.503  99.311  1.00  0.00     0.179 C 
ATOM     22  C   UNL     1     -16.997 -14.024 100.984  1.00  0.00     0.178 C 
ATOM     23  C   UNL     1     -18.352 -14.457 100.395  1.00  0.00     0.177 C 
BRANCH  19  24
ATOM     24  O   UNL     1     -16.727 -17.442  98.856  1.00  0.00    -0.385 OA
ATOM     25  H   UNL     1     -16.192 -16.808  98.305  1.00  0.00     0.211 HD
ENDBRANCH  19  24
BRANCH  21  26
ATOM     26  O   UNL     1     -17.437 -14.919  98.216  1.00  0.00    -0.387 OA
ATOM     27  H   UNL     1     -17.558 -15.529  97.443  1.00  0.00     0.211 HD
ENDBRANCH  21  26
BRANCH  22  28
ATOM     28  C   UNL     1     -17.133 -12.812 101.921  1.00  0.00     0.191 C 
BRANCH  28  29
ATOM     29  O   UNL     1     -16.912 -13.156 103.263  1.00  0.00    -0.394 OA
ATOM     30  H   UNL     1     -16.171 -12.579 103.586  1.00  0.00     0.210 HD
ENDBRANCH  28  29
ENDBRANCH  22  28
BRANCH  23  31
ATOM     31  O   UNL     1     -19.098 -13.376  99.889  1.00  0.00    -0.387 OA
ATOM     32  H   UNL     1     -18.471 -12.717  99.496  1.00  0.00     0.211 HD
ENDBRANCH  23  31
ENDBRANCH   1  18
TORSDOF 11
ENDMDL
MODEL 3
REMARK VINA RESULT:    -6.537      2.258      6.581
REMARK INTER + INTRA:         -10.909
REMARK INTER:                  -9.805
REMARK INTRA:                  -1.104
REMARK UNBOUND:                -1.124
REMARK SMILES COC(=O)C1=CO[C@H](O[C@H]2O[C@H](CO)[C@@H](O)[C@@H](O)[C@H]2O)[C@H]2C(CO)=CC[C@@H]12
REMARK SMILES IDX 9 1 8 2 5 3 6 4 27 5 7 6 21 7 26 8 22 9 25 10 3 11 4 12 2 13
REMARK SMILES IDX 1 14 23 15 24 16 10 18 19 19 11 20 17 21 12 22 15 23 20 24
REMARK SMILES IDX 18 26 13 28 14 29 16 31
REMARK H PARENT 24 17 20 25 18 27 14 30 16 32
REMARK Flexibility Score: inf
ROOT
ATOM      1  O   UNL     1     -13.209 -16.904 103.103  1.00  0.00    -0.310 OA
ENDROOT
BRANCH   1   2
ATOM      2  C   UNL     1     -12.514 -16.310 102.015  1.00  0.00     0.316 C 
ATOM      3  C   UNL     1     -12.046 -14.761  99.637  1.00  0.00     0.076 C 
ATOM      4  C   UNL     1     -12.766 -15.896  99.603  1.00  0.00     0.202 C 
ATOM      5  C   UNL     1     -11.686 -14.100 100.962  1.00  0.00     0.047 C 
ATOM      6  O   UNL     1     -13.160 -16.544 100.774  1.00  0.00    -0.471 OA
ATOM      7  C   UNL     1     -12.186 -14.811 102.244  1.00  0.00     0.094 C 
ATOM      8  C   UNL     1     -10.169 -13.933 101.146  1.00  0.00     0.037 C 
ATOM      9  C   UNL     1     -11.035 -14.664 103.191  1.00  0.00    -0.039 C 
ATOM     10  C   UNL     1      -9.943 -14.215 102.587  1.00  0.00    -0.024 C 
BRANCH   3  11
ATOM     11  C   UNL     1     -11.666 -14.092  98.369  1.00  0.00     0.337 C 
ATOM     12  O   UNL     1     -12.524 -13.431  97.720  1.00  0.00    -0.246 OA
BRANCH  11  13
ATOM     13  O   UNL     1     -10.352 -14.185  97.889  1.00  0.00    -0.466 OA
ATOM     14  C   UNL     1     -10.038 -14.153  96.503  1.00  0.00     0.282 C 
ENDBRANCH  11  13
ENDBRANCH   3  11
BRANCH   9  15
ATOM     15  C   UNL     1     -11.033 -15.149 104.621  1.00  0.00     0.187 C 
BRANCH  15  16
ATOM     16  O   UNL     1     -12.198 -14.729 105.280  1.00  0.00    -0.392 OA
ATOM     17  H   UNL     1     -12.163 -15.096 106.204  1.00  0.00     0.211 HD
ENDBRANCH  15  16
ENDBRANCH   9  15
ENDBRANCH   1   2
BRANCH   1  18
ATOM     18  C   UNL     1     -14.559 -16.494 103.324  1.00  0.00     0.286 C 
ATOM     19  C   UNL     1     -15.654 -17.418 102.679  1.00  0.00     0.202 C 
ATOM     20  O   UNL     1     -14.761 -15.081 103.317  1.00  0.00    -0.341 OA
ATOM     21  C   UNL     1     -16.550 -16.739 101.623  1.00  0.00     0.179 C 
ATOM     22  C   UNL     1     -15.461 -14.573 102.196  1.00  0.00     0.178 C 
ATOM     23  C   UNL     1     -16.812 -15.288 102.017  1.00  0.00     0.177 C 
BRANCH  19  24
ATOM     24  O   UNL     1     -15.081 -18.590 102.150  1.00  0.00    -0.385 OA
ATOM     25  H   UNL     1     -14.114 -18.396 102.010  1.00  0.00     0.211 HD
ENDBRANCH  19  24
BRANCH  21  26
ATOM     26  O   UNL     1     -15.972 -16.798 100.340  1.00  0.00    -0.387 OA
ATOM     27  H   UNL     1     -15.202 -17.421 100.396  1.00  0.00     0.211 HD
ENDBRANCH  21  26
BRANCH  22  28
ATOM     28  C   UNL     1     -15.627 -13.054 102.370  1.00  0.00     0.191 C 
BRANCH  28  29
ATOM     29  O   UNL     1     -16.721 -12.734 103.189  1.00  0.00    -0.394 OA
ATOM     30  H   UNL     1     -17.137 -13.595 103.457  1.00  0.00     0.210 HD
ENDBRANCH  28  29
ENDBRANCH  22  28
BRANCH  23  31
ATOM     31  O   UNL     1     -17.644 -14.653 101.075  1.00  0.00    -0.387 OA
ATOM     32  H   UNL     1     -18.131 -15.349 100.566  1.00  0.00     0.211 HD
ENDBRANCH  23  31
ENDBRANCH   1  18
TORSDOF 11
ENDMDL
MODEL 4
REMARK VINA RESULT:    -6.419      1.949      4.133
REMARK INTER + INTRA:         -10.732
REMARK INTER:                  -9.512
REMARK INTRA:                  -1.221
REMARK UNBOUND:                -1.124
REMARK SMILES COC(=O)C1=CO[C@H](O[C@H]2O[C@H](CO)[C@@H](O)[C@@H](O)[C@H]2O)[C@H]2C(CO)=CC[C@@H]12
REMARK SMILES IDX 9 1 8 2 5 3 6 4 27 5 7 6 21 7 26 8 22 9 25 10 3 11 4 12 2 13
REMARK SMILES IDX 1 14 23 15 24 16 10 18 19 19 11 20 17 21 12 22 15 23 20 24
REMARK SMILES IDX 18 26 13 28 14 29 16 31
REMARK H PARENT 24 17 20 25 18 27 14 30 16 32
REMARK Flexibility Score: inf
ROOT
ATOM      1  O   UNL     1     -13.997 -16.623 101.618  1.00  0.00    -0.310 OA
ENDROOT
BRANCH   1   2
ATOM      2  C   UNL     1     -15.093 -16.162 100.839  1.00  0.00     0.316 C 
ATOM      3  C   UNL     1     -17.607 -16.185  99.443  1.00  0.00     0.076 C 
ATOM      4  C   UNL     1     -16.554 -16.896  99.001  1.00  0.00     0.202 C 
ATOM      5  C   UNL     1     -17.608 -15.568 100.835  1.00  0.00     0.047 C 
ATOM      6  O   UNL     1     -15.401 -17.044  99.772  1.00  0.00    -0.471 OA
ATOM      7  C   UNL     1     -16.338 -15.797 101.691  1.00  0.00     0.094 C 
ATOM      8  C   UNL     1     -17.817 -14.045 100.806  1.00  0.00     0.037 C 
ATOM      9  C   UNL     1     -16.139 -14.480 102.375  1.00  0.00    -0.039 C 
ATOM     10  C   UNL     1     -16.921 -13.533 101.875  1.00  0.00    -0.024 C 
BRANCH   3  11
ATOM     11  C   UNL     1     -18.822 -16.069  98.599  1.00  0.00     0.337 C 
ATOM     12  O   UNL     1     -19.707 -15.213  98.879  1.00  0.00    -0.246 OA
BRANCH  11  13
ATOM     13  O   UNL     1     -18.989 -16.902  97.485  1.00  0.00    -0.466 OA
ATOM     14  C   UNL     1     -19.807 -18.064  97.511  1.00  0.00     0.282 C 
ENDBRANCH  11  13
ENDBRANCH   3  11
BRANCH   9  15
ATOM     15  C   UNL     1     -15.048 -14.190 103.377  1.00  0.00     0.187 C 
BRANCH  15  16
ATOM     16  O   UNL     1     -14.735 -15.347 104.107  1.00  0.00    -0.392 OA
ATOM     17  H   UNL     1     -14.290 -15.978 103.481  1.00  0.00     0.211 HD
ENDBRANCH  15  16
ENDBRANCH   9  15
ENDBRANCH   1   2
BRANCH   1  18
ATOM     18  C   UNL     1     -12.698 -16.134 101.280  1.00  0.00     0.286 C 
ATOM     19  C   UNL     1     -11.618 -16.267 102.413  1.00  0.00     0.202 C 
ATOM     20  O   UNL     1     -12.695 -14.966 100.461  1.00  0.00    -0.341 OA
ATOM     21  C   UNL     1     -11.022 -14.936 102.915  1.00  0.00     0.179 C 
ATOM     22  C   UNL     1     -12.279 -13.775 101.104  1.00  0.00     0.178 C 
ATOM     23  C   UNL     1     -10.895 -13.951 101.755  1.00  0.00     0.177 C 
BRANCH  19  24
ATOM     24  O   UNL     1     -12.108 -17.020 103.497  1.00  0.00    -0.385 OA
ATOM     25  H   UNL     1     -11.542 -17.837 103.555  1.00  0.00     0.211 HD
ENDBRANCH  19  24
BRANCH  21  26
ATOM     26  O   UNL     1     -11.803 -14.376 103.945  1.00  0.00    -0.387 OA
ATOM     27  H   UNL     1     -11.562 -14.849 104.783  1.00  0.00     0.211 HD
ENDBRANCH  21  26
BRANCH  22  28
ATOM     28  C   UNL     1     -12.294 -12.632 100.075  1.00  0.00     0.191 C 
BRANCH  28  29
ATOM     29  O   UNL     1     -12.143 -13.104  98.762  1.00  0.00    -0.394 OA
ATOM     30  H   UNL     1     -12.229 -14.093  98.803  1.00  0.00     0.210 HD
ENDBRANCH  28  29
ENDBRANCH  22  28
BRANCH  23  31
ATOM     31  O   UNL     1     -10.336 -12.734 102.187  1.00  0.00    -0.387 OA
ATOM     32  H   UNL     1     -10.899 -11.992 101.849  1.00  0.00     0.211 HD
ENDBRANCH  23  31
ENDBRANCH   1  18
TORSDOF 11
ENDMDL
MODEL 5
REMARK VINA RESULT:    -6.323      2.539      4.344
REMARK INTER + INTRA:         -10.589
REMARK INTER:                  -9.359
REMARK INTRA:                  -1.230
REMARK UNBOUND:                -1.124
REMARK SMILES COC(=O)C1=CO[C@H](O[C@H]2O[C@H](CO)[C@@H](O)[C@@H](O)[C@H]2O)[C@H]2C(CO)=CC[C@@H]12
REMARK SMILES IDX 9 1 8 2 5 3 6 4 27 5 7 6 21 7 26 8 22 9 25 10 3 11 4 12 2 13
REMARK SMILES IDX 1 14 23 15 24 16 10 18 19 19 11 20 17 21 12 22 15 23 20 24
REMARK SMILES IDX 18 26 13 28 14 29 16 31
REMARK H PARENT 24 17 20 25 18 27 14 30 16 32
REMARK Flexibility Score: inf
ROOT
ATOM      1  O   UNL     1     -13.911 -14.601 101.570  1.00  0.00    -0.310 OA
ENDROOT
BRANCH   1   2
ATOM      2  C   UNL     1     -14.895 -15.152 100.706  1.00  0.00     0.316 C 
ATOM      3  C   UNL     1     -17.458 -15.610  99.484  1.00  0.00     0.076 C 
ATOM      4  C   UNL     1     -17.213 -15.975 100.755  1.00  0.00     0.202 C 
ATOM      5  C   UNL     1     -16.498 -14.697  98.732  1.00  0.00     0.047 C 
ATOM      6  O   UNL     1     -16.047 -15.583 101.414  1.00  0.00    -0.471 OA
ATOM      7  C   UNL     1     -15.241 -14.231  99.506  1.00  0.00     0.094 C 
ATOM      8  C   UNL     1     -15.973 -15.333  97.434  1.00  0.00     0.037 C 
ATOM      9  C   UNL     1     -14.158 -14.287  98.473  1.00  0.00    -0.039 C 
ATOM     10  C   UNL     1     -14.552 -14.904  97.368  1.00  0.00    -0.024 C 
BRANCH   3  11
ATOM     11  C   UNL     1     -18.720 -16.031  98.828  1.00  0.00     0.337 C 
ATOM     12  O   UNL     1     -18.748 -17.078  98.123  1.00  0.00    -0.246 OA
BRANCH  11  13
ATOM     13  O   UNL     1     -19.888 -15.274  98.994  1.00  0.00    -0.466 OA
ATOM     14  C   UNL     1     -19.870 -13.921  99.429  1.00  0.00     0.282 C 
ENDBRANCH  11  13
ENDBRANCH   3  11
BRANCH   9  15
ATOM     15  C   UNL     1     -12.725 -13.874  98.709  1.00  0.00     0.187 C 
BRANCH  15  16
ATOM     16  O   UNL     1     -12.676 -12.690  99.460  1.00  0.00    -0.392 OA
ATOM     17  H   UNL     1     -11.954 -12.799 100.135  1.00  0.00     0.211 HD
ENDBRANCH  15  16
ENDBRANCH   9  15
ENDBRANCH   1   2
BRANCH   1  18
ATOM     18  C   UNL     1     -12.779 -15.414 101.883  1.00  0.00     0.286 C 
ATOM     19  C   UNL     1     -12.809 -16.086 103.303  1.00  0.00     0.202 C 
ATOM     20  O   UNL     1     -11.536 -14.924 101.380  1.00  0.00    -0.341 OA
ATOM     21  C   UNL     1     -11.665 -15.672 104.252  1.00  0.00     0.179 C 
ATOM     22  C   UNL     1     -10.643 -14.419 102.356  1.00  0.00     0.178 C 
ATOM     23  C   UNL     1     -10.379 -15.462 103.457  1.00  0.00     0.177 C 
BRANCH  19  24
ATOM     24  O   UNL     1     -14.055 -15.893 103.929  1.00  0.00    -0.385 OA
ATOM     25  H   UNL     1     -14.646 -16.633 103.620  1.00  0.00     0.211 HD
ENDBRANCH  19  24
BRANCH  21  26
ATOM     26  O   UNL     1     -11.988 -14.506 104.972  1.00  0.00    -0.387 OA
ATOM     27  H   UNL     1     -11.190 -13.918 104.947  1.00  0.00     0.211 HD
ENDBRANCH  21  26
BRANCH  22  28
ATOM     28  C   UNL     1      -9.349 -13.977 101.653  1.00  0.00     0.191 C 
BRANCH  28  29
ATOM     29  O   UNL     1      -8.568 -13.140 102.465  1.00  0.00    -0.394 OA
ATOM     30  H   UNL     1      -7.624 -13.267 102.181  1.00  0.00     0.210 HD
ENDBRANCH  28  29
ENDBRANCH  22  28
BRANCH  23  31
ATOM     31  O   UNL     1      -9.316 -15.101 104.306  1.00  0.00    -0.387 OA
ATOM     32  H   UNL     1      -8.604 -14.683 103.759  1.00  0.00     0.211 HD
ENDBRANCH  23  31
ENDBRANCH   1  18
TORSDOF 11
ENDMDL
MODEL 6
REMARK VINA RESULT:    -6.291      2.093      5.015
REMARK INTER + INTRA:         -10.541
REMARK INTER:                  -9.175
REMARK INTRA:                  -1.365
REMARK UNBOUND:                -1.124
REMARK SMILES COC(=O)C1=CO[C@H](O[C@H]2O[C@H](CO)[C@@H](O)[C@@H](O)[C@H]2O)[C@H]2C(CO)=CC[C@@H]12
REMARK SMILES IDX 9 1 8 2 5 3 6 4 27 5 7 6 21 7 26 8 22 9 25 10 3 11 4 12 2 13
REMARK SMILES IDX 1 14 23 15 24 16 10 18 19 19 11 20 17 21 12 22 15 23 20 24
REMARK SMILES IDX 18 26 13 28 14 29 16 31
REMARK H PARENT 24 17 20 25 18 27 14 30 16 32
REMARK Flexibility Score: inf
ROOT
ATOM      1  O   UNL     1     -13.993 -14.794 100.284  1.00  0.00    -0.310 OA
ENDROOT
BRANCH   1   2
ATOM      2  C   UNL     1     -15.272 -15.382 100.089  1.00  0.00     0.316 C 
ATOM      3  C   UNL     1     -17.716 -16.149  98.781  1.00  0.00     0.076 C 
ATOM      4  C   UNL     1     -17.465 -14.866  99.100  1.00  0.00     0.202 C 
ATOM      5  C   UNL     1     -16.616 -17.201  98.839  1.00  0.00     0.047 C 
ATOM      6  O   UNL     1     -16.209 -14.461  99.553  1.00  0.00    -0.471 OA
ATOM      7  C   UNL     1     -15.218 -16.712  99.291  1.00  0.00     0.094 C 
ATOM      8  C   UNL     1     -16.967 -18.370  99.775  1.00  0.00     0.037 C 
ATOM      9  C   UNL     1     -14.726 -17.827 100.161  1.00  0.00    -0.039 C 
ATOM     10  C   UNL     1     -15.680 -18.704 100.439  1.00  0.00    -0.024 C 
BRANCH   3  11
ATOM     11  C   UNL     1     -19.059 -16.533  98.284  1.00  0.00     0.337 C 
ATOM     12  O   UNL     1     -20.089 -15.951  98.727  1.00  0.00    -0.246 OA
BRANCH  11  13
ATOM     13  O   UNL     1     -19.192 -17.536  97.315  1.00  0.00    -0.466 OA
ATOM     14  C   UNL     1     -19.944 -18.722  97.536  1.00  0.00     0.282 C 
ENDBRANCH  11  13
ENDBRANCH   3  11
BRANCH   9  15
ATOM     15  C   UNL     1     -13.367 -17.866 100.819  1.00  0.00     0.187 C 
BRANCH  15  16
ATOM     16  O   UNL     1     -12.394 -17.331  99.961  1.00  0.00    -0.392 OA
ATOM     17  H   UNL     1     -12.867 -16.992  99.154  1.00  0.00     0.211 HD
ENDBRANCH  15  16
ENDBRANCH   9  15
ENDBRANCH   1   2
BRANCH   1  18
ATOM     18  C   UNL     1     -13.787 -14.048 101.484  1.00  0.00     0.286 C 
ATOM     19  C   UNL     1     -12.432 -14.334 102.227  1.00  0.00     0.202 C 
ATOM     20  O   UNL     1     -14.965 -13.833 102.261  1.00  0.00    -0.341 OA
ATOM     21  C   UNL     1     -12.571 -14.908 103.652  1.00  0.00     0.179 C 
ATOM     22  C   UNL     1     -15.032 -14.557 103.476  1.00  0.00     0.178 C 
ATOM     23  C   UNL     1     -13.787 -14.297 104.344  1.00  0.00     0.177 C 
BRANCH  19  24
ATOM     24  O   UNL     1     -11.592 -15.156 101.452  1.00  0.00    -0.385 OA
ATOM     25  H   UNL     1     -11.729 -14.886 100.502  1.00  0.00     0.211 HD
ENDBRANCH  19  24
BRANCH  21  26
ATOM     26  O   UNL     1     -12.676 -16.312 103.636  1.00  0.00    -0.387 OA
ATOM     27  H   UNL     1     -13.498 -16.537 103.128  1.00  0.00     0.211 HD
ENDBRANCH  21  26
BRANCH  22  28
ATOM     28  C   UNL     1     -16.334 -14.177 104.201  1.00  0.00     0.191 C 
BRANCH  28  29
ATOM     29  O   UNL     1     -16.153 -13.094 105.075  1.00  0.00    -0.394 OA
ATOM     30  H   UNL     1     -15.682 -13.449 105.875  1.00  0.00     0.210 HD
ENDBRANCH  28  29
ENDBRANCH  22  28
BRANCH  23  31
ATOM     31  O   UNL     1     -13.923 -14.793 105.655  1.00  0.00    -0.387 OA
ATOM     32  H   UNL     1     -13.290 -14.307 106.242  1.00  0.00     0.211 HD
ENDBRANCH  23  31
ENDBRANCH   1  18
TORSDOF 11
ENDMDL
MODEL 7
REMARK VINA RESULT:    -6.253      2.198      4.730
REMARK INTER + INTRA:         -10.484
REMARK INTER:                  -9.140
REMARK INTRA:                  -1.345
REMARK UNBOUND:                -1.124
REMARK SMILES COC(=O)C1=CO[C@H](O[C@H]2O[C@H](CO)[C@@H](O)[C@@H](O)[C@H]2O)[C@H]2C(CO)=CC[C@@H]12
REMARK SMILES IDX 9 1 8 2 5 3 6 4 27 5 7 6 21 7 26 8 22 9 25 10 3 11 4 12 2 13
REMARK SMILES IDX 1 14 23 15 24 16 10 18 19 19 11 20 17 21 12 22 15 23 20 24
REMARK SMILES IDX 18 26 13 28 14 29 16 31
REMARK H PARENT 24 17 20 25 18 27 14 30 16 32
REMARK Flexibility Score: inf
ROOT
ATOM      1  O   UNL     1     -13.538 -14.007 102.223  1.00  0.00    -0.310 OA
ENDROOT
BRANCH   1   2
ATOM      2  C   UNL     1     -14.580 -14.216 101.279  1.00  0.00     0.316 C 
ATOM      3  C   UNL     1     -16.248 -15.555  99.358  1.00  0.00     0.076 C 
ATOM      4  C   UNL     1     -14.967 -15.252  99.082  1.00  0.00     0.202 C 
ATOM      5  C   UNL     1     -16.789 -15.460 100.779  1.00  0.00     0.047 C 
ATOM      6  O   UNL     1     -14.101 -14.783 100.070  1.00  0.00    -0.471 OA
ATOM      7  C   UNL     1     -15.790 -14.991 101.865  1.00  0.00     0.094 C 
ATOM      8  C   UNL     1     -17.994 -14.512 100.890  1.00  0.00     0.037 C 
ATOM      9  C   UNL     1     -16.618 -14.094 102.732  1.00  0.00    -0.039 C 
ATOM     10  C   UNL     1     -17.795 -13.819 102.189  1.00  0.00    -0.024 C 
BRANCH   3  11
ATOM     11  C   UNL     1     -17.130 -16.070  98.282  1.00  0.00     0.337 C 
ATOM     12  O   UNL     1     -17.068 -15.576  97.121  1.00  0.00    -0.246 OA
BRANCH  11  13
ATOM     13  O   UNL     1     -18.030 -17.112  98.545  1.00  0.00    -0.466 OA
ATOM     14  C   UNL     1     -19.287 -17.223  97.892  1.00  0.00     0.282 C 
ENDBRANCH  11  13
ENDBRANCH   3  11
BRANCH   9  15
ATOM     15  C   UNL     1     -16.119 -13.411 103.984  1.00  0.00     0.187 C 
BRANCH  15  16
ATOM     16  O   UNL     1     -15.161 -14.210 104.626  1.00  0.00    -0.392 OA
ATOM     17  H   UNL     1     -14.316 -13.686 104.661  1.00  0.00     0.211 HD
ENDBRANCH  15  16
ENDBRANCH   9  15
ENDBRANCH   1   2
BRANCH   1  18
ATOM     18  C   UNL     1     -12.352 -14.791 102.079  1.00  0.00     0.286 C 
ATOM     19  C   UNL     1     -12.226 -16.001 103.074  1.00  0.00     0.202 C 
ATOM     20  O   UNL     1     -11.181 -14.045 101.752  1.00  0.00    -0.341 OA
ATOM     21  C   UNL     1     -11.015 -15.946 104.028  1.00  0.00     0.179 C 
ATOM     22  C   UNL     1     -10.221 -13.937 102.786  1.00  0.00     0.178 C 
ATOM     23  C   UNL     1      -9.817 -15.326 103.315  1.00  0.00     0.177 C 
BRANCH  19  24
ATOM     24  O   UNL     1     -13.414 -16.184 103.806  1.00  0.00    -0.385 OA
ATOM     25  H   UNL     1     -13.272 -16.982 104.385  1.00  0.00     0.211 HD
ENDBRANCH  19  24
BRANCH  21  26
ATOM     26  O   UNL     1     -11.313 -15.221 105.198  1.00  0.00    -0.387 OA
ATOM     27  H   UNL     1     -11.293 -14.259 104.957  1.00  0.00     0.211 HD
ENDBRANCH  21  26
BRANCH  22  28
ATOM     28  C   UNL     1      -9.014 -13.146 102.254  1.00  0.00     0.191 C 
BRANCH  28  29
ATOM     29  O   UNL     1      -8.614 -12.135 103.141  1.00  0.00    -0.394 OA
ATOM     30  H   UNL     1      -9.102 -11.312 102.874  1.00  0.00     0.210 HD
ENDBRANCH  28  29
ENDBRANCH  22  28
BRANCH  23  31
ATOM     31  O   UNL     1      -8.694 -15.282 104.162  1.00  0.00    -0.387 OA
ATOM     32  H   UNL     1      -8.176 -14.463 103.956  1.00  0.00     0.211 HD
ENDBRANCH  23  31
ENDBRANCH   1  18
TORSDOF 11
ENDMDL
MODEL 8
REMARK VINA RESULT:    -6.251      2.810      5.089
REMARK INTER + INTRA:         -10.481
REMARK INTER:                  -9.029
REMARK INTRA:                  -1.452
REMARK UNBOUND:                -1.124
REMARK SMILES COC(=O)C1=CO[C@H](O[C@H]2O[C@H](CO)[C@@H](O)[C@@H](O)[C@H]2O)[C@H]2C(CO)=CC[C@@H]12
REMARK SMILES IDX 9 1 8 2 5 3 6 4 27 5 7 6 21 7 26 8 22 9 25 10 3 11 4 12 2 13
REMARK SMILES IDX 1 14 23 15 24 16 10 18 19 19 11 20 17 21 12 22 15 23 20 24
REMARK SMILES IDX 18 26 13 28 14 29 16 31
REMARK H PARENT 24 17 20 25 18 27 14 30 16 32
REMARK Flexibility Score: inf
ROOT
ATOM      1  O   UNL     1     -12.576 -15.685 100.773  1.00  0.00    -0.310 OA
ENDROOT
BRANCH   1   2
ATOM      2  C   UNL     1     -13.977 -15.869 100.621  1.00  0.00     0.316 C 
ATOM      3  C   UNL     1     -16.591 -15.806  99.423  1.00  0.00     0.076 C 
ATOM      4  C   UNL     1     -15.968 -14.677  99.806  1.00  0.00     0.202 C 
ATOM      5  C   UNL     1     -15.839 -17.128  99.346  1.00  0.00     0.047 C 
ATOM      6  O   UNL     1     -14.631 -14.681 100.204  1.00  0.00    -0.471 OA
ATOM      7  C   UNL     1     -14.342 -17.093  99.739  1.00  0.00     0.094 C 
ATOM      8  C   UNL     1     -16.471 -18.219 100.226  1.00  0.00     0.037 C 
ATOM      9  C   UNL     1     -14.155 -18.367 100.506  1.00  0.00    -0.039 C 
ATOM     10  C   UNL     1     -15.309 -18.955 100.787  1.00  0.00    -0.024 C 
BRANCH   3  11
ATOM     11  C   UNL     1     -18.007 -15.753  98.987  1.00  0.00     0.337 C 
ATOM     12  O   UNL     1     -18.373 -16.369  97.947  1.00  0.00    -0.246 OA
BRANCH  11  13
ATOM     13  O   UNL     1     -18.947 -15.027  99.731  1.00  0.00    -0.466 OA
ATOM     14  C   UNL     1     -19.854 -14.108  99.134  1.00  0.00     0.282 C 
ENDBRANCH  11  13
ENDBRANCH   3  11
BRANCH   9  15
ATOM     15  C   UNL     1     -12.839 -18.841 101.073  1.00  0.00     0.187 C 
BRANCH  15  16
ATOM     16  O   UNL     1     -12.640 -18.310 102.356  1.00  0.00    -0.392 OA
ATOM     17  H   UNL     1     -11.677 -18.427 102.578  1.00  0.00     0.211 HD
ENDBRANCH  15  16
ENDBRANCH   9  15
ENDBRANCH   1   2
BRANCH   1  18
ATOM     18  C   UNL     1     -12.135 -14.810 101.812  1.00  0.00     0.286 C 
ATOM     19  C   UNL     1     -11.304 -13.566 101.331  1.00  0.00     0.202 C 
ATOM     20  O   UNL     1     -11.754 -15.466 103.021  1.00  0.00    -0.341 OA
ATOM     21  C   UNL     1      -9.858 -13.493 101.864  1.00  0.00     0.179 C 
ATOM     22  C   UNL     1     -10.367 -15.464 103.302  1.00  0.00     0.178 C 
ATOM     23  C   UNL     1      -9.801 -14.032 103.292  1.00  0.00     0.177 C 
BRANCH  19  24
ATOM     24  O   UNL     1     -11.311 -13.462  99.927  1.00  0.00    -0.385 OA
ATOM     25  H   UNL     1     -11.957 -12.739  99.699  1.00  0.00     0.211 HD
ENDBRANCH  19  24
BRANCH  21  26
ATOM     26  O   UNL     1      -8.968 -14.207 101.039  1.00  0.00    -0.387 OA
ATOM     27  H   UNL     1      -9.356 -15.110 100.904  1.00  0.00     0.211 HD
ENDBRANCH  21  26
BRANCH  22  28
ATOM     28  C   UNL     1     -10.139 -16.168 104.651  1.00  0.00     0.191 C 
BRANCH  28  29
ATOM     29  O   UNL     1      -8.801 -16.552 104.825  1.00  0.00    -0.394 OA
ATOM     30  H   UNL     1      -8.383 -15.869 105.412  1.00  0.00     0.210 HD
ENDBRANCH  28  29
ENDBRANCH  22  28
BRANCH  23  31
ATOM     31  O   UNL     1      -8.493 -13.959 103.805  1.00  0.00    -0.387 OA
ATOM     32  H   UNL     1      -8.060 -14.842 103.691  1.00  0.00     0.211 HD
ENDBRANCH  23  31
ENDBRANCH   1  18
TORSDOF 11
ENDMDL
MODEL 9
REMARK VINA RESULT:    -6.126      2.552      6.016
REMARK INTER + INTRA:         -10.294
REMARK INTER:                  -9.525
REMARK INTRA:                  -0.768
REMARK UNBOUND:                -1.124
REMARK SMILES COC(=O)C1=CO[C@H](O[C@H]2O[C@H](CO)[C@@H](O)[C@@H](O)[C@H]2O)[C@H]2C(CO)=CC[C@@H]12
REMARK SMILES IDX 9 1 8 2 5 3 6 4 27 5 7 6 21 7 26 8 22 9 25 10 3 11 4 12 2 13
REMARK SMILES IDX 1 14 23 15 24 16 10 18 19 19 11 20 17 21 12 22 15 23 20 24
REMARK SMILES IDX 18 26 13 28 14 29 16 31
REMARK H PARENT 24 17 20 25 18 27 14 30 16 32
REMARK Flexibility Score: inf
ROOT
ATOM      1  O   UNL     1     -14.913 -14.011 100.190  1.00  0.00    -0.310 OA
ENDROOT
BRANCH   1   2
ATOM      2  C   UNL     1     -13.869 -14.008 101.155  1.00  0.00     0.316 C 
ATOM      3  C   UNL     1     -12.135 -14.934 103.254  1.00  0.00     0.076 C 
ATOM      4  C   UNL     1     -13.436 -14.680 103.481  1.00  0.00     0.202 C 
ATOM      5  C   UNL     1     -11.588 -15.014 101.835  1.00  0.00     0.047 C 
ATOM      6  O   UNL     1     -14.321 -14.421 102.435  1.00  0.00    -0.471 OA
ATOM      7  C   UNL     1     -12.605 -14.779 100.691  1.00  0.00     0.094 C 
ATOM      8  C   UNL     1     -10.446 -14.015 101.585  1.00  0.00     0.037 C 
ATOM      9  C   UNL     1     -11.829 -13.966  99.700  1.00  0.00    -0.039 C 
ATOM     10  C   UNL     1     -10.678 -13.536 100.198  1.00  0.00    -0.024 C 
BRANCH   3  11
ATOM     11  C   UNL     1     -11.232 -15.225 104.395  1.00  0.00     0.337 C 
ATOM     12  O   UNL     1     -11.600 -14.966 105.575  1.00  0.00    -0.246 OA
BRANCH  11  13
ATOM     13  O   UNL     1      -9.972 -15.795 104.170  1.00  0.00    -0.466 OA
ATOM     14  C   UNL     1      -9.411 -16.780 105.028  1.00  0.00     0.282 C 
ENDBRANCH  11  13
ENDBRANCH   3  11
BRANCH   9  15
ATOM     15  C   UNL     1     -12.359 -13.511  98.362  1.00  0.00     0.187 C 
BRANCH  15  16
ATOM     16  O   UNL     1     -11.435 -13.801  97.346  1.00  0.00    -0.392 OA
ATOM     17  H   UNL     1     -11.127 -12.933  96.971  1.00  0.00     0.211 HD
ENDBRANCH  15  16
ENDBRANCH   9  15
ENDBRANCH   1   2
BRANCH   1  18
ATOM     18  C   UNL     1     -15.874 -15.065 100.263  1.00  0.00     0.286 C 
ATOM     19  C   UNL     1     -15.795 -16.125  99.106  1.00  0.00     0.202 C 
ATOM     20  O   UNL     1     -17.157 -14.669 100.746  1.00  0.00    -0.341 OA
ATOM     21  C   UNL     1     -17.054 -16.229  98.220  1.00  0.00     0.179 C 
ATOM     22  C   UNL     1     -18.191 -14.652  99.779  1.00  0.00     0.178 C 
ATOM     23  C   UNL     1     -18.306 -16.012  99.067  1.00  0.00     0.177 C 
BRANCH  19  24
ATOM     24  O   UNL     1     -14.654 -15.920  98.307  1.00  0.00    -0.385 OA
ATOM     25  H   UNL     1     -14.073 -16.720  98.430  1.00  0.00     0.211 HD
ENDBRANCH  19  24
BRANCH  21  26
ATOM     26  O   UNL     1     -17.018 -15.302  97.161  1.00  0.00    -0.387 OA
ATOM     27  H   UNL     1     -17.952 -15.172  96.855  1.00  0.00     0.211 HD
ENDBRANCH  21  26
BRANCH  22  28
ATOM     28  C   UNL     1     -19.503 -14.248 100.473  1.00  0.00     0.191 C 
BRANCH  28  29
ATOM     29  O   UNL     1     -20.268 -13.374  99.685  1.00  0.00    -0.394 OA
ATOM     30  H   UNL     1     -21.041 -13.899  99.347  1.00  0.00     0.210 HD
ENDBRANCH  28  29
ENDBRANCH  22  28
BRANCH  23  31
ATOM     31  O   UNL     1     -19.469 -16.120  98.282  1.00  0.00    -0.387 OA
ATOM     32  H   UNL     1     -20.117 -15.434  98.584  1.00  0.00     0.211 HD
ENDBRANCH  23  31
ENDBRANCH   1  18
TORSDOF 11
ENDMDL
