MODEL 1
REMARK VINA RESULT:    -6.497      0.000      0.000
REMARK INTER + INTRA:         -10.271
REMARK INTER:                  -8.586
REMARK INTRA:                  -1.685
REMARK UNBOUND:                -1.685
REMARK SMILES C=C(CC[C@@H](C)[C@H]1CC[C@@]2(C)[C@@H]3CC[C@H]4C(C)(C)[C@@H](O)CC[C@]45C[C@]35CC[C@]12C)C(C)C
REMARK SMILES IDX 4 1 3 2 2 3 1 4 30 5 31 6 32 7 5 8 6 9 7 10 8 11 28 12 9 13
REMARK SMILES IDX 10 14 27 15 29 16 11 17 12 18 26 19 25 20 13 21 23 22 24 23
REMARK SMILES IDX 14 24 15 25 22 26 16 27 21 28 19 29 17 30 18 31 20 32
REMARK H PARENT 20 33
REMARK Flexibility Score: inf
ROOT
ATOM      1  C   UNL     1     136.849 140.370 141.570  1.00  0.00     0.008 C 
ENDROOT
BRANCH   1   2
ATOM      2  C   UNL     1     136.365 141.830 141.741  1.00  0.00     0.031 C 
BRANCH   2   3
ATOM      3  C   UNL     1     137.464 142.835 142.029  1.00  0.00    -0.075 C 
ATOM      4  C   UNL     1     137.514 143.431 143.235  1.00  0.00     0.008 C 
BRANCH   3   5
ATOM      5  C   UNL     1     138.601 142.993 141.027  1.00  0.00     0.008 C 
ATOM      6  C   UNL     1     138.182 143.742 139.751  1.00  0.00     0.012 C 
ATOM      7  C   UNL     1     139.796 143.689 141.688  1.00  0.00     0.012 C 
ENDBRANCH   3   5
ENDBRANCH   2   3
ENDBRANCH   1   2
BRANCH   1   8
ATOM      8  C   UNL     1     137.870 139.823 142.619  1.00  0.00    -0.010 C 
ATOM      9  C   UNL     1     137.134 139.118 143.775  1.00  0.00     0.008 C 
BRANCH   8  10
ATOM     10  C   UNL     1     138.991 138.946 141.958  1.00  0.00    -0.002 C 
ATOM     11  C   UNL     1     139.267 139.368 140.487  1.00  0.00     0.005 C 
ATOM     12  C   UNL     1     140.427 138.923 142.578  1.00  0.00    -0.024 C 
ATOM     13  C   UNL     1     140.756 139.107 140.189  1.00  0.00     0.008 C 
ATOM     14  C   UNL     1     141.274 138.315 141.398  1.00  0.00    -0.024 C 
ATOM     15  C   UNL     1     140.622 138.029 143.828  1.00  0.00     0.008 C 
ATOM     16  C   UNL     1     140.840 140.394 142.951  1.00  0.00     0.012 C 
ATOM     17  C   UNL     1     140.972 136.796 141.112  1.00  0.00     0.012 C 
ATOM     18  C   UNL     1     142.796 138.471 141.706  1.00  0.00     0.002 C 
ATOM     19  C   UNL     1     142.114 137.914 144.239  1.00  0.00     0.008 C 
ATOM     20  C   UNL     1     143.116 137.746 143.049  1.00  0.00    -0.020 C 
ATOM     21  C   UNL     1     143.721 138.043 140.555  1.00  0.00     0.005 C 
ATOM     22  C   UNL     1     144.616 137.694 143.405  1.00  0.00    -0.020 C 
ATOM     23  C   UNL     1     143.875 136.407 143.010  1.00  0.00     0.015 C 
ATOM     24  C   UNL     1     145.192 138.352 140.869  1.00  0.00     0.005 C 
ATOM     25  C   UNL     1     145.676 138.193 142.362  1.00  0.00     0.004 C 
ATOM     26  C   UNL     1     145.114 137.566 144.863  1.00  0.00     0.010 C 
ATOM     27  C   UNL     1     146.436 139.474 142.900  1.00  0.00    -0.006 C 
ATOM     28  C   UNL     1     145.817 138.835 145.320  1.00  0.00     0.033 C 
ATOM     29  C   UNL     1     146.952 139.210 144.355  1.00  0.00     0.120 C 
ATOM     30  C   UNL     1     147.682 139.760 142.018  1.00  0.00     0.014 C 
ATOM     31  C   UNL     1     145.518 140.729 142.884  1.00  0.00     0.014 C 
BRANCH  29  32
ATOM     32  O   UNL     1     147.628 140.338 144.855  1.00  0.00    -0.393 OA
ATOM     33  H   UNL     1     147.853 140.910 144.076  1.00  0.00     0.210 HD
ENDBRANCH  29  32
ENDBRANCH   8  10
ENDBRANCH   1   8
TORSDOF 6
ENDMDL
MODEL 2
REMARK VINA RESULT:    -6.197      2.956      8.584
REMARK INTER + INTRA:          -9.874
REMARK INTER:                  -8.584
REMARK INTRA:                  -1.290
REMARK UNBOUND:                -1.685
REMARK SMILES C=C(CC[C@@H](C)[C@H]1CC[C@@]2(C)[C@@H]3CC[C@H]4C(C)(C)[C@@H](O)CC[C@]45C[C@]35CC[C@]12C)C(C)C
REMARK SMILES IDX 4 1 3 2 2 3 1 4 30 5 31 6 32 7 5 8 6 9 7 10 8 11 28 12 9 13
REMARK SMILES IDX 10 14 27 15 29 16 11 17 12 18 26 19 25 20 13 21 23 22 24 23
REMARK SMILES IDX 14 24 15 25 22 26 16 27 21 28 19 29 17 30 18 31 20 32
REMARK H PARENT 20 33
REMARK Flexibility Score: inf
ROOT
ATOM      1  C   UNL     1     145.162 139.052 141.886  1.00  0.00     0.008 C 
ENDROOT
BRANCH   1   2
ATOM      2  C   UNL     1     146.498 138.583 142.509  1.00  0.00     0.031 C 
BRANCH   2   3
ATOM      3  C   UNL     1     147.531 139.678 142.696  1.00  0.00    -0.075 C 
ATOM      4  C   UNL     1     147.623 140.662 141.782  1.00  0.00     0.008 C 
BRANCH   3   5
ATOM      5  C   UNL     1     148.298 139.753 144.011  1.00  0.00     0.008 C 
ATOM      6  C   UNL     1     147.389 140.003 145.226  1.00  0.00     0.012 C 
ATOM      7  C   UNL     1     149.125 138.479 144.215  1.00  0.00     0.012 C 
ENDBRANCH   3   5
ENDBRANCH   2   3
ENDBRANCH   1   2
BRANCH   1   8
ATOM      8  C   UNL     1     143.894 139.027 142.799  1.00  0.00    -0.010 C 
ATOM      9  C   UNL     1     144.230 138.427 144.178  1.00  0.00     0.008 C 
BRANCH   8  10
ATOM     10  C   UNL     1     143.188 140.426 142.876  1.00  0.00    -0.002 C 
ATOM     11  C   UNL     1     143.962 141.513 142.077  1.00  0.00     0.005 C 
ATOM     12  C   UNL     1     141.727 140.590 142.342  1.00  0.00    -0.024 C 
ATOM     13  C   UNL     1     142.935 142.522 141.530  1.00  0.00     0.008 C 
ATOM     14  C   UNL     1     141.609 142.156 142.211  1.00  0.00    -0.024 C 
ATOM     15  C   UNL     1     140.594 140.093 143.273  1.00  0.00     0.008 C 
ATOM     16  C   UNL     1     141.605 139.838 140.966  1.00  0.00     0.012 C 
ATOM     17  C   UNL     1     141.583 142.911 143.593  1.00  0.00     0.012 C 
ATOM     18  C   UNL     1     140.317 142.523 141.418  1.00  0.00     0.002 C 
ATOM     19  C   UNL     1     139.188 140.486 142.747  1.00  0.00     0.008 C 
ATOM     20  C   UNL     1     139.081 141.934 142.165  1.00  0.00    -0.020 C 
ATOM     21  C   UNL     1     140.173 144.022 141.103  1.00  0.00     0.005 C 
ATOM     22  C   UNL     1     137.719 142.347 141.569  1.00  0.00    -0.020 C 
ATOM     23  C   UNL     1     138.155 142.890 142.938  1.00  0.00     0.015 C 
ATOM     24  C   UNL     1     138.958 144.295 140.204  1.00  0.00     0.005 C 
ATOM     25  C   UNL     1     137.669 143.414 140.421  1.00  0.00     0.004 C 
ATOM     26  C   UNL     1     136.448 141.486 141.745  1.00  0.00     0.010 C 
ATOM     27  C   UNL     1     137.132 142.770 139.076  1.00  0.00    -0.006 C 
ATOM     28  C   UNL     1     135.999 140.884 140.423  1.00  0.00     0.033 C 
ATOM     29  C   UNL     1     135.811 141.979 139.360  1.00  0.00     0.120 C 
ATOM     30  C   UNL     1     136.786 143.887 138.055  1.00  0.00     0.014 C 
ATOM     31  C   UNL     1     138.189 141.824 138.438  1.00  0.00     0.014 C 
BRANCH  29  32
ATOM     32  O   UNL     1     135.319 141.394 138.179  1.00  0.00    -0.393 OA
ATOM     33  H   UNL     1     135.639 140.455 138.164  1.00  0.00     0.210 HD
ENDBRANCH  29  32
ENDBRANCH   8  10
ENDBRANCH   1   8
TORSDOF 6
ENDMDL
MODEL 3
REMARK VINA RESULT:    -6.077      3.048      8.139
REMARK INTER + INTRA:          -9.716
REMARK INTER:                  -7.919
REMARK INTRA:                  -1.797
REMARK UNBOUND:                -1.685
REMARK SMILES C=C(CC[C@@H](C)[C@H]1CC[C@@]2(C)[C@@H]3CC[C@H]4C(C)(C)[C@@H](O)CC[C@]45C[C@]35CC[C@]12C)C(C)C
REMARK SMILES IDX 4 1 3 2 2 3 1 4 30 5 31 6 32 7 5 8 6 9 7 10 8 11 28 12 9 13
REMARK SMILES IDX 10 14 27 15 29 16 11 17 12 18 26 19 25 20 13 21 23 22 24 23
REMARK SMILES IDX 14 24 15 25 22 26 16 27 21 28 19 29 17 30 18 31 20 32
REMARK H PARENT 20 33
REMARK Flexibility Score: inf
ROOT
ATOM      1  C   UNL     1     145.348 139.575 142.669  1.00  0.00     0.008 C 
ENDROOT
BRANCH   1   2
ATOM      2  C   UNL     1     145.913 138.803 141.453  1.00  0.00     0.031 C 
BRANCH   2   3
ATOM      3  C   UNL     1     145.017 138.800 140.229  1.00  0.00    -0.075 C 
ATOM      4  C   UNL     1     144.359 137.674 139.896  1.00  0.00     0.008 C 
BRANCH   3   5
ATOM      5  C   UNL     1     144.723 140.120 139.526  1.00  0.00     0.008 C 
ATOM      6  C   UNL     1     145.929 141.073 139.502  1.00  0.00     0.012 C 
ATOM      7  C   UNL     1     144.217 139.860 138.103  1.00  0.00     0.012 C 
ENDBRANCH   3   5
ENDBRANCH   2   3
ENDBRANCH   1   2
BRANCH   1   8
ATOM      8  C   UNL     1     143.843 139.353 143.027  1.00  0.00    -0.010 C 
ATOM      9  C   UNL     1     143.708 138.483 144.292  1.00  0.00     0.008 C 
BRANCH   8  10
ATOM     10  C   UNL     1     143.042 140.701 143.101  1.00  0.00    -0.002 C 
ATOM     11  C   UNL     1     143.786 141.859 142.376  1.00  0.00     0.005 C 
ATOM     12  C   UNL     1     141.606 140.786 142.488  1.00  0.00    -0.024 C 
ATOM     13  C   UNL     1     142.726 142.816 141.798  1.00  0.00     0.008 C 
ATOM     14  C   UNL     1     141.392 142.344 142.393  1.00  0.00    -0.024 C 
ATOM     15  C   UNL     1     140.458 140.189 143.340  1.00  0.00     0.008 C 
ATOM     16  C   UNL     1     141.610 140.069 141.088  1.00  0.00     0.012 C 
ATOM     17  C   UNL     1     141.240 143.054 143.791  1.00  0.00     0.012 C 
ATOM     18  C   UNL     1     140.124 142.651 141.537  1.00  0.00     0.002 C 
ATOM     19  C   UNL     1     139.061 140.506 142.745  1.00  0.00     0.008 C 
ATOM     20  C   UNL     1     138.891 141.961 142.197  1.00  0.00    -0.020 C 
ATOM     21  C   UNL     1     139.899 144.146 141.254  1.00  0.00     0.005 C 
ATOM     22  C   UNL     1     137.539 142.302 141.536  1.00  0.00    -0.020 C 
ATOM     23  C   UNL     1     137.862 142.831 142.941  1.00  0.00     0.015 C 
ATOM     24  C   UNL     1     138.720 144.367 140.295  1.00  0.00     0.005 C 
ATOM     25  C   UNL     1     137.482 143.398 140.415  1.00  0.00     0.004 C 
ATOM     26  C   UNL     1     136.320 141.356 141.616  1.00  0.00     0.010 C 
ATOM     27  C   UNL     1     137.064 142.762 139.025  1.00  0.00    -0.006 C 
ATOM     28  C   UNL     1     135.986 140.768 140.254  1.00  0.00     0.033 C 
ATOM     29  C   UNL     1     135.784 141.880 139.212  1.00  0.00     0.120 C 
ATOM     30  C   UNL     1     136.702 143.885 138.016  1.00  0.00     0.014 C 
ATOM     31  C   UNL     1     138.215 141.906 138.424  1.00  0.00     0.014 C 
BRANCH  29  32
ATOM     32  O   UNL     1     135.398 141.300 137.990  1.00  0.00    -0.393 OA
ATOM     33  H   UNL     1     135.461 140.316 138.102  1.00  0.00     0.210 HD
ENDBRANCH  29  32
ENDBRANCH   8  10
ENDBRANCH   1   8
TORSDOF 6
ENDMDL
MODEL 4
REMARK VINA RESULT:    -6.066      2.543      8.236
REMARK INTER + INTRA:          -9.701
REMARK INTER:                  -8.087
REMARK INTRA:                  -1.614
REMARK UNBOUND:                -1.685
REMARK SMILES C=C(CC[C@@H](C)[C@H]1CC[C@@]2(C)[C@@H]3CC[C@H]4C(C)(C)[C@@H](O)CC[C@]45C[C@]35CC[C@]12C)C(C)C
REMARK SMILES IDX 4 1 3 2 2 3 1 4 30 5 31 6 32 7 5 8 6 9 7 10 8 11 28 12 9 13
REMARK SMILES IDX 10 14 27 15 29 16 11 17 12 18 26 19 25 20 13 21 23 22 24 23
REMARK SMILES IDX 14 24 15 25 22 26 16 27 21 28 19 29 17 30 18 31 20 32
REMARK H PARENT 20 33
REMARK Flexibility Score: inf
ROOT
ATOM      1  C   UNL     1     148.710 138.954 143.566  1.00  0.00     0.008 C 
ENDROOT
BRANCH   1   2
ATOM      2  C   UNL     1     148.975 139.355 145.037  1.00  0.00     0.031 C 
BRANCH   2   3
ATOM      3  C   UNL     1     147.754 139.321 145.936  1.00  0.00    -0.075 C 
ATOM      4  C   UNL     1     147.140 140.475 146.258  1.00  0.00     0.008 C 
BRANCH   3   5
ATOM      5  C   UNL     1     147.131 137.975 146.284  1.00  0.00     0.008 C 
ATOM      6  C   UNL     1     147.775 137.311 147.512  1.00  0.00     0.012 C 
ATOM      7  C   UNL     1     145.620 138.129 146.490  1.00  0.00     0.012 C 
ENDBRANCH   3   5
ENDBRANCH   2   3
ENDBRANCH   1   2
BRANCH   1   8
ATOM      8  C   UNL     1     147.916 139.965 142.676  1.00  0.00    -0.010 C 
ATOM      9  C   UNL     1     148.866 140.698 141.709  1.00  0.00     0.008 C 
BRANCH   8  10
ATOM     10  C   UNL     1     146.687 139.296 141.966  1.00  0.00    -0.002 C 
ATOM     11  C   UNL     1     146.099 138.123 142.803  1.00  0.00     0.005 C 
ATOM     12  C   UNL     1     145.417 140.150 141.644  1.00  0.00    -0.024 C 
ATOM     13  C   UNL     1     144.584 138.062 142.535  1.00  0.00     0.008 C 
ATOM     14  C   UNL     1     144.342 139.031 141.370  1.00  0.00    -0.024 C 
ATOM     15  C   UNL     1     145.500 141.061 140.393  1.00  0.00     0.008 C 
ATOM     16  C   UNL     1     145.081 141.048 142.890  1.00  0.00     0.012 C 
ATOM     17  C   UNL     1     144.588 138.220 140.043  1.00  0.00     0.012 C 
ATOM     18  C   UNL     1     142.920 139.671 141.307  1.00  0.00     0.002 C 
ATOM     19  C   UNL     1     144.131 141.702 140.044  1.00  0.00     0.008 C 
ATOM     20  C   UNL     1     142.900 140.747 140.179  1.00  0.00    -0.020 C 
ATOM     21  C   UNL     1     141.773 138.653 141.189  1.00  0.00     0.005 C 
ATOM     22  C   UNL     1     141.510 141.360 139.905  1.00  0.00    -0.020 C 
ATOM     23  C   UNL     1     142.160 140.434 138.865  1.00  0.00     0.015 C 
ATOM     24  C   UNL     1     140.401 139.336 141.274  1.00  0.00     0.005 C 
ATOM     25  C   UNL     1     140.248 140.764 140.623  1.00  0.00     0.004 C 
ATOM     26  C   UNL     1     141.336 142.768 139.294  1.00  0.00     0.010 C 
ATOM     27  C   UNL     1     139.610 141.825 141.612  1.00  0.00    -0.006 C 
ATOM     28  C   UNL     1     140.737 143.738 140.300  1.00  0.00     0.033 C 
ATOM     29  C   UNL     1     139.419 143.191 140.870  1.00  0.00     0.120 C 
ATOM     30  C   UNL     1     138.203 141.348 142.062  1.00  0.00     0.014 C 
ATOM     31  C   UNL     1     140.494 142.027 142.875  1.00  0.00     0.014 C 
BRANCH  29  32
ATOM     32  O   UNL     1     138.856 144.149 141.732  1.00  0.00    -0.393 OA
ATOM     33  H   UNL     1     137.940 144.336 141.401  1.00  0.00     0.210 HD
ENDBRANCH  29  32
ENDBRANCH   8  10
ENDBRANCH   1   8
TORSDOF 6
ENDMDL
MODEL 5
REMARK VINA RESULT:    -5.976      1.706      3.234
REMARK INTER + INTRA:          -9.582
REMARK INTER:                  -8.911
REMARK INTRA:                  -0.671
REMARK UNBOUND:                -1.685
REMARK SMILES C=C(CC[C@@H](C)[C@H]1CC[C@@]2(C)[C@@H]3CC[C@H]4C(C)(C)[C@@H](O)CC[C@]45C[C@]35CC[C@]12C)C(C)C
REMARK SMILES IDX 4 1 3 2 2 3 1 4 30 5 31 6 32 7 5 8 6 9 7 10 8 11 28 12 9 13
REMARK SMILES IDX 10 14 27 15 29 16 11 17 12 18 26 19 25 20 13 21 23 22 24 23
REMARK SMILES IDX 14 24 15 25 22 26 16 27 21 28 19 29 17 30 18 31 20 32
REMARK H PARENT 20 33
REMARK Flexibility Score: inf
ROOT
ATOM      1  C   UNL     1     139.825 142.663 142.706  1.00  0.00     0.008 C 
ENDROOT
BRANCH   1   2
ATOM      2  C   UNL     1     138.290 142.858 142.729  1.00  0.00     0.031 C 
BRANCH   2   3
ATOM      3  C   UNL     1     137.489 141.655 142.270  1.00  0.00    -0.075 C 
ATOM      4  C   UNL     1     136.353 141.845 141.574  1.00  0.00     0.008 C 
BRANCH   3   5
ATOM      5  C   UNL     1     138.090 140.263 142.429  1.00  0.00     0.008 C 
ATOM      6  C   UNL     1     137.432 139.446 143.552  1.00  0.00     0.012 C 
ATOM      7  C   UNL     1     138.019 139.502 141.100  1.00  0.00     0.012 C 
ENDBRANCH   3   5
ENDBRANCH   2   3
ENDBRANCH   1   2
BRANCH   1   8
ATOM      8  C   UNL     1     140.579 143.037 141.389  1.00  0.00    -0.010 C 
ATOM      9  C   UNL     1     141.192 144.447 141.497  1.00  0.00     0.008 C 
BRANCH   8  10
ATOM     10  C   UNL     1     141.607 141.934 140.956  1.00  0.00    -0.002 C 
ATOM     11  C   UNL     1     142.785 142.529 140.132  1.00  0.00     0.005 C 
ATOM     12  C   UNL     1     142.348 141.092 142.045  1.00  0.00    -0.024 C 
ATOM     13  C   UNL     1     144.041 141.686 140.424  1.00  0.00     0.008 C 
ATOM     14  C   UNL     1     143.536 140.472 141.217  1.00  0.00    -0.024 C 
ATOM     15  C   UNL     1     141.543 139.931 142.683  1.00  0.00     0.008 C 
ATOM     16  C   UNL     1     142.822 142.056 143.194  1.00  0.00     0.012 C 
ATOM     17  C   UNL     1     143.084 139.395 140.161  1.00  0.00     0.012 C 
ATOM     18  C   UNL     1     144.570 139.819 142.185  1.00  0.00     0.002 C 
ATOM     19  C   UNL     1     142.426 139.036 143.592  1.00  0.00     0.008 C 
ATOM     20  C   UNL     1     143.850 138.721 143.027  1.00  0.00    -0.020 C 
ATOM     21  C   UNL     1     145.847 139.309 141.496  1.00  0.00     0.005 C 
ATOM     22  C   UNL     1     144.787 137.889 143.927  1.00  0.00    -0.020 C 
ATOM     23  C   UNL     1     144.120 137.240 142.704  1.00  0.00     0.015 C 
ATOM     24  C   UNL     1     146.877 138.808 142.518  1.00  0.00     0.005 C 
ATOM     25  C   UNL     1     146.340 138.078 143.808  1.00  0.00     0.004 C 
ATOM     26  C   UNL     1     144.289 137.187 145.210  1.00  0.00     0.010 C 
ATOM     27  C   UNL     1     146.939 138.677 145.147  1.00  0.00    -0.006 C 
ATOM     28  C   UNL     1     144.887 137.823 146.456  1.00  0.00     0.033 C 
ATOM     29  C   UNL     1     146.421 137.851 146.373  1.00  0.00     0.120 C 
ATOM     30  C   UNL     1     148.486 138.557 145.135  1.00  0.00     0.014 C 
ATOM     31  C   UNL     1     146.557 140.175 145.319  1.00  0.00     0.014 C 
BRANCH  29  32
ATOM     32  O   UNL     1     146.937 138.370 147.575  1.00  0.00    -0.393 OA
ATOM     33  H   UNL     1     146.510 139.255 147.717  1.00  0.00     0.210 HD
ENDBRANCH  29  32
ENDBRANCH   8  10
ENDBRANCH   1   8
TORSDOF 6
ENDMDL
MODEL 6
REMARK VINA RESULT:    -5.934      5.157      9.191
REMARK INTER + INTRA:          -9.526
REMARK INTER:                  -8.320
REMARK INTRA:                  -1.206
REMARK UNBOUND:                -1.685
REMARK SMILES C=C(CC[C@@H](C)[C@H]1CC[C@@]2(C)[C@@H]3CC[C@H]4C(C)(C)[C@@H](O)CC[C@]45C[C@]35CC[C@]12C)C(C)C
REMARK SMILES IDX 4 1 3 2 2 3 1 4 30 5 31 6 32 7 5 8 6 9 7 10 8 11 28 12 9 13
REMARK SMILES IDX 10 14 27 15 29 16 11 17 12 18 26 19 25 20 13 21 23 22 24 23
REMARK SMILES IDX 14 24 15 25 22 26 16 27 21 28 19 29 17 30 18 31 20 32
REMARK H PARENT 20 33
REMARK Flexibility Score: inf
ROOT
ATOM      1  C   UNL     1     144.862 138.769 143.562  1.00  0.00     0.008 C 
ENDROOT
BRANCH   1   2
ATOM      2  C   UNL     1     146.314 138.496 143.102  1.00  0.00     0.031 C 
BRANCH   2   3
ATOM      3  C   UNL     1     147.352 138.548 144.206  1.00  0.00    -0.075 C 
ATOM      4  C   UNL     1     148.658 138.524 143.886  1.00  0.00     0.008 C 
BRANCH   3   5
ATOM      5  C   UNL     1     146.898 138.831 145.633  1.00  0.00     0.008 C 
ATOM      6  C   UNL     1     147.444 137.818 146.653  1.00  0.00     0.012 C 
ATOM      7  C   UNL     1     147.283 140.259 146.037  1.00  0.00     0.012 C 
ENDBRANCH   3   5
ENDBRANCH   2   3
ENDBRANCH   1   2
BRANCH   1   8
ATOM      8  C   UNL     1     143.877 137.556 143.594  1.00  0.00    -0.010 C 
ATOM      9  C   UNL     1     144.181 136.580 142.441  1.00  0.00     0.008 C 
BRANCH   8  10
ATOM     10  C   UNL     1     143.823 136.868 145.004  1.00  0.00    -0.002 C 
ATOM     11  C   UNL     1     143.808 137.910 146.158  1.00  0.00     0.005 C 
ATOM     12  C   UNL     1     142.620 135.939 145.370  1.00  0.00    -0.024 C 
ATOM     13  C   UNL     1     142.994 137.315 147.323  1.00  0.00     0.008 C 
ATOM     14  C   UNL     1     142.752 135.850 146.937  1.00  0.00    -0.024 C 
ATOM     15  C   UNL     1     142.661 134.501 144.795  1.00  0.00     0.008 C 
ATOM     16  C   UNL     1     141.287 136.626 144.893  1.00  0.00     0.012 C 
ATOM     17  C   UNL     1     144.008 135.036 147.426  1.00  0.00     0.012 C 
ATOM     18  C   UNL     1     141.469 135.196 147.538  1.00  0.00     0.002 C 
ATOM     19  C   UNL     1     141.538 133.604 145.381  1.00  0.00     0.008 C 
ATOM     20  C   UNL     1     141.286 133.778 146.915  1.00  0.00    -0.020 C 
ATOM     21  C   UNL     1     141.423 135.189 149.075  1.00  0.00     0.005 C 
ATOM     22  C   UNL     1     140.135 132.954 147.529  1.00  0.00    -0.020 C 
ATOM     23  C   UNL     1     141.593 132.540 147.779  1.00  0.00     0.015 C 
ATOM     24  C   UNL     1     140.079 134.661 149.597  1.00  0.00     0.005 C 
ATOM     25  C   UNL     1     139.379 133.503 148.789  1.00  0.00     0.004 C 
ATOM     26  C   UNL     1     139.415 131.832 146.746  1.00  0.00     0.010 C 
ATOM     27  C   UNL     1     137.866 133.823 148.444  1.00  0.00    -0.006 C 
ATOM     28  C   UNL     1     137.976 132.212 146.432  1.00  0.00     0.033 C 
ATOM     29  C   UNL     1     137.220 132.597 147.714  1.00  0.00     0.120 C 
ATOM     30  C   UNL     1     137.062 134.052 149.752  1.00  0.00     0.014 C 
ATOM     31  C   UNL     1     137.743 135.093 147.555  1.00  0.00     0.014 C 
BRANCH  29  32
ATOM     32  O   UNL     1     135.876 132.862 147.393  1.00  0.00    -0.393 OA
ATOM     33  H   UNL     1     135.574 132.138 146.786  1.00  0.00     0.210 HD
ENDBRANCH  29  32
ENDBRANCH   8  10
ENDBRANCH   1   8
TORSDOF 6
ENDMDL
MODEL 7
REMARK VINA RESULT:    -5.895      3.246      7.648
REMARK INTER + INTRA:          -9.475
REMARK INTER:                  -7.728
REMARK INTRA:                  -1.747
REMARK UNBOUND:                -1.685
REMARK SMILES C=C(CC[C@@H](C)[C@H]1CC[C@@]2(C)[C@@H]3CC[C@H]4C(C)(C)[C@@H](O)CC[C@]45C[C@]35CC[C@]12C)C(C)C
REMARK SMILES IDX 4 1 3 2 2 3 1 4 30 5 31 6 32 7 5 8 6 9 7 10 8 11 28 12 9 13
REMARK SMILES IDX 10 14 27 15 29 16 11 17 12 18 26 19 25 20 13 21 23 22 24 23
REMARK SMILES IDX 14 24 15 25 22 26 16 27 21 28 19 29 17 30 18 31 20 32
REMARK H PARENT 20 33
REMARK Flexibility Score: inf
ROOT
ATOM      1  C   UNL     1     144.352 134.812 146.938  1.00  0.00     0.008 C 
ENDROOT
BRANCH   1   2
ATOM      2  C   UNL     1     143.419 134.652 148.163  1.00  0.00     0.031 C 
BRANCH   2   3
ATOM      3  C   UNL     1     141.947 134.871 147.875  1.00  0.00    -0.075 C 
ATOM      4  C   UNL     1     141.317 134.061 147.004  1.00  0.00     0.008 C 
BRANCH   3   5
ATOM      5  C   UNL     1     141.168 135.867 148.726  1.00  0.00     0.008 C 
ATOM      6  C   UNL     1     140.862 135.344 150.139  1.00  0.00     0.012 C 
ATOM      7  C   UNL     1     141.919 137.201 148.800  1.00  0.00     0.012 C 
ENDBRANCH   3   5
ENDBRANCH   2   3
ENDBRANCH   1   2
BRANCH   1   8
ATOM      8  C   UNL     1     144.539 136.251 146.359  1.00  0.00    -0.010 C 
ATOM      9  C   UNL     1     145.918 136.818 146.748  1.00  0.00     0.008 C 
BRANCH   8  10
ATOM     10  C   UNL     1     144.242 136.317 144.819  1.00  0.00    -0.002 C 
ATOM     11  C   UNL     1     143.567 135.015 144.301  1.00  0.00     0.005 C 
ATOM     12  C   UNL     1     143.301 137.432 144.256  1.00  0.00    -0.024 C 
ATOM     13  C   UNL     1     142.633 135.395 143.137  1.00  0.00     0.008 C 
ATOM     14  C   UNL     1     142.952 136.865 142.829  1.00  0.00    -0.024 C 
ATOM     15  C   UNL     1     143.928 138.838 144.081  1.00  0.00     0.008 C 
ATOM     16  C   UNL     1     142.049 137.562 145.200  1.00  0.00     0.012 C 
ATOM     17  C   UNL     1     144.167 136.867 141.827  1.00  0.00     0.012 C 
ATOM     18  C   UNL     1     141.787 137.692 142.202  1.00  0.00     0.002 C 
ATOM     19  C   UNL     1     142.982 139.812 143.329  1.00  0.00     0.008 C 
ATOM     20  C   UNL     1     142.221 139.188 142.114  1.00  0.00    -0.020 C 
ATOM     21  C   UNL     1     141.264 137.137 140.867  1.00  0.00     0.005 C 
ATOM     22  C   UNL     1     141.219 140.101 141.376  1.00  0.00    -0.020 C 
ATOM     23  C   UNL     1     142.579 139.778 140.737  1.00  0.00     0.015 C 
ATOM     24  C   UNL     1     140.032 137.912 140.378  1.00  0.00     0.005 C 
ATOM     25  C   UNL     1     139.982 139.464 140.652  1.00  0.00     0.004 C 
ATOM     26  C   UNL     1     141.133 141.619 141.648  1.00  0.00     0.010 C 
ATOM     27  C   UNL     1     138.630 139.922 141.339  1.00  0.00    -0.006 C 
ATOM     28  C   UNL     1     139.821 141.987 142.324  1.00  0.00     0.033 C 
ATOM     29  C   UNL     1     138.624 141.480 141.505  1.00  0.00     0.120 C 
ATOM     30  C   UNL     1     137.424 139.554 140.433  1.00  0.00     0.014 C 
ATOM     31  C   UNL     1     138.437 139.241 142.724  1.00  0.00     0.014 C 
BRANCH  29  32
ATOM     32  O   UNL     1     137.432 141.908 142.119  1.00  0.00    -0.393 OA
ATOM     33  H   UNL     1     136.851 142.272 141.401  1.00  0.00     0.210 HD
ENDBRANCH  29  32
ENDBRANCH   8  10
ENDBRANCH   1   8
TORSDOF 6
ENDMDL
MODEL 8
REMARK VINA RESULT:    -5.862      2.916      7.624
REMARK INTER + INTRA:          -9.432
REMARK INTER:                  -7.703
REMARK INTRA:                  -1.729
REMARK UNBOUND:                -1.685
REMARK SMILES C=C(CC[C@@H](C)[C@H]1CC[C@@]2(C)[C@@H]3CC[C@H]4C(C)(C)[C@@H](O)CC[C@]45C[C@]35CC[C@]12C)C(C)C
REMARK SMILES IDX 4 1 3 2 2 3 1 4 30 5 31 6 32 7 5 8 6 9 7 10 8 11 28 12 9 13
REMARK SMILES IDX 10 14 27 15 29 16 11 17 12 18 26 19 25 20 13 21 23 22 24 23
REMARK SMILES IDX 14 24 15 25 22 26 16 27 21 28 19 29 17 30 18 31 20 32
REMARK H PARENT 20 33
REMARK Flexibility Score: inf
ROOT
ATOM      1  C   UNL     1     143.894 135.338 144.724  1.00  0.00     0.008 C 
ENDROOT
BRANCH   1   2
ATOM      2  C   UNL     1     143.306 134.770 146.038  1.00  0.00     0.031 C 
BRANCH   2   3
ATOM      3  C   UNL     1     141.961 135.349 146.435  1.00  0.00    -0.075 C 
ATOM      4  C   UNL     1     140.905 135.184 145.618  1.00  0.00     0.008 C 
BRANCH   3   5
ATOM      5  C   UNL     1     141.788 135.921 147.837  1.00  0.00     0.008 C 
ATOM      6  C   UNL     1     142.381 135.022 148.934  1.00  0.00     0.012 C 
ATOM      7  C   UNL     1     142.393 137.327 147.913  1.00  0.00     0.012 C 
ENDBRANCH   3   5
ENDBRANCH   2   3
ENDBRANCH   1   2
BRANCH   1   8
ATOM      8  C   UNL     1     143.977 136.892 144.585  1.00  0.00    -0.010 C 
ATOM      9  C   UNL     1     145.391 137.394 144.937  1.00  0.00     0.008 C 
BRANCH   8  10
ATOM     10  C   UNL     1     143.460 137.394 143.191  1.00  0.00    -0.002 C 
ATOM     11  C   UNL     1     142.628 136.305 142.454  1.00  0.00     0.005 C 
ATOM     12  C   UNL     1     142.524 138.644 143.113  1.00  0.00    -0.024 C 
ATOM     13  C   UNL     1     141.559 137.019 141.604  1.00  0.00     0.008 C 
ATOM     14  C   UNL     1     141.929 138.508 141.661  1.00  0.00    -0.024 C 
ATOM     15  C   UNL     1     143.212 140.027 143.229  1.00  0.00     0.008 C 
ATOM     16  C   UNL     1     141.438 138.534 144.247  1.00  0.00     0.012 C 
ATOM     17  C   UNL     1     142.978 138.761 140.515  1.00  0.00     0.012 C 
ATOM     18  C   UNL     1     140.743 139.506 141.481  1.00  0.00     0.002 C 
ATOM     19  C   UNL     1     142.234 141.195 142.935  1.00  0.00     0.008 C 
ATOM     20  C   UNL     1     141.260 140.955 141.735  1.00  0.00    -0.020 C 
ATOM     21  C   UNL     1     139.990 139.359 140.148  1.00  0.00     0.005 C 
ATOM     22  C   UNL     1     140.224 142.062 141.446  1.00  0.00    -0.020 C 
ATOM     23  C   UNL     1     141.448 141.898 140.532  1.00  0.00     0.015 C 
ATOM     24  C   UNL     1     138.755 140.270 140.095  1.00  0.00     0.005 C 
ATOM     25  C   UNL     1     138.852 141.684 140.787  1.00  0.00     0.004 C 
ATOM     26  C   UNL     1     140.283 143.445 142.133  1.00  0.00     0.010 C 
ATOM     27  C   UNL     1     137.652 141.964 141.782  1.00  0.00    -0.006 C 
ATOM     28  C   UNL     1     139.115 143.640 143.086  1.00  0.00     0.033 C 
ATOM     29  C   UNL     1     137.777 143.412 142.365  1.00  0.00     0.120 C 
ATOM     30  C   UNL     1     136.303 141.894 141.017  1.00  0.00     0.014 C 
ATOM     31  C   UNL     1     137.621 140.927 142.941  1.00  0.00     0.014 C 
BRANCH  29  32
ATOM     32  O   UNL     1     136.722 143.680 143.257  1.00  0.00    -0.393 OA
ATOM     33  H   UNL     1     136.169 144.394 142.846  1.00  0.00     0.210 HD
ENDBRANCH  29  32
ENDBRANCH   8  10
ENDBRANCH   1   8
TORSDOF 6
ENDMDL
MODEL 9
REMARK VINA RESULT:    -5.815      4.813      8.253
REMARK INTER + INTRA:          -9.369
REMARK INTER:                  -7.846
REMARK INTRA:                  -1.523
REMARK UNBOUND:                -1.685
REMARK SMILES C=C(CC[C@@H](C)[C@H]1CC[C@@]2(C)[C@@H]3CC[C@H]4C(C)(C)[C@@H](O)CC[C@]45C[C@]35CC[C@]12C)C(C)C
REMARK SMILES IDX 4 1 3 2 2 3 1 4 30 5 31 6 32 7 5 8 6 9 7 10 8 11 28 12 9 13
REMARK SMILES IDX 10 14 27 15 29 16 11 17 12 18 26 19 25 20 13 21 23 22 24 23
REMARK SMILES IDX 14 24 15 25 22 26 16 27 21 28 19 29 17 30 18 31 20 32
REMARK H PARENT 20 33
REMARK Flexibility Score: inf
ROOT
ATOM      1  C   UNL     1     143.104 138.640 142.014  1.00  0.00     0.008 C 
ENDROOT
BRANCH   1   2
ATOM      2  C   UNL     1     144.143 139.396 141.151  1.00  0.00     0.031 C 
BRANCH   2   3
ATOM      3  C   UNL     1     145.254 140.068 141.934  1.00  0.00    -0.075 C 
ATOM      4  C   UNL     1     144.944 141.016 142.838  1.00  0.00     0.008 C 
BRANCH   3   5
ATOM      5  C   UNL     1     146.670 139.514 141.831  1.00  0.00     0.008 C 
ATOM      6  C   UNL     1     147.729 140.603 141.596  1.00  0.00     0.012 C 
ATOM      7  C   UNL     1     147.011 138.697 143.082  1.00  0.00     0.012 C 
ENDBRANCH   3   5
ENDBRANCH   2   3
ENDBRANCH   1   2
BRANCH   1   8
ATOM      8  C   UNL     1     143.336 137.112 142.246  1.00  0.00    -0.010 C 
ATOM      9  C   UNL     1     144.442 136.583 141.312  1.00  0.00     0.008 C 
BRANCH   8  10
ATOM     10  C   UNL     1     143.571 136.768 143.759  1.00  0.00    -0.002 C 
ATOM     11  C   UNL     1     143.613 138.044 144.646  1.00  0.00     0.005 C 
ATOM     12  C   UNL     1     142.546 135.863 144.518  1.00  0.00    -0.024 C 
ATOM     13  C   UNL     1     143.055 137.677 146.034  1.00  0.00     0.008 C 
ATOM     14  C   UNL     1     142.921 136.148 146.021  1.00  0.00    -0.024 C 
ATOM     15  C   UNL     1     142.659 134.337 144.269  1.00  0.00     0.008 C 
ATOM     16  C   UNL     1     141.089 136.320 144.139  1.00  0.00     0.012 C 
ATOM     17  C   UNL     1     144.318 135.564 146.452  1.00  0.00     0.012 C 
ATOM     18  C   UNL     1     141.822 135.558 146.959  1.00  0.00     0.002 C 
ATOM     19  C   UNL     1     141.742 133.520 145.218  1.00  0.00     0.008 C 
ATOM     20  C   UNL     1     141.706 134.025 146.698  1.00  0.00    -0.020 C 
ATOM     21  C   UNL     1     142.009 135.904 148.446  1.00  0.00     0.005 C 
ATOM     22  C   UNL     1     140.757 133.283 147.663  1.00  0.00    -0.020 C 
ATOM     23  C   UNL     1     142.273 133.047 147.744  1.00  0.00     0.015 C 
ATOM     24  C   UNL     1     140.825 135.414 149.292  1.00  0.00     0.005 C 
ATOM     25  C   UNL     1     140.143 134.051 148.885  1.00  0.00     0.004 C 
ATOM     26  C   UNL     1     140.057 131.961 147.277  1.00  0.00     0.010 C 
ATOM     27  C   UNL     1     138.570 134.171 148.743  1.00  0.00    -0.006 C 
ATOM     28  C   UNL     1     138.554 132.151 147.139  1.00  0.00     0.033 C 
ATOM     29  C   UNL     1     137.961 132.765 148.417  1.00  0.00     0.120 C 
ATOM     30  C   UNL     1     137.950 134.636 150.088  1.00  0.00     0.014 C 
ATOM     31  C   UNL     1     138.175 135.188 147.635  1.00  0.00     0.014 C 
BRANCH  29  32
ATOM     32  O   UNL     1     136.563 132.849 148.282  1.00  0.00    -0.393 OA
ATOM     33  H   UNL     1     136.270 132.039 147.787  1.00  0.00     0.210 HD
ENDBRANCH  29  32
ENDBRANCH   8  10
ENDBRANCH   1   8
TORSDOF 6
ENDMDL
