MODEL 1
REMARK VINA RESULT:    -3.608      0.000      0.000
REMARK INTER + INTRA:          -7.962
REMARK INTER:                  -6.138
REMARK INTRA:                  -1.824
REMARK UNBOUND:                -1.824
REMARK SMILES CCCCCCCCCCCCCC(=O)[O-]
REMARK SMILES IDX 8 1 9 2 10 3 11 4 12 5 13 6 14 7 15 8 16 9 7 10 6 11 5 12
REMARK SMILES IDX 4 13 3 14 2 15 1 16
REMARK H PARENT
REMARK Flexibility Score: inf
ROOT
ATOM      1  C   UNL     1      27.956   0.431   5.519  1.00  0.00     0.000 C 
ENDROOT
BRANCH   1   2
ATOM      2  C   UNL     1      27.959   1.875   6.053  1.00  0.00     0.000 C 
BRANCH   2   3
ATOM      3  C   UNL     1      26.582   2.423   6.472  1.00  0.00     0.000 C 
BRANCH   3   4
ATOM      4  C   UNL     1      26.537   2.877   7.938  1.00  0.00     0.000 C 
BRANCH   4   5
ATOM      5  C   UNL     1      25.239   2.417   8.617  1.00  0.00     0.006 C 
BRANCH   5   6
ATOM      6  C   UNL     1      24.480   1.380   7.777  1.00  0.00     0.053 C 
BRANCH   6   7
ATOM      7  C   UNL     1      23.051   1.255   8.206  1.00  0.00     0.041 C 
ATOM      8  O   UNL     1      22.713   1.556   9.381  1.00  0.00    -0.550 OA
ATOM      9  O   UNL     1      22.086   0.836   7.298  1.00  0.00    -0.550 OA
ENDBRANCH   6   7
ENDBRANCH   5   6
ENDBRANCH   4   5
ENDBRANCH   3   4
ENDBRANCH   2   3
ENDBRANCH   1   2
BRANCH   1  10
ATOM     10  C   UNL     1      27.103  -0.524   6.369  1.00  0.00     0.000 C 
BRANCH  10  11
ATOM     11  C   UNL     1      27.933  -1.630   7.041  1.00  0.00    -0.000 C 
BRANCH  11  12
ATOM     12  C   UNL     1      28.693  -1.156   8.299  1.00  0.00    -0.000 C 
BRANCH  12  13
ATOM     13  C   UNL     1      27.824  -0.259   9.197  1.00  0.00    -0.000 C 
BRANCH  13  14
ATOM     14  C   UNL     1      27.214  -1.017  10.389  1.00  0.00    -0.000 C 
BRANCH  14  15
ATOM     15  C   UNL     1      25.676  -0.993  10.448  1.00  0.00    -0.003 C 
ATOM     16  C   UNL     1      25.133   0.013  11.462  1.00  0.00     0.004 C 
ENDBRANCH  14  15
ENDBRANCH  13  14
ENDBRANCH  12  13
ENDBRANCH  11  12
ENDBRANCH  10  11
ENDBRANCH   1  10
TORSDOF 12
ENDMDL
MODEL 2
REMARK VINA RESULT:    -3.576      1.448      2.928
REMARK INTER + INTRA:          -7.908
REMARK INTER:                  -5.691
REMARK INTRA:                  -2.217
REMARK UNBOUND:                -1.824
REMARK SMILES CCCCCCCCCCCCCC(=O)[O-]
REMARK SMILES IDX 8 1 9 2 10 3 11 4 12 5 13 6 14 7 15 8 16 9 7 10 6 11 5 12
REMARK SMILES IDX 4 13 3 14 2 15 1 16
REMARK H PARENT
REMARK Flexibility Score: inf
ROOT
ATOM      1  C   UNL     1      26.390   2.907   7.414  1.00  0.00     0.000 C 
ENDROOT
BRANCH   1   2
ATOM      2  C   UNL     1      26.085   1.887   8.526  1.00  0.00     0.000 C 
BRANCH   2   3
ATOM      3  C   UNL     1      24.630   1.383   8.573  1.00  0.00     0.000 C 
BRANCH   3   4
ATOM      4  C   UNL     1      24.522  -0.148   8.520  1.00  0.00     0.000 C 
BRANCH   4   5
ATOM      5  C   UNL     1      24.095  -0.620   7.123  1.00  0.00     0.006 C 
BRANCH   5   6
ATOM      6  C   UNL     1      23.534   0.524   6.268  1.00  0.00     0.053 C 
BRANCH   6   7
ATOM      7  C   UNL     1      22.051   0.411   6.091  1.00  0.00     0.041 C 
ATOM      8  O   UNL     1      21.280   0.606   7.066  1.00  0.00    -0.550 OA
ATOM      9  O   UNL     1      21.520   0.122   4.840  1.00  0.00    -0.550 OA
ENDBRANCH   6   7
ENDBRANCH   5   6
ENDBRANCH   4   5
ENDBRANCH   3   4
ENDBRANCH   2   3
ENDBRANCH   1   2
BRANCH   1  10
ATOM     10  C   UNL     1      26.908   2.254   6.122  1.00  0.00     0.000 C 
BRANCH  10  11
ATOM     11  C   UNL     1      27.946   1.151   6.385  1.00  0.00    -0.000 C 
BRANCH  11  12
ATOM     12  C   UNL     1      27.539  -0.230   5.829  1.00  0.00    -0.000 C 
BRANCH  12  13
ATOM     13  C   UNL     1      27.690  -1.344   6.879  1.00  0.00    -0.000 C 
BRANCH  13  14
ATOM     14  C   UNL     1      28.490  -0.898   8.115  1.00  0.00    -0.000 C 
BRANCH  14  15
ATOM     15  C   UNL     1      27.882  -1.322   9.464  1.00  0.00    -0.003 C 
ATOM     16  C   UNL     1      28.284  -0.403  10.616  1.00  0.00     0.004 C 
ENDBRANCH  14  15
ENDBRANCH  13  14
ENDBRANCH  12  13
ENDBRANCH  11  12
ENDBRANCH  10  11
ENDBRANCH   1  10
TORSDOF 12
ENDMDL
MODEL 3
REMARK VINA RESULT:    -3.552      3.106      4.686
REMARK INTER + INTRA:          -7.868
REMARK INTER:                  -6.151
REMARK INTRA:                  -1.717
REMARK UNBOUND:                -1.824
REMARK SMILES CCCCCCCCCCCCCC(=O)[O-]
REMARK SMILES IDX 8 1 9 2 10 3 11 4 12 5 13 6 14 7 15 8 16 9 7 10 6 11 5 12
REMARK SMILES IDX 4 13 3 14 2 15 1 16
REMARK H PARENT
REMARK Flexibility Score: inf
ROOT
ATOM      1  C   UNL     1      26.660   2.622   6.906  1.00  0.00     0.000 C 
ENDROOT
BRANCH   1   2
ATOM      2  C   UNL     1      27.959   1.933   6.450  1.00  0.00     0.000 C 
BRANCH   2   3
ATOM      3  C   UNL     1      27.771   0.753   5.477  1.00  0.00     0.000 C 
BRANCH   3   4
ATOM      4  C   UNL     1      26.940  -0.392   6.075  1.00  0.00     0.000 C 
BRANCH   4   5
ATOM      5  C   UNL     1      27.795  -1.262   7.009  1.00  0.00     0.006 C 
BRANCH   5   6
ATOM      6  C   UNL     1      27.259  -2.695   7.120  1.00  0.00     0.053 C 
BRANCH   6   7
ATOM      7  C   UNL     1      28.315  -3.651   7.582  1.00  0.00     0.041 C 
ATOM      8  O   UNL     1      29.124  -3.312   8.486  1.00  0.00    -0.550 OA
ATOM      9  O   UNL     1      28.387  -4.926   7.037  1.00  0.00    -0.550 OA
ENDBRANCH   6   7
ENDBRANCH   5   6
ENDBRANCH   4   5
ENDBRANCH   3   4
ENDBRANCH   2   3
ENDBRANCH   1   2
BRANCH   1  10
ATOM     10  C   UNL     1      26.392   2.467   8.411  1.00  0.00     0.000 C 
BRANCH  10  11
ATOM     11  C   UNL     1      25.003   1.879   8.713  1.00  0.00    -0.000 C 
BRANCH  11  12
ATOM     12  C   UNL     1      24.962   1.009   9.988  1.00  0.00    -0.000 C 
BRANCH  12  13
ATOM     13  C   UNL     1      25.063  -0.492   9.667  1.00  0.00    -0.000 C 
BRANCH  13  14
ATOM     14  C   UNL     1      26.268  -1.169  10.343  1.00  0.00    -0.000 C 
BRANCH  14  15
ATOM     15  C   UNL     1      27.289  -0.197  10.962  1.00  0.00    -0.003 C 
ATOM     16  C   UNL     1      28.701  -0.379  10.407  1.00  0.00     0.004 C 
ENDBRANCH  14  15
ENDBRANCH  13  14
ENDBRANCH  12  13
ENDBRANCH  11  12
ENDBRANCH  10  11
ENDBRANCH   1  10
TORSDOF 12
ENDMDL
MODEL 4
REMARK VINA RESULT:    -3.543      9.669     11.123
REMARK INTER + INTRA:          -7.853
REMARK INTER:                  -6.071
REMARK INTRA:                  -1.782
REMARK UNBOUND:                -1.824
REMARK SMILES CCCCCCCCCCCCCC(=O)[O-]
REMARK SMILES IDX 8 1 9 2 10 3 11 4 12 5 13 6 14 7 15 8 16 9 7 10 6 11 5 12
REMARK SMILES IDX 4 13 3 14 2 15 1 16
REMARK H PARENT
REMARK Flexibility Score: inf
ROOT
ATOM      1  C   UNL     1      25.367  -6.174  17.995  1.00  0.00     0.000 C 
ENDROOT
BRANCH   1   2
ATOM      2  C   UNL     1      25.322  -4.728  18.523  1.00  0.00     0.000 C 
BRANCH   2   3
ATOM      3  C   UNL     1      25.213  -3.637  17.442  1.00  0.00     0.000 C 
BRANCH   3   4
ATOM      4  C   UNL     1      25.345  -2.215  18.007  1.00  0.00     0.000 C 
BRANCH   4   5
ATOM      5  C   UNL     1      23.965  -1.622  18.330  1.00  0.00     0.006 C 
BRANCH   5   6
ATOM      6  C   UNL     1      23.300  -0.993  17.098  1.00  0.00     0.053 C 
BRANCH   6   7
ATOM      7  C   UNL     1      23.275   0.502  17.182  1.00  0.00     0.041 C 
ATOM      8  O   UNL     1      22.839   1.070  18.218  1.00  0.00    -0.550 OA
ATOM      9  O   UNL     1      23.761   1.267  16.130  1.00  0.00    -0.550 OA
ENDBRANCH   6   7
ENDBRANCH   5   6
ENDBRANCH   4   5
ENDBRANCH   3   4
ENDBRANCH   2   3
ENDBRANCH   1   2
BRANCH   1  10
ATOM     10  C   UNL     1      25.237  -6.261  16.466  1.00  0.00     0.000 C 
BRANCH  10  11
ATOM     11  C   UNL     1      23.893  -6.854  16.013  1.00  0.00    -0.000 C 
BRANCH  11  12
ATOM     12  C   UNL     1      23.075  -7.484  17.161  1.00  0.00    -0.000 C 
BRANCH  12  13
ATOM     13  C   UNL     1      21.717  -6.788  17.353  1.00  0.00    -0.000 C 
BRANCH  13  14
ATOM     14  C   UNL     1      21.721  -5.325  16.875  1.00  0.00    -0.000 C 
BRANCH  14  15
ATOM     15  C   UNL     1      21.577  -4.280  17.996  1.00  0.00    -0.003 C 
ATOM     16  C   UNL     1      21.703  -4.884  19.394  1.00  0.00     0.004 C 
ENDBRANCH  14  15
ENDBRANCH  13  14
ENDBRANCH  12  13
ENDBRANCH  11  12
ENDBRANCH  10  11
ENDBRANCH   1  10
TORSDOF 12
ENDMDL
MODEL 5
REMARK VINA RESULT:    -3.526      1.981      4.703
REMARK INTER + INTRA:          -7.823
REMARK INTER:                  -6.104
REMARK INTRA:                  -1.718
REMARK UNBOUND:                -1.824
REMARK SMILES CCCCCCCCCCCCCC(=O)[O-]
REMARK SMILES IDX 8 1 9 2 10 3 11 4 12 5 13 6 14 7 15 8 16 9 7 10 6 11 5 12
REMARK SMILES IDX 4 13 3 14 2 15 1 16
REMARK H PARENT
REMARK Flexibility Score: inf
ROOT
ATOM      1  C   UNL     1      28.538  -0.464   9.087  1.00  0.00     0.000 C 
ENDROOT
BRANCH   1   2
ATOM      2  C   UNL     1      29.125  -1.887   9.122  1.00  0.00     0.000 C 
BRANCH   2   3
ATOM      3  C   UNL     1      28.865  -2.736   7.863  1.00  0.00     0.000 C 
BRANCH   3   4
ATOM      4  C   UNL     1      27.640  -2.267   7.064  1.00  0.00     0.000 C 
BRANCH   4   5
ATOM      5  C   UNL     1      26.488  -3.275   7.181  1.00  0.00     0.006 C 
BRANCH   5   6
ATOM      6  C   UNL     1      25.600  -3.004   8.404  1.00  0.00     0.053 C 
BRANCH   6   7
ATOM      7  C   UNL     1      24.283  -2.408   8.013  1.00  0.00     0.041 C 
ATOM      8  O   UNL     1      23.313  -2.434   8.817  1.00  0.00    -0.550 OA
ATOM      9  O   UNL     1      24.134  -1.796   6.775  1.00  0.00    -0.550 OA
ENDBRANCH   6   7
ENDBRANCH   5   6
ENDBRANCH   4   5
ENDBRANCH   3   4
ENDBRANCH   2   3
ENDBRANCH   1   2
BRANCH   1  10
ATOM     10  C   UNL     1      27.813  -0.080  10.386  1.00  0.00     0.000 C 
BRANCH  10  11
ATOM     11  C   UNL     1      26.342   0.305  10.158  1.00  0.00    -0.000 C 
BRANCH  11  12
ATOM     12  C   UNL     1      26.028   0.721   8.705  1.00  0.00    -0.000 C 
BRANCH  12  13
ATOM     13  C   UNL     1      26.251   2.225   8.473  1.00  0.00    -0.000 C 
BRANCH  13  14
ATOM     14  C   UNL     1      26.590   2.562   7.010  1.00  0.00    -0.000 C 
BRANCH  14  15
ATOM     15  C   UNL     1      27.973   2.075   6.541  1.00  0.00    -0.003 C 
ATOM     16  C   UNL     1      27.895   1.079   5.385  1.00  0.00     0.004 C 
ENDBRANCH  14  15
ENDBRANCH  13  14
ENDBRANCH  12  13
ENDBRANCH  11  12
ENDBRANCH  10  11
ENDBRANCH   1  10
TORSDOF 12
ENDMDL
MODEL 6
REMARK VINA RESULT:    -3.523      3.488      6.083
REMARK INTER + INTRA:          -7.818
REMARK INTER:                  -6.170
REMARK INTRA:                  -1.648
REMARK UNBOUND:                -1.824
REMARK SMILES CCCCCCCCCCCCCC(=O)[O-]
REMARK SMILES IDX 8 1 9 2 10 3 11 4 12 5 13 6 14 7 15 8 16 9 7 10 6 11 5 12
REMARK SMILES IDX 4 13 3 14 2 15 1 16
REMARK H PARENT
REMARK Flexibility Score: inf
ROOT
ATOM      1  C   UNL     1      27.097  -0.962  10.190  1.00  0.00     0.000 C 
ENDROOT
BRANCH   1   2
ATOM      2  C   UNL     1      28.491  -0.500   9.725  1.00  0.00     0.000 C 
BRANCH   2   3
ATOM      3  C   UNL     1      29.125  -1.349   8.607  1.00  0.00     0.000 C 
BRANCH   3   4
ATOM      4  C   UNL     1      28.436  -2.709   8.421  1.00  0.00     0.000 C 
BRANCH   4   5
ATOM      5  C   UNL     1      28.791  -3.323   7.059  1.00  0.00     0.006 C 
BRANCH   5   6
ATOM      6  C   UNL     1      27.544  -3.720   6.257  1.00  0.00     0.053 C 
BRANCH   6   7
ATOM      7  C   UNL     1      27.774  -4.958   5.447  1.00  0.00     0.041 C 
ATOM      8  O   UNL     1      27.694  -4.917   4.191  1.00  0.00    -0.550 OA
ATOM      9  O   UNL     1      28.110  -6.150   6.076  1.00  0.00    -0.550 OA
ENDBRANCH   6   7
ENDBRANCH   5   6
ENDBRANCH   4   5
ENDBRANCH   3   4
ENDBRANCH   2   3
ENDBRANCH   1   2
BRANCH   1  10
ATOM     10  C   UNL     1      26.052   0.165  10.171  1.00  0.00     0.000 C 
BRANCH  10  11
ATOM     11  C   UNL     1      26.183   1.080   8.943  1.00  0.00    -0.000 C 
BRANCH  11  12
ATOM     12  C   UNL     1      24.938   1.075   8.030  1.00  0.00    -0.000 C 
BRANCH  12  13
ATOM     13  C   UNL     1      25.292   0.741   6.571  1.00  0.00    -0.000 C 
BRANCH  13  14
ATOM     14  C   UNL     1      26.543  -0.146   6.446  1.00  0.00    -0.000 C 
BRANCH  14  15
ATOM     15  C   UNL     1      27.636   0.409   5.516  1.00  0.00    -0.003 C 
ATOM     16  C   UNL     1      28.079   1.822   5.891  1.00  0.00     0.004 C 
ENDBRANCH  14  15
ENDBRANCH  13  14
ENDBRANCH  12  13
ENDBRANCH  11  12
ENDBRANCH  10  11
ENDBRANCH   1  10
TORSDOF 12
ENDMDL
MODEL 7
REMARK VINA RESULT:    -3.517     10.987     12.455
REMARK INTER + INTRA:          -7.808
REMARK INTER:                  -6.117
REMARK INTRA:                  -1.691
REMARK UNBOUND:                -1.824
REMARK SMILES CCCCCCCCCCCCCC(=O)[O-]
REMARK SMILES IDX 8 1 9 2 10 3 11 4 12 5 13 6 14 7 15 8 16 9 7 10 6 11 5 12
REMARK SMILES IDX 4 13 3 14 2 15 1 16
REMARK H PARENT
REMARK Flexibility Score: inf
ROOT
ATOM      1  C   UNL     1      25.268  -3.581  17.430  1.00  0.00     0.000 C 
ENDROOT
BRANCH   1   2
ATOM      2  C   UNL     1      25.627  -4.793  18.308  1.00  0.00     0.000 C 
BRANCH   2   3
ATOM      3  C   UNL     1      25.053  -6.142  17.834  1.00  0.00     0.000 C 
BRANCH   3   4
ATOM      4  C   UNL     1      25.024  -6.278  16.305  1.00  0.00     0.000 C 
BRANCH   4   5
ATOM      5  C   UNL     1      23.755  -7.010  15.842  1.00  0.00     0.006 C 
BRANCH   5   6
ATOM      6  C   UNL     1      23.155  -7.888  16.948  1.00  0.00     0.053 C 
BRANCH   6   7
ATOM      7  C   UNL     1      23.437  -9.341  16.719  1.00  0.00     0.041 C 
ATOM      8  O   UNL     1      24.551  -9.705  16.257  1.00  0.00    -0.550 OA
ATOM      9  O   UNL     1      22.482 -10.296  17.045  1.00  0.00    -0.550 OA
ENDBRANCH   6   7
ENDBRANCH   5   6
ENDBRANCH   4   5
ENDBRANCH   3   4
ENDBRANCH   2   3
ENDBRANCH   1   2
BRANCH   1  10
ATOM     10  C   UNL     1      25.288  -2.252  18.201  1.00  0.00     0.000 C 
BRANCH  10  11
ATOM     11  C   UNL     1      23.923  -1.544  18.207  1.00  0.00    -0.000 C 
BRANCH  11  12
ATOM     12  C   UNL     1      22.768  -2.429  18.725  1.00  0.00    -0.000 C 
BRANCH  12  13
ATOM     13  C   UNL     1      21.811  -2.850  17.596  1.00  0.00    -0.000 C 
BRANCH  13  14
ATOM     14  C   UNL     1      21.614  -4.374  17.515  1.00  0.00    -0.000 C 
BRANCH  14  15
ATOM     15  C   UNL     1      21.643  -5.100  18.872  1.00  0.00    -0.003 C 
ATOM     16  C   UNL     1      20.522  -6.127  19.023  1.00  0.00     0.004 C 
ENDBRANCH  14  15
ENDBRANCH  13  14
ENDBRANCH  12  13
ENDBRANCH  11  12
ENDBRANCH  10  11
ENDBRANCH   1  10
TORSDOF 12
ENDMDL
MODEL 8
REMARK VINA RESULT:    -3.507      1.720      4.012
REMARK INTER + INTRA:          -7.791
REMARK INTER:                  -5.665
REMARK INTRA:                  -2.126
REMARK UNBOUND:                -1.824
REMARK SMILES CCCCCCCCCCCCCC(=O)[O-]
REMARK SMILES IDX 8 1 9 2 10 3 11 4 12 5 13 6 14 7 15 8 16 9 7 10 6 11 5 12
REMARK SMILES IDX 4 13 3 14 2 15 1 16
REMARK H PARENT
REMARK Flexibility Score: inf
ROOT
ATOM      1  C   UNL     1      25.991  -0.086  10.452  1.00  0.00     0.000 C 
ENDROOT
BRANCH   1   2
ATOM      2  C   UNL     1      25.431   1.114   9.667  1.00  0.00     0.000 C 
BRANCH   2   3
ATOM      3  C   UNL     1      24.625   0.754   8.404  1.00  0.00     0.000 C 
BRANCH   3   4
ATOM      4  C   UNL     1      24.444  -0.759   8.217  1.00  0.00     0.000 C 
BRANCH   4   5
ATOM      5  C   UNL     1      24.034  -1.090   6.774  1.00  0.00     0.006 C 
BRANCH   5   6
ATOM      6  C   UNL     1      23.644   0.164   5.980  1.00  0.00     0.053 C 
BRANCH   6   7
ATOM      7  C   UNL     1      22.209   0.128   5.553  1.00  0.00     0.041 C 
ATOM      8  O   UNL     1      21.845   0.721   4.504  1.00  0.00    -0.550 OA
ATOM      9  O   UNL     1      21.279  -0.587   6.297  1.00  0.00    -0.550 OA
ENDBRANCH   6   7
ENDBRANCH   5   6
ENDBRANCH   4   5
ENDBRANCH   3   4
ENDBRANCH   2   3
ENDBRANCH   1   2
BRANCH   1  10
ATOM     10  C   UNL     1      27.521  -0.051  10.595  1.00  0.00     0.000 C 
BRANCH  10  11
ATOM     11  C   UNL     1      28.234  -1.011   9.630  1.00  0.00    -0.000 C 
BRANCH  11  12
ATOM     12  C   UNL     1      28.636  -0.358   8.290  1.00  0.00    -0.000 C 
BRANCH  12  13
ATOM     13  C   UNL     1      27.949  -1.031   7.089  1.00  0.00    -0.000 C 
BRANCH  13  14
ATOM     14  C   UNL     1      27.535  -0.029   5.997  1.00  0.00    -0.000 C 
BRANCH  14  15
ATOM     15  C   UNL     1      27.700   1.451   6.386  1.00  0.00    -0.003 C 
ATOM     16  C   UNL     1      26.760   2.379   5.617  1.00  0.00     0.004 C 
ENDBRANCH  14  15
ENDBRANCH  13  14
ENDBRANCH  12  13
ENDBRANCH  11  12
ENDBRANCH  10  11
ENDBRANCH   1  10
TORSDOF 12
ENDMDL
