MODEL 1
REMARK VINA RESULT:    -4.585      0.000      0.000
REMARK INTER + INTRA:         -10.797
REMARK INTER:                  -8.337
REMARK INTRA:                  -2.461
REMARK UNBOUND:                -2.461
REMARK SMILES CCCCCCCCCCCCCCCC(=O)[O-]
REMARK SMILES IDX 9 1 10 2 11 3 12 4 13 5 14 6 15 7 16 8 17 9 18 10 8 11 7 12
REMARK SMILES IDX 6 13 5 14 4 15 3 16 2 17 1 18
REMARK H PARENT
REMARK Flexibility Score: inf
ROOT
ATOM      1  C   UNL     1     124.081 176.725 123.489  1.00  0.00     0.000 C 
ENDROOT
BRANCH   1   2
ATOM      2  C   UNL     1     122.878 177.604 123.100  1.00  0.00     0.000 C 
BRANCH   2   3
ATOM      3  C   UNL     1     122.943 178.075 121.638  1.00  0.00     0.000 C 
BRANCH   3   4
ATOM      4  C   UNL     1     124.300 177.774 120.980  1.00  0.00     0.000 C 
BRANCH   4   5
ATOM      5  C   UNL     1     124.139 177.108 119.597  1.00  0.00     0.000 C 
BRANCH   5   6
ATOM      6  C   UNL     1     125.391 177.218 118.710  1.00  0.00     0.006 C 
BRANCH   6   7
ATOM      7  C   UNL     1     126.297 178.391 119.102  1.00  0.00     0.053 C 
BRANCH   7   8
ATOM      8  C   UNL     1     127.666 178.208 118.526  1.00  0.00     0.041 C 
ATOM      9  O   UNL     1     127.952 177.159 117.891  1.00  0.00    -0.550 OA
ATOM     10  O   UNL     1     128.643 179.174 118.734  1.00  0.00    -0.550 OA
ENDBRANCH   7   8
ENDBRANCH   6   7
ENDBRANCH   5   6
ENDBRANCH   4   5
ENDBRANCH   3   4
ENDBRANCH   2   3
ENDBRANCH   1   2
BRANCH   1  11
ATOM     11  C   UNL     1     124.995 177.397 124.527  1.00  0.00     0.000 C 
BRANCH  11  12
ATOM     12  C   UNL     1     126.487 177.228 124.198  1.00  0.00    -0.000 C 
BRANCH  12  13
ATOM     13  C   UNL     1     127.022 178.346 123.289  1.00  0.00    -0.000 C 
BRANCH  13  14
ATOM     14  C   UNL     1     128.093 177.849 122.305  1.00  0.00    -0.000 C 
BRANCH  14  15
ATOM     15  C   UNL     1     128.251 176.326 122.390  1.00  0.00    -0.000 C 
BRANCH  15  16
ATOM     16  C   UNL     1     127.776 175.651 121.096  1.00  0.00    -0.000 C 
BRANCH  16  17
ATOM     17  C   UNL     1     126.656 174.627 121.340  1.00  0.00    -0.003 C 
ATOM     18  C   UNL     1     126.809 173.889 122.670  1.00  0.00     0.004 C 
ENDBRANCH  16  17
ENDBRANCH  15  16
ENDBRANCH  14  15
ENDBRANCH  13  14
ENDBRANCH  12  13
ENDBRANCH  11  12
ENDBRANCH   1  11
TORSDOF 14
ENDMDL
MODEL 2
REMARK VINA RESULT:    -4.580      6.601      8.674
REMARK INTER + INTRA:         -10.789
REMARK INTER:                  -8.703
REMARK INTRA:                  -2.086
REMARK UNBOUND:                -2.461
REMARK SMILES CCCCCCCCCCCCCCCC(=O)[O-]
REMARK SMILES IDX 9 1 10 2 11 3 12 4 13 5 14 6 15 7 16 8 17 9 18 10 8 11 7 12
REMARK SMILES IDX 6 13 5 14 4 15 3 16 2 17 1 18
REMARK H PARENT
REMARK Flexibility Score: inf
ROOT
ATOM      1  C   UNL     1     121.426 179.182 126.826  1.00  0.00     0.000 C 
ENDROOT
BRANCH   1   2
ATOM      2  C   UNL     1     120.132 179.682 126.157  1.00  0.00     0.000 C 
BRANCH   2   3
ATOM      3  C   UNL     1     120.063 179.314 124.666  1.00  0.00     0.000 C 
BRANCH   3   4
ATOM      4  C   UNL     1     118.835 178.451 124.325  1.00  0.00     0.000 C 
BRANCH   4   5
ATOM      5  C   UNL     1     118.291 177.704 125.561  1.00  0.00     0.000 C 
BRANCH   5   6
ATOM      6  C   UNL     1     116.761 177.774 125.700  1.00  0.00     0.006 C 
BRANCH   6   7
ATOM      7  C   UNL     1     116.125 178.804 124.758  1.00  0.00     0.053 C 
BRANCH   7   8
ATOM      8  C   UNL     1     115.724 180.028 125.518  1.00  0.00     0.041 C 
ATOM      9  O   UNL     1     116.338 181.114 125.341  1.00  0.00    -0.550 OA
ATOM     10  O   UNL     1     114.706 179.960 126.462  1.00  0.00    -0.550 OA
ENDBRANCH   7   8
ENDBRANCH   6   7
ENDBRANCH   5   6
ENDBRANCH   4   5
ENDBRANCH   3   4
ENDBRANCH   2   3
ENDBRANCH   1   2
BRANCH   1  11
ATOM     11  C   UNL     1     121.156 178.183 127.963  1.00  0.00     0.000 C 
BRANCH  11  12
ATOM     12  C   UNL     1     121.419 176.727 127.544  1.00  0.00    -0.000 C 
BRANCH  12  13
ATOM     13  C   UNL     1     122.312 176.623 126.298  1.00  0.00    -0.000 C 
BRANCH  13  14
ATOM     14  C   UNL     1     121.804 175.581 125.289  1.00  0.00    -0.000 C 
BRANCH  14  15
ATOM     15  C   UNL     1     121.679 176.191 123.887  1.00  0.00    -0.000 C 
BRANCH  15  16
ATOM     16  C   UNL     1     122.639 177.376 123.715  1.00  0.00    -0.000 C 
BRANCH  16  17
ATOM     17  C   UNL     1     123.929 176.989 122.975  1.00  0.00    -0.003 C 
ATOM     18  C   UNL     1     125.160 177.013 123.881  1.00  0.00     0.004 C 
ENDBRANCH  16  17
ENDBRANCH  15  16
ENDBRANCH  14  15
ENDBRANCH  13  14
ENDBRANCH  12  13
ENDBRANCH  11  12
ENDBRANCH   1  11
TORSDOF 14
ENDMDL
MODEL 3
REMARK VINA RESULT:    -4.573      6.417      8.958
REMARK INTER + INTRA:         -10.777
REMARK INTER:                  -8.577
REMARK INTRA:                  -2.200
REMARK UNBOUND:                -2.461
REMARK SMILES CCCCCCCCCCCCCCCC(=O)[O-]
REMARK SMILES IDX 9 1 10 2 11 3 12 4 13 5 14 6 15 7 16 8 17 9 18 10 8 11 7 12
REMARK SMILES IDX 6 13 5 14 4 15 3 16 2 17 1 18
REMARK H PARENT
REMARK Flexibility Score: inf
ROOT
ATOM      1  C   UNL     1     122.284 178.676 128.692  1.00  0.00     0.000 C 
ENDROOT
BRANCH   1   2
ATOM      2  C   UNL     1     120.747 178.652 128.588  1.00  0.00     0.000 C 
BRANCH   2   3
ATOM      3  C   UNL     1     120.234 177.471 127.750  1.00  0.00     0.000 C 
BRANCH   3   4
ATOM      4  C   UNL     1     119.172 176.638 128.489  1.00  0.00     0.000 C 
BRANCH   4   5
ATOM      5  C   UNL     1     117.773 176.787 127.854  1.00  0.00     0.000 C 
BRANCH   5   6
ATOM      6  C   UNL     1     117.797 177.409 126.448  1.00  0.00     0.006 C 
BRANCH   6   7
ATOM      7  C   UNL     1     116.403 177.805 125.946  1.00  0.00     0.053 C 
BRANCH   7   8
ATOM      8  C   UNL     1     116.507 178.878 124.909  1.00  0.00     0.041 C 
ATOM      9  O   UNL     1     116.678 180.078 125.252  1.00  0.00    -0.550 OA
ATOM     10  O   UNL     1     116.364 178.561 123.564  1.00  0.00    -0.550 OA
ENDBRANCH   7   8
ENDBRANCH   6   7
ENDBRANCH   5   6
ENDBRANCH   4   5
ENDBRANCH   3   4
ENDBRANCH   2   3
ENDBRANCH   1   2
BRANCH   1  11
ATOM     11  C   UNL     1     122.958 179.113 127.381  1.00  0.00     0.000 C 
BRANCH  11  12
ATOM     12  C   UNL     1     123.828 178.003 126.767  1.00  0.00    -0.000 C 
BRANCH  12  13
ATOM     13  C   UNL     1     123.544 177.788 125.271  1.00  0.00    -0.000 C 
BRANCH  13  14
ATOM     14  C   UNL     1     122.770 176.490 124.996  1.00  0.00    -0.000 C 
BRANCH  14  15
ATOM     15  C   UNL     1     121.405 176.789 124.361  1.00  0.00    -0.000 C 
BRANCH  15  16
ATOM     16  C   UNL     1     121.384 178.191 123.737  1.00  0.00    -0.000 C 
BRANCH  16  17
ATOM     17  C   UNL     1     120.076 178.945 124.023  1.00  0.00    -0.003 C 
ATOM     18  C   UNL     1     120.214 179.959 125.158  1.00  0.00     0.004 C 
ENDBRANCH  16  17
ENDBRANCH  15  16
ENDBRANCH  14  15
ENDBRANCH  13  14
ENDBRANCH  12  13
ENDBRANCH  11  12
ENDBRANCH   1  11
TORSDOF 14
ENDMDL
MODEL 4
REMARK VINA RESULT:    -4.564      3.730      6.340
REMARK INTER + INTRA:         -10.760
REMARK INTER:                  -8.909
REMARK INTRA:                  -1.852
REMARK UNBOUND:                -2.461
REMARK SMILES CCCCCCCCCCCCCCCC(=O)[O-]
REMARK SMILES IDX 9 1 10 2 11 3 12 4 13 5 14 6 15 7 16 8 17 9 18 10 8 11 7 12
REMARK SMILES IDX 6 13 5 14 4 15 3 16 2 17 1 18
REMARK H PARENT
REMARK Flexibility Score: inf
ROOT
ATOM      1  C   UNL     1     122.675 177.484 126.217  1.00  0.00     0.000 C 
ENDROOT
BRANCH   1   2
ATOM      2  C   UNL     1     122.181 176.168 125.587  1.00  0.00     0.000 C 
BRANCH   2   3
ATOM      3  C   UNL     1     122.081 176.251 124.056  1.00  0.00     0.000 C 
BRANCH   3   4
ATOM      4  C   UNL     1     122.634 177.573 123.498  1.00  0.00     0.000 C 
BRANCH   4   5
ATOM      5  C   UNL     1     123.654 177.342 122.363  1.00  0.00     0.000 C 
BRANCH   5   6
ATOM      6  C   UNL     1     123.346 178.140 121.085  1.00  0.00     0.006 C 
BRANCH   6   7
ATOM      7  C   UNL     1     123.715 177.381 119.804  1.00  0.00     0.053 C 
BRANCH   7   8
ATOM      8  C   UNL     1     124.867 178.045 119.119  1.00  0.00     0.041 C 
ATOM      9  O   UNL     1     125.779 178.590 119.795  1.00  0.00    -0.550 OA
ATOM     10  O   UNL     1     124.909 178.108 117.731  1.00  0.00    -0.550 OA
ENDBRANCH   7   8
ENDBRANCH   6   7
ENDBRANCH   5   6
ENDBRANCH   4   5
ENDBRANCH   3   4
ENDBRANCH   2   3
ENDBRANCH   1   2
BRANCH   1  11
ATOM     11  C   UNL     1     122.031 177.764 127.585  1.00  0.00     0.000 C 
BRANCH  11  12
ATOM     12  C   UNL     1     121.003 178.906 127.531  1.00  0.00    -0.000 C 
BRANCH  12  13
ATOM     13  C   UNL     1     120.930 179.571 126.146  1.00  0.00    -0.000 C 
BRANCH  13  14
ATOM     14  C   UNL     1     119.488 179.739 125.644  1.00  0.00    -0.000 C 
BRANCH  14  15
ATOM     15  C   UNL     1     119.135 178.656 124.616  1.00  0.00    -0.000 C 
BRANCH  15  16
ATOM     16  C   UNL     1     118.746 177.343 125.311  1.00  0.00    -0.000 C 
BRANCH  16  17
ATOM     17  C   UNL     1     117.542 177.507 126.251  1.00  0.00    -0.003 C 
ATOM     18  C   UNL     1     117.804 176.950 127.650  1.00  0.00     0.004 C 
ENDBRANCH  16  17
ENDBRANCH  15  16
ENDBRANCH  14  15
ENDBRANCH  13  14
ENDBRANCH  12  13
ENDBRANCH  11  12
ENDBRANCH   1  11
TORSDOF 14
ENDMDL
MODEL 5
REMARK VINA RESULT:    -4.557      6.390      8.758
REMARK INTER + INTRA:         -10.747
REMARK INTER:                  -8.194
REMARK INTRA:                  -2.553
REMARK UNBOUND:                -2.461
REMARK SMILES CCCCCCCCCCCCCCCC(=O)[O-]
REMARK SMILES IDX 9 1 10 2 11 3 12 4 13 5 14 6 15 7 16 8 17 9 18 10 8 11 7 12
REMARK SMILES IDX 6 13 5 14 4 15 3 16 2 17 1 18
REMARK H PARENT
REMARK Flexibility Score: inf
ROOT
ATOM      1  C   UNL     1     122.972 176.771 124.338  1.00  0.00     0.000 C 
ENDROOT
BRANCH   1   2
ATOM      2  C   UNL     1     122.125 177.832 123.610  1.00  0.00     0.000 C 
BRANCH   2   3
ATOM      3  C   UNL     1     120.684 177.898 124.140  1.00  0.00     0.000 C 
BRANCH   3   4
ATOM      4  C   UNL     1     120.300 179.303 124.635  1.00  0.00     0.000 C 
BRANCH   4   5
ATOM      5  C   UNL     1     118.941 179.309 125.368  1.00  0.00     0.000 C 
BRANCH   5   6
ATOM      6  C   UNL     1     118.044 178.112 125.012  1.00  0.00     0.006 C 
BRANCH   6   7
ATOM      7  C   UNL     1     116.637 178.221 125.613  1.00  0.00     0.053 C 
BRANCH   7   8
ATOM      8  C   UNL     1     115.696 178.841 124.629  1.00  0.00     0.041 C 
ATOM      9  O   UNL     1     114.557 179.230 125.000  1.00  0.00    -0.550 OA
ATOM     10  O   UNL     1     116.057 178.943 123.291  1.00  0.00    -0.550 OA
ENDBRANCH   7   8
ENDBRANCH   6   7
ENDBRANCH   5   6
ENDBRANCH   4   5
ENDBRANCH   3   4
ENDBRANCH   2   3
ENDBRANCH   1   2
BRANCH   1  11
ATOM     11  C   UNL     1     124.120 177.388 125.155  1.00  0.00     0.000 C 
BRANCH  11  12
ATOM     12  C   UNL     1     123.623 178.409 126.193  1.00  0.00    -0.000 C 
BRANCH  12  13
ATOM     13  C   UNL     1     122.914 177.744 127.383  1.00  0.00    -0.000 C 
BRANCH  13  14
ATOM     14  C   UNL     1     121.715 178.560 127.891  1.00  0.00    -0.000 C 
BRANCH  14  15
ATOM     15  C   UNL     1     120.501 177.655 128.137  1.00  0.00    -0.000 C 
BRANCH  15  16
ATOM     16  C   UNL     1     120.809 176.203 127.748  1.00  0.00    -0.000 C 
BRANCH  16  17
ATOM     17  C   UNL     1     119.666 175.547 126.959  1.00  0.00    -0.003 C 
ATOM     18  C   UNL     1     120.164 174.694 125.792  1.00  0.00     0.004 C 
ENDBRANCH  16  17
ENDBRANCH  15  16
ENDBRANCH  14  15
ENDBRANCH  13  14
ENDBRANCH  12  13
ENDBRANCH  11  12
ENDBRANCH   1  11
TORSDOF 14
ENDMDL
MODEL 6
REMARK VINA RESULT:    -4.553      7.050      9.352
REMARK INTER + INTRA:         -10.740
REMARK INTER:                  -8.267
REMARK INTRA:                  -2.474
REMARK UNBOUND:                -2.461
REMARK SMILES CCCCCCCCCCCCCCCC(=O)[O-]
REMARK SMILES IDX 9 1 10 2 11 3 12 4 13 5 14 6 15 7 16 8 17 9 18 10 8 11 7 12
REMARK SMILES IDX 6 13 5 14 4 15 3 16 2 17 1 18
REMARK H PARENT
REMARK Flexibility Score: inf
ROOT
ATOM      1  C   UNL     1     120.557 178.966 124.363  1.00  0.00     0.000 C 
ENDROOT
BRANCH   1   2
ATOM      2  C   UNL     1     121.750 177.991 124.370  1.00  0.00     0.000 C 
BRANCH   2   3
ATOM      3  C   UNL     1     121.316 176.531 124.168  1.00  0.00     0.000 C 
BRANCH   3   4
ATOM      4  C   UNL     1     122.192 175.540 124.953  1.00  0.00     0.000 C 
BRANCH   4   5
ATOM      5  C   UNL     1     121.413 174.269 125.356  1.00  0.00     0.000 C 
BRANCH   5   6
ATOM      6  C   UNL     1     122.174 173.367 126.342  1.00  0.00     0.006 C 
BRANCH   6   7
ATOM      7  C   UNL     1     121.711 173.547 127.793  1.00  0.00     0.053 C 
BRANCH   7   8
ATOM      8  C   UNL     1     120.572 172.626 128.095  1.00  0.00     0.041 C 
ATOM      9  O   UNL     1     120.787 171.408 128.335  1.00  0.00    -0.550 OA
ATOM     10  O   UNL     1     119.266 173.101 128.061  1.00  0.00    -0.550 OA
ENDBRANCH   7   8
ENDBRANCH   6   7
ENDBRANCH   5   6
ENDBRANCH   4   5
ENDBRANCH   3   4
ENDBRANCH   2   3
ENDBRANCH   1   2
BRANCH   1  11
ATOM     11  C   UNL     1     120.368 179.679 125.712  1.00  0.00     0.000 C 
BRANCH  11  12
ATOM     12  C   UNL     1     121.417 179.258 126.754  1.00  0.00    -0.000 C 
BRANCH  12  13
ATOM     13  C   UNL     1     120.787 178.639 128.012  1.00  0.00    -0.000 C 
BRANCH  13  14
ATOM     14  C   UNL     1     120.504 177.137 127.855  1.00  0.00    -0.000 C 
BRANCH  14  15
ATOM     15  C   UNL     1     118.996 176.858 127.869  1.00  0.00    -0.000 C 
BRANCH  15  16
ATOM     16  C   UNL     1     118.539 176.236 126.542  1.00  0.00    -0.000 C 
BRANCH  16  17
ATOM     17  C   UNL     1     117.726 177.213 125.680  1.00  0.00    -0.003 C 
ATOM     18  C   UNL     1     116.571 177.859 126.445  1.00  0.00     0.004 C 
ENDBRANCH  16  17
ENDBRANCH  15  16
ENDBRANCH  14  15
ENDBRANCH  13  14
ENDBRANCH  12  13
ENDBRANCH  11  12
ENDBRANCH   1  11
TORSDOF 14
ENDMDL
MODEL 7
REMARK VINA RESULT:    -4.495      6.340      8.684
REMARK INTER + INTRA:         -10.635
REMARK INTER:                  -8.063
REMARK INTRA:                  -2.571
REMARK UNBOUND:                -2.461
REMARK SMILES CCCCCCCCCCCCCCCC(=O)[O-]
REMARK SMILES IDX 9 1 10 2 11 3 12 4 13 5 14 6 15 7 16 8 17 9 18 10 8 11 7 12
REMARK SMILES IDX 6 13 5 14 4 15 3 16 2 17 1 18
REMARK H PARENT
REMARK Flexibility Score: inf
ROOT
ATOM      1  C   UNL     1     122.831 178.492 126.166  1.00  0.00     0.000 C 
ENDROOT
BRANCH   1   2
ATOM      2  C   UNL     1     123.024 177.407 125.092  1.00  0.00     0.000 C 
BRANCH   2   3
ATOM      3  C   UNL     1     122.084 177.596 123.890  1.00  0.00     0.000 C 
BRANCH   3   4
ATOM      4  C   UNL     1     121.042 178.703 124.124  1.00  0.00     0.000 C 
BRANCH   4   5
ATOM      5  C   UNL     1     119.597 178.183 123.965  1.00  0.00     0.000 C 
BRANCH   5   6
ATOM      6  C   UNL     1     118.582 178.897 124.873  1.00  0.00     0.006 C 
BRANCH   6   7
ATOM      7  C   UNL     1     117.239 178.161 124.960  1.00  0.00     0.053 C 
BRANCH   7   8
ATOM      8  C   UNL     1     116.259 178.749 123.996  1.00  0.00     0.041 C 
ATOM      9  O   UNL     1     115.224 179.331 124.419  1.00  0.00    -0.550 OA
ATOM     10  O   UNL     1     116.460 178.611 122.628  1.00  0.00    -0.550 OA
ENDBRANCH   7   8
ENDBRANCH   6   7
ENDBRANCH   5   6
ENDBRANCH   4   5
ENDBRANCH   3   4
ENDBRANCH   2   3
ENDBRANCH   1   2
BRANCH   1  11
ATOM     11  C   UNL     1     122.487 177.906 127.546  1.00  0.00     0.000 C 
BRANCH  11  12
ATOM     12  C   UNL     1     121.125 178.391 128.070  1.00  0.00    -0.000 C 
BRANCH  12  13
ATOM     13  C   UNL     1     120.297 177.258 128.698  1.00  0.00    -0.000 C 
BRANCH  13  14
ATOM     14  C   UNL     1     119.154 176.785 127.787  1.00  0.00    -0.000 C 
BRANCH  14  15
ATOM     15  C   UNL     1     119.343 175.316 127.387  1.00  0.00    -0.000 C 
BRANCH  15  16
ATOM     16  C   UNL     1     119.592 175.184 125.878  1.00  0.00    -0.000 C 
BRANCH  16  17
ATOM     17  C   UNL     1     120.860 174.378 125.557  1.00  0.00    -0.003 C 
ATOM     18  C   UNL     1     121.810 174.268 126.750  1.00  0.00     0.004 C 
ENDBRANCH  16  17
ENDBRANCH  15  16
ENDBRANCH  14  15
ENDBRANCH  13  14
ENDBRANCH  12  13
ENDBRANCH  11  12
ENDBRANCH   1  11
TORSDOF 14
ENDMDL
MODEL 8
REMARK VINA RESULT:    -4.493      6.560      8.975
REMARK INTER + INTRA:         -10.630
REMARK INTER:                  -8.320
REMARK INTRA:                  -2.310
REMARK UNBOUND:                -2.461
REMARK SMILES CCCCCCCCCCCCCCCC(=O)[O-]
REMARK SMILES IDX 9 1 10 2 11 3 12 4 13 5 14 6 15 7 16 8 17 9 18 10 8 11 7 12
REMARK SMILES IDX 6 13 5 14 4 15 3 16 2 17 1 18
REMARK H PARENT
REMARK Flexibility Score: inf
ROOT
ATOM      1  C   UNL     1     122.411 177.745 126.425  1.00  0.00     0.000 C 
ENDROOT
BRANCH   1   2
ATOM      2  C   UNL     1     121.827 179.158 126.606  1.00  0.00     0.000 C 
BRANCH   2   3
ATOM      3  C   UNL     1     120.295 179.181 126.487  1.00  0.00     0.000 C 
BRANCH   3   4
ATOM      4  C   UNL     1     119.817 179.489 125.057  1.00  0.00     0.000 C 
BRANCH   4   5
ATOM      5  C   UNL     1     118.677 178.548 124.611  1.00  0.00     0.000 C 
BRANCH   5   6
ATOM      6  C   UNL     1     117.684 178.208 125.735  1.00  0.00     0.006 C 
BRANCH   6   7
ATOM      7  C   UNL     1     116.221 178.316 125.291  1.00  0.00     0.053 C 
BRANCH   7   8
ATOM      8  C   UNL     1     115.951 179.668 124.710  1.00  0.00     0.041 C 
ATOM      9  O   UNL     1     115.530 179.778 123.528  1.00  0.00    -0.550 OA
ATOM     10  O   UNL     1     116.212 180.811 125.456  1.00  0.00    -0.550 OA
ENDBRANCH   7   8
ENDBRANCH   6   7
ENDBRANCH   5   6
ENDBRANCH   4   5
ENDBRANCH   3   4
ENDBRANCH   2   3
ENDBRANCH   1   2
BRANCH   1  11
ATOM     11  C   UNL     1     123.264 177.615 125.152  1.00  0.00     0.000 C 
BRANCH  11  12
ATOM     12  C   UNL     1     122.521 176.893 124.015  1.00  0.00    -0.000 C 
BRANCH  12  13
ATOM     13  C   UNL     1     121.287 176.121 124.512  1.00  0.00    -0.000 C 
BRANCH  13  14
ATOM     14  C   UNL     1     121.621 174.685 124.943  1.00  0.00    -0.000 C 
BRANCH  14  15
ATOM     15  C   UNL     1     120.727 174.240 126.108  1.00  0.00    -0.000 C 
BRANCH  15  16
ATOM     16  C   UNL     1     119.439 175.075 126.163  1.00  0.00    -0.000 C 
BRANCH  16  17
ATOM     17  C   UNL     1     118.960 175.329 127.601  1.00  0.00    -0.003 C 
ATOM     18  C   UNL     1     120.026 175.993 128.471  1.00  0.00     0.004 C 
ENDBRANCH  16  17
ENDBRANCH  15  16
ENDBRANCH  14  15
ENDBRANCH  13  14
ENDBRANCH  12  13
ENDBRANCH  11  12
ENDBRANCH   1  11
TORSDOF 14
ENDMDL
MODEL 9
REMARK VINA RESULT:    -4.477      3.682      6.274
REMARK INTER + INTRA:         -10.602
REMARK INTER:                  -8.353
REMARK INTRA:                  -2.249
REMARK UNBOUND:                -2.461
REMARK SMILES CCCCCCCCCCCCCCCC(=O)[O-]
REMARK SMILES IDX 9 1 10 2 11 3 12 4 13 5 14 6 15 7 16 8 17 9 18 10 8 11 7 12
REMARK SMILES IDX 6 13 5 14 4 15 3 16 2 17 1 18
REMARK H PARENT
REMARK Flexibility Score: inf
ROOT
ATOM      1  C   UNL     1     120.732 174.760 125.413  1.00  0.00     0.000 C 
ENDROOT
BRANCH   1   2
ATOM      2  C   UNL     1     121.518 175.706 124.486  1.00  0.00     0.000 C 
BRANCH   2   3
ATOM      3  C   UNL     1     122.882 176.103 125.072  1.00  0.00     0.000 C 
BRANCH   3   4
ATOM      4  C   UNL     1     123.518 177.295 124.336  1.00  0.00     0.000 C 
BRANCH   4   5
ATOM      5  C   UNL     1     122.986 177.437 122.894  1.00  0.00     0.000 C 
BRANCH   5   6
ATOM      6  C   UNL     1     124.092 177.429 121.825  1.00  0.00     0.006 C 
BRANCH   6   7
ATOM      7  C   UNL     1     125.437 176.923 122.363  1.00  0.00     0.053 C 
BRANCH   7   8
ATOM      8  C   UNL     1     126.263 176.356 121.252  1.00  0.00     0.041 C 
ATOM      9  O   UNL     1     125.706 175.871 120.232  1.00  0.00    -0.550 OA
ATOM     10  O   UNL     1     127.647 176.317 121.365  1.00  0.00    -0.550 OA
ENDBRANCH   7   8
ENDBRANCH   6   7
ENDBRANCH   5   6
ENDBRANCH   4   5
ENDBRANCH   3   4
ENDBRANCH   2   3
ENDBRANCH   1   2
BRANCH   1  11
ATOM     11  C   UNL     1     119.550 175.458 126.107  1.00  0.00     0.000 C 
BRANCH  11  12
ATOM     12  C   UNL     1     119.907 175.962 127.515  1.00  0.00    -0.000 C 
BRANCH  12  13
ATOM     13  C   UNL     1     119.651 177.468 127.687  1.00  0.00    -0.000 C 
BRANCH  13  14
ATOM     14  C   UNL     1     120.928 178.251 128.026  1.00  0.00    -0.000 C 
BRANCH  14  15
ATOM     15  C   UNL     1     121.349 179.148 126.855  1.00  0.00    -0.000 C 
BRANCH  15  16
ATOM     16  C   UNL     1     120.134 179.554 126.009  1.00  0.00    -0.000 C 
BRANCH  16  17
ATOM     17  C   UNL     1     120.314 179.224 124.519  1.00  0.00    -0.003 C 
ATOM     18  C   UNL     1     119.140 178.435 123.941  1.00  0.00     0.004 C 
ENDBRANCH  16  17
ENDBRANCH  15  16
ENDBRANCH  14  15
ENDBRANCH  13  14
ENDBRANCH  12  13
ENDBRANCH  11  12
ENDBRANCH   1  11
TORSDOF 14
ENDMDL
