MODEL 1
REMARK VINA RESULT:    -4.505      0.000      0.000
REMARK INTER + INTRA:          -4.637
REMARK INTER:                  -4.637
REMARK INTRA:                   0.000
REMARK UNBOUND:                 0.000
REMARK SMILES Nc1ncnc2nc[nH]c12
REMARK SMILES IDX 8 1 7 2 6 3 5 4 4 5 3 6 2 7 10 8 9 9 1 11
REMARK H PARENT 9 10 1 12 1 13
REMARK Flexibility Score: inf
ROOT
ATOM      1  C   UNL     1      19.085  -1.140  10.394  1.00  0.00     0.199 A 
ATOM      2  N   UNL     1      18.418  -2.253   9.984  1.00  0.00    -0.217 NA
ATOM      3  C   UNL     1      17.173  -1.784   9.791  1.00  0.00     0.182 A 
ATOM      4  N   UNL     1      16.098  -2.495   9.373  1.00  0.00    -0.215 NA
ATOM      5  C   UNL     1      14.907  -1.839   9.234  1.00  0.00     0.226 A 
ATOM      6  N   UNL     1      14.813  -0.498   9.510  1.00  0.00    -0.217 NA
ATOM      7  C   UNL     1      15.896   0.220   9.932  1.00  0.00     0.152 A 
ATOM      8  C   UNL     1      17.103  -0.462  10.069  1.00  0.00     0.127 A 
ATOM      9  N   UNL     1      18.308  -0.029  10.455  1.00  0.00    -0.340 N 
ATOM     10  H   UNL     1      18.597   0.933  10.740  1.00  0.00     0.168 HD
ENDROOT
BRANCH   7  11
ATOM     11  N   UNL     1      15.774   1.614  10.214  1.00  0.00    -0.382 N 
ATOM     12  H   UNL     1      14.991   1.960  10.811  1.00  0.00     0.158 HD
ATOM     13  H   UNL     1      16.456   2.307   9.834  1.00  0.00     0.158 HD
ENDBRANCH   7  11
TORSDOF 1
ENDMDL
MODEL 2
REMARK VINA RESULT:    -3.999      0.671      2.808
REMARK INTER + INTRA:          -4.116
REMARK INTER:                  -4.116
REMARK INTRA:                   0.000
REMARK UNBOUND:                 0.000
REMARK SMILES Nc1ncnc2nc[nH]c12
REMARK SMILES IDX 8 1 7 2 6 3 5 4 4 5 3 6 2 7 10 8 9 9 1 11
REMARK H PARENT 9 10 1 12 1 13
REMARK Flexibility Score: inf
ROOT
ATOM      1  C   UNL     1      14.768  -2.312   8.697  1.00  0.00     0.199 A 
ATOM      2  N   UNL     1      15.948  -2.944   8.947  1.00  0.00    -0.217 NA
ATOM      3  C   UNL     1      16.665  -1.982   9.551  1.00  0.00     0.182 A 
ATOM      4  N   UNL     1      17.934  -2.090  10.013  1.00  0.00    -0.215 NA
ATOM      5  C   UNL     1      18.501  -0.994  10.603  1.00  0.00     0.226 A 
ATOM      6  N   UNL     1      17.796   0.176  10.720  1.00  0.00    -0.217 NA
ATOM      7  C   UNL     1      16.516   0.287  10.254  1.00  0.00     0.152 A 
ATOM      8  C   UNL     1      15.952  -0.837   9.656  1.00  0.00     0.127 A 
ATOM      9  N   UNL     1      14.741  -1.022   9.119  1.00  0.00    -0.340 N 
ATOM     10  H   UNL     1      13.952  -0.344   9.037  1.00  0.00     0.168 HD
ENDROOT
BRANCH   7  11
ATOM     11  N   UNL     1      15.802   1.516  10.387  1.00  0.00    -0.382 N 
ATOM     12  H   UNL     1      14.954   1.694   9.804  1.00  0.00     0.158 HD
ATOM     13  H   UNL     1      16.108   2.253  11.060  1.00  0.00     0.158 HD
ENDBRANCH   7  11
TORSDOF 1
ENDMDL
MODEL 3
REMARK VINA RESULT:    -3.486      1.055      3.278
REMARK INTER + INTRA:          -3.588
REMARK INTER:                  -3.588
REMARK INTRA:                   0.000
REMARK UNBOUND:                 0.000
REMARK SMILES Nc1ncnc2nc[nH]c12
REMARK SMILES IDX 8 1 7 2 6 3 5 4 4 5 3 6 2 7 10 8 9 9 1 11
REMARK H PARENT 9 10 1 12 1 13
REMARK Flexibility Score: inf
ROOT
ATOM      1  C   UNL     1      15.480  -3.027   8.873  1.00  0.00     0.199 A 
ATOM      2  N   UNL     1      14.757  -1.880   8.993  1.00  0.00    -0.217 NA
ATOM      3  C   UNL     1      15.654  -1.032   9.525  1.00  0.00     0.182 A 
ATOM      4  N   UNL     1      15.445   0.266   9.850  1.00  0.00    -0.215 NA
ATOM      5  C   UNL     1      16.487   0.973  10.384  1.00  0.00     0.226 A 
ATOM      6  N   UNL     1      17.705   0.375  10.582  1.00  0.00    -0.217 NA
ATOM      7  C   UNL     1      17.917  -0.935  10.256  1.00  0.00     0.152 A 
ATOM      8  C   UNL     1      16.847  -1.641   9.712  1.00  0.00     0.127 A 
ATOM      9  N   UNL     1      16.761  -2.913   9.305  1.00  0.00    -0.340 N 
ATOM     10  H   UNL     1      17.497  -3.653   9.311  1.00  0.00     0.168 HD
ENDROOT
BRANCH   7  11
ATOM     11  N   UNL     1      19.195  -1.536  10.471  1.00  0.00    -0.382 N 
ATOM     12  H   UNL     1      20.044  -0.938  10.574  1.00  0.00     0.158 HD
ATOM     13  H   UNL     1      19.305  -2.573  10.529  1.00  0.00     0.158 HD
ENDBRANCH   7  11
TORSDOF 1
ENDMDL
MODEL 4
REMARK VINA RESULT:    -3.351      0.978      2.556
REMARK INTER + INTRA:          -3.449
REMARK INTER:                  -3.449
REMARK INTRA:                   0.000
REMARK UNBOUND:                 0.000
REMARK SMILES Nc1ncnc2nc[nH]c12
REMARK SMILES IDX 8 1 7 2 6 3 5 4 4 5 3 6 2 7 10 8 9 9 1 11
REMARK H PARENT 9 10 1 12 1 13
REMARK Flexibility Score: inf
ROOT
ATOM      1  C   UNL     1      18.910  -1.317  10.701  1.00  0.00     0.199 A 
ATOM      2  N   UNL     1      18.164  -0.180  10.763  1.00  0.00    -0.217 NA
ATOM      3  C   UNL     1      17.001  -0.572  10.216  1.00  0.00     0.182 A 
ATOM      4  N   UNL     1      15.896   0.190  10.034  1.00  0.00    -0.215 NA
ATOM      5  C   UNL     1      14.801  -0.389   9.456  1.00  0.00     0.226 A 
ATOM      6  N   UNL     1      14.830  -1.707   9.074  1.00  0.00    -0.217 NA
ATOM      7  C   UNL     1      15.943  -2.477   9.257  1.00  0.00     0.152 A 
ATOM      8  C   UNL     1      17.051  -1.873   9.847  1.00  0.00     0.127 A 
ATOM      9  N   UNL     1      18.257  -2.369  10.146  1.00  0.00    -0.340 N 
ATOM     10  H   UNL     1      18.622  -3.335   9.993  1.00  0.00     0.168 HD
ENDROOT
BRANCH   7  11
ATOM     11  N   UNL     1      15.950  -3.846   8.852  1.00  0.00    -0.382 N 
ATOM     12  H   UNL     1      16.439  -4.130   7.974  1.00  0.00     0.158 HD
ATOM     13  H   UNL     1      15.472  -4.583   9.416  1.00  0.00     0.158 HD
ENDBRANCH   7  11
TORSDOF 1
ENDMDL
MODEL 5
REMARK VINA RESULT:    -3.289      1.121      2.998
REMARK INTER + INTRA:          -3.385
REMARK INTER:                  -3.385
REMARK INTRA:                   0.000
REMARK UNBOUND:                 0.000
REMARK SMILES Nc1ncnc2nc[nH]c12
REMARK SMILES IDX 8 1 7 2 6 3 5 4 4 5 3 6 2 7 10 8 9 9 1 11
REMARK H PARENT 9 10 1 12 1 13
REMARK Flexibility Score: inf
ROOT
ATOM      1  C   UNL     1      16.273   2.326   9.636  1.00  0.00     0.199 A 
ATOM      2  N   UNL     1      15.121   1.648   9.376  1.00  0.00    -0.217 NA
ATOM      3  C   UNL     1      15.470   0.379   9.644  1.00  0.00     0.182 A 
ATOM      4  N   UNL     1      14.677  -0.715   9.546  1.00  0.00    -0.215 NA
ATOM      5  C   UNL     1      15.214  -1.931   9.864  1.00  0.00     0.226 A 
ATOM      6  N   UNL     1      16.520  -2.031  10.271  1.00  0.00    -0.217 NA
ATOM      7  C   UNL     1      17.322  -0.929  10.370  1.00  0.00     0.152 A 
ATOM      8  C   UNL     1      16.760   0.303  10.043  1.00  0.00     0.127 A 
ATOM      9  N   UNL     1      17.293   1.530  10.046  1.00  0.00    -0.340 N 
ATOM     10  H   UNL     1      18.263   1.822  10.300  1.00  0.00     0.168 HD
ENDROOT
BRANCH   7  11
ATOM     11  N   UNL     1      18.679  -1.057  10.796  1.00  0.00    -0.382 N 
ATOM     12  H   UNL     1      18.970  -1.875  11.376  1.00  0.00     0.158 HD
ATOM     13  H   UNL     1      19.398  -0.345  10.541  1.00  0.00     0.158 HD
ENDBRANCH   7  11
TORSDOF 1
ENDMDL
MODEL 6
REMARK VINA RESULT:    -2.903      0.966      3.360
REMARK INTER + INTRA:          -2.987
REMARK INTER:                  -2.987
REMARK INTRA:                   0.000
REMARK UNBOUND:                 0.000
REMARK SMILES Nc1ncnc2nc[nH]c12
REMARK SMILES IDX 8 1 7 2 6 3 5 4 4 5 3 6 2 7 10 8 9 9 1 11
REMARK H PARENT 9 10 1 12 1 13
REMARK Flexibility Score: inf
ROOT
ATOM      1  C   UNL     1      15.614   1.562   9.848  1.00  0.00     0.199 A 
ATOM      2  N   UNL     1      16.891   1.518  10.317  1.00  0.00    -0.217 NA
ATOM      3  C   UNL     1      17.162   0.202  10.282  1.00  0.00     0.182 A 
ATOM      4  N   UNL     1      18.321  -0.394  10.651  1.00  0.00    -0.215 NA
ATOM      5  C   UNL     1      18.410  -1.754  10.543  1.00  0.00     0.226 A 
ATOM      6  N   UNL     1      17.349  -2.486  10.073  1.00  0.00    -0.217 NA
ATOM      7  C   UNL     1      16.179  -1.886   9.701  1.00  0.00     0.152 A 
ATOM      8  C   UNL     1      16.104  -0.501   9.817  1.00  0.00     0.127 A 
ATOM      9  N   UNL     1      15.106   0.343   9.533  1.00  0.00    -0.340 N 
ATOM     10  H   UNL     1      14.155   0.130   9.158  1.00  0.00     0.168 HD
ENDROOT
BRANCH   7  11
ATOM     11  N   UNL     1      15.088  -2.669   9.215  1.00  0.00    -0.382 N 
ATOM     12  H   UNL     1      14.985  -3.665   9.512  1.00  0.00     0.158 HD
ATOM     13  H   UNL     1      14.380  -2.268   8.560  1.00  0.00     0.158 HD
ENDBRANCH   7  11
TORSDOF 1
ENDMDL
MODEL 7
REMARK VINA RESULT:    -2.285      1.536      3.713
REMARK INTER + INTRA:          -2.352
REMARK INTER:                  -2.352
REMARK INTRA:                   0.000
REMARK UNBOUND:                 0.000
REMARK SMILES Nc1ncnc2nc[nH]c12
REMARK SMILES IDX 8 1 7 2 6 3 5 4 4 5 3 6 2 7 10 8 9 9 1 11
REMARK H PARENT 9 10 1 12 1 13
REMARK Flexibility Score: inf
ROOT
ATOM      1  C   UNL     1      15.107  -2.247   9.012  1.00  0.00     0.199 A 
ATOM      2  N   UNL     1      15.202  -1.667  10.240  1.00  0.00    -0.217 NA
ATOM      3  C   UNL     1      16.525  -1.466  10.360  1.00  0.00     0.182 A 
ATOM      4  N   UNL     1      17.165  -0.907  11.415  1.00  0.00    -0.215 NA
ATOM      5  C   UNL     1      18.526  -0.786  11.352  1.00  0.00     0.226 A 
ATOM      6  N   UNL     1      19.214  -1.221  10.248  1.00  0.00    -0.217 NA
ATOM      7  C   UNL     1      18.570  -1.785   9.184  1.00  0.00     0.152 A 
ATOM      8  C   UNL     1      17.184  -1.902   9.262  1.00  0.00     0.127 A 
ATOM      9  N   UNL     1      16.303  -2.403   8.389  1.00  0.00    -0.340 N 
ATOM     10  H   UNL     1      16.479  -2.819   7.448  1.00  0.00     0.168 HD
ENDROOT
BRANCH   7  11
ATOM     11  N   UNL     1      19.308  -2.231   8.045  1.00  0.00    -0.382 N 
ATOM     12  H   UNL     1      19.018  -3.098   7.541  1.00  0.00     0.158 HD
ATOM     13  H   UNL     1      20.141  -1.707   7.699  1.00  0.00     0.158 HD
ENDBRANCH   7  11
TORSDOF 1
ENDMDL
MODEL 8
REMARK VINA RESULT:    -2.148      1.128      2.492
REMARK INTER + INTRA:          -2.210
REMARK INTER:                  -2.210
REMARK INTRA:                   0.000
REMARK UNBOUND:                 0.000
REMARK SMILES Nc1ncnc2nc[nH]c12
REMARK SMILES IDX 8 1 7 2 6 3 5 4 4 5 3 6 2 7 10 8 9 9 1 11
REMARK H PARENT 9 10 1 12 1 13
REMARK Flexibility Score: inf
ROOT
ATOM      1  C   UNL     1      18.247  -2.035  10.538  1.00  0.00     0.199 A 
ATOM      2  N   UNL     1      18.668  -0.751  10.707  1.00  0.00    -0.217 NA
ATOM      3  C   UNL     1      17.580  -0.045  10.355  1.00  0.00     0.182 A 
ATOM      4  N   UNL     1      17.462   1.304  10.343  1.00  0.00    -0.215 NA
ATOM      5  C   UNL     1      16.267   1.843   9.951  1.00  0.00     0.226 A 
ATOM      6  N   UNL     1      15.224   1.031   9.584  1.00  0.00    -0.217 NA
ATOM      7  C   UNL     1      15.342  -0.330   9.595  1.00  0.00     0.152 A 
ATOM      8  C   UNL     1      16.565  -0.863   9.996  1.00  0.00     0.127 A 
ATOM      9  N   UNL     1      16.965  -2.135  10.105  1.00  0.00    -0.340 N 
ATOM     10  H   UNL     1      16.429  -3.009   9.906  1.00  0.00     0.168 HD
ENDROOT
BRANCH   7  11
ATOM     11  N   UNL     1      14.243  -1.154   9.208  1.00  0.00    -0.382 N 
ATOM     12  H   UNL     1      14.388  -2.174   9.038  1.00  0.00     0.158 HD
ATOM     13  H   UNL     1      13.283  -0.760   9.088  1.00  0.00     0.158 HD
ENDBRANCH   7  11
TORSDOF 1
ENDMDL
