MODEL 1
REMARK VINA RESULT:    -3.525      0.000      0.000
REMARK INTER + INTRA:          -8.770
REMARK INTER:                  -6.204
REMARK INTRA:                  -2.566
REMARK UNBOUND:                -2.566
REMARK SMILES CCCCCCCCCCCCCCC(=O)[O-]
REMARK SMILES IDX 9 1 10 2 11 3 12 4 13 5 14 6 15 7 16 8 17 9 8 10 7 11 6 12
REMARK SMILES IDX 5 13 4 14 3 15 2 16 1 17
REMARK H PARENT
REMARK Flexibility Score: inf
ROOT
ATOM      1  C   UNL     1      -2.504   6.592  40.933  1.00  0.00     0.000 C 
ENDROOT
BRANCH   1   2
ATOM      2  C   UNL     1      -3.013   7.858  40.211  1.00  0.00     0.000 C 
BRANCH   2   3
ATOM      3  C   UNL     1      -2.369   8.032  38.824  1.00  0.00     0.000 C 
BRANCH   3   4
ATOM      4  C   UNL     1      -2.252   9.509  38.414  1.00  0.00     0.000 C 
BRANCH   4   5
ATOM      5  C   UNL     1      -1.423   9.691  37.133  1.00  0.00     0.006 C 
BRANCH   5   6
ATOM      6  C   UNL     1      -1.424   8.410  36.293  1.00  0.00     0.053 C 
BRANCH   6   7
ATOM      7  C   UNL     1      -0.234   8.378  35.386  1.00  0.00     0.041 C 
ATOM      8  O   UNL     1      -0.112   7.457  34.535  1.00  0.00    -0.550 OA
ATOM      9  O   UNL     1       0.764   9.335  35.512  1.00  0.00    -0.550 OA
ENDBRANCH   6   7
ENDBRANCH   5   6
ENDBRANCH   4   5
ENDBRANCH   3   4
ENDBRANCH   2   3
ENDBRANCH   1   2
BRANCH   1  10
ATOM     10  C   UNL     1      -1.316   6.863  41.872  1.00  0.00     0.000 C 
BRANCH  10  11
ATOM     11  C   UNL     1      -1.318   8.293  42.439  1.00  0.00    -0.000 C 
BRANCH  11  12
ATOM     12  C   UNL     1      -0.101   9.111  41.985  1.00  0.00    -0.000 C 
BRANCH  12  13
ATOM     13  C   UNL     1       0.898   8.278  41.162  1.00  0.00    -0.000 C 
BRANCH  13  14
ATOM     14  C   UNL     1       1.154   8.887  39.767  1.00  0.00    -0.000 C 
BRANCH  14  15
ATOM     15  C   UNL     1       1.473   7.837  38.688  1.00  0.00    -0.000 C 
BRANCH  15  16
ATOM     16  C   UNL     1       1.237   6.399  39.168  1.00  0.00    -0.003 C 
ATOM     17  C   UNL     1       0.295   5.653  38.227  1.00  0.00     0.004 C 
ENDBRANCH  15  16
ENDBRANCH  14  15
ENDBRANCH  13  14
ENDBRANCH  12  13
ENDBRANCH  11  12
ENDBRANCH  10  11
ENDBRANCH   1  10
TORSDOF 13
ENDMDL
MODEL 2
REMARK VINA RESULT:    -3.425      1.224      2.915
REMARK INTER + INTRA:          -8.594
REMARK INTER:                  -6.324
REMARK INTRA:                  -2.270
REMARK UNBOUND:                -2.566
REMARK SMILES CCCCCCCCCCCCCCC(=O)[O-]
REMARK SMILES IDX 9 1 10 2 11 3 12 4 13 5 14 6 15 7 16 8 17 9 8 10 7 11 6 12
REMARK SMILES IDX 5 13 4 14 3 15 2 16 1 17
REMARK H PARENT
REMARK Flexibility Score: inf
ROOT
ATOM      1  C   UNL     1       0.760   7.823  41.284  1.00  0.00     0.000 C 
ENDROOT
BRANCH   1   2
ATOM      2  C   UNL     1       0.694   8.408  39.857  1.00  0.00     0.000 C 
BRANCH   2   3
ATOM      3  C   UNL     1       0.146   9.846  39.846  1.00  0.00     0.000 C 
BRANCH   3   4
ATOM      4  C   UNL     1      -0.854  10.083  38.703  1.00  0.00     0.000 C 
BRANCH   4   5
ATOM      5  C   UNL     1      -0.403   9.421  37.391  1.00  0.00     0.006 C 
BRANCH   5   6
ATOM      6  C   UNL     1      -1.595   8.819  36.643  1.00  0.00     0.053 C 
BRANCH   6   7
ATOM      7  C   UNL     1      -1.126   7.844  35.608  1.00  0.00     0.041 C 
ATOM      8  O   UNL     1      -1.764   6.776  35.410  1.00  0.00    -0.550 OA
ATOM      9  O   UNL     1       0.042   8.090  34.899  1.00  0.00    -0.550 OA
ENDBRANCH   6   7
ENDBRANCH   5   6
ENDBRANCH   4   5
ENDBRANCH   3   4
ENDBRANCH   2   3
ENDBRANCH   1   2
BRANCH   1  10
ATOM     10  C   UNL     1       0.332   8.823  42.373  1.00  0.00     0.000 C 
BRANCH  10  11
ATOM     11  C   UNL     1      -0.985   8.429  43.060  1.00  0.00    -0.000 C 
BRANCH  11  12
ATOM     12  C   UNL     1      -1.304   6.934  42.916  1.00  0.00    -0.000 C 
BRANCH  12  13
ATOM     13  C   UNL     1      -2.649   6.682  42.212  1.00  0.00    -0.000 C 
BRANCH  13  14
ATOM     14  C   UNL     1      -3.073   7.870  41.321  1.00  0.00    -0.000 C 
BRANCH  14  15
ATOM     15  C   UNL     1      -3.073   7.540  39.818  1.00  0.00    -0.000 C 
BRANCH  15  16
ATOM     16  C   UNL     1      -2.950   6.036  39.538  1.00  0.00    -0.003 C 
ATOM     17  C   UNL     1      -1.665   5.722  38.778  1.00  0.00     0.004 C 
ENDBRANCH  15  16
ENDBRANCH  14  15
ENDBRANCH  13  14
ENDBRANCH  12  13
ENDBRANCH  11  12
ENDBRANCH  10  11
ENDBRANCH   1  10
TORSDOF 13
ENDMDL
MODEL 3
REMARK VINA RESULT:    -3.422      1.374      2.753
REMARK INTER + INTRA:          -8.588
REMARK INTER:                  -6.118
REMARK INTRA:                  -2.470
REMARK UNBOUND:                -2.566
REMARK SMILES CCCCCCCCCCCCCCC(=O)[O-]
REMARK SMILES IDX 9 1 10 2 11 3 12 4 13 5 14 6 15 7 16 8 17 9 8 10 7 11 6 12
REMARK SMILES IDX 5 13 4 14 3 15 2 16 1 17
REMARK H PARENT
REMARK Flexibility Score: inf
ROOT
ATOM      1  C   UNL     1      -2.349   5.176  39.975  1.00  0.00     0.000 C 
ENDROOT
BRANCH   1   2
ATOM      2  C   UNL     1      -1.286   4.914  38.886  1.00  0.00     0.000 C 
BRANCH   2   3
ATOM      3  C   UNL     1      -1.795   5.278  37.480  1.00  0.00     0.000 C 
BRANCH   3   4
ATOM      4  C   UNL     1      -0.787   6.130  36.694  1.00  0.00     0.000 C 
BRANCH   4   5
ATOM      5  C   UNL     1      -1.473   7.021  35.646  1.00  0.00     0.006 C 
BRANCH   5   6
ATOM      6  C   UNL     1      -1.006   8.474  35.771  1.00  0.00     0.053 C 
BRANCH   6   7
ATOM      7  C   UNL     1       0.425   8.601  35.353  1.00  0.00     0.041 C 
ATOM      8  O   UNL     1       0.781   8.251  34.196  1.00  0.00    -0.550 OA
ATOM      9  O   UNL     1       1.376   9.060  36.255  1.00  0.00    -0.550 OA
ENDBRANCH   6   7
ENDBRANCH   5   6
ENDBRANCH   4   5
ENDBRANCH   3   4
ENDBRANCH   2   3
ENDBRANCH   1   2
BRANCH   1  10
ATOM     10  C   UNL     1      -3.342   6.290  39.601  1.00  0.00     0.000 C 
BRANCH  10  11
ATOM     11  C   UNL     1      -2.938   7.663  40.165  1.00  0.00    -0.000 C 
BRANCH  11  12
ATOM     12  C   UNL     1      -2.480   8.639  39.073  1.00  0.00    -0.000 C 
BRANCH  12  13
ATOM     13  C   UNL     1      -1.135   9.311  39.407  1.00  0.00    -0.000 C 
BRANCH  13  14
ATOM     14  C   UNL     1       0.031   8.299  39.436  1.00  0.00    -0.000 C 
BRANCH  14  15
ATOM     15  C   UNL     1       0.764   8.248  40.788  1.00  0.00    -0.000 C 
BRANCH  15  16
ATOM     16  C   UNL     1       0.741   6.852  41.426  1.00  0.00    -0.003 C 
ATOM     17  C   UNL     1      -0.241   6.798  42.593  1.00  0.00     0.004 C 
ENDBRANCH  15  16
ENDBRANCH  14  15
ENDBRANCH  13  14
ENDBRANCH  12  13
ENDBRANCH  11  12
ENDBRANCH  10  11
ENDBRANCH   1  10
TORSDOF 13
ENDMDL
MODEL 4
REMARK VINA RESULT:    -3.374      2.834      4.958
REMARK INTER + INTRA:          -8.504
REMARK INTER:                  -6.585
REMARK INTRA:                  -1.919
REMARK UNBOUND:                -2.566
REMARK SMILES CCCCCCCCCCCCCCC(=O)[O-]
REMARK SMILES IDX 9 1 10 2 11 3 12 4 13 5 14 6 15 7 16 8 17 9 8 10 7 11 6 12
REMARK SMILES IDX 5 13 4 14 3 15 2 16 1 17
REMARK H PARENT
REMARK Flexibility Score: inf
ROOT
ATOM      1  C   UNL     1      -1.429   8.657  35.993  1.00  0.00     0.000 C 
ENDROOT
BRANCH   1   2
ATOM      2  C   UNL     1      -1.849   9.902  36.803  1.00  0.00     0.000 C 
BRANCH   2   3
ATOM      3  C   UNL     1      -2.270   9.544  38.239  1.00  0.00     0.000 C 
BRANCH   3   4
ATOM      4  C   UNL     1      -2.177   8.035  38.518  1.00  0.00     0.000 C 
BRANCH   4   5
ATOM      5  C   UNL     1      -3.008   7.619  39.741  1.00  0.00     0.006 C 
BRANCH   5   6
ATOM      6  C   UNL     1      -3.313   6.119  39.712  1.00  0.00     0.053 C 
BRANCH   6   7
ATOM      7  C   UNL     1      -2.642   5.426  40.856  1.00  0.00     0.041 C 
ATOM      8  O   UNL     1      -1.910   4.422  40.647  1.00  0.00    -0.550 OA
ATOM      9  O   UNL     1      -2.864   5.856  42.158  1.00  0.00    -0.550 OA
ENDBRANCH   6   7
ENDBRANCH   5   6
ENDBRANCH   4   5
ENDBRANCH   3   4
ENDBRANCH   2   3
ENDBRANCH   1   2
BRANCH   1  10
ATOM     10  C   UNL     1      -0.041   8.794  35.341  1.00  0.00     0.000 C 
BRANCH  10  11
ATOM     11  C   UNL     1       1.052   9.197  36.344  1.00  0.00    -0.000 C 
BRANCH  11  12
ATOM     12  C   UNL     1       1.468   8.038  37.262  1.00  0.00    -0.000 C 
BRANCH  12  13
ATOM     13  C   UNL     1       1.846   8.512  38.677  1.00  0.00    -0.000 C 
BRANCH  13  14
ATOM     14  C   UNL     1       1.223   9.882  39.019  1.00  0.00    -0.000 C 
BRANCH  14  15
ATOM     15  C   UNL     1       0.708   9.977  40.466  1.00  0.00    -0.000 C 
BRANCH  15  16
ATOM     16  C   UNL     1       0.283   8.617  41.038  1.00  0.00    -0.003 C 
ATOM     17  C   UNL     1       1.033   8.305  42.329  1.00  0.00     0.004 C 
ENDBRANCH  15  16
ENDBRANCH  14  15
ENDBRANCH  13  14
ENDBRANCH  12  13
ENDBRANCH  11  12
ENDBRANCH  10  11
ENDBRANCH   1  10
TORSDOF 13
ENDMDL
MODEL 5
REMARK VINA RESULT:    -3.374      1.775      3.080
REMARK INTER + INTRA:          -8.504
REMARK INTER:                  -6.284
REMARK INTRA:                  -2.219
REMARK UNBOUND:                -2.566
REMARK SMILES CCCCCCCCCCCCCCC(=O)[O-]
REMARK SMILES IDX 9 1 10 2 11 3 12 4 13 5 14 6 15 7 16 8 17 9 8 10 7 11 6 12
REMARK SMILES IDX 5 13 4 14 3 15 2 16 1 17
REMARK H PARENT
REMARK Flexibility Score: inf
ROOT
ATOM      1  C   UNL     1      -1.346   8.906  39.834  1.00  0.00     0.000 C 
ENDROOT
BRANCH   1   2
ATOM      2  C   UNL     1      -0.890   9.849  38.700  1.00  0.00     0.000 C 
BRANCH   2   3
ATOM      3  C   UNL     1      -1.978  10.033  37.627  1.00  0.00     0.000 C 
BRANCH   3   4
ATOM      4  C   UNL     1      -1.466   9.717  36.212  1.00  0.00     0.000 C 
BRANCH   4   5
ATOM      5  C   UNL     1      -0.730   8.369  36.150  1.00  0.00     0.006 C 
BRANCH   5   6
ATOM      6  C   UNL     1      -1.641   7.272  35.594  1.00  0.00     0.053 C 
BRANCH   6   7
ATOM      7  C   UNL     1      -0.836   6.239  34.871  1.00  0.00     0.041 C 
ATOM      8  O   UNL     1      -0.863   5.037  35.248  1.00  0.00    -0.550 OA
ATOM      9  O   UNL     1      -0.017   6.609  33.813  1.00  0.00    -0.550 OA
ENDBRANCH   6   7
ENDBRANCH   5   6
ENDBRANCH   4   5
ENDBRANCH   3   4
ENDBRANCH   2   3
ENDBRANCH   1   2
BRANCH   1  10
ATOM     10  C   UNL     1      -2.677   8.194  39.535  1.00  0.00     0.000 C 
BRANCH  10  11
ATOM     11  C   UNL     1      -3.054   7.159  40.609  1.00  0.00    -0.000 C 
BRANCH  11  12
ATOM     12  C   UNL     1      -3.115   5.728  40.056  1.00  0.00    -0.000 C 
BRANCH  12  13
ATOM     13  C   UNL     1      -2.430   5.595  38.684  1.00  0.00    -0.000 C 
BRANCH  13  14
ATOM     14  C   UNL     1      -1.077   4.856  38.778  1.00  0.00    -0.000 C 
BRANCH  14  15
ATOM     15  C   UNL     1       0.141   5.791  38.674  1.00  0.00    -0.000 C 
BRANCH  15  16
ATOM     16  C   UNL     1       1.160   5.570  39.801  1.00  0.00    -0.003 C 
ATOM     17  C   UNL     1       0.636   6.108  41.129  1.00  0.00     0.004 C 
ENDBRANCH  15  16
ENDBRANCH  14  15
ENDBRANCH  13  14
ENDBRANCH  12  13
ENDBRANCH  11  12
ENDBRANCH  10  11
ENDBRANCH   1  10
TORSDOF 13
ENDMDL
MODEL 6
REMARK VINA RESULT:    -3.295      1.497      3.111
REMARK INTER + INTRA:          -8.366
REMARK INTER:                  -6.299
REMARK INTRA:                  -2.067
REMARK UNBOUND:                -2.566
REMARK SMILES CCCCCCCCCCCCCCC(=O)[O-]
REMARK SMILES IDX 9 1 10 2 11 3 12 4 13 5 14 6 15 7 16 8 17 9 8 10 7 11 6 12
REMARK SMILES IDX 5 13 4 14 3 15 2 16 1 17
REMARK H PARENT
REMARK Flexibility Score: inf
ROOT
ATOM      1  C   UNL     1      -2.994   8.276  39.711  1.00  0.00     0.000 C 
ENDROOT
BRANCH   1   2
ATOM      2  C   UNL     1      -1.771   8.838  38.953  1.00  0.00     0.000 C 
BRANCH   2   3
ATOM      3  C   UNL     1      -2.176   9.863  37.879  1.00  0.00     0.000 C 
BRANCH   3   4
ATOM      4  C   UNL     1      -1.788   9.411  36.462  1.00  0.00     0.000 C 
BRANCH   4   5
ATOM      5  C   UNL     1      -0.971   8.109  36.472  1.00  0.00     0.006 C 
BRANCH   5   6
ATOM      6  C   UNL     1      -1.643   7.034  35.614  1.00  0.00     0.053 C 
BRANCH   6   7
ATOM      7  C   UNL     1      -0.614   6.174  34.950  1.00  0.00     0.041 C 
ATOM      8  O   UNL     1      -0.164   6.488  33.816  1.00  0.00    -0.550 OA
ATOM      9  O   UNL     1      -0.189   5.001  35.559  1.00  0.00    -0.550 OA
ENDBRANCH   6   7
ENDBRANCH   5   6
ENDBRANCH   4   5
ENDBRANCH   3   4
ENDBRANCH   2   3
ENDBRANCH   1   2
BRANCH   1  10
ATOM     10  C   UNL     1      -2.804   6.822  40.179  1.00  0.00     0.000 C 
BRANCH  10  11
ATOM     11  C   UNL     1      -2.483   5.860  39.022  1.00  0.00    -0.000 C 
BRANCH  11  12
ATOM     12  C   UNL     1      -1.258   4.980  39.308  1.00  0.00    -0.000 C 
BRANCH  12  13
ATOM     13  C   UNL     1       0.063   5.766  39.236  1.00  0.00    -0.000 C 
BRANCH  13  14
ATOM     14  C   UNL     1       0.948   5.533  40.480  1.00  0.00    -0.000 C 
BRANCH  14  15
ATOM     15  C   UNL     1       0.685   6.536  41.616  1.00  0.00    -0.000 C 
BRANCH  15  16
ATOM     16  C   UNL     1       0.910   7.993  41.190  1.00  0.00    -0.003 C 
ATOM     17  C   UNL     1       0.156   8.956  42.102  1.00  0.00     0.004 C 
ENDBRANCH  15  16
ENDBRANCH  14  15
ENDBRANCH  13  14
ENDBRANCH  12  13
ENDBRANCH  11  12
ENDBRANCH  10  11
ENDBRANCH   1  10
TORSDOF 13
ENDMDL
MODEL 7
REMARK VINA RESULT:    -3.250      1.942      4.303
REMARK INTER + INTRA:          -8.286
REMARK INTER:                  -6.052
REMARK INTRA:                  -2.234
REMARK UNBOUND:                -2.566
REMARK SMILES CCCCCCCCCCCCCCC(=O)[O-]
REMARK SMILES IDX 9 1 10 2 11 3 12 4 13 5 14 6 15 7 16 8 17 9 8 10 7 11 6 12
REMARK SMILES IDX 5 13 4 14 3 15 2 16 1 17
REMARK H PARENT
REMARK Flexibility Score: inf
ROOT
ATOM      1  C   UNL     1      -2.275   9.741  38.210  1.00  0.00     0.000 C 
ENDROOT
BRANCH   1   2
ATOM      2  C   UNL     1      -2.348   8.259  38.637  1.00  0.00     0.000 C 
BRANCH   2   3
ATOM      3  C   UNL     1      -2.960   8.089  40.038  1.00  0.00     0.000 C 
BRANCH   3   4
ATOM      4  C   UNL     1      -3.002   6.619  40.485  1.00  0.00     0.000 C 
BRANCH   4   5
ATOM      5  C   UNL     1      -1.667   5.899  40.236  1.00  0.00     0.006 C 
BRANCH   5   6
ATOM      6  C   UNL     1      -1.875   4.635  39.397  1.00  0.00     0.053 C 
BRANCH   6   7
ATOM      7  C   UNL     1      -1.028   4.680  38.165  1.00  0.00     0.041 C 
ATOM      8  O   UNL     1      -1.545   4.962  37.051  1.00  0.00    -0.550 OA
ATOM      9  O   UNL     1       0.322   4.360  38.235  1.00  0.00    -0.550 OA
ENDBRANCH   6   7
ENDBRANCH   5   6
ENDBRANCH   4   5
ENDBRANCH   3   4
ENDBRANCH   2   3
ENDBRANCH   1   2
BRANCH   1  10
ATOM     10  C   UNL     1      -1.491   9.961  36.904  1.00  0.00     0.000 C 
BRANCH  10  11
ATOM     11  C   UNL     1      -1.136   8.644  36.194  1.00  0.00    -0.000 C 
BRANCH  11  12
ATOM     12  C   UNL     1       0.377   8.464  36.005  1.00  0.00    -0.000 C 
BRANCH  12  13
ATOM     13  C   UNL     1       0.997   7.530  37.061  1.00  0.00    -0.000 C 
BRANCH  13  14
ATOM     14  C   UNL     1       1.650   8.314  38.220  1.00  0.00    -0.000 C 
BRANCH  14  15
ATOM     15  C   UNL     1       1.372   7.706  39.605  1.00  0.00    -0.000 C 
BRANCH  15  16
ATOM     16  C   UNL     1       0.743   8.709  40.582  1.00  0.00    -0.003 C 
ATOM     17  C   UNL     1       0.770  10.123  40.010  1.00  0.00     0.004 C 
ENDBRANCH  15  16
ENDBRANCH  14  15
ENDBRANCH  13  14
ENDBRANCH  12  13
ENDBRANCH  11  12
ENDBRANCH  10  11
ENDBRANCH   1  10
TORSDOF 13
ENDMDL
MODEL 8
REMARK VINA RESULT:    -3.236      1.816      3.780
REMARK INTER + INTRA:          -8.261
REMARK INTER:                  -5.955
REMARK INTRA:                  -2.306
REMARK UNBOUND:                -2.566
REMARK SMILES CCCCCCCCCCCCCCC(=O)[O-]
REMARK SMILES IDX 9 1 10 2 11 3 12 4 13 5 14 6 15 7 16 8 17 9 8 10 7 11 6 12
REMARK SMILES IDX 5 13 4 14 3 15 2 16 1 17
REMARK H PARENT
REMARK Flexibility Score: inf
ROOT
ATOM      1  C   UNL     1      -0.142   9.543  39.640  1.00  0.00     0.000 C 
ENDROOT
BRANCH   1   2
ATOM      2  C   UNL     1       1.198  10.120  39.135  1.00  0.00     0.000 C 
BRANCH   2   3
ATOM      3  C   UNL     1       1.870   9.202  38.099  1.00  0.00     0.000 C 
BRANCH   3   4
ATOM      4  C   UNL     1       1.868   7.728  38.534  1.00  0.00     0.000 C 
BRANCH   4   5
ATOM      5  C   UNL     1       1.412   6.791  37.405  1.00  0.00     0.006 C 
BRANCH   5   6
ATOM      6  C   UNL     1       0.575   7.547  36.370  1.00  0.00     0.053 C 
BRANCH   6   7
ATOM      7  C   UNL     1      -0.455   6.644  35.767  1.00  0.00     0.041 C 
ATOM      8  O   UNL     1      -1.515   7.126  35.286  1.00  0.00    -0.550 OA
ATOM      9  O   UNL     1      -0.269   5.268  35.782  1.00  0.00    -0.550 OA
ENDBRANCH   6   7
ENDBRANCH   5   6
ENDBRANCH   4   5
ENDBRANCH   3   4
ENDBRANCH   2   3
ENDBRANCH   1   2
BRANCH   1  10
ATOM     10  C   UNL     1      -1.324   9.835  38.699  1.00  0.00     0.000 C 
BRANCH  10  11
ATOM     11  C   UNL     1      -2.248   8.620  38.507  1.00  0.00    -0.000 C 
BRANCH  11  12
ATOM     12  C   UNL     1      -3.005   8.245  39.789  1.00  0.00    -0.000 C 
BRANCH  12  13
ATOM     13  C   UNL     1      -3.029   6.726  40.038  1.00  0.00    -0.000 C 
BRANCH  13  14
ATOM     14  C   UNL     1      -2.228   5.948  38.972  1.00  0.00    -0.000 C 
BRANCH  14  15
ATOM     15  C   UNL     1      -1.044   5.155  39.552  1.00  0.00    -0.000 C 
BRANCH  15  16
ATOM     16  C   UNL     1      -0.360   5.876  40.722  1.00  0.00    -0.003 C 
ATOM     17  C   UNL     1       0.860   5.099  41.208  1.00  0.00     0.004 C 
ENDBRANCH  15  16
ENDBRANCH  14  15
ENDBRANCH  13  14
ENDBRANCH  12  13
ENDBRANCH  11  12
ENDBRANCH  10  11
ENDBRANCH   1  10
TORSDOF 13
ENDMDL
MODEL 9
REMARK VINA RESULT:    -3.035      1.412      3.548
REMARK INTER + INTRA:          -7.908
REMARK INTER:                  -5.586
REMARK INTRA:                  -2.322
REMARK UNBOUND:                -2.566
REMARK SMILES CCCCCCCCCCCCCCC(=O)[O-]
REMARK SMILES IDX 9 1 10 2 11 3 12 4 13 5 14 6 15 7 16 8 17 9 8 10 7 11 6 12
REMARK SMILES IDX 5 13 4 14 3 15 2 16 1 17
REMARK H PARENT
REMARK Flexibility Score: inf
ROOT
ATOM      1  C   UNL     1       0.788   8.365  39.615  1.00  0.00     0.000 C 
ENDROOT
BRANCH   1   2
ATOM      2  C   UNL     1      -0.175   9.533  39.919  1.00  0.00     0.000 C 
BRANCH   2   3
ATOM      3  C   UNL     1      -0.789  10.125  38.638  1.00  0.00     0.000 C 
BRANCH   3   4
ATOM      4  C   UNL     1      -1.703   9.127  37.910  1.00  0.00     0.000 C 
BRANCH   4   5
ATOM      5  C   UNL     1      -1.518   9.176  36.385  1.00  0.00     0.006 C 
BRANCH   5   6
ATOM      6  C   UNL     1      -0.237   8.451  35.965  1.00  0.00     0.053 C 
BRANCH   6   7
ATOM      7  C   UNL     1      -0.545   7.055  35.524  1.00  0.00     0.041 C 
ATOM      8  O   UNL     1       0.386   6.283  35.170  1.00  0.00    -0.550 OA
ATOM      9  O   UNL     1      -1.862   6.621  35.456  1.00  0.00    -0.550 OA
ENDBRANCH   6   7
ENDBRANCH   5   6
ENDBRANCH   4   5
ENDBRANCH   3   4
ENDBRANCH   2   3
ENDBRANCH   1   2
BRANCH   1  10
ATOM     10  C   UNL     1       0.907   7.358  40.773  1.00  0.00     0.000 C 
BRANCH  10  11
ATOM     11  C   UNL     1       0.461   5.940  40.379  1.00  0.00    -0.000 C 
BRANCH  11  12
ATOM     12  C   UNL     1      -0.180   5.889  38.985  1.00  0.00    -0.000 C 
BRANCH  12  13
ATOM     13  C   UNL     1      -1.485   5.072  38.965  1.00  0.00    -0.000 C 
BRANCH  13  14
ATOM     14  C   UNL     1      -2.420   5.437  40.138  1.00  0.00    -0.000 C 
BRANCH  14  15
ATOM     15  C   UNL     1      -3.235   6.719  39.896  1.00  0.00    -0.000 C 
BRANCH  15  16
ATOM     16  C   UNL     1      -3.037   7.769  40.998  1.00  0.00    -0.003 C 
ATOM     17  C   UNL     1      -2.514   7.128  42.280  1.00  0.00     0.004 C 
ENDBRANCH  15  16
ENDBRANCH  14  15
ENDBRANCH  13  14
ENDBRANCH  12  13
ENDBRANCH  11  12
ENDBRANCH  10  11
ENDBRANCH   1  10
TORSDOF 13
ENDMDL
