MODEL 1
REMARK VINA RESULT:    -5.493      0.000      0.000
REMARK INTER + INTRA:         -12.288
REMARK INTER:                  -9.988
REMARK INTRA:                  -2.300
REMARK UNBOUND:                -2.300
REMARK SMILES CCCCCCCCCCCCCC[C@H](C)C(=O)[O-]
REMARK SMILES IDX 9 1 10 2 11 3 12 4 13 5 14 6 15 7 16 8 17 9 18 10 19 11 8 12
REMARK SMILES IDX 7 13 6 14 5 15 4 16 3 17 2 18 1 19
REMARK H PARENT
REMARK Flexibility Score: inf
ROOT
ATOM      1  C   UNL     1       5.919  21.825  46.616  1.00  0.00     0.000 C 
ENDROOT
BRANCH   1   2
ATOM      2  C   UNL     1       4.826  21.023  45.886  1.00  0.00     0.000 C 
BRANCH   2   3
ATOM      3  C   UNL     1       4.821  21.261  44.366  1.00  0.00     0.000 C 
BRANCH   3   4
ATOM      4  C   UNL     1       5.358  20.059  43.567  1.00  0.00     0.000 C 
BRANCH   4   5
ATOM      5  C   UNL     1       6.677  20.309  42.813  1.00  0.00     0.001 C 
BRANCH   5   6
ATOM      6  C   UNL     1       7.776  20.913  43.706  1.00  0.00     0.009 C 
BRANCH   6   7
ATOM      7  C   UNL     1       8.980  19.963  43.868  1.00  0.00     0.032 C 
ATOM      8  C   UNL     1       8.506  18.532  44.143  1.00  0.00     0.014 C 
BRANCH   7   9
ATOM      9  C   UNL     1       9.897  20.420  44.971  1.00  0.00     0.044 C 
ATOM     10  O   UNL     1      10.554  19.583  45.648  1.00  0.00    -0.550 OA
ATOM     11  O   UNL     1      10.025  21.775  45.250  1.00  0.00    -0.550 OA
ENDBRANCH   7   9
ENDBRANCH   6   7
ENDBRANCH   5   6
ENDBRANCH   4   5
ENDBRANCH   3   4
ENDBRANCH   2   3
ENDBRANCH   1   2
BRANCH   1  12
ATOM     12  C   UNL     1       6.009  23.314  46.231  1.00  0.00     0.000 C 
BRANCH  12  13
ATOM     13  C   UNL     1       7.453  23.821  46.121  1.00  0.00    -0.000 C 
BRANCH  13  14
ATOM     14  C   UNL     1       7.782  24.231  44.678  1.00  0.00    -0.000 C 
BRANCH  14  15
ATOM     15  C   UNL     1       6.595  24.898  43.960  1.00  0.00    -0.000 C 
BRANCH  15  16
ATOM     16  C   UNL     1       6.080  24.149  42.714  1.00  0.00    -0.000 C 
BRANCH  16  17
ATOM     17  C   UNL     1       4.592  24.368  42.390  1.00  0.00    -0.000 C 
BRANCH  17  18
ATOM     18  C   UNL     1       3.889  25.282  43.404  1.00  0.00    -0.003 C 
ATOM     19  C   UNL     1       2.899  24.496  44.259  1.00  0.00     0.004 C 
ENDBRANCH  17  18
ENDBRANCH  16  17
ENDBRANCH  15  16
ENDBRANCH  14  15
ENDBRANCH  13  14
ENDBRANCH  12  13
ENDBRANCH   1  12
TORSDOF 14
ENDMDL
MODEL 2
REMARK VINA RESULT:    -5.452      5.115      7.714
REMARK INTER + INTRA:         -12.213
REMARK INTER:                 -10.660
REMARK INTRA:                  -1.553
REMARK UNBOUND:                -2.300
REMARK SMILES CCCCCCCCCCCCCC[C@H](C)C(=O)[O-]
REMARK SMILES IDX 9 1 10 2 11 3 12 4 13 5 14 6 15 7 16 8 17 9 18 10 19 11 8 12
REMARK SMILES IDX 7 13 6 14 5 15 4 16 3 17 2 18 1 19
REMARK H PARENT
REMARK Flexibility Score: inf
ROOT
ATOM      1  C   UNL     1       0.415  27.979  44.217  1.00  0.00     0.000 C 
ENDROOT
BRANCH   1   2
ATOM      2  C   UNL     1       1.326  27.360  43.140  1.00  0.00     0.000 C 
BRANCH   2   3
ATOM      3  C   UNL     1       2.065  26.103  43.630  1.00  0.00     0.000 C 
BRANCH   3   4
ATOM      4  C   UNL     1       3.477  25.964  43.030  1.00  0.00     0.000 C 
BRANCH   4   5
ATOM      5  C   UNL     1       4.026  24.527  42.970  1.00  0.00     0.001 C 
BRANCH   5   6
ATOM      6  C   UNL     1       3.338  23.577  43.967  1.00  0.00     0.009 C 
BRANCH   6   7
ATOM      7  C   UNL     1       4.349  22.900  44.915  1.00  0.00     0.032 C 
ATOM      8  C   UNL     1       5.415  23.901  45.373  1.00  0.00     0.014 C 
BRANCH   7   9
ATOM      9  C   UNL     1       5.007  21.714  44.261  1.00  0.00     0.044 C 
ATOM     10  O   UNL     1       6.162  21.814  43.764  1.00  0.00    -0.550 OA
ATOM     11  O   UNL     1       4.341  20.496  44.202  1.00  0.00    -0.550 OA
ENDBRANCH   7   9
ENDBRANCH   6   7
ENDBRANCH   5   6
ENDBRANCH   4   5
ENDBRANCH   3   4
ENDBRANCH   2   3
ENDBRANCH   1   2
BRANCH   1  12
ATOM     12  C   UNL     1      -1.095  27.764  44.002  1.00  0.00     0.000 C 
BRANCH  12  13
ATOM     13  C   UNL     1      -1.954  28.880  44.611  1.00  0.00    -0.000 C 
BRANCH  13  14
ATOM     14  C   UNL     1      -2.756  29.611  43.523  1.00  0.00    -0.000 C 
BRANCH  14  15
ATOM     15  C   UNL     1      -2.215  31.023  43.229  1.00  0.00    -0.000 C 
BRANCH  15  16
ATOM     16  C   UNL     1      -1.582  31.203  41.834  1.00  0.00    -0.000 C 
BRANCH  16  17
ATOM     17  C   UNL     1      -0.133  30.702  41.707  1.00  0.00    -0.000 C 
BRANCH  17  18
ATOM     18  C   UNL     1       0.077  29.785  40.493  1.00  0.00    -0.003 C 
ATOM     19  C   UNL     1      -1.109  28.843  40.304  1.00  0.00     0.004 C 
ENDBRANCH  17  18
ENDBRANCH  16  17
ENDBRANCH  15  16
ENDBRANCH  14  15
ENDBRANCH  13  14
ENDBRANCH  12  13
ENDBRANCH   1  12
TORSDOF 14
ENDMDL
MODEL 3
REMARK VINA RESULT:    -5.412      5.026      7.784
REMARK INTER + INTRA:         -12.140
REMARK INTER:                 -10.641
REMARK INTRA:                  -1.499
REMARK UNBOUND:                -2.300
REMARK SMILES CCCCCCCCCCCCCC[C@H](C)C(=O)[O-]
REMARK SMILES IDX 9 1 10 2 11 3 12 4 13 5 14 6 15 7 16 8 17 9 18 10 19 11 8 12
REMARK SMILES IDX 7 13 6 14 5 15 4 16 3 17 2 18 1 19
REMARK H PARENT
REMARK Flexibility Score: inf
ROOT
ATOM      1  C   UNL     1       0.963  28.103  41.662  1.00  0.00     0.000 C 
ENDROOT
BRANCH   1   2
ATOM      2  C   UNL     1       1.373  27.549  43.039  1.00  0.00     0.000 C 
BRANCH   2   3
ATOM      3  C   UNL     1       2.579  26.598  42.968  1.00  0.00     0.000 C 
BRANCH   3   4
ATOM      4  C   UNL     1       2.527  25.481  44.028  1.00  0.00     0.000 C 
BRANCH   4   5
ATOM      5  C   UNL     1       3.897  24.993  44.534  1.00  0.00     0.001 C 
BRANCH   5   6
ATOM      6  C   UNL     1       5.053  25.348  43.582  1.00  0.00     0.009 C 
BRANCH   6   7
ATOM      7  C   UNL     1       5.790  24.093  43.070  1.00  0.00     0.032 C 
ATOM      8  C   UNL     1       5.138  22.821  43.621  1.00  0.00     0.014 C 
BRANCH   7   9
ATOM      9  C   UNL     1       7.249  24.123  43.441  1.00  0.00     0.044 C 
ATOM     10  O   UNL     1       7.609  23.995  44.642  1.00  0.00    -0.550 OA
ATOM     11  O   UNL     1       8.212  24.291  42.453  1.00  0.00    -0.550 OA
ENDBRANCH   7   9
ENDBRANCH   6   7
ENDBRANCH   5   6
ENDBRANCH   4   5
ENDBRANCH   3   4
ENDBRANCH   2   3
ENDBRANCH   1   2
BRANCH   1  12
ATOM     12  C   UNL     1       1.115  29.627  41.495  1.00  0.00     0.000 C 
BRANCH  12  13
ATOM     13  C   UNL     1       0.025  30.248  40.611  1.00  0.00    -0.000 C 
BRANCH  13  14
ATOM     14  C   UNL     1      -0.927  31.119  41.445  1.00  0.00    -0.000 C 
BRANCH  14  15
ATOM     15  C   UNL     1      -2.334  30.508  41.578  1.00  0.00    -0.000 C 
BRANCH  15  16
ATOM     16  C   UNL     1      -2.763  30.163  43.019  1.00  0.00    -0.000 C 
BRANCH  16  17
ATOM     17  C   UNL     1      -2.200  28.841  43.568  1.00  0.00    -0.000 C 
BRANCH  17  18
ATOM     18  C   UNL     1      -1.541  29.000  44.946  1.00  0.00    -0.003 C 
ATOM     19  C   UNL     1      -0.807  30.333  45.054  1.00  0.00     0.004 C 
ENDBRANCH  17  18
ENDBRANCH  16  17
ENDBRANCH  15  16
ENDBRANCH  14  15
ENDBRANCH  13  14
ENDBRANCH  12  13
ENDBRANCH   1  12
TORSDOF 14
ENDMDL
MODEL 4
REMARK VINA RESULT:    -5.403      6.510     10.347
REMARK INTER + INTRA:         -12.125
REMARK INTER:                 -10.669
REMARK INTRA:                  -1.455
REMARK UNBOUND:                -2.300
REMARK SMILES CCCCCCCCCCCCCC[C@H](C)C(=O)[O-]
REMARK SMILES IDX 9 1 10 2 11 3 12 4 13 5 14 6 15 7 16 8 17 9 18 10 19 11 8 12
REMARK SMILES IDX 7 13 6 14 5 15 4 16 3 17 2 18 1 19
REMARK H PARENT
REMARK Flexibility Score: inf
ROOT
ATOM      1  C   UNL     1       0.121  28.651  44.559  1.00  0.00     0.000 C 
ENDROOT
BRANCH   1   2
ATOM      2  C   UNL     1      -1.241  28.648  45.278  1.00  0.00     0.000 C 
BRANCH   2   3
ATOM      3  C   UNL     1      -2.334  29.394  44.494  1.00  0.00     0.000 C 
BRANCH   3   4
ATOM      4  C   UNL     1      -1.878  30.778  43.995  1.00  0.00     0.000 C 
BRANCH   4   5
ATOM      5  C   UNL     1      -2.136  31.056  42.503  1.00  0.00     0.001 C 
BRANCH   5   6
ATOM      6  C   UNL     1      -0.843  31.295  41.702  1.00  0.00     0.009 C 
BRANCH   6   7
ATOM      7  C   UNL     1      -0.676  30.279  40.553  1.00  0.00     0.032 C 
ATOM      8  C   UNL     1      -1.717  29.160  40.665  1.00  0.00     0.014 C 
BRANCH   7   9
ATOM      9  C   UNL     1       0.710  29.691  40.536  1.00  0.00     0.044 C 
ATOM     10  O   UNL     1       0.993  28.740  39.760  1.00  0.00    -0.550 OA
ATOM     11  O   UNL     1       1.689  30.199  41.382  1.00  0.00    -0.550 OA
ENDBRANCH   7   9
ENDBRANCH   6   7
ENDBRANCH   5   6
ENDBRANCH   4   5
ENDBRANCH   3   4
ENDBRANCH   2   3
ENDBRANCH   1   2
BRANCH   1  12
ATOM     12  C   UNL     1       0.258  27.640  43.406  1.00  0.00     0.000 C 
BRANCH  12  13
ATOM     13  C   UNL     1       1.257  26.514  43.708  1.00  0.00    -0.000 C 
BRANCH  13  14
ATOM     14  C   UNL     1       2.555  26.703  42.909  1.00  0.00    -0.000 C 
BRANCH  14  15
ATOM     15  C   UNL     1       3.622  25.645  43.243  1.00  0.00    -0.000 C 
BRANCH  15  16
ATOM     16  C   UNL     1       3.089  24.373  43.934  1.00  0.00    -0.000 C 
BRANCH  16  17
ATOM     17  C   UNL     1       3.986  23.132  43.797  1.00  0.00    -0.000 C 
BRANCH  17  18
ATOM     18  C   UNL     1       5.288  23.417  43.033  1.00  0.00    -0.003 C 
ATOM     19  C   UNL     1       5.560  22.340  41.987  1.00  0.00     0.004 C 
ENDBRANCH  17  18
ENDBRANCH  16  17
ENDBRANCH  15  16
ENDBRANCH  14  15
ENDBRANCH  13  14
ENDBRANCH  12  13
ENDBRANCH   1  12
TORSDOF 14
ENDMDL
MODEL 5
REMARK VINA RESULT:    -5.385      4.639      8.014
REMARK INTER + INTRA:         -12.093
REMARK INTER:                 -10.259
REMARK INTRA:                  -1.834
REMARK UNBOUND:                -2.300
REMARK SMILES CCCCCCCCCCCCCC[C@H](C)C(=O)[O-]
REMARK SMILES IDX 9 1 10 2 11 3 12 4 13 5 14 6 15 7 16 8 17 9 18 10 19 11 8 12
REMARK SMILES IDX 7 13 6 14 5 15 4 16 3 17 2 18 1 19
REMARK H PARENT
REMARK Flexibility Score: inf
ROOT
ATOM      1  C   UNL     1       7.026  23.938  42.885  1.00  0.00     0.000 C 
ENDROOT
BRANCH   1   2
ATOM      2  C   UNL     1       5.569  24.379  42.648  1.00  0.00     0.000 C 
BRANCH   2   3
ATOM      3  C   UNL     1       5.033  25.299  43.757  1.00  0.00     0.000 C 
BRANCH   3   4
ATOM      4  C   UNL     1       3.495  25.385  43.776  1.00  0.00     0.000 C 
BRANCH   4   5
ATOM      5  C   UNL     1       2.890  26.512  42.919  1.00  0.00     0.001 C 
BRANCH   5   6
ATOM      6  C   UNL     1       1.474  26.916  43.368  1.00  0.00     0.009 C 
BRANCH   6   7
ATOM      7  C   UNL     1       1.223  28.429  43.205  1.00  0.00     0.032 C 
ATOM      8  C   UNL     1       0.161  28.912  44.198  1.00  0.00     0.014 C 
BRANCH   7   9
ATOM      9  C   UNL     1       0.802  28.769  41.800  1.00  0.00     0.044 C 
ATOM     10  O   UNL     1       0.054  27.991  41.148  1.00  0.00    -0.550 OA
ATOM     11  O   UNL     1       1.238  29.950  41.211  1.00  0.00    -0.550 OA
ENDBRANCH   7   9
ENDBRANCH   6   7
ENDBRANCH   5   6
ENDBRANCH   4   5
ENDBRANCH   3   4
ENDBRANCH   2   3
ENDBRANCH   1   2
BRANCH   1  12
ATOM     12  C   UNL     1       7.424  22.605  42.225  1.00  0.00     0.000 C 
BRANCH  12  13
ATOM     13  C   UNL     1       6.261  21.607  42.134  1.00  0.00    -0.000 C 
BRANCH  13  14
ATOM     14  C   UNL     1       6.096  20.836  43.451  1.00  0.00    -0.000 C 
BRANCH  14  15
ATOM     15  C   UNL     1       4.699  21.010  44.075  1.00  0.00    -0.000 C 
BRANCH  15  16
ATOM     16  C   UNL     1       4.642  21.940  45.303  1.00  0.00    -0.000 C 
BRANCH  16  17
ATOM     17  C   UNL     1       5.788  21.757  46.313  1.00  0.00    -0.000 C 
BRANCH  17  18
ATOM     18  C   UNL     1       6.592  23.045  46.544  1.00  0.00    -0.003 C 
ATOM     19  C   UNL     1       8.043  22.874  46.103  1.00  0.00     0.004 C 
ENDBRANCH  17  18
ENDBRANCH  16  17
ENDBRANCH  15  16
ENDBRANCH  14  15
ENDBRANCH  13  14
ENDBRANCH  12  13
ENDBRANCH   1  12
TORSDOF 14
ENDMDL
MODEL 6
REMARK VINA RESULT:    -5.372      5.247      9.568
REMARK INTER + INTRA:         -12.069
REMARK INTER:                 -10.516
REMARK INTRA:                  -1.552
REMARK UNBOUND:                -2.300
REMARK SMILES CCCCCCCCCCCCCC[C@H](C)C(=O)[O-]
REMARK SMILES IDX 9 1 10 2 11 3 12 4 13 5 14 6 15 7 16 8 17 9 18 10 19 11 8 12
REMARK SMILES IDX 7 13 6 14 5 15 4 16 3 17 2 18 1 19
REMARK H PARENT
REMARK Flexibility Score: inf
ROOT
ATOM      1  C   UNL     1      11.791  16.620  44.884  1.00  0.00     0.000 C 
ENDROOT
BRANCH   1   2
ATOM      2  C   UNL     1      11.908  17.866  45.782  1.00  0.00     0.000 C 
BRANCH   2   3
ATOM      3  C   UNL     1      10.764  18.871  45.565  1.00  0.00     0.000 C 
BRANCH   3   4
ATOM      4  C   UNL     1       9.950  18.589  44.288  1.00  0.00     0.000 C 
BRANCH   4   5
ATOM      5  C   UNL     1       8.454  18.940  44.372  1.00  0.00     0.001 C 
BRANCH   5   6
ATOM      6  C   UNL     1       8.070  20.155  43.509  1.00  0.00     0.009 C 
BRANCH   6   7
ATOM      7  C   UNL     1       7.407  21.272  44.341  1.00  0.00     0.032 C 
ATOM      8  C   UNL     1       8.350  21.753  45.449  1.00  0.00     0.014 C 
BRANCH   7   9
ATOM      9  C   UNL     1       6.105  20.812  44.940  1.00  0.00     0.044 C 
ATOM     10  O   UNL     1       5.180  20.374  44.204  1.00  0.00    -0.550 OA
ATOM     11  O   UNL     1       5.916  20.868  46.315  1.00  0.00    -0.550 OA
ENDBRANCH   7   9
ENDBRANCH   6   7
ENDBRANCH   5   6
ENDBRANCH   4   5
ENDBRANCH   3   4
ENDBRANCH   2   3
ENDBRANCH   1   2
BRANCH   1  12
ATOM     12  C   UNL     1      13.104  16.166  44.219  1.00  0.00     0.000 C 
BRANCH  12  13
ATOM     13  C   UNL     1      13.087  14.689  43.800  1.00  0.00    -0.000 C 
BRANCH  13  14
ATOM     14  C   UNL     1      14.514  14.132  43.694  1.00  0.00    -0.000 C 
BRANCH  14  15
ATOM     15  C   UNL     1      15.509  14.858  44.618  1.00  0.00    -0.000 C 
BRANCH  15  16
ATOM     16  C   UNL     1      15.950  14.059  45.861  1.00  0.00    -0.000 C 
BRANCH  16  17
ATOM     17  C   UNL     1      15.924  14.844  47.184  1.00  0.00    -0.000 C 
BRANCH  17  18
ATOM     18  C   UNL     1      14.556  15.479  47.474  1.00  0.00    -0.003 C 
ATOM     19  C   UNL     1      13.495  14.409  47.723  1.00  0.00     0.004 C 
ENDBRANCH  17  18
ENDBRANCH  16  17
ENDBRANCH  15  16
ENDBRANCH  14  15
ENDBRANCH  13  14
ENDBRANCH  12  13
ENDBRANCH   1  12
TORSDOF 14
ENDMDL
MODEL 7
REMARK VINA RESULT:    -5.365      5.420      8.526
REMARK INTER + INTRA:         -12.056
REMARK INTER:                 -10.361
REMARK INTRA:                  -1.695
REMARK UNBOUND:                -2.300
REMARK SMILES CCCCCCCCCCCCCC[C@H](C)C(=O)[O-]
REMARK SMILES IDX 9 1 10 2 11 3 12 4 13 5 14 6 15 7 16 8 17 9 18 10 19 11 8 12
REMARK SMILES IDX 7 13 6 14 5 15 4 16 3 17 2 18 1 19
REMARK H PARENT
REMARK Flexibility Score: inf
ROOT
ATOM      1  C   UNL     1       3.521  23.484  44.057  1.00  0.00     0.000 C 
ENDROOT
BRANCH   1   2
ATOM      2  C   UNL     1       3.968  24.274  42.812  1.00  0.00     0.000 C 
BRANCH   2   3
ATOM      3  C   UNL     1       3.702  25.783  42.933  1.00  0.00     0.000 C 
BRANCH   3   4
ATOM      4  C   UNL     1       2.400  26.106  43.690  1.00  0.00     0.000 C 
BRANCH   4   5
ATOM      5  C   UNL     1       1.574  27.269  43.111  1.00  0.00     0.001 C 
BRANCH   5   6
ATOM      6  C   UNL     1       0.065  27.130  43.382  1.00  0.00     0.009 C 
BRANCH   6   7
ATOM      7  C   UNL     1      -0.725  28.370  42.914  1.00  0.00     0.032 C 
ATOM      8  C   UNL     1       0.213  29.565  42.716  1.00  0.00     0.014 C 
BRANCH   7   9
ATOM      9  C   UNL     1      -1.814  28.729  43.890  1.00  0.00     0.044 C 
ATOM     10  O   UNL     1      -2.895  29.235  43.486  1.00  0.00    -0.550 OA
ATOM     11  O   UNL     1      -1.631  28.501  45.249  1.00  0.00    -0.550 OA
ENDBRANCH   7   9
ENDBRANCH   6   7
ENDBRANCH   5   6
ENDBRANCH   4   5
ENDBRANCH   3   4
ENDBRANCH   2   3
ENDBRANCH   1   2
BRANCH   1  12
ATOM     12  C   UNL     1       4.659  22.827  44.861  1.00  0.00     0.000 C 
BRANCH  12  13
ATOM     13  C   UNL     1       5.590  23.847  45.530  1.00  0.00    -0.000 C 
BRANCH  13  14
ATOM     14  C   UNL     1       7.034  23.682  45.033  1.00  0.00    -0.000 C 
BRANCH  14  15
ATOM     15  C   UNL     1       7.372  24.618  43.857  1.00  0.00    -0.000 C 
BRANCH  15  16
ATOM     16  C   UNL     1       8.108  23.948  42.679  1.00  0.00    -0.000 C 
BRANCH  16  17
ATOM     17  C   UNL     1       7.908  22.427  42.567  1.00  0.00    -0.000 C 
BRANCH  17  18
ATOM     18  C   UNL     1       6.670  22.047  41.740  1.00  0.00    -0.003 C 
ATOM     19  C   UNL     1       6.079  20.722  42.214  1.00  0.00     0.004 C 
ENDBRANCH  17  18
ENDBRANCH  16  17
ENDBRANCH  15  16
ENDBRANCH  14  15
ENDBRANCH  13  14
ENDBRANCH  12  13
ENDBRANCH   1  12
TORSDOF 14
ENDMDL
MODEL 8
REMARK VINA RESULT:    -5.332      5.036      7.602
REMARK INTER + INTRA:         -11.996
REMARK INTER:                 -10.426
REMARK INTRA:                  -1.570
REMARK UNBOUND:                -2.300
REMARK SMILES CCCCCCCCCCCCCC[C@H](C)C(=O)[O-]
REMARK SMILES IDX 9 1 10 2 11 3 12 4 13 5 14 6 15 7 16 8 17 9 18 10 19 11 8 12
REMARK SMILES IDX 7 13 6 14 5 15 4 16 3 17 2 18 1 19
REMARK H PARENT
REMARK Flexibility Score: inf
ROOT
ATOM      1  C   UNL     1       1.550  28.179  42.909  1.00  0.00     0.000 C 
ENDROOT
BRANCH   1   2
ATOM      2  C   UNL     1       1.037  26.903  43.603  1.00  0.00     0.000 C 
BRANCH   2   3
ATOM      3  C   UNL     1       2.167  25.930  43.979  1.00  0.00     0.000 C 
BRANCH   3   4
ATOM      4  C   UNL     1       3.369  26.004  43.018  1.00  0.00     0.000 C 
BRANCH   4   5
ATOM      5  C   UNL     1       4.290  24.771  43.023  1.00  0.00     0.001 C 
BRANCH   5   6
ATOM      6  C   UNL     1       3.634  23.531  43.658  1.00  0.00     0.009 C 
BRANCH   6   7
ATOM      7  C   UNL     1       4.537  22.878  44.724  1.00  0.00     0.032 C 
ATOM      8  C   UNL     1       5.509  23.907  45.313  1.00  0.00     0.014 C 
BRANCH   7   9
ATOM      9  C   UNL     1       5.305  21.714  44.158  1.00  0.00     0.044 C 
ATOM     10  O   UNL     1       6.550  21.793  43.978  1.00  0.00    -0.550 OA
ATOM     11  O   UNL     1       4.641  20.538  43.830  1.00  0.00    -0.550 OA
ENDBRANCH   7   9
ENDBRANCH   6   7
ENDBRANCH   5   6
ENDBRANCH   4   5
ENDBRANCH   3   4
ENDBRANCH   2   3
ENDBRANCH   1   2
BRANCH   1  12
ATOM     12  C   UNL     1       0.982  28.433  41.500  1.00  0.00     0.000 C 
BRANCH  12  13
ATOM     13  C   UNL     1       0.862  29.925  41.160  1.00  0.00    -0.000 C 
BRANCH  13  14
ATOM     14  C   UNL     1      -0.544  30.256  40.635  1.00  0.00    -0.000 C 
BRANCH  14  15
ATOM     15  C   UNL     1      -1.199  31.433  41.382  1.00  0.00    -0.000 C 
BRANCH  15  16
ATOM     16  C   UNL     1      -2.278  31.035  42.410  1.00  0.00    -0.000 C 
BRANCH  16  17
ATOM     17  C   UNL     1      -2.413  29.523  42.661  1.00  0.00    -0.000 C 
BRANCH  17  18
ATOM     18  C   UNL     1      -2.141  29.134  44.121  1.00  0.00    -0.003 C 
ATOM     19  C   UNL     1      -1.173  30.114  44.780  1.00  0.00     0.004 C 
ENDBRANCH  17  18
ENDBRANCH  16  17
ENDBRANCH  15  16
ENDBRANCH  14  15
ENDBRANCH  13  14
ENDBRANCH  12  13
ENDBRANCH   1  12
TORSDOF 14
ENDMDL
MODEL 9
REMARK VINA RESULT:    -5.278      5.210      8.480
REMARK INTER + INTRA:         -11.897
REMARK INTER:                 -10.284
REMARK INTRA:                  -1.613
REMARK UNBOUND:                -2.300
REMARK SMILES CCCCCCCCCCCCCC[C@H](C)C(=O)[O-]
REMARK SMILES IDX 9 1 10 2 11 3 12 4 13 5 14 6 15 7 16 8 17 9 18 10 19 11 8 12
REMARK SMILES IDX 7 13 6 14 5 15 4 16 3 17 2 18 1 19
REMARK H PARENT
REMARK Flexibility Score: inf
ROOT
ATOM      1  C   UNL     1       5.142  25.178  43.890  1.00  0.00     0.000 C 
ENDROOT
BRANCH   1   2
ATOM      2  C   UNL     1       3.843  24.797  44.625  1.00  0.00     0.000 C 
BRANCH   2   3
ATOM      3  C   UNL     1       2.585  25.382  43.962  1.00  0.00     0.000 C 
BRANCH   3   4
ATOM      4  C   UNL     1       2.904  26.484  42.934  1.00  0.00     0.000 C 
BRANCH   4   5
ATOM      5  C   UNL     1       1.810  27.552  42.756  1.00  0.00     0.001 C 
BRANCH   5   6
ATOM      6  C   UNL     1       0.505  27.208  43.497  1.00  0.00     0.009 C 
BRANCH   6   7
ATOM      7  C   UNL     1      -0.339  28.462  43.798  1.00  0.00     0.032 C 
ATOM      8  C   UNL     1      -1.648  28.078  44.496  1.00  0.00     0.014 C 
BRANCH   7   9
ATOM      9  C   UNL     1      -0.636  29.240  42.544  1.00  0.00     0.044 C 
ATOM     10  O   UNL     1      -1.357  28.743  41.636  1.00  0.00    -0.550 OA
ATOM     11  O   UNL     1      -0.116  30.519  42.381  1.00  0.00    -0.550 OA
ENDBRANCH   7   9
ENDBRANCH   6   7
ENDBRANCH   5   6
ENDBRANCH   4   5
ENDBRANCH   3   4
ENDBRANCH   2   3
ENDBRANCH   1   2
BRANCH   1  12
ATOM     12  C   UNL     1       5.810  24.034  43.103  1.00  0.00     0.000 C 
BRANCH  12  13
ATOM     13  C   UNL     1       7.317  24.245  42.901  1.00  0.00    -0.000 C 
BRANCH  13  14
ATOM     14  C   UNL     1       8.125  23.152  43.618  1.00  0.00    -0.000 C 
BRANCH  14  15
ATOM     15  C   UNL     1       8.136  23.325  45.148  1.00  0.00    -0.000 C 
BRANCH  15  16
ATOM     16  C   UNL     1       7.554  22.138  45.943  1.00  0.00    -0.000 C 
BRANCH  16  17
ATOM     17  C   UNL     1       6.172  22.390  46.572  1.00  0.00    -0.000 C 
BRANCH  17  18
ATOM     18  C   UNL     1       5.066  21.526  45.947  1.00  0.00    -0.003 C 
ATOM     19  C   UNL     1       5.606  20.700  44.782  1.00  0.00     0.004 C 
ENDBRANCH  17  18
ENDBRANCH  16  17
ENDBRANCH  15  16
ENDBRANCH  14  15
ENDBRANCH  13  14
ENDBRANCH  12  13
ENDBRANCH   1  12
TORSDOF 14
ENDMDL
