MODEL 1
REMARK VINA RESULT:    -4.217      0.000      0.000
REMARK INTER + INTRA:          -6.002
REMARK INTER:                  -5.573
REMARK INTRA:                  -0.429
REMARK UNBOUND:                -0.429
REMARK SMILES C=CCC[C@@H](O)CCC
REMARK SMILES IDX 4 1 5 2 7 3 8 4 9 5 6 6 3 8 2 9 1 10
REMARK H PARENT 6 7
REMARK Flexibility Score: inf
ROOT
ATOM      1  C   UNL     1       1.047  45.606  48.336  1.00  0.00     0.036 C 
ENDROOT
BRANCH   1   2
ATOM      2  C   UNL     1       1.118  44.121  48.754  1.00  0.00     0.114 C 
BRANCH   2   3
ATOM      3  C   UNL     1       1.796  43.972  50.132  1.00  0.00     0.031 C 
BRANCH   3   4
ATOM      4  C   UNL     1       0.924  44.545  51.258  1.00  0.00    -0.001 C 
ATOM      5  C   UNL     1      -0.125  43.534  51.709  1.00  0.00     0.004 C 
ENDBRANCH   3   4
ENDBRANCH   2   3
BRANCH   2   6
ATOM      6  O   UNL     1       1.792  43.355  47.785  1.00  0.00    -0.393 OA
ATOM      7  H   UNL     1       2.196  42.576  48.248  1.00  0.00     0.210 HD
ENDBRANCH   2   6
ENDBRANCH   1   2
BRANCH   1   8
ATOM      8  C   UNL     1       2.318  46.090  47.617  1.00  0.00     0.029 C 
BRANCH   8   9
ATOM      9  C   UNL     1       3.063  47.142  48.395  1.00  0.00    -0.035 C 
ATOM     10  C   UNL     1       2.661  47.536  49.607  1.00  0.00     0.004 C 
ENDBRANCH   8   9
ENDBRANCH   1   8
TORSDOF 6
ENDMDL
MODEL 2
REMARK VINA RESULT:    -4.072      0.818      3.944
REMARK INTER + INTRA:          -5.811
REMARK INTER:                  -5.381
REMARK INTRA:                  -0.430
REMARK UNBOUND:                -0.429
REMARK SMILES C=CCC[C@@H](O)CCC
REMARK SMILES IDX 4 1 5 2 7 3 8 4 9 5 6 6 3 8 2 9 1 10
REMARK H PARENT 6 7
REMARK Flexibility Score: inf
ROOT
ATOM      1  C   UNL     1       1.899  44.054  49.864  1.00  0.00     0.036 C 
ENDROOT
BRANCH   1   2
ATOM      2  C   UNL     1       1.423  44.201  48.402  1.00  0.00     0.114 C 
BRANCH   2   3
ATOM      3  C   UNL     1       1.259  45.689  48.028  1.00  0.00     0.031 C 
BRANCH   3   4
ATOM      4  C   UNL     1       2.570  46.289  47.499  1.00  0.00    -0.001 C 
ATOM      5  C   UNL     1       2.955  47.543  48.279  1.00  0.00     0.004 C 
ENDBRANCH   3   4
ENDBRANCH   2   3
BRANCH   2   6
ATOM      6  O   UNL     1       0.221  43.502  48.189  1.00  0.00    -0.393 OA
ATOM      7  H   UNL     1       0.005  43.567  47.222  1.00  0.00     0.210 HD
ENDBRANCH   2   6
ENDBRANCH   1   2
BRANCH   1   8
ATOM      8  C   UNL     1       1.324  45.134  50.796  1.00  0.00     0.029 C 
BRANCH   8   9
ATOM      9  C   UNL     1       0.154  44.643  51.605  1.00  0.00    -0.035 C 
ATOM     10  C   UNL     1      -0.143  43.343  51.694  1.00  0.00     0.004 C 
ENDBRANCH   8   9
ENDBRANCH   1   8
TORSDOF 6
ENDMDL
MODEL 3
REMARK VINA RESULT:    -3.856     24.210     25.138
REMARK INTER + INTRA:          -5.526
REMARK INTER:                  -5.291
REMARK INTRA:                  -0.235
REMARK UNBOUND:                -0.429
REMARK SMILES C=CCC[C@@H](O)CCC
REMARK SMILES IDX 4 1 5 2 7 3 8 4 9 5 6 6 3 8 2 9 1 10
REMARK H PARENT 6 7
REMARK Flexibility Score: inf
ROOT
ATOM      1  C   UNL     1      14.308  27.940  36.180  1.00  0.00     0.036 C 
ENDROOT
BRANCH   1   2
ATOM      2  C   UNL     1      15.830  27.991  35.924  1.00  0.00     0.114 C 
BRANCH   2   3
ATOM      3  C   UNL     1      16.503  29.037  36.837  1.00  0.00     0.031 C 
BRANCH   3   4
ATOM      4  C   UNL     1      17.758  28.472  37.518  1.00  0.00    -0.001 C 
ATOM      5  C   UNL     1      18.996  28.685  36.652  1.00  0.00     0.004 C 
ENDBRANCH   3   4
ENDBRANCH   2   3
BRANCH   2   6
ATOM      6  O   UNL     1      16.106  28.263  34.572  1.00  0.00    -0.393 OA
ATOM      7  H   UNL     1      15.836  27.466  34.045  1.00  0.00     0.210 HD
ENDBRANCH   2   6
ENDBRANCH   1   2
BRANCH   1   8
ATOM      8  C   UNL     1      13.755  29.244  36.781  1.00  0.00     0.029 C 
BRANCH   8   9
ATOM      9  C   UNL     1      12.772  29.002  37.894  1.00  0.00    -0.035 C 
ATOM     10  C   UNL     1      11.505  28.651  37.651  1.00  0.00     0.004 C 
ENDBRANCH   8   9
ENDBRANCH   1   8
TORSDOF 6
ENDMDL
MODEL 4
REMARK VINA RESULT:    -3.820      1.833      4.623
REMARK INTER + INTRA:          -5.478
REMARK INTER:                  -5.235
REMARK INTRA:                  -0.242
REMARK UNBOUND:                -0.429
REMARK SMILES C=CCC[C@@H](O)CCC
REMARK SMILES IDX 4 1 5 2 7 3 8 4 9 5 6 6 3 8 2 9 1 10
REMARK H PARENT 6 7
REMARK Flexibility Score: inf
ROOT
ATOM      1  C   UNL     1       1.930  45.196  49.227  1.00  0.00     0.036 C 
ENDROOT
BRANCH   1   2
ATOM      2  C   UNL     1       2.003  46.641  49.770  1.00  0.00     0.114 C 
BRANCH   2   3
ATOM      3  C   UNL     1       2.097  47.656  48.611  1.00  0.00     0.031 C 
BRANCH   3   4
ATOM      4  C   UNL     1       2.937  47.111  47.447  1.00  0.00    -0.001 C 
ATOM      5  C   UNL     1       4.236  47.897  47.293  1.00  0.00     0.004 C 
ENDBRANCH   3   4
ENDBRANCH   2   3
BRANCH   2   6
ATOM      6  O   UNL     1       3.088  46.795  50.652  1.00  0.00    -0.393 OA
ATOM      7  H   UNL     1       2.782  46.513  51.554  1.00  0.00     0.210 HD
ENDBRANCH   2   6
ENDBRANCH   1   2
BRANCH   1   8
ATOM      8  C   UNL     1       1.837  44.140  50.342  1.00  0.00     0.029 C 
BRANCH   8   9
ATOM      9  C   UNL     1       0.697  44.394  51.291  1.00  0.00    -0.035 C 
ATOM     10  C   UNL     1      -0.137  43.419  51.666  1.00  0.00     0.004 C 
ENDBRANCH   8   9
ENDBRANCH   1   8
TORSDOF 6
ENDMDL
MODEL 5
REMARK VINA RESULT:    -3.810      1.204      1.857
REMARK INTER + INTRA:          -5.465
REMARK INTER:                  -4.936
REMARK INTRA:                  -0.529
REMARK UNBOUND:                -0.429
REMARK SMILES C=CCC[C@@H](O)CCC
REMARK SMILES IDX 4 1 5 2 7 3 8 4 9 5 6 6 3 8 2 9 1 10
REMARK H PARENT 6 7
REMARK Flexibility Score: inf
ROOT
ATOM      1  C   UNL     1       2.032  45.659  47.826  1.00  0.00     0.036 C 
ENDROOT
BRANCH   1   2
ATOM      2  C   UNL     1       1.487  44.444  48.609  1.00  0.00     0.114 C 
BRANCH   2   3
ATOM      3  C   UNL     1       2.056  44.417  50.042  1.00  0.00     0.031 C 
BRANCH   3   4
ATOM      4  C   UNL     1       0.976  44.733  51.087  1.00  0.00    -0.001 C 
ATOM      5  C   UNL     1       0.086  43.520  51.341  1.00  0.00     0.004 C 
ENDBRANCH   3   4
ENDBRANCH   2   3
BRANCH   2   6
ATOM      6  O   UNL     1       1.776  43.240  47.939  1.00  0.00    -0.393 OA
ATOM      7  H   UNL     1       2.512  43.423  47.300  1.00  0.00     0.210 HD
ENDBRANCH   2   6
ENDBRANCH   1   2
BRANCH   1   8
ATOM      8  C   UNL     1       1.166  46.919  47.994  1.00  0.00     0.029 C 
BRANCH   8   9
ATOM      9  C   UNL     1      -0.309  46.620  47.971  1.00  0.00    -0.035 C 
ATOM     10  C   UNL     1      -1.122  47.011  48.957  1.00  0.00     0.004 C 
ENDBRANCH   8   9
ENDBRANCH   1   8
TORSDOF 6
ENDMDL
MODEL 6
REMARK VINA RESULT:    -3.707     23.918     24.685
REMARK INTER + INTRA:          -5.328
REMARK INTER:                  -5.081
REMARK INTRA:                  -0.247
REMARK UNBOUND:                -0.429
REMARK SMILES C=CCC[C@@H](O)CCC
REMARK SMILES IDX 4 1 5 2 7 3 8 4 9 5 6 6 3 8 2 9 1 10
REMARK H PARENT 6 7
REMARK Flexibility Score: inf
ROOT
ATOM      1  C   UNL     1      15.435  27.965  35.840  1.00  0.00     0.036 C 
ENDROOT
BRANCH   1   2
ATOM      2  C   UNL     1      14.908  29.026  36.832  1.00  0.00     0.114 C 
BRANCH   2   3
ATOM      3  C   UNL     1      13.902  28.398  37.820  1.00  0.00     0.031 C 
BRANCH   3   4
ATOM      4  C   UNL     1      12.682  29.305  38.040  1.00  0.00    -0.001 C 
ATOM      5  C   UNL     1      11.392  28.599  37.633  1.00  0.00     0.004 C 
ENDBRANCH   3   4
ENDBRANCH   2   3
BRANCH   2   6
ATOM      6  O   UNL     1      14.323  30.109  36.150  1.00  0.00    -0.393 OA
ATOM      7  H   UNL     1      14.267  29.863  35.190  1.00  0.00     0.210 HD
ENDBRANCH   2   6
ENDBRANCH   1   2
BRANCH   1   8
ATOM      8  C   UNL     1      16.950  28.073  35.594  1.00  0.00     0.029 C 
BRANCH   8   9
ATOM      9  C   UNL     1      17.658  28.867  36.659  1.00  0.00    -0.035 C 
ATOM     10  C   UNL     1      18.965  29.133  36.586  1.00  0.00     0.004 C 
ENDBRANCH   8   9
ENDBRANCH   1   8
TORSDOF 6
ENDMDL
MODEL 7
REMARK VINA RESULT:    -3.642      2.034      2.797
REMARK INTER + INTRA:          -5.243
REMARK INTER:                  -4.703
REMARK INTRA:                  -0.540
REMARK UNBOUND:                -0.429
REMARK SMILES C=CCC[C@@H](O)CCC
REMARK SMILES IDX 4 1 5 2 7 3 8 4 9 5 6 6 3 8 2 9 1 10
REMARK H PARENT 6 7
REMARK Flexibility Score: inf
ROOT
ATOM      1  C   UNL     1       2.329  45.296  50.308  1.00  0.00     0.036 C 
ENDROOT
BRANCH   1   2
ATOM      2  C   UNL     1       0.883  44.940  50.717  1.00  0.00     0.114 C 
BRANCH   2   3
ATOM      3  C   UNL     1      -0.110  45.996  50.189  1.00  0.00     0.031 C 
BRANCH   3   4
ATOM      4  C   UNL     1      -0.816  45.522  48.910  1.00  0.00    -0.001 C 
ATOM      5  C   UNL     1      -0.782  44.001  48.794  1.00  0.00     0.004 C 
ENDBRANCH   3   4
ENDBRANCH   2   3
BRANCH   2   6
ATOM      6  O   UNL     1       0.770  44.808  52.113  1.00  0.00    -0.393 OA
ATOM      7  H   UNL     1       1.084  45.656  52.520  1.00  0.00     0.210 HD
ENDBRANCH   2   6
ENDBRANCH   1   2
BRANCH   1   8
ATOM      8  C   UNL     1       2.541  46.805  50.101  1.00  0.00     0.029 C 
BRANCH   8   9
ATOM      9  C   UNL     1       2.995  47.144  48.707  1.00  0.00    -0.035 C 
ATOM     10  C   UNL     1       2.652  46.395  47.654  1.00  0.00     0.004 C 
ENDBRANCH   8   9
ENDBRANCH   1   8
TORSDOF 6
ENDMDL
MODEL 8
REMARK VINA RESULT:    -3.594     23.789     24.584
REMARK INTER + INTRA:          -5.179
REMARK INTER:                  -4.952
REMARK INTRA:                  -0.226
REMARK UNBOUND:                -0.429
REMARK SMILES C=CCC[C@@H](O)CCC
REMARK SMILES IDX 4 1 5 2 7 3 8 4 9 5 6 6 3 8 2 9 1 10
REMARK H PARENT 6 7
REMARK Flexibility Score: inf
ROOT
ATOM      1  C   UNL     1      16.260  28.143  38.091  1.00  0.00     0.036 C 
ENDROOT
BRANCH   1   2
ATOM      2  C   UNL     1      14.760  28.169  38.459  1.00  0.00     0.114 C 
BRANCH   2   3
ATOM      3  C   UNL     1      13.971  29.052  37.471  1.00  0.00     0.031 C 
BRANCH   3   4
ATOM      4  C   UNL     1      12.794  28.290  36.844  1.00  0.00    -0.001 C 
ATOM      5  C   UNL     1      11.496  28.570  37.595  1.00  0.00     0.004 C 
ENDBRANCH   3   4
ENDBRANCH   2   3
BRANCH   2   6
ATOM      6  O   UNL     1      14.572  28.614  39.780  1.00  0.00    -0.393 OA
ATOM      7  H   UNL     1      14.538  29.605  39.760  1.00  0.00     0.210 HD
ENDBRANCH   2   6
ENDBRANCH   1   2
BRANCH   1   8
ATOM      8  C   UNL     1      16.580  28.939  36.814  1.00  0.00     0.029 C 
BRANCH   8   9
ATOM      9  C   UNL     1      17.908  28.565  36.212  1.00  0.00    -0.035 C 
ATOM     10  C   UNL     1      19.052  29.108  36.638  1.00  0.00     0.004 C 
ENDBRANCH   8   9
ENDBRANCH   1   8
TORSDOF 6
ENDMDL
MODEL 9
REMARK VINA RESULT:    -3.538      2.034      2.195
REMARK INTER + INTRA:          -5.105
REMARK INTER:                  -4.810
REMARK INTRA:                  -0.295
REMARK UNBOUND:                -0.429
REMARK SMILES C=CCC[C@@H](O)CCC
REMARK SMILES IDX 4 1 5 2 7 3 8 4 9 5 6 6 3 8 2 9 1 10
REMARK H PARENT 6 7
REMARK Flexibility Score: inf
ROOT
ATOM      1  C   UNL     1       2.185  45.836  48.519  1.00  0.00     0.036 C 
ENDROOT
BRANCH   1   2
ATOM      2  C   UNL     1       2.071  45.648  50.048  1.00  0.00     0.114 C 
BRANCH   2   3
ATOM      3  C   UNL     1       0.598  45.727  50.500  1.00  0.00     0.031 C 
BRANCH   3   4
ATOM      4  C   UNL     1      -0.113  44.373  50.355  1.00  0.00    -0.001 C 
ATOM      5  C   UNL     1       0.016  43.545  51.630  1.00  0.00     0.004 C 
ENDBRANCH   3   4
ENDBRANCH   2   3
BRANCH   2   6
ATOM      6  O   UNL     1       2.851  46.597  50.734  1.00  0.00    -0.393 OA
ATOM      7  H   UNL     1       2.543  47.498  50.452  1.00  0.00     0.210 HD
ENDBRANCH   2   6
ENDBRANCH   1   2
BRANCH   1   8
ATOM      8  C   UNL     1       1.623  47.184  48.036  1.00  0.00     0.029 C 
BRANCH   8   9
ATOM      9  C   UNL     1       2.669  48.053  47.390  1.00  0.00    -0.035 C 
ATOM     10  C   UNL     1       3.972  47.775  47.486  1.00  0.00     0.004 C 
ENDBRANCH   8   9
ENDBRANCH   1   8
TORSDOF 6
ENDMDL
