MODEL 1
REMARK VINA RESULT:    -4.730      0.000      0.000
REMARK INTER + INTRA:          -5.536
REMARK INTER:                  -5.283
REMARK INTRA:                  -0.253
REMARK UNBOUND:                -0.253
REMARK SMILES COc1cc(C)ccc1C(C)C
REMARK SMILES IDX 6 1 5 2 4 3 3 4 9 5 8 6 7 7 2 8 1 9 10 10 11 11 12 12
REMARK H PARENT
REMARK Flexibility Score: inf
ROOT
ATOM      1  C   UNL     1     -17.715 -20.924  23.079  1.00  0.00     0.044 C 
ATOM      2  C   UNL     1     -16.317 -21.166  22.595  1.00  0.00    -0.047 A 
ATOM      3  C   UNL     1     -15.243 -21.134  23.495  1.00  0.00     0.050 A 
ATOM      4  C   UNL     1     -13.919 -21.323  23.049  1.00  0.00     0.122 A 
ATOM      5  C   UNL     1     -13.674 -21.537  21.669  1.00  0.00    -0.003 A 
ATOM      6  C   UNL     1     -14.762 -21.545  20.776  1.00  0.00     0.008 A 
ATOM      7  C   UNL     1     -16.065 -21.356  21.233  1.00  0.00     0.004 A 
ENDROOT
BRANCH   4   8
ATOM      8  O   UNL     1     -12.839 -21.302  23.946  1.00  0.00    -0.496 OA
ATOM      9  C   UNL     1     -12.199 -20.122  24.422  1.00  0.00     0.278 C 
ENDBRANCH   4   8
BRANCH   5  10
ATOM     10  C   UNL     1     -12.272 -21.750  21.112  1.00  0.00     0.017 C 
ATOM     11  C   UNL     1     -12.275 -22.690  19.900  1.00  0.00     0.012 C 
ATOM     12  C   UNL     1     -11.574 -20.422  20.795  1.00  0.00     0.012 C 
ENDBRANCH   5  10
TORSDOF 2
ENDMDL
MODEL 2
REMARK VINA RESULT:    -4.600      2.564      4.746
REMARK INTER + INTRA:          -5.390
REMARK INTER:                  -5.223
REMARK INTRA:                  -0.167
REMARK UNBOUND:                -0.253
REMARK SMILES COc1cc(C)ccc1C(C)C
REMARK SMILES IDX 6 1 5 2 4 3 3 4 9 5 8 6 7 7 2 8 1 9 10 10 11 11 12 12
REMARK H PARENT
REMARK Flexibility Score: inf
ROOT
ATOM      1  C   UNL     1     -12.664 -25.389  25.253  1.00  0.00     0.044 C 
ATOM      2  C   UNL     1     -13.472 -24.178  24.894  1.00  0.00    -0.047 A 
ATOM      3  C   UNL     1     -13.745 -23.884  23.552  1.00  0.00     0.050 A 
ATOM      4  C   UNL     1     -14.472 -22.729  23.197  1.00  0.00     0.122 A 
ATOM      5  C   UNL     1     -14.922 -21.851  24.215  1.00  0.00    -0.003 A 
ATOM      6  C   UNL     1     -14.622 -22.151  25.557  1.00  0.00     0.008 A 
ATOM      7  C   UNL     1     -13.901 -23.297  25.892  1.00  0.00     0.004 A 
ENDROOT
BRANCH   4   8
ATOM      8  O   UNL     1     -14.758 -22.432  21.855  1.00  0.00    -0.496 OA
ATOM      9  C   UNL     1     -13.835 -21.858  20.935  1.00  0.00     0.278 C 
ENDBRANCH   4   8
BRANCH   5  10
ATOM     10  C   UNL     1     -15.714 -20.585  23.911  1.00  0.00     0.017 C 
ATOM     11  C   UNL     1     -17.160 -20.900  23.505  1.00  0.00     0.012 C 
ATOM     12  C   UNL     1     -15.659 -19.583  25.071  1.00  0.00     0.012 C 
ENDBRANCH   5  10
TORSDOF 2
ENDMDL
MODEL 3
REMARK VINA RESULT:    -4.583      2.476      3.753
REMARK INTER + INTRA:          -5.372
REMARK INTER:                  -5.092
REMARK INTRA:                  -0.280
REMARK UNBOUND:                -0.253
REMARK SMILES COc1cc(C)ccc1C(C)C
REMARK SMILES IDX 6 1 5 2 4 3 3 4 9 5 8 6 7 7 2 8 1 9 10 10 11 11 12 12
REMARK H PARENT
REMARK Flexibility Score: inf
ROOT
ATOM      1  C   UNL     1     -13.387 -24.498  26.683  1.00  0.00     0.044 C 
ATOM      2  C   UNL     1     -13.749 -23.681  25.478  1.00  0.00    -0.047 A 
ATOM      3  C   UNL     1     -14.039 -22.317  25.612  1.00  0.00     0.050 A 
ATOM      4  C   UNL     1     -14.417 -21.544  24.495  1.00  0.00     0.122 A 
ATOM      5  C   UNL     1     -14.515 -22.162  23.223  1.00  0.00    -0.003 A 
ATOM      6  C   UNL     1     -14.239 -23.538  23.110  1.00  0.00     0.008 A 
ATOM      7  C   UNL     1     -13.868 -24.288  24.224  1.00  0.00     0.004 A 
ENDROOT
BRANCH   4   8
ATOM      8  O   UNL     1     -14.700 -20.174  24.619  1.00  0.00    -0.496 OA
ATOM      9  C   UNL     1     -15.900 -19.638  25.168  1.00  0.00     0.278 C 
ENDBRANCH   4   8
BRANCH   5  10
ATOM     10  C   UNL     1     -14.915 -21.393  21.970  1.00  0.00     0.017 C 
ATOM     11  C   UNL     1     -14.207 -21.930  20.719  1.00  0.00     0.012 C 
ATOM     12  C   UNL     1     -16.437 -21.354  21.784  1.00  0.00     0.012 C 
ENDBRANCH   5  10
TORSDOF 2
ENDMDL
MODEL 4
REMARK VINA RESULT:    -4.575      1.450      3.009
REMARK INTER + INTRA:          -5.363
REMARK INTER:                  -5.079
REMARK INTRA:                  -0.284
REMARK UNBOUND:                -0.253
REMARK SMILES COc1cc(C)ccc1C(C)C
REMARK SMILES IDX 6 1 5 2 4 3 3 4 9 5 8 6 7 7 2 8 1 9 10 10 11 11 12 12
REMARK H PARENT
REMARK Flexibility Score: inf
ROOT
ATOM      1  C   UNL     1     -17.908 -21.377  22.228  1.00  0.00     0.044 C 
ATOM      2  C   UNL     1     -16.429 -21.274  22.457  1.00  0.00    -0.047 A 
ATOM      3  C   UNL     1     -15.542 -21.322  21.374  1.00  0.00     0.050 A 
ATOM      4  C   UNL     1     -14.148 -21.263  21.577  1.00  0.00     0.122 A 
ATOM      5  C   UNL     1     -13.641 -21.165  22.897  1.00  0.00    -0.003 A 
ATOM      6  C   UNL     1     -14.545 -21.138  23.975  1.00  0.00     0.008 A 
ATOM      7  C   UNL     1     -15.921 -21.198  23.758  1.00  0.00     0.004 A 
ENDROOT
BRANCH   4   8
ATOM      8  O   UNL     1     -13.253 -21.301  20.496  1.00  0.00    -0.496 OA
ATOM      9  C   UNL     1     -12.901 -22.475  19.771  1.00  0.00     0.278 C 
ENDBRANCH   4   8
BRANCH   5  10
ATOM     10  C   UNL     1     -12.148 -21.095  23.195  1.00  0.00     0.017 C 
ATOM     11  C   UNL     1     -11.842 -20.145  24.361  1.00  0.00     0.012 C 
ATOM     12  C   UNL     1     -11.546 -22.487  23.428  1.00  0.00     0.012 C 
ENDBRANCH   5  10
TORSDOF 2
ENDMDL
MODEL 5
REMARK VINA RESULT:    -4.551      1.610      4.627
REMARK INTER + INTRA:          -5.336
REMARK INTER:                  -5.071
REMARK INTRA:                  -0.264
REMARK UNBOUND:                -0.253
REMARK SMILES COc1cc(C)ccc1C(C)C
REMARK SMILES IDX 6 1 5 2 4 3 3 4 9 5 8 6 7 7 2 8 1 9 10 10 11 11 12 12
REMARK H PARENT
REMARK Flexibility Score: inf
ROOT
ATOM      1  C   UNL     1     -10.825 -20.261  20.388  1.00  0.00     0.044 C 
ATOM      2  C   UNL     1     -11.841 -20.679  21.408  1.00  0.00    -0.047 A 
ATOM      3  C   UNL     1     -13.107 -21.122  21.004  1.00  0.00     0.050 A 
ATOM      4  C   UNL     1     -14.085 -21.484  21.953  1.00  0.00     0.122 A 
ATOM      5  C   UNL     1     -13.783 -21.385  23.334  1.00  0.00    -0.003 A 
ATOM      6  C   UNL     1     -12.514 -20.918  23.724  1.00  0.00     0.008 A 
ATOM      7  C   UNL     1     -11.558 -20.564  22.773  1.00  0.00     0.004 A 
ENDROOT
BRANCH   4   8
ATOM      8  O   UNL     1     -15.352 -21.938  21.555  1.00  0.00    -0.496 OA
ATOM      9  C   UNL     1     -16.456 -21.096  21.237  1.00  0.00     0.278 C 
ENDBRANCH   4   8
BRANCH   5  10
ATOM     10  C   UNL     1     -14.787 -21.758  24.418  1.00  0.00     0.017 C 
ATOM     11  C   UNL     1     -14.116 -22.480  25.594  1.00  0.00     0.012 C 
ATOM     12  C   UNL     1     -15.598 -20.545  24.889  1.00  0.00     0.012 C 
ENDBRANCH   5  10
TORSDOF 2
ENDMDL
MODEL 6
REMARK VINA RESULT:    -4.548      2.170      3.253
REMARK INTER + INTRA:          -5.333
REMARK INTER:                  -5.067
REMARK INTRA:                  -0.266
REMARK UNBOUND:                -0.253
REMARK SMILES COc1cc(C)ccc1C(C)C
REMARK SMILES IDX 6 1 5 2 4 3 3 4 9 5 8 6 7 7 2 8 1 9 10 10 11 11 12 12
REMARK H PARENT
REMARK Flexibility Score: inf
ROOT
ATOM      1  C   UNL     1     -15.226 -21.747  21.153  1.00  0.00     0.044 C 
ATOM      2  C   UNL     1     -13.785 -21.750  20.737  1.00  0.00    -0.047 A 
ATOM      3  C   UNL     1     -12.863 -20.912  21.378  1.00  0.00     0.050 A 
ATOM      4  C   UNL     1     -11.513 -20.877  20.974  1.00  0.00     0.122 A 
ATOM      5  C   UNL     1     -11.089 -21.693  19.895  1.00  0.00    -0.003 A 
ATOM      6  C   UNL     1     -12.032 -22.514  19.248  1.00  0.00     0.008 A 
ATOM      7  C   UNL     1     -13.364 -22.537  19.660  1.00  0.00     0.004 A 
ENDROOT
BRANCH   4   8
ATOM      8  O   UNL     1     -10.581 -20.048  21.618  1.00  0.00    -0.496 OA
ATOM      9  C   UNL     1     -10.199 -20.162  22.986  1.00  0.00     0.278 C 
ENDBRANCH   4   8
BRANCH   5  10
ATOM     10  C   UNL     1      -9.647 -21.711  19.402  1.00  0.00     0.017 C 
ATOM     11  C   UNL     1      -8.852 -22.879  20.001  1.00  0.00     0.012 C 
ATOM     12  C   UNL     1      -9.566 -21.700  17.870  1.00  0.00     0.012 C 
ENDBRANCH   5  10
TORSDOF 2
ENDMDL
MODEL 7
REMARK VINA RESULT:    -4.502      2.069      3.524
REMARK INTER + INTRA:          -5.281
REMARK INTER:                  -5.046
REMARK INTRA:                  -0.235
REMARK UNBOUND:                -0.253
REMARK SMILES COc1cc(C)ccc1C(C)C
REMARK SMILES IDX 6 1 5 2 4 3 3 4 9 5 8 6 7 7 2 8 1 9 10 10 11 11 12 12
REMARK H PARENT
REMARK Flexibility Score: inf
ROOT
ATOM      1  C   UNL     1     -13.779 -24.657  24.974  1.00  0.00     0.044 C 
ATOM      2  C   UNL     1     -13.320 -23.842  23.801  1.00  0.00    -0.047 A 
ATOM      3  C   UNL     1     -14.174 -22.893  23.224  1.00  0.00     0.050 A 
ATOM      4  C   UNL     1     -13.770 -22.146  22.098  1.00  0.00     0.122 A 
ATOM      5  C   UNL     1     -12.487 -22.369  21.540  1.00  0.00    -0.003 A 
ATOM      6  C   UNL     1     -11.649 -23.340  22.121  1.00  0.00     0.008 A 
ATOM      7  C   UNL     1     -12.063 -24.071  23.233  1.00  0.00     0.004 A 
ENDROOT
BRANCH   4   8
ATOM      8  O   UNL     1     -14.617 -21.187  21.519  1.00  0.00    -0.496 OA
ATOM      9  C   UNL     1     -16.037 -21.283  21.462  1.00  0.00     0.278 C 
ENDBRANCH   4   8
BRANCH   5  10
ATOM     10  C   UNL     1     -11.979 -21.600  20.326  1.00  0.00     0.017 C 
ATOM     11  C   UNL     1     -11.284 -20.292  20.727  1.00  0.00     0.012 C 
ATOM     12  C   UNL     1     -11.081 -22.466  19.435  1.00  0.00     0.012 C 
ENDBRANCH   5  10
TORSDOF 2
ENDMDL
MODEL 8
REMARK VINA RESULT:    -4.497      1.343      4.285
REMARK INTER + INTRA:          -5.275
REMARK INTER:                  -5.014
REMARK INTRA:                  -0.261
REMARK UNBOUND:                -0.253
REMARK SMILES COc1cc(C)ccc1C(C)C
REMARK SMILES IDX 6 1 5 2 4 3 3 4 9 5 8 6 7 7 2 8 1 9 10 10 11 11 12 12
REMARK H PARENT
REMARK Flexibility Score: inf
ROOT
ATOM      1  C   UNL     1      -9.950 -22.781  18.806  1.00  0.00     0.044 C 
ATOM      2  C   UNL     1     -11.128 -22.373  19.640  1.00  0.00    -0.047 A 
ATOM      3  C   UNL     1     -10.937 -21.672  20.838  1.00  0.00     0.050 A 
ATOM      4  C   UNL     1     -12.032 -21.314  21.650  1.00  0.00     0.122 A 
ATOM      5  C   UNL     1     -13.342 -21.682  21.252  1.00  0.00    -0.003 A 
ATOM      6  C   UNL     1     -13.515 -22.404  20.056  1.00  0.00     0.008 A 
ATOM      7  C   UNL     1     -12.421 -22.751  19.264  1.00  0.00     0.004 A 
ENDROOT
BRANCH   4   8
ATOM      8  O   UNL     1     -11.849 -20.603  22.847  1.00  0.00    -0.496 OA
ATOM      9  C   UNL     1     -11.385 -21.170  24.068  1.00  0.00     0.278 C 
ENDBRANCH   4   8
BRANCH   5  10
ATOM     10  C   UNL     1     -14.575 -21.330  22.076  1.00  0.00     0.017 C 
ATOM     11  C   UNL     1     -15.818 -21.148  21.196  1.00  0.00     0.012 C 
ATOM     12  C   UNL     1     -14.822 -22.346  23.198  1.00  0.00     0.012 C 
ENDBRANCH   5  10
TORSDOF 2
ENDMDL
