MODEL 1
REMARK VINA RESULT:    -4.246      0.000      0.000
REMARK INTER + INTRA:          -6.963
REMARK INTER:                  -6.480
REMARK INTRA:                  -0.483
REMARK UNBOUND:                -0.483
REMARK SMILES CC1=CCC[C@@H](C)C(=O)C[C@@H](C(C)C)C(=O)C1
REMARK SMILES IDX 8 1 9 2 6 3 7 4 5 5 4 6 3 7 2 8 1 9 10 11 11 12 15 13 16 14
REMARK SMILES IDX 17 15 12 17 13 18 14 19
REMARK H PARENT
REMARK Flexibility Score: 70.00
ROOT
ATOM      1  C   UNL     1      10.700 -18.117 -20.132  1.00  0.00     0.136 C 
ATOM      2  O   UNL     1      10.727 -17.529 -19.062  1.00  0.00    -0.299 OA
ENDROOT
BRANCH   1   3
ATOM      3  C   UNL     1       9.422 -18.053 -20.980  1.00  0.00     0.053 C 
ATOM      4  C   UNL     1       8.503 -19.250 -20.707  1.00  0.00     0.016 C 
BRANCH   3   5
ATOM      5  C   UNL     1       9.932 -18.014 -22.403  1.00  0.00     0.015 C 
BRANCH   5   6
ATOM      6  C   UNL     1      10.189 -16.834 -23.289  1.00  0.00     0.028 C 
BRANCH   6   7
ATOM      7  C   UNL     1      11.180 -17.274 -24.377  1.00  0.00    -0.028 C 
ATOM      8  C   UNL     1      12.563 -17.217 -24.396  1.00  0.00    -0.070 CG0
ATOM      9  C   UNL     1      13.215 -17.629 -25.696  1.00  0.00     0.039 C 
ATOM     10  G   UNL     1      13.524 -16.815 -23.238  1.00  0.00     0.000 G0
ENDBRANCH   6   7
ENDBRANCH   5   6
ENDBRANCH   3   5
ENDBRANCH   1   3
BRANCH   1  11
ATOM     11  C   UNL     1      11.958 -18.871 -20.597  1.00  0.00     0.087 C 
BRANCH  11  12
ATOM     12  C   UNL     1      13.269 -18.010 -20.780  1.00  0.00     0.066 C 
BRANCH  12  13
ATOM     13  C   UNL     1      13.849 -17.936 -22.215  1.00  0.00     0.140 C 
ATOM     14  O   UNL     1      14.521 -18.879 -22.607  1.00  0.00    -0.299 OA
BRANCH  13  15
ATOM     15  C   UNL     1      13.526 -16.817 -23.222  1.00  0.00     0.106 CG0
ATOM     16  G   UNL     1      12.577 -17.226 -24.386  1.00  0.00     0.000 G0
ENDBRANCH  13  15
ENDBRANCH  12  13
BRANCH  12  17
ATOM     17  C   UNL     1      14.404 -18.438 -19.786  1.00  0.00    -0.006 C 
ATOM     18  C   UNL     1      14.432 -17.524 -18.545  1.00  0.00     0.008 C 
ATOM     19  C   UNL     1      14.276 -19.898 -19.312  1.00  0.00     0.008 C 
ENDBRANCH  12  17
ENDBRANCH  11  12
ENDBRANCH   1  11
TORSDOF 1
ENDMDL
MODEL 2
REMARK VINA RESULT:    -4.189      1.816      2.531
REMARK INTER + INTRA:          -6.877
REMARK INTER:                  -6.268
REMARK INTRA:                  -0.609
REMARK UNBOUND:                -0.483
REMARK SMILES CC1=CCC[C@@H](C)C(=O)C[C@@H](C(C)C)C(=O)C1
REMARK SMILES IDX 8 1 9 2 6 3 7 4 5 5 4 6 3 7 2 8 1 9 10 11 11 12 15 13 16 14
REMARK SMILES IDX 17 15 12 17 13 18 14 19
REMARK H PARENT
REMARK Flexibility Score: 70.00
ROOT
ATOM      1  C   UNL     1      10.904 -17.753 -22.447  1.00  0.00     0.136 C 
ATOM      2  O   UNL     1      10.295 -17.714 -21.388  1.00  0.00    -0.299 OA
ENDROOT
BRANCH   1   3
ATOM      3  C   UNL     1      10.228 -17.206 -23.712  1.00  0.00     0.053 C 
ATOM      4  C   UNL     1      10.323 -18.198 -24.877  1.00  0.00     0.016 C 
BRANCH   3   5
ATOM      5  C   UNL     1      10.956 -15.909 -23.981  1.00  0.00     0.015 C 
BRANCH   5   6
ATOM      6  C   UNL     1      11.743 -15.492 -25.184  1.00  0.00     0.028 C 
BRANCH   6   7
ATOM      7  C   UNL     1      12.949 -14.676 -24.695  1.00  0.00    -0.028 C 
ATOM      8  C   UNL     1      14.102 -15.092 -24.051  1.00  0.00    -0.070 CG0
ATOM      9  C   UNL     1      15.032 -13.989 -23.600  1.00  0.00     0.039 C 
ATOM     10  G   UNL     1      14.570 -16.549 -23.767  1.00  0.00     0.000 G0
ENDBRANCH   6   7
ENDBRANCH   5   6
ENDBRANCH   3   5
ENDBRANCH   1   3
BRANCH   1  11
ATOM     11  C   UNL     1      12.334 -18.321 -22.460  1.00  0.00     0.087 C 
BRANCH  11  12
ATOM     12  C   UNL     1      13.392 -17.590 -21.542  1.00  0.00     0.066 C 
BRANCH  12  13
ATOM     13  C   UNL     1      14.604 -16.949 -22.265  1.00  0.00     0.140 C 
ATOM     14  O   UNL     1      15.651 -16.852 -21.642  1.00  0.00    -0.299 OA
BRANCH  13  15
ATOM     15  C   UNL     1      14.612 -16.550 -23.752  1.00  0.00     0.106 CG0
ATOM     16  G   UNL     1      14.111 -15.107 -24.054  1.00  0.00     0.000 G0
ENDBRANCH  13  15
ENDBRANCH  12  13
BRANCH  12  17
ATOM     17  C   UNL     1      13.909 -18.510 -20.383  1.00  0.00    -0.006 C 
ATOM     18  C   UNL     1      13.664 -17.862 -19.005  1.00  0.00     0.008 C 
ATOM     19  C   UNL     1      13.263 -19.908 -20.385  1.00  0.00     0.008 C 
ENDBRANCH  12  17
ENDBRANCH  11  12
ENDBRANCH   1  11
TORSDOF 1
ENDMDL
MODEL 3
REMARK VINA RESULT:    -3.856      2.229      4.495
REMARK INTER + INTRA:          -6.368
REMARK INTER:                  -5.883
REMARK INTRA:                  -0.484
REMARK UNBOUND:                -0.483
REMARK SMILES CC1=CCC[C@@H](C)C(=O)C[C@@H](C(C)C)C(=O)C1
REMARK SMILES IDX 8 1 9 2 6 3 7 4 5 5 4 6 3 7 2 8 1 9 10 11 11 12 15 13 16 14
REMARK SMILES IDX 17 15 12 17 13 18 14 19
REMARK H PARENT
REMARK Flexibility Score: 70.00
ROOT
ATOM      1  C   UNL     1      12.770 -18.438 -20.394  1.00  0.00     0.136 C 
ATOM      2  O   UNL     1      11.647 -18.837 -20.125  1.00  0.00    -0.299 OA
ENDROOT
BRANCH   1   3
ATOM      3  C   UNL     1      13.939 -18.846 -19.485  1.00  0.00     0.053 C 
ATOM      4  C   UNL     1      14.540 -17.636 -18.761  1.00  0.00     0.016 C 
BRANCH   3   5
ATOM      5  C   UNL     1      14.914 -19.515 -20.426  1.00  0.00     0.015 C 
BRANCH   5   6
ATOM      6  C   UNL     1      14.756 -20.772 -21.225  1.00  0.00     0.028 C 
BRANCH   6   7
ATOM      7  C   UNL     1      15.786 -20.734 -22.364  1.00  0.00    -0.028 C 
ATOM      8  C   UNL     1      15.930 -19.829 -23.402  1.00  0.00    -0.070 CG0
ATOM      9  C   UNL     1      16.990 -20.173 -24.425  1.00  0.00     0.039 C 
ATOM     10  G   UNL     1      15.164 -18.493 -23.625  1.00  0.00     0.000 G0
ENDBRANCH   6   7
ENDBRANCH   5   6
ENDBRANCH   3   5
ENDBRANCH   1   3
BRANCH   1  11
ATOM     11  C   UNL     1      12.969 -17.569 -21.648  1.00  0.00     0.087 C 
BRANCH  11  12
ATOM     12  C   UNL     1      12.544 -18.212 -23.026  1.00  0.00     0.066 C 
BRANCH  12  13
ATOM     13  C   UNL     1      13.695 -18.589 -23.994  1.00  0.00     0.140 C 
ATOM     14  O   UNL     1      13.397 -18.893 -25.140  1.00  0.00    -0.299 OA
BRANCH  13  15
ATOM     15  C   UNL     1      15.190 -18.479 -23.644  1.00  0.00     0.106 CG0
ATOM     16  G   UNL     1      15.919 -19.835 -23.412  1.00  0.00     0.000 G0
ENDBRANCH  13  15
ENDBRANCH  12  13
BRANCH  12  17
ATOM     17  C   UNL     1      11.493 -17.336 -23.791  1.00  0.00    -0.006 C 
ATOM     18  C   UNL     1      10.115 -17.387 -23.101  1.00  0.00     0.008 C 
ATOM     19  C   UNL     1      11.915 -15.860 -23.924  1.00  0.00     0.008 C 
ENDBRANCH  12  17
ENDBRANCH  11  12
ENDBRANCH   1  11
TORSDOF 1
ENDMDL
MODEL 4
REMARK VINA RESULT:    -3.839      2.304      4.698
REMARK INTER + INTRA:          -6.343
REMARK INTER:                  -5.787
REMARK INTRA:                  -0.555
REMARK UNBOUND:                -0.483
REMARK SMILES CC1=CCC[C@@H](C)C(=O)C[C@@H](C(C)C)C(=O)C1
REMARK SMILES IDX 8 1 9 2 6 3 7 4 5 5 4 6 3 7 2 8 1 9 10 11 11 12 15 13 16 14
REMARK SMILES IDX 17 15 12 17 13 18 14 19
REMARK H PARENT
REMARK Flexibility Score: 70.00
ROOT
ATOM      1  C   UNL     1      14.125 -17.490 -21.073  1.00  0.00     0.136 C 
ATOM      2  O   UNL     1      15.298 -17.176 -21.207  1.00  0.00    -0.299 OA
ENDROOT
BRANCH   1   3
ATOM      3  C   UNL     1      13.717 -18.327 -19.852  1.00  0.00     0.053 C 
ATOM      4  C   UNL     1      14.060 -17.614 -18.539  1.00  0.00     0.016 C 
BRANCH   3   5
ATOM      5  C   UNL     1      14.470 -19.625 -20.033  1.00  0.00     0.015 C 
BRANCH   5   6
ATOM      6  C   UNL     1      14.195 -20.762 -20.967  1.00  0.00     0.028 C 
BRANCH   6   7
ATOM      7  C   UNL     1      15.286 -20.754 -22.048  1.00  0.00    -0.028 C 
ATOM      8  C   UNL     1      15.181 -20.562 -23.415  1.00  0.00    -0.070 CG0
ATOM      9  C   UNL     1      16.461 -20.745 -24.199  1.00  0.00     0.039 C 
ATOM     10  G   UNL     1      13.923 -20.150 -24.234  1.00  0.00     0.000 G0
ENDBRANCH   6   7
ENDBRANCH   5   6
ENDBRANCH   3   5
ENDBRANCH   1   3
BRANCH   1  11
ATOM     11  C   UNL     1      13.103 -17.010 -22.118  1.00  0.00     0.087 C 
BRANCH  11  12
ATOM     12  C   UNL     1      12.533 -18.105 -23.103  1.00  0.00     0.066 C 
BRANCH  12  13
ATOM     13  C   UNL     1      13.526 -18.675 -24.148  1.00  0.00     0.140 C 
ATOM     14  O   UNL     1      14.110 -17.879 -24.870  1.00  0.00    -0.299 OA
BRANCH  13  15
ATOM     15  C   UNL     1      13.922 -20.159 -24.246  1.00  0.00     0.106 CG0
ATOM     16  G   UNL     1      15.166 -20.572 -23.407  1.00  0.00     0.000 G0
ENDBRANCH  13  15
ENDBRANCH  12  13
BRANCH  12  17
ATOM     17  C   UNL     1      11.232 -17.628 -23.835  1.00  0.00    -0.006 C 
ATOM     18  C   UNL     1       9.992 -17.791 -22.932  1.00  0.00     0.008 C 
ATOM     19  C   UNL     1      11.303 -16.162 -24.302  1.00  0.00     0.008 C 
ENDBRANCH  12  17
ENDBRANCH  11  12
ENDBRANCH   1  11
TORSDOF 1
ENDMDL
MODEL 5
REMARK VINA RESULT:    -3.817      1.986      4.384
REMARK INTER + INTRA:          -6.309
REMARK INTER:                  -5.688
REMARK INTRA:                  -0.621
REMARK UNBOUND:                -0.483
REMARK SMILES CC1=CCC[C@@H](C)C(=O)C[C@@H](C(C)C)C(=O)C1
REMARK SMILES IDX 8 1 9 2 6 3 7 4 5 5 4 6 3 7 2 8 1 9 10 11 11 12 15 13 16 14
REMARK SMILES IDX 17 15 12 17 13 18 14 19
REMARK H PARENT
REMARK Flexibility Score: 70.00
ROOT
ATOM      1  C   UNL     1      11.593 -17.764 -21.572  1.00  0.00     0.136 C 
ATOM      2  O   UNL     1      10.583 -17.857 -22.254  1.00  0.00    -0.299 OA
ENDROOT
BRANCH   1   3
ATOM      3  C   UNL     1      11.571 -18.307 -20.137  1.00  0.00     0.053 C 
ATOM      4  C   UNL     1      10.325 -17.841 -19.375  1.00  0.00     0.016 C 
BRANCH   3   5
ATOM      5  C   UNL     1      12.858 -17.790 -19.534  1.00  0.00     0.015 C 
BRANCH   5   6
ATOM      6  C   UNL     1      13.961 -18.543 -18.857  1.00  0.00     0.028 C 
BRANCH   6   7
ATOM      7  C   UNL     1      14.292 -19.767 -19.724  1.00  0.00    -0.028 C 
ATOM      8  C   UNL     1      14.906 -19.839 -20.963  1.00  0.00    -0.070 CG0
ATOM      9  C   UNL     1      14.960 -21.216 -21.585  1.00  0.00     0.039 C 
ATOM     10  G   UNL     1      15.573 -18.689 -21.773  1.00  0.00     0.000 G0
ENDBRANCH   6   7
ENDBRANCH   5   6
ENDBRANCH   3   5
ENDBRANCH   1   3
BRANCH   1  11
ATOM     11  C   UNL     1      12.851 -17.132 -22.193  1.00  0.00     0.087 C 
BRANCH  11  12
ATOM     12  C   UNL     1      13.509 -17.911 -23.399  1.00  0.00     0.066 C 
BRANCH  12  13
ATOM     13  C   UNL     1      14.954 -18.428 -23.179  1.00  0.00     0.140 C 
ATOM     14  O   UNL     1      15.676 -18.532 -24.159  1.00  0.00    -0.299 OA
BRANCH  13  15
ATOM     15  C   UNL     1      15.576 -18.691 -21.796  1.00  0.00     0.106 CG0
ATOM     16  G   UNL     1      14.911 -19.835 -20.976  1.00  0.00     0.000 G0
ENDBRANCH  13  15
ENDBRANCH  12  13
BRANCH  12  17
ATOM     17  C   UNL     1      13.451 -17.095 -24.736  1.00  0.00    -0.006 C 
ATOM     18  C   UNL     1      12.225 -17.494 -25.581  1.00  0.00     0.008 C 
ATOM     19  C   UNL     1      13.414 -15.571 -24.514  1.00  0.00     0.008 C 
ENDBRANCH  12  17
ENDBRANCH  11  12
ENDBRANCH   1  11
TORSDOF 1
ENDMDL
MODEL 6
REMARK VINA RESULT:    -3.791      5.667      6.941
REMARK INTER + INTRA:          -6.269
REMARK INTER:                  -5.635
REMARK INTRA:                  -0.634
REMARK UNBOUND:                -0.483
REMARK SMILES CC1=CCC[C@@H](C)C(=O)C[C@@H](C(C)C)C(=O)C1
REMARK SMILES IDX 8 1 9 2 6 3 7 4 5 5 4 6 3 7 2 8 1 9 10 11 11 12 15 13 16 14
REMARK SMILES IDX 17 15 12 17 13 18 14 19
REMARK H PARENT
REMARK Flexibility Score: 70.00
ROOT
ATOM      1  C   UNL     1      15.538 -21.601 -23.047  1.00  0.00     0.136 C 
ATOM      2  O   UNL     1      16.090 -20.959 -22.166  1.00  0.00    -0.299 OA
ENDROOT
BRANCH   1   3
ATOM      3  C   UNL     1      14.390 -20.949 -23.830  1.00  0.00     0.053 C 
ATOM      4  C   UNL     1      13.925 -21.834 -24.993  1.00  0.00     0.016 C 
BRANCH   3   5
ATOM      5  C   UNL     1      14.966 -19.628 -24.287  1.00  0.00     0.015 C 
BRANCH   5   6
ATOM      6  C   UNL     1      15.500 -19.237 -25.630  1.00  0.00     0.028 C 
BRANCH   6   7
ATOM      7  C   UNL     1      17.031 -19.359 -25.578  1.00  0.00    -0.028 C 
ATOM      8  C   UNL     1      17.840 -20.472 -25.727  1.00  0.00    -0.070 CG0
ATOM      9  C   UNL     1      19.316 -20.243 -25.489  1.00  0.00     0.039 C 
ATOM     10  G   UNL     1      17.423 -21.914 -26.140  1.00  0.00     0.000 G0
ENDBRANCH   6   7
ENDBRANCH   5   6
ENDBRANCH   3   5
ENDBRANCH   1   3
BRANCH   1  11
ATOM     11  C   UNL     1      16.038 -23.023 -23.354  1.00  0.00     0.087 C 
BRANCH  11  12
ATOM     12  C   UNL     1      17.569 -23.171 -23.711  1.00  0.00     0.066 C 
BRANCH  12  13
ATOM     13  C   UNL     1      17.943 -23.037 -25.209  1.00  0.00     0.140 C 
ATOM     14  O   UNL     1      18.600 -23.936 -25.714  1.00  0.00    -0.299 OA
BRANCH  13  15
ATOM     15  C   UNL     1      17.431 -21.916 -26.132  1.00  0.00     0.106 CG0
ATOM     16  G   UNL     1      17.840 -20.474 -25.713  1.00  0.00     0.000 G0
ENDBRANCH  13  15
ENDBRANCH  12  13
BRANCH  12  17
ATOM     17  C   UNL     1      18.188 -24.494 -23.141  1.00  0.00    -0.006 C 
ATOM     18  C   UNL     1      19.378 -24.196 -22.207  1.00  0.00     0.008 C 
ATOM     19  C   UNL     1      17.169 -25.356 -22.371  1.00  0.00     0.008 C 
ENDBRANCH  12  17
ENDBRANCH  11  12
ENDBRANCH   1  11
TORSDOF 1
ENDMDL
MODEL 7
REMARK VINA RESULT:    -3.625      2.705      4.128
REMARK INTER + INTRA:          -6.016
REMARK INTER:                  -5.325
REMARK INTRA:                  -0.691
REMARK UNBOUND:                -0.483
REMARK SMILES CC1=CCC[C@@H](C)C(=O)C[C@@H](C(C)C)C(=O)C1
REMARK SMILES IDX 8 1 9 2 6 3 7 4 5 5 4 6 3 7 2 8 1 9 10 11 11 12 15 13 16 14
REMARK SMILES IDX 17 15 12 17 13 18 14 19
REMARK H PARENT
REMARK Flexibility Score: 70.00
ROOT
ATOM      1  C   UNL     1      12.560 -17.486 -22.823  1.00  0.00     0.136 C 
ATOM      2  O   UNL     1      11.470 -17.176 -23.279  1.00  0.00    -0.299 OA
ENDROOT
BRANCH   1   3
ATOM      3  C   UNL     1      13.794 -16.669 -23.232  1.00  0.00     0.053 C 
ATOM      4  C   UNL     1      13.419 -15.231 -23.607  1.00  0.00     0.016 C 
BRANCH   3   5
ATOM      5  C   UNL     1      14.378 -17.448 -24.388  1.00  0.00     0.015 C 
BRANCH   5   6
ATOM      6  C   UNL     1      15.673 -18.195 -24.474  1.00  0.00     0.028 C 
BRANCH   6   7
ATOM      7  C   UNL     1      15.346 -19.696 -24.474  1.00  0.00    -0.028 C 
ATOM      8  C   UNL     1      15.485 -20.636 -23.466  1.00  0.00    -0.070 CG0
ATOM      9  C   UNL     1      15.178 -22.063 -23.859  1.00  0.00     0.039 C 
ATOM     10  G   UNL     1      15.883 -20.399 -21.980  1.00  0.00     0.000 G0
ENDBRANCH   6   7
ENDBRANCH   5   6
ENDBRANCH   3   5
ENDBRANCH   1   3
BRANCH   1  11
ATOM     11  C   UNL     1      12.645 -18.663 -21.836  1.00  0.00     0.087 C 
BRANCH  11  12
ATOM     12  C   UNL     1      13.954 -18.754 -20.957  1.00  0.00     0.066 C 
BRANCH  12  13
ATOM     13  C   UNL     1      14.720 -20.100 -21.000  1.00  0.00     0.140 C 
ATOM     14  O   UNL     1      14.307 -21.012 -20.299  1.00  0.00    -0.299 OA
BRANCH  13  15
ATOM     15  C   UNL     1      15.882 -20.404 -21.963  1.00  0.00     0.106 CG0
ATOM     16  G   UNL     1      15.471 -20.629 -23.448  1.00  0.00     0.000 G0
ENDBRANCH  13  15
ENDBRANCH  12  13
BRANCH  12  17
ATOM     17  C   UNL     1      13.697 -18.354 -19.463  1.00  0.00    -0.006 C 
ATOM     18  C   UNL     1      14.881 -17.553 -18.887  1.00  0.00     0.008 C 
ATOM     19  C   UNL     1      12.411 -17.528 -19.270  1.00  0.00     0.008 C 
ENDBRANCH  12  17
ENDBRANCH  11  12
ENDBRANCH   1  11
TORSDOF 1
ENDMDL
MODEL 8
REMARK VINA RESULT:    -3.614      2.654      4.475
REMARK INTER + INTRA:          -5.999
REMARK INTER:                  -5.463
REMARK INTRA:                  -0.536
REMARK UNBOUND:                -0.483
REMARK SMILES CC1=CCC[C@@H](C)C(=O)C[C@@H](C(C)C)C(=O)C1
REMARK SMILES IDX 8 1 9 2 6 3 7 4 5 5 4 6 3 7 2 8 1 9 10 11 11 12 15 13 16 14
REMARK SMILES IDX 17 15 12 17 13 18 14 19
REMARK H PARENT
REMARK Flexibility Score: 70.00
ROOT
ATOM      1  C   UNL     1      15.835 -20.803 -22.566  1.00  0.00     0.136 C 
ATOM      2  O   UNL     1      16.769 -20.315 -23.185  1.00  0.00    -0.299 OA
ENDROOT
BRANCH   1   3
ATOM      3  C   UNL     1      15.237 -22.131 -23.051  1.00  0.00     0.053 C 
ATOM      4  C   UNL     1      16.174 -23.310 -22.768  1.00  0.00     0.016 C 
BRANCH   3   5
ATOM      5  C   UNL     1      15.002 -21.905 -24.527  1.00  0.00     0.015 C 
BRANCH   5   6
ATOM      6  C   UNL     1      13.828 -21.284 -25.220  1.00  0.00     0.028 C 
BRANCH   6   7
ATOM      7  C   UNL     1      14.268 -19.908 -25.742  1.00  0.00    -0.028 C 
ATOM      8  C   UNL     1      13.981 -18.642 -25.263  1.00  0.00    -0.070 CG0
ATOM      9  C   UNL     1      14.486 -17.494 -26.108  1.00  0.00     0.039 C 
ATOM     10  G   UNL     1      13.234 -18.257 -23.951  1.00  0.00     0.000 G0
ENDBRANCH   6   7
ENDBRANCH   5   6
ENDBRANCH   3   5
ENDBRANCH   1   3
BRANCH   1  11
ATOM     11  C   UNL     1      15.319 -20.080 -21.310  1.00  0.00     0.087 C 
BRANCH  11  12
ATOM     12  C   UNL     1      14.062 -19.143 -21.501  1.00  0.00     0.066 C 
BRANCH  12  13
ATOM     13  C   UNL     1      14.120 -18.149 -22.689  1.00  0.00     0.140 C 
ATOM     14  O   UNL     1      14.994 -17.294 -22.673  1.00  0.00    -0.299 OA
BRANCH  13  15
ATOM     15  C   UNL     1      13.235 -18.248 -23.944  1.00  0.00     0.106 CG0
ATOM     16  G   UNL     1      13.980 -18.653 -25.250  1.00  0.00     0.000 G0
ENDBRANCH  13  15
ENDBRANCH  12  13
BRANCH  12  17
ATOM     17  C   UNL     1      13.697 -18.363 -20.192  1.00  0.00    -0.006 C 
ATOM     18  C   UNL     1      12.170 -18.230 -20.028  1.00  0.00     0.008 C 
ATOM     19  C   UNL     1      14.268 -19.016 -18.918  1.00  0.00     0.008 C 
ENDBRANCH  12  17
ENDBRANCH  11  12
ENDBRANCH   1  11
TORSDOF 1
ENDMDL
MODEL 9
REMARK VINA RESULT:    -3.492      4.273      5.701
REMARK INTER + INTRA:          -5.812
REMARK INTER:                  -5.118
REMARK INTRA:                  -0.694
REMARK UNBOUND:                -0.483
REMARK SMILES CC1=CCC[C@@H](C)C(=O)C[C@@H](C(C)C)C(=O)C1
REMARK SMILES IDX 8 1 9 2 6 3 7 4 5 5 4 6 3 7 2 8 1 9 10 11 11 12 15 13 16 14
REMARK SMILES IDX 17 15 12 17 13 18 14 19
REMARK H PARENT
REMARK Flexibility Score: 70.00
ROOT
ATOM      1  C   UNL     1      15.251 -20.853 -21.803  1.00  0.00     0.136 C 
ATOM      2  O   UNL     1      14.396 -20.792 -20.933  1.00  0.00    -0.299 OA
ENDROOT
BRANCH   1   3
ATOM      3  C   UNL     1      16.034 -19.583 -22.163  1.00  0.00     0.053 C 
ATOM      4  C   UNL     1      16.769 -19.009 -20.947  1.00  0.00     0.016 C 
BRANCH   3   5
ATOM      5  C   UNL     1      14.979 -18.649 -22.710  1.00  0.00     0.015 C 
BRANCH   5   6
ATOM      6  C   UNL     1      13.857 -18.933 -23.660  1.00  0.00     0.028 C 
BRANCH   6   7
ATOM      7  C   UNL     1      14.437 -18.931 -25.083  1.00  0.00    -0.028 C 
ATOM      8  C   UNL     1      14.958 -19.972 -25.832  1.00  0.00    -0.070 CG0
ATOM      9  C   UNL     1      15.559 -19.580 -27.163  1.00  0.00     0.039 C 
ATOM     10  G   UNL     1      14.971 -21.490 -25.489  1.00  0.00     0.000 G0
ENDBRANCH   6   7
ENDBRANCH   5   6
ENDBRANCH   3   5
ENDBRANCH   1   3
BRANCH   1  11
ATOM     11  C   UNL     1      15.526 -22.207 -22.480  1.00  0.00     0.087 C 
BRANCH  11  12
ATOM     12  C   UNL     1      16.711 -22.246 -23.523  1.00  0.00     0.066 C 
BRANCH  12  13
ATOM     13  C   UNL     1      16.325 -22.057 -25.012  1.00  0.00     0.140 C 
ATOM     14  O   UNL     1      17.099 -22.477 -25.859  1.00  0.00    -0.299 OA
BRANCH  13  15
ATOM     15  C   UNL     1      14.974 -21.494 -25.490  1.00  0.00     0.106 CG0
ATOM     16  G   UNL     1      14.969 -19.974 -25.824  1.00  0.00     0.000 G0
ENDBRANCH  13  15
ENDBRANCH  12  13
BRANCH  12  17
ATOM     17  C   UNL     1      17.588 -23.538 -23.378  1.00  0.00    -0.006 C 
ATOM     18  C   UNL     1      18.900 -23.240 -22.624  1.00  0.00     0.008 C 
ATOM     19  C   UNL     1      16.860 -24.686 -22.653  1.00  0.00     0.008 C 
ENDBRANCH  12  17
ENDBRANCH  11  12
ENDBRANCH   1  11
TORSDOF 1
ENDMDL
