MODEL 1
REMARK VINA RESULT:    -6.457      0.000      0.000
REMARK INTER + INTRA:         -10.146
REMARK INTER:                  -9.477
REMARK INTRA:                  -0.669
REMARK UNBOUND:                -0.669
REMARK SMILES CC(C)(O)CC[C@@H](O)[C@](C)(O)[C@@H]1CC[C@]2(O)C3=CC(=O)[C@H]4C[C@H](O)[C@@H](O)C[C@]4(C)[C@@H]3CC[C@]12C
REMARK SMILES IDX 6 1 7 2 9 3 10 4 12 5 34 6 33 7 32 8 15 9 31 10 17 11 14 12
REMARK SMILES IDX 13 13 30 14 18 15 28 16 19 17 21 18 27 19 29 20 20 21 22 22
REMARK SMILES IDX 25 23 23 24 16 25 26 27 24 29 11 31 8 33 5 35 2 36 1 37 3 38
REMARK SMILES IDX 4 39
REMARK H PARENT 16 26 26 28 24 30 11 32 8 34 4 40
REMARK Flexibility Score: inf
ROOT
ATOM      1  C   UNL     1      57.759 -17.478  -1.610  1.00  0.00     0.038 C 
ENDROOT
BRANCH   1   2
ATOM      2  C   UNL     1      59.203 -18.031  -1.861  1.00  0.00     0.146 C 
BRANCH   2   3
ATOM      3  C   UNL     1      60.204 -18.073  -0.609  1.00  0.00     0.091 C 
ATOM      4  C   UNL     1      61.136 -16.841  -0.789  1.00  0.00     0.045 C 
BRANCH   3   5
ATOM      5  C   UNL     1      59.488 -17.951   0.826  1.00  0.00     0.032 C 
ATOM      6  C   UNL     1      58.768 -20.172   1.978  1.00  0.00     0.015 C 
ATOM      7  C   UNL     1      59.737 -18.955   2.039  1.00  0.00     0.006 C 
ATOM      8  C   UNL     1      61.193 -19.535   2.066  1.00  0.00     0.011 C 
ATOM      9  C   UNL     1      59.461 -18.064   3.348  1.00  0.00     0.092 C 
ATOM     10  C   UNL     1      61.545 -20.274   3.383  1.00  0.00     0.009 C 
ATOM     11  C   UNL     1      60.694 -18.098   4.261  1.00  0.00    -0.031 C 
ATOM     12  C   UNL     1      59.092 -16.657   2.831  1.00  0.00     0.041 C 
ATOM     13  C   UNL     1      59.699 -16.561   1.454  1.00  0.00     0.010 C 
ATOM     14  C   UNL     1      61.099 -19.510   4.668  1.00  0.00     0.025 C 
ATOM     15  C   UNL     1      61.570 -17.074   4.398  1.00  0.00     0.050 C 
ATOM     16  C   UNL     1      62.119 -19.527   5.864  1.00  0.00    -0.013 C 
ATOM     17  C   UNL     1      62.856 -17.237   5.096  1.00  0.00     0.159 C 
ATOM     18  C   UNL     1      63.330 -18.610   5.497  1.00  0.00     0.070 C 
ATOM     19  C   UNL     1      62.604 -20.989   6.187  1.00  0.00     0.042 C 
ATOM     20  C   UNL     1      61.386 -18.973   7.126  1.00  0.00     0.013 C 
ATOM     21  O   UNL     1      63.585 -16.229   5.286  1.00  0.00    -0.295 OA
ATOM     22  C   UNL     1      64.405 -18.582   6.610  1.00  0.00     0.047 C 
ATOM     23  C   UNL     1      64.129 -21.128   6.385  1.00  0.00     0.143 C 
ATOM     24  C   UNL     1      64.681 -19.968   7.246  1.00  0.00     0.143 C 
BRANCH   9  25
ATOM     25  O   UNL     1      58.384 -18.548   4.128  1.00  0.00    -0.385 OA
ATOM     26  H   UNL     1      58.740 -19.058   4.900  1.00  0.00     0.211 HD
ENDBRANCH   9  25
BRANCH  23  27
ATOM     27  O   UNL     1      64.392 -22.366   6.999  1.00  0.00    -0.390 OA
ATOM     28  H   UNL     1      63.585 -22.610   7.527  1.00  0.00     0.211 HD
ENDBRANCH  23  27
BRANCH  24  29
ATOM     29  O   UNL     1      66.065 -20.116   7.417  1.00  0.00    -0.390 OA
ATOM     30  H   UNL     1      66.492 -19.904   6.545  1.00  0.00     0.211 HD
ENDBRANCH  24  29
ENDBRANCH   3   5
BRANCH   3  31
ATOM     31  O   UNL     1      61.089 -19.172  -0.622  1.00  0.00    -0.387 OA
ATOM     32  H   UNL     1      61.938 -18.937  -0.175  1.00  0.00     0.211 HD
ENDBRANCH   3  31
ENDBRANCH   2   3
BRANCH   2  33
ATOM     33  O   UNL     1      59.828 -17.418  -2.967  1.00  0.00    -0.390 OA
ATOM     34  H   UNL     1      60.541 -16.793  -2.655  1.00  0.00     0.211 HD
ENDBRANCH   2  33
ENDBRANCH   1   2
BRANCH   1  35
ATOM     35  C   UNL     1      56.632 -18.510  -1.879  1.00  0.00     0.037 C 
BRANCH  35  36
ATOM     36  C   UNL     1      55.664 -18.745  -0.685  1.00  0.00     0.059 C 
ATOM     37  C   UNL     1      55.836 -17.645   0.381  1.00  0.00     0.042 C 
ATOM     38  C   UNL     1      54.213 -18.722  -1.213  1.00  0.00     0.042 C 
BRANCH  36  39
ATOM     39  O   UNL     1      55.933 -20.008  -0.118  1.00  0.00    -0.390 OA
ATOM     40  H   UNL     1      55.640 -20.706  -0.761  1.00  0.00     0.211 HD
ENDBRANCH  36  39
ENDBRANCH  35  36
ENDBRANCH   1  35
TORSDOF 11
ENDMDL
MODEL 2
REMARK VINA RESULT:    -6.405      2.200      4.248
REMARK INTER + INTRA:         -10.069
REMARK INTER:                  -9.005
REMARK INTRA:                  -1.064
REMARK UNBOUND:                -0.669
REMARK SMILES CC(C)(O)CC[C@@H](O)[C@](C)(O)[C@@H]1CC[C@]2(O)C3=CC(=O)[C@H]4C[C@H](O)[C@@H](O)C[C@]4(C)[C@@H]3CC[C@]12C
REMARK SMILES IDX 6 1 7 2 9 3 10 4 12 5 34 6 33 7 32 8 15 9 31 10 17 11 14 12
REMARK SMILES IDX 13 13 30 14 18 15 28 16 19 17 21 18 27 19 29 20 20 21 22 22
REMARK SMILES IDX 25 23 23 24 16 25 26 27 24 29 11 31 8 33 5 35 2 36 1 37 3 38
REMARK SMILES IDX 4 39
REMARK H PARENT 16 26 26 28 24 30 11 32 8 34 4 40
REMARK Flexibility Score: inf
ROOT
ATOM      1  C   UNL     1      58.803 -16.508  -1.672  1.00  0.00     0.038 C 
ENDROOT
BRANCH   1   2
ATOM      2  C   UNL     1      57.242 -16.612  -1.609  1.00  0.00     0.146 C 
BRANCH   2   3
ATOM      3  C   UNL     1      56.547 -16.421  -0.176  1.00  0.00     0.091 C 
ATOM      4  C   UNL     1      55.242 -15.622  -0.458  1.00  0.00     0.045 C 
BRANCH   3   5
ATOM      5  C   UNL     1      56.141 -17.792   0.560  1.00  0.00     0.032 C 
ATOM      6  C   UNL     1      57.630 -19.874   0.079  1.00  0.00     0.015 C 
ATOM      7  C   UNL     1      57.193 -18.834   1.153  1.00  0.00     0.006 C 
ATOM      8  C   UNL     1      58.500 -18.151   1.684  1.00  0.00     0.011 C 
ATOM      9  C   UNL     1      56.400 -19.547   2.356  1.00  0.00     0.092 C 
ATOM     10  C   UNL     1      59.401 -19.096   2.521  1.00  0.00     0.009 C 
ATOM     11  C   UNL     1      57.198 -19.393   3.658  1.00  0.00    -0.031 C 
ATOM     12  C   UNL     1      55.002 -18.895   2.387  1.00  0.00     0.041 C 
ATOM     13  C   UNL     1      55.171 -17.548   1.730  1.00  0.00     0.010 C 
ATOM     14  C   UNL     1      58.613 -19.950   3.563  1.00  0.00     0.025 C 
ATOM     15  C   UNL     1      56.870 -18.537   4.656  1.00  0.00     0.050 C 
ATOM     16  C   UNL     1      59.296 -20.114   4.970  1.00  0.00    -0.013 C 
ATOM     17  C   UNL     1      57.788 -18.253   5.772  1.00  0.00     0.159 C 
ATOM     18  C   UNL     1      59.211 -18.749   5.725  1.00  0.00     0.070 C 
ATOM     19  C   UNL     1      60.792 -20.584   4.833  1.00  0.00     0.042 C 
ATOM     20  C   UNL     1      58.515 -21.214   5.755  1.00  0.00     0.013 C 
ATOM     21  O   UNL     1      57.394 -17.534   6.725  1.00  0.00    -0.295 OA
ATOM     22  C   UNL     1      59.882 -18.805   7.119  1.00  0.00     0.047 C 
ATOM     23  C   UNL     1      61.791 -19.804   5.715  1.00  0.00     0.143 C 
ATOM     24  C   UNL     1      61.219 -19.588   7.137  1.00  0.00     0.143 C 
BRANCH   9  25
ATOM     25  O   UNL     1      56.239 -20.939   2.161  1.00  0.00    -0.385 OA
ATOM     26  H   UNL     1      57.057 -21.412   2.460  1.00  0.00     0.211 HD
ENDBRANCH   9  25
BRANCH  23  27
ATOM     27  O   UNL     1      62.997 -20.524   5.774  1.00  0.00    -0.390 OA
ATOM     28  H   UNL     1      62.766 -21.491   5.727  1.00  0.00     0.211 HD
ENDBRANCH  23  27
BRANCH  24  29
ATOM     29  O   UNL     1      62.142 -18.882   7.921  1.00  0.00    -0.390 OA
ATOM     30  H   UNL     1      62.515 -19.523   8.583  1.00  0.00     0.211 HD
ENDBRANCH  24  29
ENDBRANCH   3   5
BRANCH   3  31
ATOM     31  O   UNL     1      57.270 -15.588   0.703  1.00  0.00    -0.387 OA
ATOM     32  H   UNL     1      56.654 -15.022   1.229  1.00  0.00     0.211 HD
ENDBRANCH   3  31
ENDBRANCH   2   3
BRANCH   2  33
ATOM     33  O   UNL     1      56.755 -17.777  -2.238  1.00  0.00    -0.390 OA
ATOM     34  H   UNL     1      56.104 -18.242  -1.642  1.00  0.00     0.211 HD
ENDBRANCH   2  33
ENDBRANCH   1   2
BRANCH   1  35
ATOM     35  C   UNL     1      59.512 -17.842  -2.023  1.00  0.00     0.037 C 
BRANCH  35  36
ATOM     36  C   UNL     1      61.064 -17.798  -1.944  1.00  0.00     0.059 C 
ATOM     37  C   UNL     1      61.547 -16.414  -1.469  1.00  0.00     0.042 C 
ATOM     38  C   UNL     1      61.539 -18.875  -0.944  1.00  0.00     0.042 C 
BRANCH  36  39
ATOM     39  O   UNL     1      61.597 -18.080  -3.219  1.00  0.00    -0.390 OA
ATOM     40  H   UNL     1      62.456 -18.563  -3.098  1.00  0.00     0.211 HD
ENDBRANCH  36  39
ENDBRANCH  35  36
ENDBRANCH   1  35
TORSDOF 11
ENDMDL
MODEL 3
REMARK VINA RESULT:    -6.347      1.469      2.109
REMARK INTER + INTRA:          -9.984
REMARK INTER:                  -9.463
REMARK INTRA:                  -0.522
REMARK UNBOUND:                -0.669
REMARK SMILES CC(C)(O)CC[C@@H](O)[C@](C)(O)[C@@H]1CC[C@]2(O)C3=CC(=O)[C@H]4C[C@H](O)[C@@H](O)C[C@]4(C)[C@@H]3CC[C@]12C
REMARK SMILES IDX 6 1 7 2 9 3 10 4 12 5 34 6 33 7 32 8 15 9 31 10 17 11 14 12
REMARK SMILES IDX 13 13 30 14 18 15 28 16 19 17 21 18 27 19 29 20 20 21 22 22
REMARK SMILES IDX 25 23 23 24 16 25 26 27 24 29 11 31 8 33 5 35 2 36 1 37 3 38
REMARK SMILES IDX 4 39
REMARK H PARENT 16 26 26 28 24 30 11 32 8 34 4 40
REMARK Flexibility Score: inf
ROOT
ATOM      1  C   UNL     1      58.169 -16.775  -1.860  1.00  0.00     0.038 C 
ENDROOT
BRANCH   1   2
ATOM      2  C   UNL     1      59.208 -17.944  -1.955  1.00  0.00     0.146 C 
BRANCH   2   3
ATOM      3  C   UNL     1      60.181 -18.169  -0.700  1.00  0.00     0.091 C 
ATOM      4  C   UNL     1      61.278 -17.074  -0.832  1.00  0.00     0.045 C 
BRANCH   3   5
ATOM      5  C   UNL     1      59.475 -17.997   0.735  1.00  0.00     0.032 C 
ATOM      6  C   UNL     1      58.725 -20.176   1.949  1.00  0.00     0.015 C 
ATOM      7  C   UNL     1      59.715 -18.973   1.973  1.00  0.00     0.006 C 
ATOM      8  C   UNL     1      61.161 -19.576   2.008  1.00  0.00     0.011 C 
ATOM      9  C   UNL     1      59.460 -18.043   3.259  1.00  0.00     0.092 C 
ATOM     10  C   UNL     1      61.508 -20.286   3.341  1.00  0.00     0.009 C 
ATOM     11  C   UNL     1      60.697 -18.074   4.167  1.00  0.00    -0.031 C 
ATOM     12  C   UNL     1      59.111 -16.644   2.707  1.00  0.00     0.041 C 
ATOM     13  C   UNL     1      59.712 -16.595   1.325  1.00  0.00     0.010 C 
ATOM     14  C   UNL     1      61.081 -19.480   4.608  1.00  0.00     0.025 C 
ATOM     15  C   UNL     1      61.590 -17.060   4.272  1.00  0.00     0.050 C 
ATOM     16  C   UNL     1      62.108 -19.482   5.799  1.00  0.00    -0.013 C 
ATOM     17  C   UNL     1      62.878 -17.226   4.967  1.00  0.00     0.159 C 
ATOM     18  C   UNL     1      63.331 -18.596   5.402  1.00  0.00     0.070 C 
ATOM     19  C   UNL     1      62.571 -20.943   6.158  1.00  0.00     0.042 C 
ATOM     20  C   UNL     1      61.391 -18.884   7.050  1.00  0.00     0.013 C 
ATOM     21  O   UNL     1      63.623 -16.226   5.127  1.00  0.00    -0.295 OA
ATOM     22  C   UNL     1      64.413 -18.555   6.509  1.00  0.00     0.047 C 
ATOM     23  C   UNL     1      64.094 -21.102   6.352  1.00  0.00     0.143 C 
ATOM     24  C   UNL     1      64.670 -19.929   7.180  1.00  0.00     0.143 C 
BRANCH   9  25
ATOM     25  O   UNL     1      58.380 -18.490   4.056  1.00  0.00    -0.385 OA
ATOM     26  H   UNL     1      57.535 -18.096   3.718  1.00  0.00     0.211 HD
ENDBRANCH   9  25
BRANCH  23  27
ATOM     27  O   UNL     1      64.341 -22.327   6.997  1.00  0.00    -0.390 OA
ATOM     28  H   UNL     1      65.288 -22.314   7.302  1.00  0.00     0.211 HD
ENDBRANCH  23  27
BRANCH  24  29
ATOM     29  O   UNL     1      66.052 -20.094   7.347  1.00  0.00    -0.390 OA
ATOM     30  H   UNL     1      66.381 -19.311   7.861  1.00  0.00     0.211 HD
ENDBRANCH  24  29
ENDBRANCH   3   5
BRANCH   3  31
ATOM     31  O   UNL     1      60.904 -19.380  -0.748  1.00  0.00    -0.387 OA
ATOM     32  H   UNL     1      61.815 -19.225  -1.096  1.00  0.00     0.211 HD
ENDBRANCH   3  31
ENDBRANCH   2   3
BRANCH   2  33
ATOM     33  O   UNL     1      59.954 -17.904  -3.152  1.00  0.00    -0.390 OA
ATOM     34  H   UNL     1      60.585 -17.131  -3.137  1.00  0.00     0.211 HD
ENDBRANCH   2  33
ENDBRANCH   1   2
BRANCH   1  35
ATOM     35  C   UNL     1      58.481 -15.576  -2.793  1.00  0.00     0.037 C 
BRANCH  35  36
ATOM     36  C   UNL     1      57.730 -15.595  -4.154  1.00  0.00     0.059 C 
ATOM     37  C   UNL     1      56.423 -16.404  -4.046  1.00  0.00     0.042 C 
ATOM     38  C   UNL     1      57.401 -14.142  -4.558  1.00  0.00     0.042 C 
BRANCH  36  39
ATOM     39  O   UNL     1      58.569 -16.170  -5.132  1.00  0.00    -0.390 OA
ATOM     40  H   UNL     1      58.220 -15.921  -6.028  1.00  0.00     0.211 HD
ENDBRANCH  36  39
ENDBRANCH  35  36
ENDBRANCH   1  35
TORSDOF 11
ENDMDL
MODEL 4
REMARK VINA RESULT:    -6.295      4.011     10.333
REMARK INTER + INTRA:          -9.908
REMARK INTER:                  -9.166
REMARK INTRA:                  -0.742
REMARK UNBOUND:                -0.669
REMARK SMILES CC(C)(O)CC[C@@H](O)[C@](C)(O)[C@@H]1CC[C@]2(O)C3=CC(=O)[C@H]4C[C@H](O)[C@@H](O)C[C@]4(C)[C@@H]3CC[C@]12C
REMARK SMILES IDX 6 1 7 2 9 3 10 4 12 5 34 6 33 7 32 8 15 9 31 10 17 11 14 12
REMARK SMILES IDX 13 13 30 14 18 15 28 16 19 17 21 18 27 19 29 20 20 21 22 22
REMARK SMILES IDX 25 23 23 24 16 25 26 27 24 29 11 31 8 33 5 35 2 36 1 37 3 38
REMARK SMILES IDX 4 39
REMARK H PARENT 16 26 26 28 24 30 11 32 8 34 4 40
REMARK Flexibility Score: inf
ROOT
ATOM      1  C   UNL     1      58.550 -20.126   0.629  1.00  0.00     0.038 C 
ENDROOT
BRANCH   1   2
ATOM      2  C   UNL     1      57.002 -19.991   0.432  1.00  0.00     0.146 C 
BRANCH   2   3
ATOM      3  C   UNL     1      56.412 -18.516   0.214  1.00  0.00     0.091 C 
ATOM      4  C   UNL     1      55.757 -18.133   1.573  1.00  0.00     0.045 C 
BRANCH   3   5
ATOM      5  C   UNL     1      57.513 -17.399  -0.141  1.00  0.00     0.032 C 
ATOM      6  C   UNL     1      59.179 -17.954  -2.063  1.00  0.00     0.015 C 
ATOM      7  C   UNL     1      57.989 -17.051  -1.622  1.00  0.00     0.006 C 
ATOM      8  C   UNL     1      56.857 -17.236  -2.690  1.00  0.00     0.011 C 
ATOM      9  C   UNL     1      58.438 -15.510  -1.537  1.00  0.00     0.092 C 
ATOM     10  C   UNL     1      57.203 -16.633  -4.076  1.00  0.00     0.009 C 
ATOM     11  C   UNL     1      57.658 -14.691  -2.574  1.00  0.00    -0.031 C 
ATOM     12  C   UNL     1      58.195 -15.079  -0.074  1.00  0.00     0.041 C 
ATOM     13  C   UNL     1      57.150 -16.028   0.457  1.00  0.00     0.010 C 
ATOM     14  C   UNL     1      57.832 -15.207  -3.997  1.00  0.00     0.025 C 
ATOM     15  C   UNL     1      56.632 -13.858  -2.274  1.00  0.00     0.050 C 
ATOM     16  C   UNL     1      57.334 -14.179  -5.079  1.00  0.00    -0.013 C 
ATOM     17  C   UNL     1      55.766 -13.281  -3.315  1.00  0.00     0.159 C 
ATOM     18  C   UNL     1      55.866 -13.770  -4.738  1.00  0.00     0.070 C 
ATOM     19  C   UNL     1      57.422 -14.783  -6.530  1.00  0.00     0.042 C 
ATOM     20  C   UNL     1      58.270 -12.932  -5.019  1.00  0.00     0.013 C 
ATOM     21  O   UNL     1      54.896 -12.432  -2.991  1.00  0.00    -0.295 OA
ATOM     22  C   UNL     1      55.279 -12.773  -5.766  1.00  0.00     0.047 C 
ATOM     23  C   UNL     1      56.164 -14.555  -7.395  1.00  0.00     0.143 C 
ATOM     24  C   UNL     1      55.640 -13.108  -7.235  1.00  0.00     0.143 C 
BRANCH   9  25
ATOM     25  O   UNL     1      59.807 -15.317  -1.837  1.00  0.00    -0.385 OA
ATOM     26  H   UNL     1      60.074 -15.928  -2.570  1.00  0.00     0.211 HD
ENDBRANCH   9  25
BRANCH  23  27
ATOM     27  O   UNL     1      56.487 -14.816  -8.739  1.00  0.00    -0.390 OA
ATOM     28  H   UNL     1      55.631 -14.858  -9.244  1.00  0.00     0.211 HD
ENDBRANCH  23  27
BRANCH  24  29
ATOM     29  O   UNL     1      54.500 -12.921  -8.031  1.00  0.00    -0.390 OA
ATOM     30  H   UNL     1      53.711 -13.145  -7.470  1.00  0.00     0.211 HD
ENDBRANCH  24  29
ENDBRANCH   3   5
BRANCH   3  31
ATOM     31  O   UNL     1      55.342 -18.458  -0.704  1.00  0.00    -0.387 OA
ATOM     32  H   UNL     1      55.650 -18.704  -1.610  1.00  0.00     0.211 HD
ENDBRANCH   3  31
ENDBRANCH   2   3
BRANCH   2  33
ATOM     33  O   UNL     1      56.272 -20.668   1.431  1.00  0.00    -0.390 OA
ATOM     34  H   UNL     1      56.114 -20.063   2.209  1.00  0.00     0.211 HD
ENDBRANCH   2  33
ENDBRANCH   1   2
BRANCH   1  35
ATOM     35  C   UNL     1      59.033 -19.807   2.068  1.00  0.00     0.037 C 
BRANCH  35  36
ATOM     36  C   UNL     1      60.441 -19.154   2.154  1.00  0.00     0.059 C 
ATOM     37  C   UNL     1      60.325 -17.635   2.384  1.00  0.00     0.042 C 
ATOM     38  C   UNL     1      61.212 -19.792   3.331  1.00  0.00     0.042 C 
BRANCH  36  39
ATOM     39  O   UNL     1      61.137 -19.405   0.953  1.00  0.00    -0.390 OA
ATOM     40  H   UNL     1      60.472 -19.616   0.246  1.00  0.00     0.211 HD
ENDBRANCH  36  39
ENDBRANCH  35  36
ENDBRANCH   1  35
TORSDOF 11
ENDMDL
MODEL 5
REMARK VINA RESULT:    -6.145      3.695      7.024
REMARK INTER + INTRA:          -9.688
REMARK INTER:                  -8.992
REMARK INTRA:                  -0.696
REMARK UNBOUND:                -0.669
REMARK SMILES CC(C)(O)CC[C@@H](O)[C@](C)(O)[C@@H]1CC[C@]2(O)C3=CC(=O)[C@H]4C[C@H](O)[C@@H](O)C[C@]4(C)[C@@H]3CC[C@]12C
REMARK SMILES IDX 6 1 7 2 9 3 10 4 12 5 34 6 33 7 32 8 15 9 31 10 17 11 14 12
REMARK SMILES IDX 13 13 30 14 18 15 28 16 19 17 21 18 27 19 29 20 20 21 22 22
REMARK SMILES IDX 25 23 23 24 16 25 26 27 24 29 11 31 8 33 5 35 2 36 1 37 3 38
REMARK SMILES IDX 4 39
REMARK H PARENT 16 26 26 28 24 30 11 32 8 34 4 40
REMARK Flexibility Score: inf
ROOT
ATOM      1  C   UNL     1      55.554 -14.999  -5.374  1.00  0.00     0.038 C 
ENDROOT
BRANCH   1   2
ATOM      2  C   UNL     1      55.737 -14.543  -3.887  1.00  0.00     0.146 C 
BRANCH   2   3
ATOM      3  C   UNL     1      54.468 -14.675  -2.915  1.00  0.00     0.091 C 
ATOM      4  C   UNL     1      53.251 -14.211  -3.766  1.00  0.00     0.045 C 
BRANCH   3   5
ATOM      5  C   UNL     1      54.173 -16.168  -2.397  1.00  0.00     0.032 C 
ATOM      6  C   UNL     1      55.478 -18.099  -3.559  1.00  0.00     0.015 C 
ATOM      7  C   UNL     1      55.288 -17.297  -2.237  1.00  0.00     0.006 C 
ATOM      8  C   UNL     1      56.693 -16.721  -1.849  1.00  0.00     0.011 C 
ATOM      9  C   UNL     1      54.723 -18.242  -1.067  1.00  0.00     0.092 C 
ATOM     10  C   UNL     1      57.710 -17.804  -1.408  1.00  0.00     0.009 C 
ATOM     11  C   UNL     1      55.762 -18.342   0.059  1.00  0.00    -0.031 C 
ATOM     12  C   UNL     1      53.377 -17.622  -0.635  1.00  0.00     0.041 C 
ATOM     13  C   UNL     1      53.455 -16.171  -1.035  1.00  0.00     0.010 C 
ATOM     14  C   UNL     1      57.114 -18.855  -0.420  1.00  0.00     0.025 C 
ATOM     15  C   UNL     1      55.660 -17.704   1.250  1.00  0.00     0.050 C 
ATOM     16  C   UNL     1      58.052 -19.288   0.767  1.00  0.00    -0.013 C 
ATOM     17  C   UNL     1      56.785 -17.638   2.197  1.00  0.00     0.159 C 
ATOM     18  C   UNL     1      58.156 -18.101   1.776  1.00  0.00     0.070 C 
ATOM     19  C   UNL     1      59.479 -19.707   0.250  1.00  0.00     0.042 C 
ATOM     20  C   UNL     1      57.406 -20.530   1.458  1.00  0.00     0.013 C 
ATOM     21  O   UNL     1      56.604 -17.125   3.332  1.00  0.00    -0.295 OA
ATOM     22  C   UNL     1      59.082 -18.426   2.973  1.00  0.00     0.047 C 
ATOM     23  C   UNL     1      60.652 -19.109   1.055  1.00  0.00     0.143 C 
ATOM     24  C   UNL     1      60.373 -19.184   2.575  1.00  0.00     0.143 C 
BRANCH   9  25
ATOM     25  O   UNL     1      54.485 -19.569  -1.495  1.00  0.00    -0.385 OA
ATOM     26  H   UNL     1      54.870 -20.203  -0.837  1.00  0.00     0.211 HD
ENDBRANCH   9  25
BRANCH  23  27
ATOM     27  O   UNL     1      61.825 -19.814   0.733  1.00  0.00    -0.390 OA
ATOM     28  H   UNL     1      61.641 -20.779   0.891  1.00  0.00     0.211 HD
ENDBRANCH  23  27
BRANCH  24  29
ATOM     29  O   UNL     1      61.452 -18.639   3.286  1.00  0.00    -0.390 OA
ATOM     30  H   UNL     1      61.797 -19.352   3.887  1.00  0.00     0.211 HD
ENDBRANCH  24  29
ENDBRANCH   3   5
BRANCH   3  31
ATOM     31  O   UNL     1      54.485 -13.774  -1.829  1.00  0.00    -0.387 OA
ATOM     32  H   UNL     1      54.362 -12.847  -2.147  1.00  0.00     0.211 HD
ENDBRANCH   3  31
ENDBRANCH   2   3
BRANCH   2  33
ATOM     33  O   UNL     1      56.300 -13.254  -3.786  1.00  0.00    -0.390 OA
ATOM     34  H   UNL     1      56.815 -13.171  -2.935  1.00  0.00     0.211 HD
ENDBRANCH   2  33
ENDBRANCH   1   2
BRANCH   1  35
ATOM     35  C   UNL     1      55.642 -13.842  -6.405  1.00  0.00     0.037 C 
BRANCH  35  36
ATOM     36  C   UNL     1      56.996 -13.745  -7.163  1.00  0.00     0.059 C 
ATOM     37  C   UNL     1      57.746 -15.090  -7.115  1.00  0.00     0.042 C 
ATOM     38  C   UNL     1      56.712 -13.370  -8.634  1.00  0.00     0.042 C 
BRANCH  36  39
ATOM     39  O   UNL     1      57.782 -12.736  -6.569  1.00  0.00    -0.390 OA
ATOM     40  H   UNL     1      57.177 -12.014  -6.255  1.00  0.00     0.211 HD
ENDBRANCH  36  39
ENDBRANCH  35  36
ENDBRANCH   1  35
TORSDOF 11
ENDMDL
MODEL 6
REMARK VINA RESULT:    -6.018      3.275      7.534
REMARK INTER + INTRA:          -9.502
REMARK INTER:                  -8.319
REMARK INTRA:                  -1.182
REMARK UNBOUND:                -0.669
REMARK SMILES CC(C)(O)CC[C@@H](O)[C@](C)(O)[C@@H]1CC[C@]2(O)C3=CC(=O)[C@H]4C[C@H](O)[C@@H](O)C[C@]4(C)[C@@H]3CC[C@]12C
REMARK SMILES IDX 6 1 7 2 9 3 10 4 12 5 34 6 33 7 32 8 15 9 31 10 17 11 14 12
REMARK SMILES IDX 13 13 30 14 18 15 28 16 19 17 21 18 27 19 29 20 20 21 22 22
REMARK SMILES IDX 25 23 23 24 16 25 26 27 24 29 11 31 8 33 5 35 2 36 1 37 3 38
REMARK SMILES IDX 4 39
REMARK H PARENT 16 26 26 28 24 30 11 32 8 34 4 40
REMARK Flexibility Score: inf
ROOT
ATOM      1  C   UNL     1      58.248 -19.943   2.875  1.00  0.00     0.038 C 
ENDROOT
BRANCH   1   2
ATOM      2  C   UNL     1      56.799 -20.397   2.491  1.00  0.00     0.146 C 
BRANCH   2   3
ATOM      3  C   UNL     1      55.660 -19.269   2.449  1.00  0.00     0.091 C 
ATOM      4  C   UNL     1      56.130 -18.176   3.451  1.00  0.00     0.045 C 
BRANCH   3   5
ATOM      5  C   UNL     1      55.459 -18.573   1.013  1.00  0.00     0.032 C 
ATOM      6  C   UNL     1      54.952 -16.019   1.000  1.00  0.00     0.015 C 
ATOM      7  C   UNL     1      55.994 -17.118   0.640  1.00  0.00     0.006 C 
ATOM      8  C   UNL     1      57.324 -16.745   1.383  1.00  0.00     0.011 C 
ATOM      9  C   UNL     1      56.235 -17.185  -0.947  1.00  0.00     0.092 C 
ATOM     10  C   UNL     1      58.013 -15.474   0.825  1.00  0.00     0.009 C 
ATOM     11  C   UNL     1      57.688 -16.804  -1.262  1.00  0.00    -0.031 C 
ATOM     12  C   UNL     1      55.847 -18.617  -1.374  1.00  0.00     0.041 C 
ATOM     13  C   UNL     1      55.984 -19.459  -0.131  1.00  0.00     0.010 C 
ATOM     14  C   UNL     1      58.074 -15.428  -0.734  1.00  0.00     0.025 C 
ATOM     15  C   UNL     1      58.650 -17.692  -1.615  1.00  0.00     0.050 C 
ATOM     16  C   UNL     1      59.420 -14.898  -1.351  1.00  0.00    -0.013 C 
ATOM     17  C   UNL     1      60.072 -17.316  -1.674  1.00  0.00     0.159 C 
ATOM     18  C   UNL     1      60.525 -15.981  -1.139  1.00  0.00     0.070 C 
ATOM     19  C   UNL     1      59.850 -13.529  -0.704  1.00  0.00     0.042 C 
ATOM     20  C   UNL     1      59.185 -14.658  -2.875  1.00  0.00     0.013 C 
ATOM     21  O   UNL     1      60.910 -18.148  -2.108  1.00  0.00    -0.295 OA
ATOM     22  C   UNL     1      61.899 -15.538  -1.696  1.00  0.00     0.047 C 
ATOM     23  C   UNL     1      61.338 -13.451  -0.301  1.00  0.00     0.143 C 
ATOM     24  C   UNL     1      62.240 -14.054  -1.405  1.00  0.00     0.143 C 
BRANCH   9  25
ATOM     25  O   UNL     1      55.428 -16.272  -1.667  1.00  0.00    -0.385 OA
ATOM     26  H   UNL     1      54.472 -16.480  -1.508  1.00  0.00     0.211 HD
ENDBRANCH   9  25
BRANCH  23  27
ATOM     27  O   UNL     1      61.673 -12.104  -0.073  1.00  0.00    -0.390 OA
ATOM     28  H   UNL     1      62.625 -12.083   0.219  1.00  0.00     0.211 HD
ENDBRANCH  23  27
BRANCH  24  29
ATOM     29  O   UNL     1      63.586 -13.970  -1.021  1.00  0.00    -0.390 OA
ATOM     30  H   UNL     1      64.082 -13.560  -1.778  1.00  0.00     0.211 HD
ENDBRANCH  24  29
ENDBRANCH   3   5
BRANCH   3  31
ATOM     31  O   UNL     1      54.418 -19.691   2.967  1.00  0.00    -0.387 OA
ATOM     32  H   UNL     1      53.933 -20.236   2.302  1.00  0.00     0.211 HD
ENDBRANCH   3  31
ENDBRANCH   2   3
BRANCH   2  33
ATOM     33  O   UNL     1      56.364 -21.503   3.250  1.00  0.00    -0.390 OA
ATOM     34  H   UNL     1      56.678 -22.352   2.830  1.00  0.00     0.211 HD
ENDBRANCH   2  33
ENDBRANCH   1   2
BRANCH   1  35
ATOM     35  C   UNL     1      59.214 -19.828   1.666  1.00  0.00     0.037 C 
BRANCH  35  36
ATOM     36  C   UNL     1      60.598 -19.200   1.996  1.00  0.00     0.059 C 
ATOM     37  C   UNL     1      60.428 -17.831   2.682  1.00  0.00     0.042 C 
ATOM     38  C   UNL     1      61.362 -20.154   2.940  1.00  0.00     0.042 C 
BRANCH  36  39
ATOM     39  O   UNL     1      61.329 -19.049   0.798  1.00  0.00    -0.390 OA
ATOM     40  H   UNL     1      62.215 -19.481   0.917  1.00  0.00     0.211 HD
ENDBRANCH  36  39
ENDBRANCH  35  36
ENDBRANCH   1  35
TORSDOF 11
ENDMDL
MODEL 7
REMARK VINA RESULT:    -6.008      4.900      8.642
REMARK INTER + INTRA:          -9.486
REMARK INTER:                  -8.742
REMARK INTRA:                  -0.744
REMARK UNBOUND:                -0.669
REMARK SMILES CC(C)(O)CC[C@@H](O)[C@](C)(O)[C@@H]1CC[C@]2(O)C3=CC(=O)[C@H]4C[C@H](O)[C@@H](O)C[C@]4(C)[C@@H]3CC[C@]12C
REMARK SMILES IDX 6 1 7 2 9 3 10 4 12 5 34 6 33 7 32 8 15 9 31 10 17 11 14 12
REMARK SMILES IDX 13 13 30 14 18 15 28 16 19 17 21 18 27 19 29 20 20 21 22 22
REMARK SMILES IDX 25 23 23 24 16 25 26 27 24 29 11 31 8 33 5 35 2 36 1 37 3 38
REMARK SMILES IDX 4 39
REMARK H PARENT 16 26 26 28 24 30 11 32 8 34 4 40
REMARK Flexibility Score: inf
ROOT
ATOM      1  C   UNL     1      58.448 -17.601  -1.006  1.00  0.00     0.038 C 
ENDROOT
BRANCH   1   2
ATOM      2  C   UNL     1      59.234 -17.131  -2.277  1.00  0.00     0.146 C 
BRANCH   2   3
ATOM      3  C   UNL     1      58.502 -16.089  -3.252  1.00  0.00     0.091 C 
ATOM      4  C   UNL     1      56.980 -16.305  -3.013  1.00  0.00     0.045 C 
BRANCH   3   5
ATOM      5  C   UNL     1      58.839 -14.544  -2.956  1.00  0.00     0.032 C 
ATOM      6  C   UNL     1      59.803 -13.977  -0.605  1.00  0.00     0.015 C 
ATOM      7  C   UNL     1      60.109 -14.048  -2.130  1.00  0.00     0.006 C 
ATOM      8  C   UNL     1      61.356 -14.983  -2.301  1.00  0.00     0.011 C 
ATOM      9  C   UNL     1      60.415 -12.586  -2.724  1.00  0.00     0.092 C 
ATOM     10  C   UNL     1      62.671 -14.373  -1.752  1.00  0.00     0.009 C 
ATOM     11  C   UNL     1      61.863 -12.530  -3.229  1.00  0.00    -0.031 C 
ATOM     12  C   UNL     1      59.351 -12.342  -3.816  1.00  0.00     0.041 C 
ATOM     13  C   UNL     1      58.898 -13.713  -4.250  1.00  0.00     0.010 C 
ATOM     14  C   UNL     1      62.885 -12.881  -2.155  1.00  0.00     0.025 C 
ATOM     15  C   UNL     1      62.216 -12.554  -4.537  1.00  0.00     0.050 C 
ATOM     16  C   UNL     1      64.352 -12.485  -2.563  1.00  0.00    -0.013 C 
ATOM     17  C   UNL     1      63.613 -12.738  -4.964  1.00  0.00     0.159 C 
ATOM     18  C   UNL     1      64.668 -13.116  -3.956  1.00  0.00     0.070 C 
ATOM     19  C   UNL     1      65.397 -12.960  -1.486  1.00  0.00     0.042 C 
ATOM     20  C   UNL     1      64.421 -10.928  -2.647  1.00  0.00     0.013 C 
ATOM     21  O   UNL     1      63.900 -12.646  -6.186  1.00  0.00    -0.295 OA
ATOM     22  C   UNL     1      66.106 -12.800  -4.434  1.00  0.00     0.047 C 
ATOM     23  C   UNL     1      66.647 -13.654  -2.069  1.00  0.00     0.143 C 
ATOM     24  C   UNL     1      67.170 -12.894  -3.311  1.00  0.00     0.143 C 
BRANCH   9  25
ATOM     25  O   UNL     1      60.300 -11.562  -1.754  1.00  0.00    -0.385 OA
ATOM     26  H   UNL     1      59.662 -11.844  -1.050  1.00  0.00     0.211 HD
ENDBRANCH   9  25
BRANCH  23  27
ATOM     27  O   UNL     1      67.637 -13.711  -1.072  1.00  0.00    -0.390 OA
ATOM     28  H   UNL     1      68.483 -13.994  -1.514  1.00  0.00     0.211 HD
ENDBRANCH  23  27
BRANCH  24  29
ATOM     29  O   UNL     1      68.306 -13.538  -3.822  1.00  0.00    -0.390 OA
ATOM     30  H   UNL     1      69.100 -13.049  -3.480  1.00  0.00     0.211 HD
ENDBRANCH  24  29
ENDBRANCH   3   5
BRANCH   3  31
ATOM     31  O   UNL     1      58.673 -16.373  -4.623  1.00  0.00    -0.387 OA
ATOM     32  H   UNL     1      58.231 -17.225  -4.858  1.00  0.00     0.211 HD
ENDBRANCH   3  31
ENDBRANCH   2   3
BRANCH   2  33
ATOM     33  O   UNL     1      59.753 -18.214  -3.018  1.00  0.00    -0.390 OA
ATOM     34  H   UNL     1      59.453 -18.154  -3.968  1.00  0.00     0.211 HD
ENDBRANCH   2  33
ENDBRANCH   1   2
BRANCH   1  35
ATOM     35  C   UNL     1      59.337 -17.787   0.252  1.00  0.00     0.037 C 
BRANCH  35  36
ATOM     36  C   UNL     1      59.777 -19.252   0.530  1.00  0.00     0.059 C 
ATOM     37  C   UNL     1      61.212 -19.496   0.027  1.00  0.00     0.042 C 
ATOM     38  C   UNL     1      59.718 -19.506   2.052  1.00  0.00     0.042 C 
BRANCH  36  39
ATOM     39  O   UNL     1      58.885 -20.129  -0.123  1.00  0.00    -0.390 OA
ATOM     40  H   UNL     1      59.362 -20.981  -0.305  1.00  0.00     0.211 HD
ENDBRANCH  36  39
ENDBRANCH  35  36
ENDBRANCH   1  35
TORSDOF 11
ENDMDL
MODEL 8
REMARK VINA RESULT:    -5.884      3.375      5.625
REMARK INTER + INTRA:          -9.304
REMARK INTER:                  -8.486
REMARK INTRA:                  -0.818
REMARK UNBOUND:                -0.669
REMARK SMILES CC(C)(O)CC[C@@H](O)[C@](C)(O)[C@@H]1CC[C@]2(O)C3=CC(=O)[C@H]4C[C@H](O)[C@@H](O)C[C@]4(C)[C@@H]3CC[C@]12C
REMARK SMILES IDX 6 1 7 2 9 3 10 4 12 5 34 6 33 7 32 8 15 9 31 10 17 11 14 12
REMARK SMILES IDX 13 13 30 14 18 15 28 16 19 17 21 18 27 19 29 20 20 21 22 22
REMARK SMILES IDX 25 23 23 24 16 25 26 27 24 29 11 31 8 33 5 35 2 36 1 37 3 38
REMARK SMILES IDX 4 39
REMARK H PARENT 16 26 26 28 24 30 11 32 8 34 4 40
REMARK Flexibility Score: inf
ROOT
ATOM      1  C   UNL     1      58.501 -14.086  -5.377  1.00  0.00     0.038 C 
ENDROOT
BRANCH   1   2
ATOM      2  C   UNL     1      58.958 -13.351  -4.071  1.00  0.00     0.146 C 
BRANCH   2   3
ATOM      3  C   UNL     1      59.400 -14.262  -2.829  1.00  0.00     0.091 C 
ATOM      4  C   UNL     1      59.091 -13.409  -1.565  1.00  0.00     0.045 C 
BRANCH   3   5
ATOM      5  C   UNL     1      58.602 -15.652  -2.698  1.00  0.00     0.032 C 
ATOM      6  C   UNL     1      59.999 -17.839  -2.908  1.00  0.00     0.015 C 
ATOM      7  C   UNL     1      59.165 -16.941  -1.947  1.00  0.00     0.006 C 
ATOM      8  C   UNL     1      60.093 -16.587  -0.735  1.00  0.00     0.011 C 
ATOM      9  C   UNL     1      57.846 -17.707  -1.443  1.00  0.00     0.092 C 
ATOM     10  C   UNL     1      60.413 -17.799   0.179  1.00  0.00     0.009 C 
ATOM     11  C   UNL     1      57.921 -17.914   0.076  1.00  0.00    -0.031 C 
ATOM     12  C   UNL     1      56.652 -16.846  -1.908  1.00  0.00     0.041 C 
ATOM     13  C   UNL     1      57.204 -15.454  -2.084  1.00  0.00     0.010 C 
ATOM     14  C   UNL     1      59.167 -18.675   0.515  1.00  0.00     0.025 C 
ATOM     15  C   UNL     1      57.208 -17.200   0.980  1.00  0.00     0.050 C 
ATOM     16  C   UNL     1      59.071 -19.189   1.998  1.00  0.00    -0.013 C 
ATOM     17  C   UNL     1      57.488 -17.268   2.423  1.00  0.00     0.159 C 
ATOM     18  C   UNL     1      58.720 -17.979   2.922  1.00  0.00     0.070 C 
ATOM     19  C   UNL     1      60.413 -19.872   2.459  1.00  0.00     0.042 C 
ATOM     20  C   UNL     1      57.939 -20.262   2.060  1.00  0.00     0.013 C 
ATOM     21  O   UNL     1      56.728 -16.668   3.226  1.00  0.00    -0.295 OA
ATOM     22  C   UNL     1      58.627 -18.385   4.413  1.00  0.00     0.047 C 
ATOM     23  C   UNL     1      60.908 -19.433   3.853  1.00  0.00     0.143 C 
ATOM     24  C   UNL     1      59.735 -19.372   4.861  1.00  0.00     0.143 C 
BRANCH   9  25
ATOM     25  O   UNL     1      57.709 -18.998  -2.005  1.00  0.00    -0.385 OA
ATOM     26  H   UNL     1      57.093 -18.957  -2.782  1.00  0.00     0.211 HD
ENDBRANCH   9  25
BRANCH  23  27
ATOM     27  O   UNL     1      61.886 -20.343   4.291  1.00  0.00    -0.390 OA
ATOM     28  H   UNL     1      61.518 -20.810   5.089  1.00  0.00     0.211 HD
ENDBRANCH  23  27
BRANCH  24  29
ATOM     29  O   UNL     1      60.207 -18.975   6.120  1.00  0.00    -0.390 OA
ATOM     30  H   UNL     1      59.472 -19.129   6.771  1.00  0.00     0.211 HD
ENDBRANCH  24  29
ENDBRANCH   3   5
BRANCH   3  31
ATOM     31  O   UNL     1      60.791 -14.488  -2.752  1.00  0.00    -0.387 OA
ATOM     32  H   UNL     1      61.277 -13.854  -3.333  1.00  0.00     0.211 HD
ENDBRANCH   3  31
ENDBRANCH   2   3
BRANCH   2  33
ATOM     33  O   UNL     1      58.033 -12.370  -3.655  1.00  0.00    -0.390 OA
ATOM     34  H   UNL     1      57.108 -12.638  -3.916  1.00  0.00     0.211 HD
ENDBRANCH   2  33
ENDBRANCH   1   2
BRANCH   1  35
ATOM     35  C   UNL     1      57.489 -13.280  -6.234  1.00  0.00     0.037 C 
BRANCH  35  36
ATOM     36  C   UNL     1      56.103 -13.960  -6.417  1.00  0.00     0.059 C 
ATOM     37  C   UNL     1      56.030 -15.277  -5.621  1.00  0.00     0.042 C 
ATOM     38  C   UNL     1      55.009 -12.995  -5.910  1.00  0.00     0.042 C 
BRANCH  36  39
ATOM     39  O   UNL     1      55.896 -14.217  -7.789  1.00  0.00    -0.390 OA
ATOM     40  H   UNL     1      55.366 -13.468  -8.170  1.00  0.00     0.211 HD
ENDBRANCH  36  39
ENDBRANCH  35  36
ENDBRANCH   1  35
TORSDOF 11
ENDMDL
