MODEL 1
REMARK VINA RESULT:    -3.704      0.000      0.000
REMARK INTER + INTRA:          -8.000
REMARK INTER:                  -6.303
REMARK INTRA:                  -1.697
REMARK UNBOUND:                -1.697
REMARK SMILES CCCCCCCCCCCCCC(=O)[O-]
REMARK SMILES IDX 8 1 9 2 10 3 11 4 12 5 13 6 14 7 15 8 16 9 7 10 6 11 5 12
REMARK SMILES IDX 4 13 3 14 2 15 1 16
REMARK H PARENT
REMARK Flexibility Score: inf
ROOT
ATOM      1  C   UNL     1      22.767  34.800  11.812  1.00  0.00     0.000 C 
ENDROOT
BRANCH   1   2
ATOM      2  C   UNL     1      22.842  34.286  13.254  1.00  0.00     0.000 C 
BRANCH   2   3
ATOM      3  C   UNL     1      22.199  35.280  14.228  1.00  0.00     0.000 C 
BRANCH   3   4
ATOM      4  C   UNL     1      23.114  35.543  15.433  1.00  0.00     0.000 C 
BRANCH   4   5
ATOM      5  C   UNL     1      23.567  37.010  15.538  1.00  0.00     0.006 C 
BRANCH   5   6
ATOM      6  C   UNL     1      24.376  37.503  14.326  1.00  0.00     0.053 C 
BRANCH   6   7
ATOM      7  C   UNL     1      24.327  38.993  14.169  1.00  0.00     0.041 C 
ATOM      8  O   UNL     1      23.798  39.506  13.148  1.00  0.00    -0.550 OA
ATOM      9  O   UNL     1      24.897  39.816  15.133  1.00  0.00    -0.550 OA
ENDBRANCH   6   7
ENDBRANCH   5   6
ENDBRANCH   4   5
ENDBRANCH   3   4
ENDBRANCH   2   3
ENDBRANCH   1   2
BRANCH   1  10
ATOM     10  C   UNL     1      23.598  33.921  10.869  1.00  0.00     0.000 C 
BRANCH  10  11
ATOM     11  C   UNL     1      23.991  32.604  11.548  1.00  0.00    -0.000 C 
BRANCH  11  12
ATOM     12  C   UNL     1      25.399  32.165  11.128  1.00  0.00    -0.000 C 
BRANCH  12  13
ATOM     13  C   UNL     1      26.406  32.385  12.266  1.00  0.00    -0.000 C 
BRANCH  13  14
ATOM     14  C   UNL     1      26.959  33.821  12.308  1.00  0.00    -0.000 C 
BRANCH  14  15
ATOM     15  C   UNL     1      26.541  34.639  13.543  1.00  0.00    -0.003 C 
ATOM     16  C   UNL     1      26.267  33.772  14.771  1.00  0.00     0.004 C 
ENDBRANCH  14  15
ENDBRANCH  13  14
ENDBRANCH  12  13
ENDBRANCH  11  12
ENDBRANCH  10  11
ENDBRANCH   1  10
TORSDOF 12
ENDMDL
MODEL 2
REMARK VINA RESULT:    -3.599      0.859      2.904
REMARK INTER + INTRA:          -7.821
REMARK INTER:                  -6.023
REMARK INTRA:                  -1.798
REMARK UNBOUND:                -1.697
REMARK SMILES CCCCCCCCCCCCCC(=O)[O-]
REMARK SMILES IDX 8 1 9 2 10 3 11 4 12 5 13 6 14 7 15 8 16 9 7 10 6 11 5 12
REMARK SMILES IDX 4 13 3 14 2 15 1 16
REMARK H PARENT
REMARK Flexibility Score: inf
ROOT
ATOM      1  C   UNL     1      26.318  34.686  13.472  1.00  0.00     0.000 C 
ENDROOT
BRANCH   1   2
ATOM      2  C   UNL     1      25.997  33.853  14.719  1.00  0.00     0.000 C 
BRANCH   2   3
ATOM      3  C   UNL     1      25.277  34.699  15.776  1.00  0.00     0.000 C 
BRANCH   3   4
ATOM      4  C   UNL     1      25.087  36.143  15.291  1.00  0.00     0.000 C 
BRANCH   4   5
ATOM      5  C   UNL     1      23.944  36.878  16.015  1.00  0.00     0.006 C 
BRANCH   5   6
ATOM      6  C   UNL     1      23.178  37.873  15.126  1.00  0.00     0.053 C 
BRANCH   6   7
ATOM      7  C   UNL     1      24.072  38.921  14.533  1.00  0.00     0.041 C 
ATOM      8  O   UNL     1      24.837  39.593  15.273  1.00  0.00    -0.550 OA
ATOM      9  O   UNL     1      24.035  39.181  13.169  1.00  0.00    -0.550 OA
ENDBRANCH   6   7
ENDBRANCH   5   6
ENDBRANCH   4   5
ENDBRANCH   3   4
ENDBRANCH   2   3
ENDBRANCH   1   2
BRANCH   1  10
ATOM     10  C   UNL     1      26.988  33.826  12.393  1.00  0.00     0.000 C 
BRANCH  10  11
ATOM     11  C   UNL     1      26.063  32.690  11.941  1.00  0.00    -0.000 C 
BRANCH  11  12
ATOM     12  C   UNL     1      25.088  33.169  10.859  1.00  0.00    -0.000 C 
BRANCH  12  13
ATOM     13  C   UNL     1      23.641  33.143  11.372  1.00  0.00    -0.000 C 
BRANCH  13  14
ATOM     14  C   UNL     1      23.008  34.545  11.450  1.00  0.00    -0.000 C 
BRANCH  14  15
ATOM     15  C   UNL     1      22.667  35.022  12.873  1.00  0.00    -0.003 C 
ATOM     16  C   UNL     1      22.326  33.876  13.824  1.00  0.00     0.004 C 
ENDBRANCH  14  15
ENDBRANCH  13  14
ENDBRANCH  12  13
ENDBRANCH  11  12
ENDBRANCH  10  11
ENDBRANCH   1  10
TORSDOF 12
ENDMDL
MODEL 3
REMARK VINA RESULT:    -3.595      2.355      5.076
REMARK INTER + INTRA:          -7.814
REMARK INTER:                  -6.082
REMARK INTRA:                  -1.732
REMARK UNBOUND:                -1.697
REMARK SMILES CCCCCCCCCCCCCC(=O)[O-]
REMARK SMILES IDX 8 1 9 2 10 3 11 4 12 5 13 6 14 7 15 8 16 9 7 10 6 11 5 12
REMARK SMILES IDX 4 13 3 14 2 15 1 16
REMARK H PARENT
REMARK Flexibility Score: inf
ROOT
ATOM      1  C   UNL     1      22.591  34.974  12.612  1.00  0.00     0.000 C 
ENDROOT
BRANCH   1   2
ATOM      2  C   UNL     1      23.107  34.213  11.386  1.00  0.00     0.000 C 
BRANCH   2   3
ATOM      3  C   UNL     1      24.090  33.110  11.795  1.00  0.00     0.000 C 
BRANCH   3   4
ATOM      4  C   UNL     1      25.497  33.394  11.249  1.00  0.00     0.000 C 
BRANCH   4   5
ATOM      5  C   UNL     1      26.564  33.495  12.354  1.00  0.00     0.006 C 
BRANCH   5   6
ATOM      6  C   UNL     1      26.274  34.580  13.406  1.00  0.00     0.053 C 
BRANCH   6   7
ATOM      7  C   UNL     1      26.357  34.058  14.809  1.00  0.00     0.041 C 
ATOM      8  O   UNL     1      27.061  34.655  15.666  1.00  0.00    -0.550 OA
ATOM      9  O   UNL     1      25.688  32.893  15.162  1.00  0.00    -0.550 OA
ENDBRANCH   6   7
ENDBRANCH   5   6
ENDBRANCH   4   5
ENDBRANCH   3   4
ENDBRANCH   2   3
ENDBRANCH   1   2
BRANCH   1  10
ATOM     10  C   UNL     1      22.508  34.055  13.836  1.00  0.00     0.000 C 
BRANCH  10  11
ATOM     11  C   UNL     1      22.692  34.849  15.135  1.00  0.00    -0.000 C 
BRANCH  11  12
ATOM     12  C   UNL     1      22.021  36.224  15.040  1.00  0.00    -0.000 C 
BRANCH  12  13
ATOM     13  C   UNL     1      22.812  37.277  15.831  1.00  0.00    -0.000 C 
BRANCH  13  14
ATOM     14  C   UNL     1      24.276  37.397  15.372  1.00  0.00    -0.000 C 
BRANCH  14  15
ATOM     15  C   UNL     1      24.462  37.870  13.919  1.00  0.00    -0.003 C 
ATOM     16  C   UNL     1      23.976  39.300  13.688  1.00  0.00     0.004 C 
ENDBRANCH  14  15
ENDBRANCH  13  14
ENDBRANCH  12  13
ENDBRANCH  11  12
ENDBRANCH  10  11
ENDBRANCH   1  10
TORSDOF 12
ENDMDL
MODEL 4
REMARK VINA RESULT:    -3.588      0.898      2.555
REMARK INTER + INTRA:          -7.802
REMARK INTER:                  -6.140
REMARK INTRA:                  -1.662
REMARK UNBOUND:                -1.697
REMARK SMILES CCCCCCCCCCCCCC(=O)[O-]
REMARK SMILES IDX 8 1 9 2 10 3 11 4 12 5 13 6 14 7 15 8 16 9 7 10 6 11 5 12
REMARK SMILES IDX 4 13 3 14 2 15 1 16
REMARK H PARENT
REMARK Flexibility Score: inf
ROOT
ATOM      1  C   UNL     1      23.629  32.943  14.523  1.00  0.00     0.000 C 
ENDROOT
BRANCH   1   2
ATOM      2  C   UNL     1      22.354  33.769  14.730  1.00  0.00     0.000 C 
BRANCH   2   3
ATOM      3  C   UNL     1      22.471  35.143  14.060  1.00  0.00     0.000 C 
BRANCH   3   4
ATOM      4  C   UNL     1      22.137  36.269  15.049  1.00  0.00     0.000 C 
BRANCH   4   5
ATOM      5  C   UNL     1      23.386  36.989  15.588  1.00  0.00     0.006 C 
BRANCH   5   6
ATOM      6  C   UNL     1      24.325  37.519  14.490  1.00  0.00     0.053 C 
BRANCH   6   7
ATOM      7  C   UNL     1      24.280  39.012  14.365  1.00  0.00     0.041 C 
ATOM      8  O   UNL     1      23.635  39.549  13.426  1.00  0.00    -0.550 OA
ATOM      9  O   UNL     1      24.977  39.810  15.263  1.00  0.00    -0.550 OA
ENDBRANCH   6   7
ENDBRANCH   5   6
ENDBRANCH   4   5
ENDBRANCH   3   4
ENDBRANCH   2   3
ENDBRANCH   1   2
BRANCH   1  10
ATOM     10  C   UNL     1      24.784  33.493  15.369  1.00  0.00     0.000 C 
BRANCH  10  11
ATOM     11  C   UNL     1      26.122  33.347  14.636  1.00  0.00    -0.000 C 
BRANCH  11  12
ATOM     12  C   UNL     1      26.297  34.446  13.582  1.00  0.00    -0.000 C 
BRANCH  12  13
ATOM     13  C   UNL     1      26.748  33.855  12.238  1.00  0.00    -0.000 C 
BRANCH  13  14
ATOM     14  C   UNL     1      25.948  32.602  11.837  1.00  0.00    -0.000 C 
BRANCH  14  15
ATOM     15  C   UNL     1      24.998  32.796  10.642  1.00  0.00    -0.003 C 
ATOM     16  C   UNL     1      23.843  33.750  10.943  1.00  0.00     0.004 C 
ENDBRANCH  14  15
ENDBRANCH  13  14
ENDBRANCH  12  13
ENDBRANCH  11  12
ENDBRANCH  10  11
ENDBRANCH   1  10
TORSDOF 12
ENDMDL
MODEL 5
REMARK VINA RESULT:    -3.541      2.945      6.000
REMARK INTER + INTRA:          -7.722
REMARK INTER:                  -6.127
REMARK INTRA:                  -1.595
REMARK UNBOUND:                -1.697
REMARK SMILES CCCCCCCCCCCCCC(=O)[O-]
REMARK SMILES IDX 8 1 9 2 10 3 11 4 12 5 13 6 14 7 15 8 16 9 7 10 6 11 5 12
REMARK SMILES IDX 4 13 3 14 2 15 1 16
REMARK H PARENT
REMARK Flexibility Score: inf
ROOT
ATOM      1  C   UNL     1      24.562  34.603  14.316  1.00  0.00     0.000 C 
ENDROOT
BRANCH   1   2
ATOM      2  C   UNL     1      25.936  35.062  13.816  1.00  0.00     0.000 C 
BRANCH   2   3
ATOM      3  C   UNL     1      26.608  33.972  12.972  1.00  0.00     0.000 C 
BRANCH   3   4
ATOM      4  C   UNL     1      26.269  32.574  13.507  1.00  0.00     0.000 C 
BRANCH   4   5
ATOM      5  C   UNL     1      25.955  31.560  12.392  1.00  0.00     0.006 C 
BRANCH   5   6
ATOM      6  C   UNL     1      24.523  31.663  11.840  1.00  0.00     0.053 C 
BRANCH   6   7
ATOM      7  C   UNL     1      24.472  32.301  10.485  1.00  0.00     0.041 C 
ATOM      8  O   UNL     1      24.215  33.529  10.372  1.00  0.00    -0.550 OA
ATOM      9  O   UNL     1      24.674  31.536   9.343  1.00  0.00    -0.550 OA
ENDBRANCH   6   7
ENDBRANCH   5   6
ENDBRANCH   4   5
ENDBRANCH   3   4
ENDBRANCH   2   3
ENDBRANCH   1   2
BRANCH   1  10
ATOM     10  C   UNL     1      23.439  35.162  13.434  1.00  0.00     0.000 C 
BRANCH  10  11
ATOM     11  C   UNL     1      22.151  35.361  14.241  1.00  0.00    -0.000 C 
BRANCH  11  12
ATOM     12  C   UNL     1      22.437  36.070  15.570  1.00  0.00    -0.000 C 
BRANCH  12  13
ATOM     13  C   UNL     1      22.470  37.594  15.386  1.00  0.00    -0.000 C 
BRANCH  13  14
ATOM     14  C   UNL     1      23.850  38.205  15.690  1.00  0.00    -0.000 C 
BRANCH  14  15
ATOM     15  C   UNL     1      24.658  38.627  14.450  1.00  0.00    -0.003 C 
ATOM     16  C   UNL     1      23.789  39.224  13.344  1.00  0.00     0.004 C 
ENDBRANCH  14  15
ENDBRANCH  13  14
ENDBRANCH  12  13
ENDBRANCH  11  12
ENDBRANCH  10  11
ENDBRANCH   1  10
TORSDOF 12
ENDMDL
MODEL 6
REMARK VINA RESULT:    -3.486      2.805      5.725
REMARK INTER + INTRA:          -7.629
REMARK INTER:                  -6.169
REMARK INTRA:                  -1.460
REMARK UNBOUND:                -1.697
REMARK SMILES CCCCCCCCCCCCCC(=O)[O-]
REMARK SMILES IDX 8 1 9 2 10 3 11 4 12 5 13 6 14 7 15 8 16 9 7 10 6 11 5 12
REMARK SMILES IDX 4 13 3 14 2 15 1 16
REMARK H PARENT
REMARK Flexibility Score: inf
ROOT
ATOM      1  C   UNL     1      23.660  33.768  14.459  1.00  0.00     0.000 C 
ENDROOT
BRANCH   1   2
ATOM      2  C   UNL     1      24.835  33.609  15.430  1.00  0.00     0.000 C 
BRANCH   2   3
ATOM      3  C   UNL     1      26.176  33.691  14.690  1.00  0.00     0.000 C 
BRANCH   3   4
ATOM      4  C   UNL     1      26.053  34.542  13.418  1.00  0.00     0.000 C 
BRANCH   4   5
ATOM      5  C   UNL     1      26.613  33.841  12.167  1.00  0.00     0.006 C 
BRANCH   5   6
ATOM      6  C   UNL     1      25.904  32.521  11.819  1.00  0.00     0.053 C 
BRANCH   6   7
ATOM      7  C   UNL     1      24.893  32.681  10.724  1.00  0.00     0.041 C 
ATOM      8  O   UNL     1      24.845  31.850   9.779  1.00  0.00    -0.550 OA
ATOM      9  O   UNL     1      24.027  33.767  10.725  1.00  0.00    -0.550 OA
ENDBRANCH   6   7
ENDBRANCH   5   6
ENDBRANCH   4   5
ENDBRANCH   3   4
ENDBRANCH   2   3
ENDBRANCH   1   2
BRANCH   1  10
ATOM     10  C   UNL     1      22.319  33.710  15.202  1.00  0.00     0.000 C 
BRANCH  10  11
ATOM     11  C   UNL     1      22.127  34.947  16.086  1.00  0.00    -0.000 C 
BRANCH  11  12
ATOM     12  C   UNL     1      21.805  36.186  15.241  1.00  0.00    -0.000 C 
BRANCH  12  13
ATOM     13  C   UNL     1      22.551  37.420  15.768  1.00  0.00    -0.000 C 
BRANCH  13  14
ATOM     14  C   UNL     1      24.047  37.417  15.402  1.00  0.00    -0.000 C 
BRANCH  14  15
ATOM     15  C   UNL     1      24.355  37.769  13.936  1.00  0.00    -0.003 C 
ATOM     16  C   UNL     1      24.069  39.231  13.598  1.00  0.00     0.004 C 
ENDBRANCH  14  15
ENDBRANCH  13  14
ENDBRANCH  12  13
ENDBRANCH  11  12
ENDBRANCH  10  11
ENDBRANCH   1  10
TORSDOF 12
ENDMDL
MODEL 7
REMARK VINA RESULT:    -3.401      2.346      4.766
REMARK INTER + INTRA:          -7.485
REMARK INTER:                  -5.699
REMARK INTRA:                  -1.786
REMARK UNBOUND:                -1.697
REMARK SMILES CCCCCCCCCCCCCC(=O)[O-]
REMARK SMILES IDX 8 1 9 2 10 3 11 4 12 5 13 6 14 7 15 8 16 9 7 10 6 11 5 12
REMARK SMILES IDX 4 13 3 14 2 15 1 16
REMARK H PARENT
REMARK Flexibility Score: inf
ROOT
ATOM      1  C   UNL     1      23.183  34.271  11.153  1.00  0.00     0.000 C 
ENDROOT
BRANCH   1   2
ATOM      2  C   UNL     1      23.899  32.945  11.434  1.00  0.00     0.000 C 
BRANCH   2   3
ATOM      3  C   UNL     1      25.388  33.037  11.080  1.00  0.00     0.000 C 
BRANCH   3   4
ATOM      4  C   UNL     1      26.260  32.941  12.340  1.00  0.00     0.000 C 
BRANCH   4   5
ATOM      5  C   UNL     1      26.823  34.302  12.789  1.00  0.00     0.006 C 
BRANCH   5   6
ATOM      6  C   UNL     1      26.081  34.921  13.987  1.00  0.00     0.053 C 
BRANCH   6   7
ATOM      7  C   UNL     1      26.450  34.276  15.289  1.00  0.00     0.041 C 
ATOM      8  O   UNL     1      25.703  33.399  15.796  1.00  0.00    -0.550 OA
ATOM      9  O   UNL     1      27.601  34.669  15.961  1.00  0.00    -0.550 OA
ENDBRANCH   6   7
ENDBRANCH   5   6
ENDBRANCH   4   5
ENDBRANCH   3   4
ENDBRANCH   2   3
ENDBRANCH   1   2
BRANCH   1  10
ATOM     10  C   UNL     1      22.794  34.975  12.458  1.00  0.00     0.000 C 
BRANCH  10  11
ATOM     11  C   UNL     1      22.570  33.960  13.586  1.00  0.00    -0.000 C 
BRANCH  11  12
ATOM     12  C   UNL     1      22.500  34.657  14.949  1.00  0.00    -0.000 C 
BRANCH  12  13
ATOM     13  C   UNL     1      22.468  36.184  14.786  1.00  0.00    -0.000 C 
BRANCH  13  14
ATOM     14  C   UNL     1      23.240  36.921  15.895  1.00  0.00    -0.000 C 
BRANCH  14  15
ATOM     15  C   UNL     1      24.175  38.040  15.399  1.00  0.00    -0.003 C 
ATOM     16  C   UNL     1      24.178  38.187  13.878  1.00  0.00     0.004 C 
ENDBRANCH  14  15
ENDBRANCH  13  14
ENDBRANCH  12  13
ENDBRANCH  11  12
ENDBRANCH  10  11
ENDBRANCH   1  10
TORSDOF 12
ENDMDL
MODEL 8
REMARK VINA RESULT:    -3.209      3.580      5.312
REMARK INTER + INTRA:          -7.158
REMARK INTER:                  -5.175
REMARK INTRA:                  -1.983
REMARK UNBOUND:                -1.697
REMARK SMILES CCCCCCCCCCCCCC(=O)[O-]
REMARK SMILES IDX 8 1 9 2 10 3 11 4 12 5 13 6 14 7 15 8 16 9 7 10 6 11 5 12
REMARK SMILES IDX 4 13 3 14 2 15 1 16
REMARK H PARENT
REMARK Flexibility Score: inf
ROOT
ATOM      1  C   UNL     1      24.192  35.656  14.987  1.00  0.00     0.000 C 
ENDROOT
BRANCH   1   2
ATOM      2  C   UNL     1      22.902  35.610  14.160  1.00  0.00     0.000 C 
BRANCH   2   3
ATOM      3  C   UNL     1      23.211  35.596  12.658  1.00  0.00     0.000 C 
BRANCH   3   4
ATOM      4  C   UNL     1      22.599  34.361  11.982  1.00  0.00     0.000 C 
BRANCH   4   5
ATOM      5  C   UNL     1      23.587  33.186  11.862  1.00  0.00     0.006 C 
BRANCH   5   6
ATOM      6  C   UNL     1      24.351  33.145  10.527  1.00  0.00     0.053 C 
BRANCH   6   7
ATOM      7  C   UNL     1      24.902  31.785  10.221  1.00  0.00     0.041 C 
ATOM      8  O   UNL     1      24.726  31.271   9.085  1.00  0.00    -0.550 OA
ATOM      9  O   UNL     1      25.579  31.068  11.200  1.00  0.00    -0.550 OA
ENDBRANCH   6   7
ENDBRANCH   5   6
ENDBRANCH   4   5
ENDBRANCH   3   4
ENDBRANCH   2   3
ENDBRANCH   1   2
BRANCH   1  10
ATOM     10  C   UNL     1      25.429  35.611  14.082  1.00  0.00     0.000 C 
BRANCH  10  11
ATOM     11  C   UNL     1      26.466  34.615  14.614  1.00  0.00    -0.000 C 
BRANCH  11  12
ATOM     12  C   UNL     1      26.281  33.233  13.975  1.00  0.00    -0.000 C 
BRANCH  12  13
ATOM     13  C   UNL     1      26.020  32.163  15.045  1.00  0.00    -0.000 C 
BRANCH  13  14
ATOM     14  C   UNL     1      24.630  31.512  14.914  1.00  0.00    -0.000 C 
BRANCH  14  15
ATOM     15  C   UNL     1      23.568  32.055  15.887  1.00  0.00    -0.003 C 
ATOM     16  C   UNL     1      22.197  32.233  15.238  1.00  0.00     0.004 C 
ENDBRANCH  14  15
ENDBRANCH  13  14
ENDBRANCH  12  13
ENDBRANCH  11  12
ENDBRANCH  10  11
ENDBRANCH   1  10
TORSDOF 12
ENDMDL
MODEL 9
REMARK VINA RESULT:    -3.167      2.813      5.525
REMARK INTER + INTRA:          -7.085
REMARK INTER:                  -5.233
REMARK INTRA:                  -1.851
REMARK UNBOUND:                -1.697
REMARK SMILES CCCCCCCCCCCCCC(=O)[O-]
REMARK SMILES IDX 8 1 9 2 10 3 11 4 12 5 13 6 14 7 15 8 16 9 7 10 6 11 5 12
REMARK SMILES IDX 4 13 3 14 2 15 1 16
REMARK H PARENT
REMARK Flexibility Score: inf
ROOT
ATOM      1  C   UNL     1      24.001  37.554  14.768  1.00  0.00     0.000 C 
ENDROOT
BRANCH   1   2
ATOM      2  C   UNL     1      24.823  36.409  15.372  1.00  0.00     0.000 C 
BRANCH   2   3
ATOM      3  C   UNL     1      25.487  35.569  14.274  1.00  0.00     0.000 C 
BRANCH   3   4
ATOM      4  C   UNL     1      26.353  34.456  14.880  1.00  0.00     0.000 C 
BRANCH   4   5
ATOM      5  C   UNL     1      25.775  33.048  14.652  1.00  0.00     0.006 C 
BRANCH   5   6
ATOM      6  C   UNL     1      26.459  32.267  13.516  1.00  0.00     0.053 C 
BRANCH   6   7
ATOM      7  C   UNL     1      25.792  32.476  12.190  1.00  0.00     0.041 C 
ATOM      8  O   UNL     1      26.086  33.477  11.485  1.00  0.00    -0.550 OA
ATOM      9  O   UNL     1      24.821  31.586  11.749  1.00  0.00    -0.550 OA
ENDBRANCH   6   7
ENDBRANCH   5   6
ENDBRANCH   4   5
ENDBRANCH   3   4
ENDBRANCH   2   3
ENDBRANCH   1   2
BRANCH   1  10
ATOM     10  C   UNL     1      22.592  37.598  15.371  1.00  0.00     0.000 C 
BRANCH  10  11
ATOM     11  C   UNL     1      22.219  36.250  16.000  1.00  0.00    -0.000 C 
BRANCH  11  12
ATOM     12  C   UNL     1      21.325  35.432  15.060  1.00  0.00    -0.000 C 
BRANCH  12  13
ATOM     13  C   UNL     1      21.838  33.990  14.932  1.00  0.00    -0.000 C 
BRANCH  13  14
ATOM     14  C   UNL     1      22.484  33.703  13.564  1.00  0.00    -0.000 C 
BRANCH  14  15
ATOM     15  C   UNL     1      22.473  34.889  12.583  1.00  0.00    -0.003 C 
ATOM     16  C   UNL     1      22.827  34.486  11.152  1.00  0.00     0.004 C 
ENDBRANCH  14  15
ENDBRANCH  13  14
ENDBRANCH  12  13
ENDBRANCH  11  12
ENDBRANCH  10  11
ENDBRANCH   1  10
TORSDOF 12
ENDMDL
