MODEL 1
REMARK VINA RESULT:    -5.896      0.000      0.000
REMARK INTER + INTRA:          -9.728
REMARK INTER:                  -9.343
REMARK INTRA:                  -0.385
REMARK UNBOUND:                -0.385
REMARK SMILES CCCCCCCCCCCC(=O)[O-]
REMARK SMILES IDX 7 1 8 2 9 3 10 4 11 5 12 6 13 7 14 8 6 9 5 10 4 11 3 12 2 13
REMARK SMILES IDX 1 14
REMARK H PARENT
REMARK Flexibility Score: inf
ROOT
ATOM      1  C   UNL     1      -3.576   9.345 -39.471  1.00  0.00     0.000 C 
ENDROOT
BRANCH   1   2
ATOM      2  C   UNL     1      -4.755   8.642 -38.781  1.00  0.00     0.000 C 
BRANCH   2   3
ATOM      3  C   UNL     1      -6.105   8.963 -39.444  1.00  0.00     0.000 C 
BRANCH   3   4
ATOM      4  C   UNL     1      -7.016   7.730 -39.556  1.00  0.00     0.006 C 
BRANCH   4   5
ATOM      5  C   UNL     1      -7.268   7.313 -41.010  1.00  0.00     0.053 C 
BRANCH   5   6
ATOM      6  C   UNL     1      -7.715   5.887 -41.075  1.00  0.00     0.041 C 
ATOM      7  O   UNL     1      -7.970   5.255 -40.015  1.00  0.00    -0.550 OA
ATOM      8  O   UNL     1      -7.804   5.240 -42.300  1.00  0.00    -0.550 OA
ENDBRANCH   5   6
ENDBRANCH   4   5
ENDBRANCH   3   4
ENDBRANCH   2   3
ENDBRANCH   1   2
BRANCH   1   9
ATOM      9  C   UNL     1      -2.314   8.466 -39.529  1.00  0.00     0.000 C 
BRANCH   9  10
ATOM     10  C   UNL     1      -1.189   9.005 -38.620  1.00  0.00    -0.000 C 
BRANCH  10  11
ATOM     11  C   UNL     1      -1.357  10.488 -38.246  1.00  0.00    -0.000 C 
BRANCH  11  12
ATOM     12  C   UNL     1      -0.017  11.193 -37.983  1.00  0.00    -0.000 C 
BRANCH  12  13
ATOM     13  C   UNL     1      -0.198  12.634 -37.480  1.00  0.00    -0.003 C 
ATOM     14  C   UNL     1      -1.252  12.749 -36.379  1.00  0.00     0.004 C 
ENDBRANCH  12  13
ENDBRANCH  11  12
ENDBRANCH  10  11
ENDBRANCH   9  10
ENDBRANCH   1   9
TORSDOF 10
ENDMDL
MODEL 2
REMARK VINA RESULT:    -5.879      5.296      7.828
REMARK INTER + INTRA:          -9.701
REMARK INTER:                  -9.483
REMARK INTRA:                  -0.218
REMARK UNBOUND:                -0.385
REMARK SMILES CCCCCCCCCCCC(=O)[O-]
REMARK SMILES IDX 7 1 8 2 9 3 10 4 11 5 12 6 13 7 14 8 6 9 5 10 4 11 3 12 2 13
REMARK SMILES IDX 1 14
REMARK H PARENT
REMARK Flexibility Score: inf
ROOT
ATOM      1  C   UNL     1      -1.490   8.222 -39.719  1.00  0.00     0.000 C 
ENDROOT
BRANCH   1   2
ATOM      2  C   UNL     1      -1.090   8.811 -38.357  1.00  0.00     0.000 C 
BRANCH   2   3
ATOM      3  C   UNL     1      -1.213  10.344 -38.318  1.00  0.00     0.000 C 
BRANCH   3   4
ATOM      4  C   UNL     1       0.149  11.047 -38.429  1.00  0.00     0.006 C 
BRANCH   4   5
ATOM      5  C   UNL     1       0.367  12.087 -37.323  1.00  0.00     0.053 C 
BRANCH   5   6
ATOM      6  C   UNL     1      -0.907  12.817 -37.034  1.00  0.00     0.041 C 
ATOM      7  O   UNL     1      -1.650  12.444 -36.088  1.00  0.00    -0.550 OA
ATOM      8  O   UNL     1      -1.300  13.878 -37.840  1.00  0.00    -0.550 OA
ENDBRANCH   5   6
ENDBRANCH   4   5
ENDBRANCH   3   4
ENDBRANCH   2   3
ENDBRANCH   1   2
BRANCH   1   9
ATOM      9  C   UNL     1      -0.517   7.131 -40.202  1.00  0.00     0.000 C 
BRANCH   9  10
ATOM     10  C   UNL     1       0.181   7.519 -41.523  1.00  0.00    -0.000 C 
BRANCH  10  11
ATOM     11  C   UNL     1       0.531   6.312 -42.411  1.00  0.00    -0.000 C 
BRANCH  11  12
ATOM     12  C   UNL     1       2.046   6.105 -42.567  1.00  0.00    -0.000 C 
BRANCH  12  13
ATOM     13  C   UNL     1       2.637   5.219 -41.458  1.00  0.00    -0.003 C 
ATOM     14  C   UNL     1       4.164   5.192 -41.471  1.00  0.00     0.004 C 
ENDBRANCH  12  13
ENDBRANCH  11  12
ENDBRANCH  10  11
ENDBRANCH   9  10
ENDBRANCH   1   9
TORSDOF 10
ENDMDL
MODEL 3
REMARK VINA RESULT:    -5.878      0.772      1.400
REMARK INTER + INTRA:          -9.700
REMARK INTER:                  -9.312
REMARK INTRA:                  -0.388
REMARK UNBOUND:                -0.385
REMARK SMILES CCCCCCCCCCCC(=O)[O-]
REMARK SMILES IDX 7 1 8 2 9 3 10 4 11 5 12 6 13 7 14 8 6 9 5 10 4 11 3 12 2 13
REMARK SMILES IDX 1 14
REMARK H PARENT
REMARK Flexibility Score: inf
ROOT
ATOM      1  C   UNL     1      -4.537   8.720 -39.002  1.00  0.00     0.000 C 
ENDROOT
BRANCH   1   2
ATOM      2  C   UNL     1      -5.834   9.301 -39.586  1.00  0.00     0.000 C 
BRANCH   2   3
ATOM      3  C   UNL     1      -7.044   8.376 -39.372  1.00  0.00     0.000 C 
BRANCH   3   4
ATOM      4  C   UNL     1      -7.197   7.336 -40.493  1.00  0.00     0.006 C 
BRANCH   4   5
ATOM      5  C   UNL     1      -7.722   5.989 -39.979  1.00  0.00     0.053 C 
BRANCH   5   6
ATOM      6  C   UNL     1      -8.066   5.092 -41.125  1.00  0.00     0.041 C 
ATOM      7  O   UNL     1      -8.688   4.015 -40.922  1.00  0.00    -0.550 OA
ATOM      8  O   UNL     1      -7.656   5.416 -42.412  1.00  0.00    -0.550 OA
ENDBRANCH   5   6
ENDBRANCH   4   5
ENDBRANCH   3   4
ENDBRANCH   2   3
ENDBRANCH   1   2
BRANCH   1   9
ATOM      9  C   UNL     1      -3.277   9.268 -39.696  1.00  0.00     0.000 C 
BRANCH   9  10
ATOM     10  C   UNL     1      -2.063   8.330 -39.522  1.00  0.00    -0.000 C 
BRANCH  10  11
ATOM     11  C   UNL     1      -1.013   8.859 -38.531  1.00  0.00    -0.000 C 
BRANCH  11  12
ATOM     12  C   UNL     1      -1.173  10.359 -38.234  1.00  0.00    -0.000 C 
BRANCH  12  13
ATOM     13  C   UNL     1       0.173  11.098 -38.190  1.00  0.00    -0.003 C 
ATOM     14  C   UNL     1       0.090  12.438 -37.462  1.00  0.00     0.004 C 
ENDBRANCH  12  13
ENDBRANCH  11  12
ENDBRANCH  10  11
ENDBRANCH   9  10
ENDBRANCH   1   9
TORSDOF 10
ENDMDL
MODEL 4
REMARK VINA RESULT:    -5.876      2.420      2.939
REMARK INTER + INTRA:          -9.697
REMARK INTER:                  -9.168
REMARK INTRA:                  -0.529
REMARK UNBOUND:                -0.385
REMARK SMILES CCCCCCCCCCCC(=O)[O-]
REMARK SMILES IDX 7 1 8 2 9 3 10 4 11 5 12 6 13 7 14 8 6 9 5 10 4 11 3 12 2 13
REMARK SMILES IDX 1 14
REMARK H PARENT
REMARK Flexibility Score: inf
ROOT
ATOM      1  C   UNL     1      -2.041   8.290 -39.438  1.00  0.00     0.000 C 
ENDROOT
BRANCH   1   2
ATOM      2  C   UNL     1      -3.139   9.358 -39.569  1.00  0.00     0.000 C 
BRANCH   2   3
ATOM      3  C   UNL     1      -4.452   8.943 -38.883  1.00  0.00     0.000 C 
BRANCH   3   4
ATOM      4  C   UNL     1      -5.689   9.256 -39.739  1.00  0.00     0.006 C 
BRANCH   4   5
ATOM      5  C   UNL     1      -6.939   8.506 -39.265  1.00  0.00     0.053 C 
BRANCH   5   6
ATOM      6  C   UNL     1      -7.684   9.319 -38.254  1.00  0.00     0.041 C 
ATOM      7  O   UNL     1      -8.362  10.316 -38.619  1.00  0.00    -0.550 OA
ATOM      8  O   UNL     1      -7.592   9.007 -36.904  1.00  0.00    -0.550 OA
ENDBRANCH   5   6
ENDBRANCH   4   5
ENDBRANCH   3   4
ENDBRANCH   2   3
ENDBRANCH   1   2
BRANCH   1   9
ATOM      9  C   UNL     1      -0.864   8.755 -38.563  1.00  0.00     0.000 C 
BRANCH   9  10
ATOM     10  C   UNL     1      -0.912  10.272 -38.283  1.00  0.00    -0.000 C 
BRANCH  10  11
ATOM     11  C   UNL     1       0.476  10.934 -38.236  1.00  0.00    -0.000 C 
BRANCH  11  12
ATOM     12  C   UNL     1       0.436  12.368 -37.683  1.00  0.00    -0.000 C 
BRANCH  12  13
ATOM     13  C   UNL     1      -0.996  12.906 -37.543  1.00  0.00    -0.003 C 
ATOM     14  C   UNL     1      -1.385  13.186 -36.093  1.00  0.00     0.004 C 
ENDBRANCH  12  13
ENDBRANCH  11  12
ENDBRANCH  10  11
ENDBRANCH   9  10
ENDBRANCH   1   9
TORSDOF 10
ENDMDL
MODEL 5
REMARK VINA RESULT:    -5.863      2.403      3.230
REMARK INTER + INTRA:          -9.676
REMARK INTER:                  -9.071
REMARK INTRA:                  -0.605
REMARK UNBOUND:                -0.385
REMARK SMILES CCCCCCCCCCCC(=O)[O-]
REMARK SMILES IDX 7 1 8 2 9 3 10 4 11 5 12 6 13 7 14 8 6 9 5 10 4 11 3 12 2 13
REMARK SMILES IDX 1 14
REMARK H PARENT
REMARK Flexibility Score: inf
ROOT
ATOM      1  C   UNL     1      -0.894   8.837 -38.812  1.00  0.00     0.000 C 
ENDROOT
BRANCH   1   2
ATOM      2  C   UNL     1      -2.240   8.437 -39.438  1.00  0.00     0.000 C 
BRANCH   2   3
ATOM      3  C   UNL     1      -3.387   9.372 -39.017  1.00  0.00     0.000 C 
BRANCH   3   4
ATOM      4  C   UNL     1      -4.665   9.143 -39.838  1.00  0.00     0.006 C 
BRANCH   4   5
ATOM      5  C   UNL     1      -5.823   8.603 -38.989  1.00  0.00     0.053 C 
BRANCH   5   6
ATOM      6  C   UNL     1      -7.007   9.512 -39.082  1.00  0.00     0.041 C 
ATOM      7  O   UNL     1      -6.977  10.516 -39.842  1.00  0.00    -0.550 OA
ATOM      8  O   UNL     1      -8.126   9.280 -38.293  1.00  0.00    -0.550 OA
ENDBRANCH   5   6
ENDBRANCH   4   5
ENDBRANCH   3   4
ENDBRANCH   2   3
ENDBRANCH   1   2
BRANCH   1   9
ATOM      9  C   UNL     1      -0.886  10.287 -38.299  1.00  0.00     0.000 C 
BRANCH   9  10
ATOM     10  C   UNL     1       0.545  10.855 -38.183  1.00  0.00    -0.000 C 
BRANCH  10  11
ATOM     11  C   UNL     1       0.586  12.365 -37.893  1.00  0.00    -0.000 C 
BRANCH  11  12
ATOM     12  C   UNL     1      -0.806  12.963 -37.636  1.00  0.00    -0.000 C 
BRANCH  12  13
ATOM     13  C   UNL     1      -1.082  13.193 -36.142  1.00  0.00    -0.003 C 
ATOM     14  C   UNL     1      -2.300  12.420 -35.639  1.00  0.00     0.004 C 
ENDBRANCH  12  13
ENDBRANCH  11  12
ENDBRANCH  10  11
ENDBRANCH   9  10
ENDBRANCH   1   9
TORSDOF 10
ENDMDL
MODEL 6
REMARK VINA RESULT:    -5.803      4.233      7.848
REMARK INTER + INTRA:          -9.580
REMARK INTER:                  -9.254
REMARK INTRA:                  -0.327
REMARK UNBOUND:                -0.385
REMARK SMILES CCCCCCCCCCCC(=O)[O-]
REMARK SMILES IDX 7 1 8 2 9 3 10 4 11 5 12 6 13 7 14 8 6 9 5 10 4 11 3 12 2 13
REMARK SMILES IDX 1 14
REMARK H PARENT
REMARK Flexibility Score: inf
ROOT
ATOM      1  C   UNL     1      -2.023   8.346 -39.429  1.00  0.00     0.000 C 
ENDROOT
BRANCH   1   2
ATOM      2  C   UNL     1      -0.928   8.930 -38.523  1.00  0.00     0.000 C 
BRANCH   2   3
ATOM      3  C   UNL     1      -1.119  10.434 -38.260  1.00  0.00     0.000 C 
BRANCH   3   4
ATOM      4  C   UNL     1       0.196  11.223 -38.367  1.00  0.00     0.006 C 
BRANCH   4   5
ATOM      5  C   UNL     1       0.370  12.234 -37.228  1.00  0.00     0.053 C 
BRANCH   5   6
ATOM      6  C   UNL     1      -0.892  13.009 -37.019  1.00  0.00     0.041 C 
ATOM      7  O   UNL     1      -1.621  12.774 -36.018  1.00  0.00    -0.550 OA
ATOM      8  O   UNL     1      -1.292  13.955 -37.953  1.00  0.00    -0.550 OA
ENDBRANCH   5   6
ENDBRANCH   4   5
ENDBRANCH   3   4
ENDBRANCH   2   3
ENDBRANCH   1   2
BRANCH   1   9
ATOM      9  C   UNL     1      -3.202   9.314 -39.633  1.00  0.00     0.000 C 
BRANCH   9  10
ATOM     10  C   UNL     1      -4.437   8.909 -38.798  1.00  0.00    -0.000 C 
BRANCH  10  11
ATOM     11  C   UNL     1      -5.760   8.990 -39.578  1.00  0.00    -0.000 C 
BRANCH  11  12
ATOM     12  C   UNL     1      -6.749   7.877 -39.195  1.00  0.00    -0.000 C 
BRANCH  12  13
ATOM     13  C   UNL     1      -7.382   7.204 -40.423  1.00  0.00    -0.003 C 
ATOM     14  C   UNL     1      -7.865   5.783 -40.137  1.00  0.00     0.004 C 
ENDBRANCH  12  13
ENDBRANCH  11  12
ENDBRANCH  10  11
ENDBRANCH   9  10
ENDBRANCH   1   9
TORSDOF 10
ENDMDL
MODEL 7
REMARK VINA RESULT:    -5.704      3.507      5.142
REMARK INTER + INTRA:          -9.425
REMARK INTER:                  -9.068
REMARK INTRA:                  -0.357
REMARK UNBOUND:                -0.385
REMARK SMILES CCCCCCCCCCCC(=O)[O-]
REMARK SMILES IDX 7 1 8 2 9 3 10 4 11 5 12 6 13 7 14 8 6 9 5 10 4 11 3 12 2 13
REMARK SMILES IDX 1 14
REMARK H PARENT
REMARK Flexibility Score: inf
ROOT
ATOM      1  C   UNL     1      -0.792   8.682 -38.918  1.00  0.00     0.000 C 
ENDROOT
BRANCH   1   2
ATOM      2  C   UNL     1      -2.074   9.460 -38.578  1.00  0.00     0.000 C 
BRANCH   2   3
ATOM      3  C   UNL     1      -3.215   9.182 -39.571  1.00  0.00     0.000 C 
BRANCH   3   4
ATOM      4  C   UNL     1      -4.560   8.936 -38.870  1.00  0.00     0.006 C 
BRANCH   4   5
ATOM      5  C   UNL     1      -5.760   9.290 -39.757  1.00  0.00     0.053 C 
BRANCH   5   6
ATOM      6  C   UNL     1      -6.974   8.535 -39.318  1.00  0.00     0.041 C 
ATOM      7  O   UNL     1      -7.269   7.438 -39.863  1.00  0.00    -0.550 OA
ATOM      8  O   UNL     1      -7.809   9.064 -38.343  1.00  0.00    -0.550 OA
ENDBRANCH   5   6
ENDBRANCH   4   5
ENDBRANCH   3   4
ENDBRANCH   2   3
ENDBRANCH   1   2
BRANCH   1   9
ATOM      9  C   UNL     1      -1.036   7.557 -39.939  1.00  0.00     0.000 C 
BRANCH   9  10
ATOM     10  C   UNL     1      -0.022   7.599 -41.103  1.00  0.00    -0.000 C 
BRANCH  10  11
ATOM     11  C   UNL     1       0.405   6.207 -41.598  1.00  0.00    -0.000 C 
BRANCH  11  12
ATOM     12  C   UNL     1       1.844   6.179 -42.138  1.00  0.00    -0.000 C 
BRANCH  12  13
ATOM     13  C   UNL     1       2.687   5.058 -41.511  1.00  0.00    -0.003 C 
ATOM     14  C   UNL     1       4.185   5.355 -41.540  1.00  0.00     0.004 C 
ENDBRANCH  12  13
ENDBRANCH  11  12
ENDBRANCH  10  11
ENDBRANCH   9  10
ENDBRANCH   1   9
TORSDOF 10
ENDMDL
MODEL 8
REMARK VINA RESULT:    -5.421      4.356      8.028
REMARK INTER + INTRA:          -8.975
REMARK INTER:                  -8.512
REMARK INTRA:                  -0.463
REMARK UNBOUND:                -0.385
REMARK SMILES CCCCCCCCCCCC(=O)[O-]
REMARK SMILES IDX 7 1 8 2 9 3 10 4 11 5 12 6 13 7 14 8 6 9 5 10 4 11 3 12 2 13
REMARK SMILES IDX 1 14
REMARK H PARENT
REMARK Flexibility Score: inf
ROOT
ATOM      1  C   UNL     1      -4.326   8.649 -39.031  1.00  0.00     0.000 C 
ENDROOT
BRANCH   1   2
ATOM      2  C   UNL     1      -3.017   9.247 -39.572  1.00  0.00     0.000 C 
BRANCH   2   3
ATOM      3  C   UNL     1      -1.778   8.447 -39.135  1.00  0.00     0.000 C 
BRANCH   3   4
ATOM      4  C   UNL     1      -0.668   9.344 -38.564  1.00  0.00     0.006 C 
BRANCH   4   5
ATOM      5  C   UNL     1      -1.193  10.709 -38.102  1.00  0.00     0.053 C 
BRANCH   5   6
ATOM      6  C   UNL     1      -0.055  11.640 -37.825  1.00  0.00     0.041 C 
ATOM      7  O   UNL     1       1.130  11.273 -38.042  1.00  0.00    -0.550 OA
ATOM      8  O   UNL     1      -0.298  12.894 -37.281  1.00  0.00    -0.550 OA
ENDBRANCH   5   6
ENDBRANCH   4   5
ENDBRANCH   3   4
ENDBRANCH   2   3
ENDBRANCH   1   2
BRANCH   1   9
ATOM      9  C   UNL     1      -5.574   9.271 -39.682  1.00  0.00     0.000 C 
BRANCH   9  10
ATOM     10  C   UNL     1      -6.879   8.793 -39.009  1.00  0.00    -0.000 C 
BRANCH  10  11
ATOM     11  C   UNL     1      -7.325   7.391 -39.458  1.00  0.00    -0.000 C 
BRANCH  11  12
ATOM     12  C   UNL     1      -7.278   7.209 -40.984  1.00  0.00    -0.000 C 
BRANCH  12  13
ATOM     13  C   UNL     1      -7.778   5.825 -41.428  1.00  0.00    -0.003 C 
ATOM     14  C   UNL     1      -8.206   4.945 -40.255  1.00  0.00     0.004 C 
ENDBRANCH  12  13
ENDBRANCH  11  12
ENDBRANCH  10  11
ENDBRANCH   9  10
ENDBRANCH   1   9
TORSDOF 10
ENDMDL
MODEL 9
REMARK VINA RESULT:    -5.171      4.775      7.494
REMARK INTER + INTRA:          -8.580
REMARK INTER:                  -8.201
REMARK INTRA:                  -0.379
REMARK UNBOUND:                -0.385
REMARK SMILES CCCCCCCCCCCC(=O)[O-]
REMARK SMILES IDX 7 1 8 2 9 3 10 4 11 5 12 6 13 7 14 8 6 9 5 10 4 11 3 12 2 13
REMARK SMILES IDX 1 14
REMARK H PARENT
REMARK Flexibility Score: inf
ROOT
ATOM      1  C   UNL     1      -1.661   9.875 -38.607  1.00  0.00     0.000 C 
ENDROOT
BRANCH   1   2
ATOM      2  C   UNL     1      -0.153   9.766 -38.327  1.00  0.00     0.000 C 
BRANCH   2   3
ATOM      3  C   UNL     1       0.503  11.136 -38.087  1.00  0.00     0.000 C 
BRANCH   3   4
ATOM      4  C   UNL     1      -0.520  12.281 -38.048  1.00  0.00     0.006 C 
BRANCH   4   5
ATOM      5  C   UNL     1      -0.634  12.924 -36.660  1.00  0.00     0.053 C 
BRANCH   5   6
ATOM      6  C   UNL     1      -2.016  12.752 -36.117  1.00  0.00     0.041 C 
ATOM      7  O   UNL     1      -2.719  13.761 -35.843  1.00  0.00    -0.550 OA
ATOM      8  O   UNL     1      -2.513  11.480 -35.864  1.00  0.00    -0.550 OA
ENDBRANCH   5   6
ENDBRANCH   4   5
ENDBRANCH   3   4
ENDBRANCH   2   3
ENDBRANCH   1   2
BRANCH   1   9
ATOM      9  C   UNL     1      -2.159   8.802 -39.591  1.00  0.00     0.000 C 
BRANCH   9  10
ATOM     10  C   UNL     1      -1.196   7.599 -39.675  1.00  0.00    -0.000 C 
BRANCH  10  11
ATOM     11  C   UNL     1      -0.320   7.599 -40.940  1.00  0.00    -0.000 C 
BRANCH  11  12
ATOM     12  C   UNL     1       0.206   6.201 -41.303  1.00  0.00    -0.000 C 
BRANCH  12  13
ATOM     13  C   UNL     1       1.389   6.252 -42.282  1.00  0.00    -0.003 C 
ATOM     14  C   UNL     1       2.607   5.477 -41.782  1.00  0.00     0.004 C 
ENDBRANCH  12  13
ENDBRANCH  11  12
ENDBRANCH  10  11
ENDBRANCH   9  10
ENDBRANCH   1   9
TORSDOF 10
ENDMDL
