MODEL 1
REMARK VINA RESULT:    -5.992      0.000      0.000
REMARK INTER + INTRA:          -7.153
REMARK INTER:                  -7.218
REMARK INTRA:                   0.064
REMARK UNBOUND:                 0.064
REMARK SMILES Oc1cc(O)c2c(c1)O[C@H](c1ccc(O)c(O)c1)[C@@H](O)C2
REMARK SMILES IDX 21 1 19 2 10 3 9 4 7 5 8 6 2 7 3 8 4 9 6 10 20 11 11 13
REMARK SMILES IDX 18 14 12 15 16 16 13 17 14 18 17 19 15 21 5 23 1 25
REMARK H PARENT 20 12 17 20 15 22 5 24 1 26
REMARK Flexibility Score: inf
ROOT
ATOM      1  C   UNL     1       7.791  -0.861  18.458  1.00  0.00     0.079 C 
ATOM      2  C   UNL     1       7.947  -2.394  18.455  1.00  0.00     0.164 C 
ATOM      3  C   UNL     1       8.653  -2.861  19.744  1.00  0.00     0.232 C 
ATOM      4  O   UNL     1       9.911  -2.198  19.869  1.00  0.00    -0.482 OA
ATOM      5  C   UNL     1      10.089  -0.857  19.515  1.00  0.00     0.131 A 
ATOM      6  C   UNL     1      11.292  -0.224  19.841  1.00  0.00     0.093 A 
ATOM      7  C   UNL     1      11.494   1.117  19.515  1.00  0.00     0.122 A 
ATOM      8  C   UNL     1      10.483   1.837  18.867  1.00  0.00     0.092 A 
ATOM      9  C   UNL     1       9.271   1.221  18.534  1.00  0.00     0.126 A 
ATOM     10  C   UNL     1       9.078  -0.152  18.824  1.00  0.00     0.039 A 
ENDROOT
BRANCH   2  11
ATOM     11  O   UNL     1       6.697  -3.018  18.300  1.00  0.00    -0.389 OA
ATOM     12  H   UNL     1       6.846  -3.879  17.829  1.00  0.00     0.211 HD
ENDBRANCH   2  11
BRANCH   3  13
ATOM     13  C   UNL     1       8.865  -4.357  19.739  1.00  0.00    -0.001 A 
ATOM     14  C   UNL     1       7.771  -5.234  19.835  1.00  0.00     0.057 A 
ATOM     15  C   UNL     1      10.164  -4.887  19.690  1.00  0.00     0.012 A 
ATOM     16  C   UNL     1       7.971  -6.622  19.860  1.00  0.00     0.157 A 
ATOM     17  C   UNL     1      10.365  -6.268  19.714  1.00  0.00     0.050 A 
ATOM     18  C   UNL     1       9.274  -7.141  19.797  1.00  0.00     0.157 A 
BRANCH  16  19
ATOM     19  O   UNL     1       6.880  -7.486  19.948  1.00  0.00    -0.504 OA
ATOM     20  H   UNL     1       6.587  -8.053  19.160  1.00  0.00     0.293 HD
ENDBRANCH  16  19
BRANCH  18  21
ATOM     21  O   UNL     1       9.506  -8.516  19.818  1.00  0.00    -0.504 OA
ATOM     22  H   UNL     1      10.390  -8.908  20.122  1.00  0.00     0.293 HD
ENDBRANCH  18  21
ENDBRANCH   3  13
BRANCH   9  23
ATOM     23  O   UNL     1       8.282   2.001  17.930  1.00  0.00    -0.507 OA
ATOM     24  H   UNL     1       8.271   2.217  16.942  1.00  0.00     0.293 HD
ENDBRANCH   9  23
BRANCH   7  25
ATOM     25  O   UNL     1      12.700   1.730  19.846  1.00  0.00    -0.508 OA
ATOM     26  H   UNL     1      12.996   1.835  20.810  1.00  0.00     0.293 HD
ENDBRANCH   7  25
TORSDOF 6
ENDMDL
MODEL 2
REMARK VINA RESULT:    -5.878      1.635      6.637
REMARK INTER + INTRA:          -7.017
REMARK INTER:                  -6.729
REMARK INTRA:                  -0.288
REMARK UNBOUND:                 0.064
REMARK SMILES Oc1cc(O)c2c(c1)O[C@H](c1ccc(O)c(O)c1)[C@@H](O)C2
REMARK SMILES IDX 21 1 19 2 10 3 9 4 7 5 8 6 2 7 3 8 4 9 6 10 20 11 11 13
REMARK SMILES IDX 18 14 12 15 16 16 13 17 14 18 17 19 15 21 5 23 1 25
REMARK H PARENT 20 12 17 20 15 22 5 24 1 26
REMARK Flexibility Score: inf
ROOT
ATOM      1  C   UNL     1       7.906  -5.007  19.445  1.00  0.00     0.079 C 
ATOM      2  C   UNL     1       7.714  -3.485  19.588  1.00  0.00     0.164 C 
ATOM      3  C   UNL     1       8.760  -2.733  18.741  1.00  0.00     0.232 C 
ATOM      4  O   UNL     1      10.072  -3.143  19.123  1.00  0.00    -0.482 OA
ATOM      5  C   UNL     1      10.378  -4.468  19.453  1.00  0.00     0.131 A 
ATOM      6  C   UNL     1      11.715  -4.830  19.632  1.00  0.00     0.093 A 
ATOM      7  C   UNL     1      12.053  -6.147  19.947  1.00  0.00     0.122 A 
ATOM      8  C   UNL     1      11.048  -7.112  20.073  1.00  0.00     0.092 A 
ATOM      9  C   UNL     1       9.703  -6.769  19.896  1.00  0.00     0.126 A 
ATOM     10  C   UNL     1       9.351  -5.425  19.620  1.00  0.00     0.039 A 
ENDROOT
BRANCH   2  11
ATOM     11  O   UNL     1       6.405  -3.117  19.234  1.00  0.00    -0.389 OA
ATOM     12  H   UNL     1       6.421  -2.818  18.288  1.00  0.00     0.211 HD
ENDBRANCH   2  11
BRANCH   3  13
ATOM     13  C   UNL     1       8.625  -1.238  18.907  1.00  0.00    -0.001 A 
ATOM     14  C   UNL     1       7.918  -0.474  17.962  1.00  0.00     0.057 A 
ATOM     15  C   UNL     1       9.249  -0.588  19.983  1.00  0.00     0.012 A 
ATOM     16  C   UNL     1       7.817   0.917  18.103  1.00  0.00     0.157 A 
ATOM     17  C   UNL     1       9.150   0.798  20.125  1.00  0.00     0.050 A 
ATOM     18  C   UNL     1       8.435   1.556  19.190  1.00  0.00     0.157 A 
BRANCH  16  19
ATOM     19  O   UNL     1       7.109   1.667  17.165  1.00  0.00    -0.504 OA
ATOM     20  H   UNL     1       6.165   1.990  17.348  1.00  0.00     0.293 HD
ENDBRANCH  16  19
BRANCH  18  21
ATOM     21  O   UNL     1       8.353   2.937  19.359  1.00  0.00    -0.504 OA
ATOM     22  H   UNL     1       8.651   3.394  20.212  1.00  0.00     0.293 HD
ENDBRANCH  18  21
ENDBRANCH   3  13
BRANCH   9  23
ATOM     23  O   UNL     1       8.747  -7.784  19.990  1.00  0.00    -0.507 OA
ATOM     24  H   UNL     1       8.077  -7.849  20.744  1.00  0.00     0.293 HD
ENDBRANCH   9  23
BRANCH   7  25
ATOM     25  O   UNL     1      13.392  -6.489  20.124  1.00  0.00    -0.508 OA
ATOM     26  H   UNL     1      14.016  -6.619  19.336  1.00  0.00     0.293 HD
ENDBRANCH   7  25
TORSDOF 6
ENDMDL
MODEL 3
REMARK VINA RESULT:    -5.544      1.598      2.983
REMARK INTER + INTRA:          -6.613
REMARK INTER:                  -6.965
REMARK INTRA:                   0.352
REMARK UNBOUND:                 0.064
REMARK SMILES Oc1cc(O)c2c(c1)O[C@H](c1ccc(O)c(O)c1)[C@@H](O)C2
REMARK SMILES IDX 21 1 19 2 10 3 9 4 7 5 8 6 2 7 3 8 4 9 6 10 20 11 11 13
REMARK SMILES IDX 18 14 12 15 16 16 13 17 14 18 17 19 15 21 5 23 1 25
REMARK H PARENT 20 12 17 20 15 22 5 24 1 26
REMARK Flexibility Score: inf
ROOT
ATOM      1  C   UNL     1      11.531  -0.597  18.168  1.00  0.00     0.079 C 
ATOM      2  C   UNL     1      11.365  -2.060  18.623  1.00  0.00     0.164 C 
ATOM      3  C   UNL     1       9.931  -2.549  18.337  1.00  0.00     0.232 C 
ATOM      4  O   UNL     1       8.993  -1.683  18.975  1.00  0.00    -0.482 OA
ATOM      5  C   UNL     1       9.175  -0.297  19.039  1.00  0.00     0.131 A 
ATOM      6  C   UNL     1       8.130   0.502  19.509  1.00  0.00     0.093 A 
ATOM      7  C   UNL     1       8.275   1.889  19.571  1.00  0.00     0.122 A 
ATOM      8  C   UNL     1       9.471   2.483  19.151  1.00  0.00     0.092 A 
ATOM      9  C   UNL     1      10.528   1.698  18.677  1.00  0.00     0.126 A 
ATOM     10  C   UNL     1      10.402   0.288  18.652  1.00  0.00     0.039 A 
ENDROOT
BRANCH   2  11
ATOM     11  O   UNL     1      12.321  -2.882  18.002  1.00  0.00    -0.389 OA
ATOM     12  H   UNL     1      11.860  -3.397  17.290  1.00  0.00     0.211 HD
ENDBRANCH   2  11
BRANCH   3  13
ATOM     13  C   UNL     1       9.729  -3.964  18.822  1.00  0.00    -0.001 A 
ATOM     14  C   UNL     1      10.822  -4.733  19.259  1.00  0.00     0.057 A 
ATOM     15  C   UNL     1       8.451  -4.546  18.794  1.00  0.00     0.012 A 
ATOM     16  C   UNL     1      10.637  -6.057  19.683  1.00  0.00     0.157 A 
ATOM     17  C   UNL     1       8.266  -5.864  19.217  1.00  0.00     0.050 A 
ATOM     18  C   UNL     1       9.352  -6.624  19.663  1.00  0.00     0.157 A 
BRANCH  16  19
ATOM     19  O   UNL     1      11.725  -6.811  20.121  1.00  0.00    -0.504 OA
ATOM     20  H   UNL     1      11.979  -7.685  19.675  1.00  0.00     0.293 HD
ENDBRANCH  16  19
BRANCH  18  21
ATOM     21  O   UNL     1       9.136  -7.937  20.079  1.00  0.00    -0.504 OA
ATOM     22  H   UNL     1       9.720  -8.703  19.767  1.00  0.00     0.293 HD
ENDBRANCH  18  21
ENDBRANCH   3  13
BRANCH   9  23
ATOM     23  O   UNL     1      11.680   2.350  18.229  1.00  0.00    -0.507 OA
ATOM     24  H   UNL     1      12.591   1.912  18.198  1.00  0.00     0.293 HD
ENDBRANCH   9  23
BRANCH   7  25
ATOM     25  O   UNL     1       7.223   2.669  20.045  1.00  0.00    -0.508 OA
ATOM     26  H   UNL     1       6.804   2.501  20.952  1.00  0.00     0.293 HD
ENDBRANCH   7  25
TORSDOF 6
ENDMDL
MODEL 4
REMARK VINA RESULT:    -5.454      1.472      7.091
REMARK INTER + INTRA:          -6.506
REMARK INTER:                  -6.555
REMARK INTRA:                   0.050
REMARK UNBOUND:                 0.064
REMARK SMILES Oc1cc(O)c2c(c1)O[C@H](c1ccc(O)c(O)c1)[C@@H](O)C2
REMARK SMILES IDX 21 1 19 2 10 3 9 4 7 5 8 6 2 7 3 8 4 9 6 10 20 11 11 13
REMARK SMILES IDX 18 14 12 15 16 16 13 17 14 18 17 19 15 21 5 23 1 25
REMARK H PARENT 20 12 17 20 15 22 5 24 1 26
REMARK Flexibility Score: inf
ROOT
ATOM      1  C   UNL     1      11.747  -3.375  19.896  1.00  0.00     0.079 C 
ATOM      2  C   UNL     1      11.282  -1.985  19.421  1.00  0.00     0.164 C 
ATOM      3  C   UNL     1       9.967  -1.593  20.124  1.00  0.00     0.232 C 
ATOM      4  O   UNL     1       8.979  -2.595  19.887  1.00  0.00    -0.482 OA
ATOM      5  C   UNL     1       9.287  -3.960  19.861  1.00  0.00     0.131 A 
ATOM      6  C   UNL     1       8.244  -4.888  19.812  1.00  0.00     0.093 A 
ATOM      7  C   UNL     1       8.518  -6.256  19.801  1.00  0.00     0.122 A 
ATOM      8  C   UNL     1       9.843  -6.702  19.849  1.00  0.00     0.092 A 
ATOM      9  C   UNL     1      10.901  -5.786  19.900  1.00  0.00     0.126 A 
ATOM     10  C   UNL     1      10.631  -4.397  19.868  1.00  0.00     0.039 A 
ENDROOT
BRANCH   2  11
ATOM     11  O   UNL     1      12.287  -1.026  19.640  1.00  0.00    -0.389 OA
ATOM     12  H   UNL     1      12.351  -0.465  18.824  1.00  0.00     0.211 HD
ENDBRANCH   2  11
BRANCH   3  13
ATOM     13  C   UNL     1       9.464  -0.256  19.635  1.00  0.00    -0.001 A 
ATOM     14  C   UNL     1       8.326  -0.177  18.812  1.00  0.00     0.057 A 
ATOM     15  C   UNL     1      10.159   0.922  19.955  1.00  0.00     0.012 A 
ATOM     16  C   UNL     1       7.876   1.062  18.335  1.00  0.00     0.157 A 
ATOM     17  C   UNL     1       9.711   2.157  19.481  1.00  0.00     0.050 A 
ATOM     18  C   UNL     1       8.572   2.235  18.673  1.00  0.00     0.157 A 
BRANCH  16  19
ATOM     19  O   UNL     1       6.744   1.132  17.526  1.00  0.00    -0.504 OA
ATOM     20  H   UNL     1       6.148   0.325  17.375  1.00  0.00     0.293 HD
ENDBRANCH  16  19
BRANCH  18  21
ATOM     21  O   UNL     1       8.150   3.482  18.215  1.00  0.00    -0.504 OA
ATOM     22  H   UNL     1       8.419   3.842  17.308  1.00  0.00     0.293 HD
ENDBRANCH  18  21
ENDBRANCH   3  13
BRANCH   9  23
ATOM     23  O   UNL     1      12.201  -6.290  19.993  1.00  0.00    -0.507 OA
ATOM     24  H   UNL     1      12.429  -7.267  19.869  1.00  0.00     0.293 HD
ENDBRANCH   9  23
BRANCH   7  25
ATOM     25  O   UNL     1       7.465  -7.167  19.750  1.00  0.00    -0.508 OA
ATOM     26  H   UNL     1       7.243  -7.675  18.901  1.00  0.00     0.293 HD
ENDBRANCH   7  25
TORSDOF 6
ENDMDL
MODEL 5
REMARK VINA RESULT:    -5.431      3.330      5.553
REMARK INTER + INTRA:          -6.478
REMARK INTER:                  -6.125
REMARK INTRA:                  -0.354
REMARK UNBOUND:                 0.064
REMARK SMILES Oc1cc(O)c2c(c1)O[C@H](c1ccc(O)c(O)c1)[C@@H](O)C2
REMARK SMILES IDX 21 1 19 2 10 3 9 4 7 5 8 6 2 7 3 8 4 9 6 10 20 11 11 13
REMARK SMILES IDX 18 14 12 15 16 16 13 17 14 18 17 19 15 21 5 23 1 25
REMARK H PARENT 20 12 17 20 15 22 5 24 1 26
REMARK Flexibility Score: inf
ROOT
ATOM      1  C   UNL     1      12.966  -0.597  18.717  1.00  0.00     0.079 C 
ATOM      2  C   UNL     1      11.636  -0.851  17.983  1.00  0.00     0.164 C 
ATOM      3  C   UNL     1      10.797  -1.895  18.747  1.00  0.00     0.232 C 
ATOM      4  O   UNL     1      11.554  -3.094  18.908  1.00  0.00    -0.482 OA
ATOM      5  C   UNL     1      12.927  -3.083  19.178  1.00  0.00     0.131 A 
ATOM      6  C   UNL     1      13.562  -4.283  19.509  1.00  0.00     0.093 A 
ATOM      7  C   UNL     1      14.926  -4.302  19.799  1.00  0.00     0.122 A 
ATOM      8  C   UNL     1      15.662  -3.112  19.767  1.00  0.00     0.092 A 
ATOM      9  C   UNL     1      15.043  -1.900  19.438  1.00  0.00     0.126 A 
ATOM     10  C   UNL     1      13.668  -1.882  19.102  1.00  0.00     0.039 A 
ENDROOT
BRANCH   2  11
ATOM     11  O   UNL     1      10.927   0.351  17.813  1.00  0.00    -0.389 OA
ATOM     12  H   UNL     1      10.838   0.513  16.838  1.00  0.00     0.211 HD
ENDBRANCH   2  11
BRANCH   3  13
ATOM     13  C   UNL     1       9.510  -2.201  18.019  1.00  0.00    -0.001 A 
ATOM     14  C   UNL     1       9.528  -2.610  16.674  1.00  0.00     0.057 A 
ATOM     15  C   UNL     1       8.274  -2.029  18.664  1.00  0.00     0.012 A 
ATOM     16  C   UNL     1       8.331  -2.866  15.990  1.00  0.00     0.157 A 
ATOM     17  C   UNL     1       7.081  -2.284  17.984  1.00  0.00     0.050 A 
ATOM     18  C   UNL     1       7.102  -2.703  16.649  1.00  0.00     0.157 A 
BRANCH  16  19
ATOM     19  O   UNL     1       8.360  -3.277  14.658  1.00  0.00    -0.504 OA
ATOM     20  H   UNL     1       7.530  -3.633  14.195  1.00  0.00     0.293 HD
ENDBRANCH  16  19
BRANCH  18  21
ATOM     21  O   UNL     1       5.895  -2.950  15.997  1.00  0.00    -0.504 OA
ATOM     22  H   UNL     1       5.535  -3.888  15.868  1.00  0.00     0.293 HD
ENDBRANCH  18  21
ENDBRANCH   3  13
BRANCH   9  23
ATOM     23  O   UNL     1      15.817  -0.738  19.467  1.00  0.00    -0.507 OA
ATOM     24  H   UNL     1      16.272  -0.394  20.302  1.00  0.00     0.293 HD
ENDBRANCH   9  23
BRANCH   7  25
ATOM     25  O   UNL     1      15.543  -5.508  20.125  1.00  0.00    -0.508 OA
ATOM     26  H   UNL     1      15.474  -5.905  21.055  1.00  0.00     0.293 HD
ENDBRANCH   7  25
TORSDOF 6
ENDMDL
MODEL 6
REMARK VINA RESULT:    -5.099      6.837      8.882
REMARK INTER + INTRA:          -6.078
REMARK INTER:                  -6.174
REMARK INTRA:                   0.097
REMARK UNBOUND:                 0.064
REMARK SMILES Oc1cc(O)c2c(c1)O[C@H](c1ccc(O)c(O)c1)[C@@H](O)C2
REMARK SMILES IDX 21 1 19 2 10 3 9 4 7 5 8 6 2 7 3 8 4 9 6 10 20 11 11 13
REMARK SMILES IDX 18 14 12 15 16 16 13 17 14 18 17 19 15 21 5 23 1 25
REMARK H PARENT 20 12 17 20 15 22 5 24 1 26
REMARK Flexibility Score: inf
ROOT
ATOM      1  C   UNL     1      18.293  -1.700  19.251  1.00  0.00     0.079 C 
ATOM      2  C   UNL     1      16.778  -1.876  19.034  1.00  0.00     0.164 C 
ATOM      3  C   UNL     1      16.186  -2.793  20.124  1.00  0.00     0.232 C 
ATOM      4  O   UNL     1      16.873  -4.044  20.122  1.00  0.00    -0.482 OA
ATOM      5  C   UNL     1      18.253  -4.141  19.911  1.00  0.00     0.131 A 
ATOM      6  C   UNL     1      18.883  -5.372  20.111  1.00  0.00     0.093 A 
ATOM      7  C   UNL     1      20.260  -5.497  19.923  1.00  0.00     0.122 A 
ATOM      8  C   UNL     1      21.016  -4.383  19.542  1.00  0.00     0.092 A 
ATOM      9  C   UNL     1      20.402  -3.141  19.338  1.00  0.00     0.126 A 
ATOM     10  C   UNL     1      18.999  -3.019  19.485  1.00  0.00     0.039 A 
ENDROOT
BRANCH   2  11
ATOM     11  O   UNL     1      16.134  -0.626  19.010  1.00  0.00    -0.389 OA
ATOM     12  H   UNL     1      15.504  -0.626  18.242  1.00  0.00     0.211 HD
ENDBRANCH   2  11
BRANCH   3  13
ATOM     13  C   UNL     1      14.710  -3.023  19.902  1.00  0.00    -0.001 A 
ATOM     14  C   UNL     1      13.796  -1.961  20.013  1.00  0.00     0.057 A 
ATOM     15  C   UNL     1      14.229  -4.314  19.631  1.00  0.00     0.012 A 
ATOM     16  C   UNL     1      12.423  -2.181  19.835  1.00  0.00     0.157 A 
ATOM     17  C   UNL     1      12.861  -4.535  19.453  1.00  0.00     0.050 A 
ATOM     18  C   UNL     1      11.954  -3.474  19.552  1.00  0.00     0.157 A 
BRANCH  16  19
ATOM     19  O   UNL     1      11.524  -1.121  19.940  1.00  0.00    -0.504 OA
ATOM     20  H   UNL     1      11.495  -0.379  19.250  1.00  0.00     0.293 HD
ENDBRANCH  16  19
BRANCH  18  21
ATOM     21  O   UNL     1      10.595  -3.726  19.369  1.00  0.00    -0.504 OA
ATOM     22  H   UNL     1      10.248  -4.638  19.097  1.00  0.00     0.293 HD
ENDBRANCH  18  21
ENDBRANCH   3  13
BRANCH   9  23
ATOM     23  O   UNL     1      21.213  -2.054  19.003  1.00  0.00    -0.507 OA
ATOM     24  H   UNL     1      21.397  -1.771  18.050  1.00  0.00     0.293 HD
ENDBRANCH   9  23
BRANCH   7  25
ATOM     25  O   UNL     1      20.871  -6.733  20.125  1.00  0.00    -0.508 OA
ATOM     26  H   UNL     1      20.471  -7.589  19.758  1.00  0.00     0.293 HD
ENDBRANCH   7  25
TORSDOF 6
ENDMDL
MODEL 7
REMARK VINA RESULT:    -5.090      5.332      7.645
REMARK INTER + INTRA:          -6.067
REMARK INTER:                  -6.450
REMARK INTRA:                   0.383
REMARK UNBOUND:                 0.064
REMARK SMILES Oc1cc(O)c2c(c1)O[C@H](c1ccc(O)c(O)c1)[C@@H](O)C2
REMARK SMILES IDX 21 1 19 2 10 3 9 4 7 5 8 6 2 7 3 8 4 9 6 10 20 11 11 13
REMARK SMILES IDX 18 14 12 15 16 16 13 17 14 18 17 19 15 21 5 23 1 25
REMARK H PARENT 20 12 17 20 15 22 5 24 1 26
REMARK Flexibility Score: inf
ROOT
ATOM      1  C   UNL     1      12.884  -4.373  19.552  1.00  0.00     0.079 C 
ATOM      2  C   UNL     1      14.414  -4.244  19.418  1.00  0.00     0.164 C 
ATOM      3  C   UNL     1      14.876  -2.855  19.900  1.00  0.00     0.232 C 
ATOM      4  O   UNL     1      14.190  -1.840  19.167  1.00  0.00    -0.482 OA
ATOM      5  C   UNL     1      12.843  -1.956  18.808  1.00  0.00     0.131 A 
ATOM      6  C   UNL     1      12.190  -0.849  18.261  1.00  0.00     0.093 A 
ATOM      7  C   UNL     1      10.843  -0.928  17.907  1.00  0.00     0.122 A 
ATOM      8  C   UNL     1      10.138  -2.120  18.111  1.00  0.00     0.092 A 
ATOM      9  C   UNL     1      10.775  -3.240  18.659  1.00  0.00     0.126 A 
ATOM     10  C   UNL     1      12.153  -3.178  18.980  1.00  0.00     0.039 A 
ENDROOT
BRANCH   2  11
ATOM     11  O   UNL     1      15.060  -5.274  20.125  1.00  0.00    -0.389 OA
ATOM     12  H   UNL     1      15.286  -4.925  21.027  1.00  0.00     0.211 HD
ENDBRANCH   2  11
BRANCH   3  13
ATOM     13  C   UNL     1      16.367  -2.686  19.729  1.00  0.00    -0.001 A 
ATOM     14  C   UNL     1      17.244  -3.752  19.996  1.00  0.00     0.057 A 
ATOM     15  C   UNL     1      16.899  -1.442  19.349  1.00  0.00     0.012 A 
ATOM     16  C   UNL     1      18.629  -3.585  19.864  1.00  0.00     0.157 A 
ATOM     17  C   UNL     1      18.279  -1.275  19.217  1.00  0.00     0.050 A 
ATOM     18  C   UNL     1      19.149  -2.341  19.471  1.00  0.00     0.157 A 
BRANCH  16  19
ATOM     19  O   UNL     1      19.491  -4.650  20.124  1.00  0.00    -0.504 OA
ATOM     20  H   UNL     1      19.537  -5.084  21.039  1.00  0.00     0.293 HD
ENDBRANCH  16  19
BRANCH  18  21
ATOM     21  O   UNL     1      20.522  -2.143  19.330  1.00  0.00    -0.504 OA
ATOM     22  H   UNL     1      20.923  -1.221  19.209  1.00  0.00     0.293 HD
ENDBRANCH  18  21
ENDBRANCH   3  13
BRANCH   9  23
ATOM     23  O   UNL     1      10.010  -4.387  18.882  1.00  0.00    -0.507 OA
ATOM     24  H   UNL     1       9.046  -4.362  19.185  1.00  0.00     0.293 HD
ENDBRANCH   9  23
BRANCH   7  25
ATOM     25  O   UNL     1      10.209   0.185  17.360  1.00  0.00    -0.508 OA
ATOM     26  H   UNL     1       9.200   0.238  17.284  1.00  0.00     0.293 HD
ENDBRANCH   7  25
TORSDOF 6
ENDMDL
MODEL 8
REMARK VINA RESULT:    -5.026      3.337      6.922
REMARK INTER + INTRA:          -5.989
REMARK INTER:                  -5.916
REMARK INTRA:                  -0.073
REMARK UNBOUND:                 0.064
REMARK SMILES Oc1cc(O)c2c(c1)O[C@H](c1ccc(O)c(O)c1)[C@@H](O)C2
REMARK SMILES IDX 21 1 19 2 10 3 9 4 7 5 8 6 2 7 3 8 4 9 6 10 20 11 11 13
REMARK SMILES IDX 18 14 12 15 16 16 13 17 14 18 17 19 15 21 5 23 1 25
REMARK H PARENT 20 12 17 20 15 22 5 24 1 26
REMARK Flexibility Score: inf
ROOT
ATOM      1  C   UNL     1      12.382  -3.470  19.500  1.00  0.00     0.079 C 
ATOM      2  C   UNL     1      11.413  -2.276  19.593  1.00  0.00     0.164 C 
ATOM      3  C   UNL     1      11.898  -1.123  18.691  1.00  0.00     0.232 C 
ATOM      4  O   UNL     1      13.229  -0.758  19.053  1.00  0.00    -0.482 OA
ATOM      5  C   UNL     1      14.191  -1.703  19.423  1.00  0.00     0.131 A 
ATOM      6  C   UNL     1      15.518  -1.294  19.580  1.00  0.00     0.093 A 
ATOM      7  C   UNL     1      16.504  -2.216  19.933  1.00  0.00     0.122 A 
ATOM      8  C   UNL     1      16.164  -3.561  20.121  1.00  0.00     0.092 A 
ATOM      9  C   UNL     1      14.841  -3.990  19.967  1.00  0.00     0.126 A 
ATOM     10  C   UNL     1      13.830  -3.051  19.652  1.00  0.00     0.039 A 
ENDROOT
BRANCH   2  11
ATOM     11  O   UNL     1      10.106  -2.673  19.260  1.00  0.00    -0.389 OA
ATOM     12  H   UNL     1       9.689  -1.936  18.742  1.00  0.00     0.211 HD
ENDBRANCH   2  11
BRANCH   3  13
ATOM     13  C   UNL     1      10.991   0.079  18.806  1.00  0.00    -0.001 A 
ATOM     14  C   UNL     1       9.760   0.114  18.129  1.00  0.00     0.057 A 
ATOM     15  C   UNL     1      11.393   1.199  19.552  1.00  0.00     0.012 A 
ATOM     16  C   UNL     1       8.932   1.243  18.214  1.00  0.00     0.157 A 
ATOM     17  C   UNL     1      10.569   2.323  19.638  1.00  0.00     0.050 A 
ATOM     18  C   UNL     1       9.338   2.352  18.974  1.00  0.00     0.157 A 
BRANCH  16  19
ATOM     19  O   UNL     1       7.709   1.266  17.544  1.00  0.00    -0.504 OA
ATOM     20  H   UNL     1       7.655   1.186  16.535  1.00  0.00     0.293 HD
ENDBRANCH  16  19
BRANCH  18  21
ATOM     21  O   UNL     1       8.537   3.488  19.078  1.00  0.00    -0.504 OA
ATOM     22  H   UNL     1       7.539   3.460  18.913  1.00  0.00     0.293 HD
ENDBRANCH  18  21
ENDBRANCH   3  13
BRANCH   9  23
ATOM     23  O   UNL     1      14.569  -5.351  20.123  1.00  0.00    -0.507 OA
ATOM     24  H   UNL     1      14.676  -5.842  21.001  1.00  0.00     0.293 HD
ENDBRANCH   9  23
BRANCH   7  25
ATOM     25  O   UNL     1      17.821  -1.789  20.087  1.00  0.00    -0.508 OA
ATOM     26  H   UNL     1      18.041  -0.871  20.456  1.00  0.00     0.293 HD
ENDBRANCH   7  25
TORSDOF 6
ENDMDL
MODEL 9
REMARK VINA RESULT:    -4.726      3.342      6.592
REMARK INTER + INTRA:          -5.629
REMARK INTER:                  -5.774
REMARK INTRA:                   0.145
REMARK UNBOUND:                 0.064
REMARK SMILES Oc1cc(O)c2c(c1)O[C@H](c1ccc(O)c(O)c1)[C@@H](O)C2
REMARK SMILES IDX 21 1 19 2 10 3 9 4 7 5 8 6 2 7 3 8 4 9 6 10 20 11 11 13
REMARK SMILES IDX 18 14 12 15 16 16 13 17 14 18 17 19 15 21 5 23 1 25
REMARK H PARENT 20 12 17 20 15 22 5 24 1 26
REMARK Flexibility Score: inf
ROOT
ATOM      1  C   UNL     1       9.882  -1.926  19.409  1.00  0.00     0.079 C 
ATOM      2  C   UNL     1      11.390  -1.897  19.722  1.00  0.00     0.164 C 
ATOM      3  C   UNL     1      12.118  -3.010  18.941  1.00  0.00     0.232 C 
ATOM      4  O   UNL     1      11.534  -4.275  19.251  1.00  0.00    -0.482 OA
ATOM      5  C   UNL     1      10.156  -4.441  19.428  1.00  0.00     0.131 A 
ATOM      6  C   UNL     1       9.639  -5.734  19.541  1.00  0.00     0.093 A 
ATOM      7  C   UNL     1       8.267  -5.933  19.703  1.00  0.00     0.122 A 
ATOM      8  C   UNL     1       7.404  -4.832  19.743  1.00  0.00     0.092 A 
ATOM      9  C   UNL     1       7.904  -3.529  19.631  1.00  0.00     0.126 A 
ATOM     10  C   UNL     1       9.299  -3.320  19.509  1.00  0.00     0.039 A 
ENDROOT
BRANCH   2  11
ATOM     11  O   UNL     1      11.930  -0.631  19.436  1.00  0.00    -0.389 OA
ATOM     12  H   UNL     1      11.322   0.051  19.823  1.00  0.00     0.211 HD
ENDBRANCH   2  11
BRANCH   3  13
ATOM     13  C   UNL     1      13.591  -3.035  19.272  1.00  0.00    -0.001 A 
ATOM     14  C   UNL     1      14.409  -1.928  18.983  1.00  0.00     0.057 A 
ATOM     15  C   UNL     1      14.172  -4.187  19.827  1.00  0.00     0.012 A 
ATOM     16  C   UNL     1      15.782  -1.964  19.265  1.00  0.00     0.157 A 
ATOM     17  C   UNL     1      15.539  -4.223  20.109  1.00  0.00     0.050 A 
ATOM     18  C   UNL     1      16.349  -3.117  19.832  1.00  0.00     0.157 A 
BRANCH  16  19
ATOM     19  O   UNL     1      16.584  -0.859  18.981  1.00  0.00    -0.504 OA
ATOM     20  H   UNL     1      17.346  -0.586  19.592  1.00  0.00     0.293 HD
ENDBRANCH  16  19
BRANCH  18  21
ATOM     21  O   UNL     1      17.710  -3.183  20.125  1.00  0.00    -0.504 OA
ATOM     22  H   UNL     1      18.142  -2.582  20.817  1.00  0.00     0.293 HD
ENDBRANCH  18  21
ENDBRANCH   3  13
BRANCH   9  23
ATOM     23  O   UNL     1       6.990  -2.473  19.631  1.00  0.00    -0.507 OA
ATOM     24  H   UNL     1       7.265  -1.500  19.617  1.00  0.00     0.293 HD
ENDBRANCH   9  23
BRANCH   7  25
ATOM     25  O   UNL     1       7.770  -7.229  19.816  1.00  0.00    -0.508 OA
ATOM     26  H   UNL     1       8.387  -8.029  19.901  1.00  0.00     0.293 HD
ENDBRANCH   7  25
TORSDOF 6
ENDMDL
