MODEL 1
REMARK VINA RESULT:    -4.657      0.000      0.000
REMARK INTER + INTRA:         -15.854
REMARK INTER:                 -11.734
REMARK INTRA:                  -4.120
REMARK UNBOUND:                -4.120
REMARK SMILES CCCCCCCCCCCCCCCCCCCCCCCCCCCC(=O)[O-]
REMARK SMILES IDX 15 1 16 2 17 3 18 4 19 5 20 6 21 7 22 8 23 9 24 10 25 11
REMARK SMILES IDX 26 12 27 13 28 14 29 15 30 16 14 17 13 18 12 19 11 20 10 21
REMARK SMILES IDX 9 22 8 23 7 24 6 25 5 26 4 27 3 28 2 29 1 30
REMARK H PARENT
REMARK Flexibility Score: inf
ROOT
ATOM      1  C   UNL     1      17.109  -2.969  47.641  1.00  0.00     0.000 C 
ENDROOT
BRANCH   1   2
ATOM      2  C   UNL     1      18.049  -1.785  47.919  1.00  0.00     0.000 C 
BRANCH   2   3
ATOM      3  C   UNL     1      19.065  -1.560  46.785  1.00  0.00     0.000 C 
BRANCH   3   4
ATOM      4  C   UNL     1      18.511  -0.667  45.663  1.00  0.00     0.000 C 
BRANCH   4   5
ATOM      5  C   UNL     1      18.879  -1.184  44.260  1.00  0.00     0.000 C 
BRANCH   5   6
ATOM      6  C   UNL     1      19.720  -0.178  43.455  1.00  0.00     0.000 C 
BRANCH   6   7
ATOM      7  C   UNL     1      21.203  -0.187  43.862  1.00  0.00     0.000 C 
BRANCH   7   8
ATOM      8  C   UNL     1      21.760   1.225  44.124  1.00  0.00     0.000 C 
BRANCH   8   9
ATOM      9  C   UNL     1      22.663   1.355  45.365  1.00  0.00     0.000 C 
BRANCH   9  10
ATOM     10  C   UNL     1      21.965   2.054  46.543  1.00  0.00     0.000 C 
BRANCH  10  11
ATOM     11  C   UNL     1      21.568   1.076  47.661  1.00  0.00     0.000 C 
BRANCH  11  12
ATOM     12  C   UNL     1      22.650   0.015  47.963  1.00  0.00     0.006 C 
BRANCH  12  13
ATOM     13  C   UNL     1      23.833   0.604  48.741  1.00  0.00     0.053 C 
BRANCH  13  14
ATOM     14  C   UNL     1      24.875  -0.441  48.989  1.00  0.00     0.041 C 
ATOM     15  O   UNL     1      24.911  -1.049  50.092  1.00  0.00    -0.550 OA
ATOM     16  O   UNL     1      25.829  -0.718  48.019  1.00  0.00    -0.550 OA
ENDBRANCH  13  14
ENDBRANCH  12  13
ENDBRANCH  11  12
ENDBRANCH  10  11
ENDBRANCH   9  10
ENDBRANCH   8   9
ENDBRANCH   7   8
ENDBRANCH   6   7
ENDBRANCH   5   6
ENDBRANCH   4   5
ENDBRANCH   3   4
ENDBRANCH   2   3
ENDBRANCH   1   2
BRANCH   1  17
ATOM     17  C   UNL     1      15.632  -2.624  47.894  1.00  0.00     0.000 C 
BRANCH  17  18
ATOM     18  C   UNL     1      14.733  -2.912  46.678  1.00  0.00     0.000 C 
BRANCH  18  19
ATOM     19  C   UNL     1      15.233  -2.327  45.344  1.00  0.00     0.000 C 
BRANCH  19  20
ATOM     20  C   UNL     1      14.151  -2.305  44.254  1.00  0.00     0.000 C 
BRANCH  20  21
ATOM     21  C   UNL     1      12.776  -2.667  44.836  1.00  0.00     0.000 C 
BRANCH  21  22
ATOM     22  C   UNL     1      11.659  -1.744  44.323  1.00  0.00    -0.000 C 
BRANCH  22  23
ATOM     23  C   UNL     1      12.044  -1.020  43.021  1.00  0.00    -0.000 C 
BRANCH  23  24
ATOM     24  C   UNL     1      12.284   0.485  43.225  1.00  0.00    -0.000 C 
BRANCH  24  25
ATOM     25  C   UNL     1      11.465   1.088  44.387  1.00  0.00    -0.000 C 
BRANCH  25  26
ATOM     26  C   UNL     1      12.348   1.865  45.378  1.00  0.00    -0.000 C 
BRANCH  26  27
ATOM     27  C   UNL     1      13.558   1.048  45.859  1.00  0.00    -0.000 C 
BRANCH  27  28
ATOM     28  C   UNL     1      13.369   0.495  47.280  1.00  0.00    -0.000 C 
BRANCH  28  29
ATOM     29  C   UNL     1      14.518   0.933  48.197  1.00  0.00    -0.003 C 
ATOM     30  C   UNL     1      15.815   1.108  47.412  1.00  0.00     0.004 C 
ENDBRANCH  28  29
ENDBRANCH  27  28
ENDBRANCH  26  27
ENDBRANCH  25  26
ENDBRANCH  24  25
ENDBRANCH  23  24
ENDBRANCH  22  23
ENDBRANCH  21  22
ENDBRANCH  20  21
ENDBRANCH  19  20
ENDBRANCH  18  19
ENDBRANCH  17  18
ENDBRANCH   1  17
TORSDOF 26
ENDMDL
MODEL 2
REMARK VINA RESULT:    -4.500      3.908      9.966
REMARK INTER + INTRA:         -15.460
REMARK INTER:                 -10.931
REMARK INTRA:                  -4.529
REMARK UNBOUND:                -4.120
REMARK SMILES CCCCCCCCCCCCCCCCCCCCCCCCCCCC(=O)[O-]
REMARK SMILES IDX 15 1 16 2 17 3 18 4 19 5 20 6 21 7 22 8 23 9 24 10 25 11
REMARK SMILES IDX 26 12 27 13 28 14 29 15 30 16 14 17 13 18 12 19 11 20 10 21
REMARK SMILES IDX 9 22 8 23 7 24 6 25 5 26 4 27 3 28 2 29 1 30
REMARK H PARENT
REMARK Flexibility Score: inf
ROOT
ATOM      1  C   UNL     1      24.287   0.318  49.289  1.00  0.00     0.000 C 
ENDROOT
BRANCH   1   2
ATOM      2  C   UNL     1      23.473  -0.204  48.094  1.00  0.00     0.000 C 
BRANCH   2   3
ATOM      3  C   UNL     1      22.094   0.472  47.981  1.00  0.00     0.000 C 
BRANCH   3   4
ATOM      4  C   UNL     1      21.236  -0.120  46.852  1.00  0.00     0.000 C 
BRANCH   4   5
ATOM      5  C   UNL     1      22.008  -1.139  45.994  1.00  0.00     0.000 C 
BRANCH   5   6
ATOM      6  C   UNL     1      21.463  -1.247  44.560  1.00  0.00     0.000 C 
BRANCH   6   7
ATOM      7  C   UNL     1      20.367  -0.209  44.263  1.00  0.00     0.000 C 
BRANCH   7   8
ATOM      8  C   UNL     1      19.102  -0.835  43.646  1.00  0.00     0.000 C 
BRANCH   8   9
ATOM      9  C   UNL     1      18.811  -2.286  44.074  1.00  0.00     0.000 C 
BRANCH   9  10
ATOM     10  C   UNL     1      17.762  -2.381  45.195  1.00  0.00     0.000 C 
BRANCH  10  11
ATOM     11  C   UNL     1      18.394  -2.388  46.597  1.00  0.00     0.000 C 
BRANCH  11  12
ATOM     12  C   UNL     1      17.539  -1.662  47.660  1.00  0.00     0.006 C 
BRANCH  12  13
ATOM     13  C   UNL     1      17.539  -0.141  47.458  1.00  0.00     0.053 C 
BRANCH  13  14
ATOM     14  C   UNL     1      16.149   0.405  47.559  1.00  0.00     0.041 C 
ATOM     15  O   UNL     1      15.907   1.380  48.320  1.00  0.00    -0.550 OA
ATOM     16  O   UNL     1      15.115  -0.183  46.843  1.00  0.00    -0.550 OA
ENDBRANCH  13  14
ENDBRANCH  12  13
ENDBRANCH  11  12
ENDBRANCH  10  11
ENDBRANCH   9  10
ENDBRANCH   8   9
ENDBRANCH   7   8
ENDBRANCH   6   7
ENDBRANCH   5   6
ENDBRANCH   4   5
ENDBRANCH   3   4
ENDBRANCH   2   3
ENDBRANCH   1   2
BRANCH   1  17
ATOM     17  C   UNL     1      25.129  -0.783  49.957  1.00  0.00     0.000 C 
BRANCH  17  18
ATOM     18  C   UNL     1      25.066  -2.124  49.203  1.00  0.00     0.000 C 
BRANCH  18  19
ATOM     19  C   UNL     1      26.417  -2.844  49.040  1.00  0.00     0.000 C 
BRANCH  19  20
ATOM     20  C   UNL     1      27.463  -1.999  48.298  1.00  0.00     0.000 C 
BRANCH  20  21
ATOM     21  C   UNL     1      26.901  -1.470  46.969  1.00  0.00     0.000 C 
BRANCH  21  22
ATOM     22  C   UNL     1      27.410  -0.058  46.637  1.00  0.00    -0.000 C 
BRANCH  22  23
ATOM     23  C   UNL     1      28.068   0.632  47.844  1.00  0.00    -0.000 C 
BRANCH  23  24
ATOM     24  C   UNL     1      27.332   1.912  48.274  1.00  0.00    -0.000 C 
BRANCH  24  25
ATOM     25  C   UNL     1      26.717   2.695  47.093  1.00  0.00    -0.000 C 
BRANCH  25  26
ATOM     26  C   UNL     1      25.281   3.158  47.389  1.00  0.00    -0.000 C 
BRANCH  26  27
ATOM     27  C   UNL     1      24.923   4.472  46.675  1.00  0.00    -0.000 C 
BRANCH  27  28
ATOM     28  C   UNL     1      23.923   4.267  45.527  1.00  0.00    -0.000 C 
BRANCH  28  29
ATOM     29  C   UNL     1      23.288   2.873  45.595  1.00  0.00    -0.003 C 
ATOM     30  C   UNL     1      23.036   2.313  44.198  1.00  0.00     0.004 C 
ENDBRANCH  28  29
ENDBRANCH  27  28
ENDBRANCH  26  27
ENDBRANCH  25  26
ENDBRANCH  24  25
ENDBRANCH  23  24
ENDBRANCH  22  23
ENDBRANCH  21  22
ENDBRANCH  20  21
ENDBRANCH  19  20
ENDBRANCH  18  19
ENDBRANCH  17  18
ENDBRANCH   1  17
TORSDOF 26
ENDMDL
MODEL 3
REMARK VINA RESULT:    -4.473      4.399     10.808
REMARK INTER + INTRA:         -15.392
REMARK INTER:                 -12.065
REMARK INTRA:                  -3.327
REMARK UNBOUND:                -4.120
REMARK SMILES CCCCCCCCCCCCCCCCCCCCCCCCCCCC(=O)[O-]
REMARK SMILES IDX 15 1 16 2 17 3 18 4 19 5 20 6 21 7 22 8 23 9 24 10 25 11
REMARK SMILES IDX 26 12 27 13 28 14 29 15 30 16 14 17 13 18 12 19 11 20 10 21
REMARK SMILES IDX 9 22 8 23 7 24 6 25 5 26 4 27 3 28 2 29 1 30
REMARK H PARENT
REMARK Flexibility Score: inf
ROOT
ATOM      1  C   UNL     1      22.127   0.934  48.254  1.00  0.00     0.000 C 
ENDROOT
BRANCH   1   2
ATOM      2  C   UNL     1      20.922   0.451  47.432  1.00  0.00     0.000 C 
BRANCH   2   3
ATOM      3  C   UNL     1      21.326  -0.528  46.314  1.00  0.00     0.000 C 
BRANCH   3   4
ATOM      4  C   UNL     1      20.206  -1.521  45.964  1.00  0.00     0.000 C 
BRANCH   4   5
ATOM      5  C   UNL     1      18.937  -0.822  45.445  1.00  0.00     0.000 C 
BRANCH   5   6
ATOM      6  C   UNL     1      17.648  -1.580  45.805  1.00  0.00     0.000 C 
BRANCH   6   7
ATOM      7  C   UNL     1      17.165  -1.281  47.235  1.00  0.00     0.000 C 
BRANCH   7   8
ATOM      8  C   UNL     1      17.213   0.219  47.581  1.00  0.00     0.000 C 
BRANCH   8   9
ATOM      9  C   UNL     1      16.007   1.044  47.093  1.00  0.00     0.000 C 
BRANCH   9  10
ATOM     10  C   UNL     1      14.752   0.840  47.958  1.00  0.00     0.000 C 
BRANCH  10  11
ATOM     11  C   UNL     1      13.562   0.289  47.155  1.00  0.00     0.000 C 
BRANCH  11  12
ATOM     12  C   UNL     1      13.475   0.853  45.719  1.00  0.00     0.006 C 
BRANCH  12  13
ATOM     13  C   UNL     1      12.251   1.758  45.531  1.00  0.00     0.053 C 
BRANCH  13  14
ATOM     14  C   UNL     1      11.738   1.667  44.128  1.00  0.00     0.041 C 
ATOM     15  O   UNL     1      11.882   2.637  43.337  1.00  0.00    -0.550 OA
ATOM     16  O   UNL     1      11.068   0.526  43.704  1.00  0.00    -0.550 OA
ENDBRANCH  13  14
ENDBRANCH  12  13
ENDBRANCH  11  12
ENDBRANCH  10  11
ENDBRANCH   9  10
ENDBRANCH   8   9
ENDBRANCH   7   8
ENDBRANCH   6   7
ENDBRANCH   5   6
ENDBRANCH   4   5
ENDBRANCH   3   4
ENDBRANCH   2   3
ENDBRANCH   1   2
BRANCH   1  17
ATOM     17  C   UNL     1      23.321  -0.033  48.176  1.00  0.00     0.000 C 
BRANCH  17  18
ATOM     18  C   UNL     1      24.346   0.189  49.304  1.00  0.00     0.000 C 
BRANCH  18  19
ATOM     19  C   UNL     1      24.985  -1.094  49.866  1.00  0.00     0.000 C 
BRANCH  19  20
ATOM     20  C   UNL     1      25.756  -1.895  48.807  1.00  0.00     0.000 C 
BRANCH  20  21
ATOM     21  C   UNL     1      27.272  -1.707  48.970  1.00  0.00     0.000 C 
BRANCH  21  22
ATOM     22  C   UNL     1      27.823  -0.577  48.085  1.00  0.00    -0.000 C 
BRANCH  22  23
ATOM     23  C   UNL     1      27.145  -0.525  46.705  1.00  0.00    -0.000 C 
BRANCH  23  24
ATOM     24  C   UNL     1      26.648   0.884  46.338  1.00  0.00    -0.000 C 
BRANCH  24  25
ATOM     25  C   UNL     1      26.660   1.870  47.526  1.00  0.00    -0.000 C 
BRANCH  25  26
ATOM     26  C   UNL     1      26.302   3.302  47.095  1.00  0.00    -0.000 C 
BRANCH  26  27
ATOM     27  C   UNL     1      24.800   3.603  47.230  1.00  0.00    -0.000 C 
BRANCH  27  28
ATOM     28  C   UNL     1      24.273   4.496  46.097  1.00  0.00    -0.000 C 
BRANCH  28  29
ATOM     29  C   UNL     1      24.041   3.682  44.818  1.00  0.00    -0.003 C 
ATOM     30  C   UNL     1      23.122   2.493  45.080  1.00  0.00     0.004 C 
ENDBRANCH  28  29
ENDBRANCH  27  28
ENDBRANCH  26  27
ENDBRANCH  25  26
ENDBRANCH  24  25
ENDBRANCH  23  24
ENDBRANCH  22  23
ENDBRANCH  21  22
ENDBRANCH  20  21
ENDBRANCH  19  20
ENDBRANCH  18  19
ENDBRANCH  17  18
ENDBRANCH   1  17
TORSDOF 26
ENDMDL
MODEL 4
REMARK VINA RESULT:    -4.445      4.405     10.989
REMARK INTER + INTRA:         -15.320
REMARK INTER:                 -12.160
REMARK INTRA:                  -3.161
REMARK UNBOUND:                -4.120
REMARK SMILES CCCCCCCCCCCCCCCCCCCCCCCCCCCC(=O)[O-]
REMARK SMILES IDX 15 1 16 2 17 3 18 4 19 5 20 6 21 7 22 8 23 9 24 10 25 11
REMARK SMILES IDX 26 12 27 13 28 14 29 15 30 16 14 17 13 18 12 19 11 20 10 21
REMARK SMILES IDX 9 22 8 23 7 24 6 25 5 26 4 27 3 28 2 29 1 30
REMARK H PARENT
REMARK Flexibility Score: inf
ROOT
ATOM      1  C   UNL     1      24.540  -0.016  49.431  1.00  0.00     0.000 C 
ENDROOT
BRANCH   1   2
ATOM      2  C   UNL     1      23.409  -0.134  48.397  1.00  0.00     0.000 C 
BRANCH   2   3
ATOM      3  C   UNL     1      22.661   1.195  48.187  1.00  0.00     0.000 C 
BRANCH   3   4
ATOM      4  C   UNL     1      21.431   1.044  47.278  1.00  0.00     0.000 C 
BRANCH   4   5
ATOM      5  C   UNL     1      20.216   0.460  48.019  1.00  0.00     0.000 C 
BRANCH   5   6
ATOM      6  C   UNL     1      19.251  -0.291  47.086  1.00  0.00     0.000 C 
BRANCH   6   7
ATOM      7  C   UNL     1      17.884  -0.561  47.739  1.00  0.00     0.000 C 
BRANCH   7   8
ATOM      8  C   UNL     1      16.730   0.181  47.040  1.00  0.00     0.000 C 
BRANCH   8   9
ATOM      9  C   UNL     1      15.669   0.782  47.981  1.00  0.00     0.000 C 
BRANCH   9  10
ATOM     10  C   UNL     1      14.276   0.160  47.788  1.00  0.00     0.000 C 
BRANCH  10  11
ATOM     11  C   UNL     1      13.171   1.219  47.636  1.00  0.00     0.000 C 
BRANCH  11  12
ATOM     12  C   UNL     1      12.968   1.693  46.180  1.00  0.00     0.006 C 
BRANCH  12  13
ATOM     13  C   UNL     1      12.810   0.516  45.209  1.00  0.00     0.053 C 
BRANCH  13  14
ATOM     14  C   UNL     1      12.148   0.961  43.943  1.00  0.00     0.041 C 
ATOM     15  O   UNL     1      12.641   0.647  42.827  1.00  0.00    -0.550 OA
ATOM     16  O   UNL     1      11.007   1.752  43.993  1.00  0.00    -0.550 OA
ENDBRANCH  13  14
ENDBRANCH  12  13
ENDBRANCH  11  12
ENDBRANCH  10  11
ENDBRANCH   9  10
ENDBRANCH   8   9
ENDBRANCH   7   8
ENDBRANCH   6   7
ENDBRANCH   5   6
ENDBRANCH   4   5
ENDBRANCH   3   4
ENDBRANCH   2   3
ENDBRANCH   1   2
BRANCH   1  17
ATOM     17  C   UNL     1      25.044  -1.386  49.915  1.00  0.00     0.000 C 
BRANCH  17  18
ATOM     18  C   UNL     1      25.656  -2.233  48.784  1.00  0.00     0.000 C 
BRANCH  18  19
ATOM     19  C   UNL     1      27.147  -2.572  48.957  1.00  0.00     0.000 C 
BRANCH  19  20
ATOM     20  C   UNL     1      28.031  -1.328  49.126  1.00  0.00     0.000 C 
BRANCH  20  21
ATOM     21  C   UNL     1      28.092  -0.515  47.824  1.00  0.00     0.000 C 
BRANCH  21  22
ATOM     22  C   UNL     1      27.496   0.894  47.982  1.00  0.00    -0.000 C 
BRANCH  22  23
ATOM     23  C   UNL     1      26.741   1.358  46.725  1.00  0.00    -0.000 C 
BRANCH  23  24
ATOM     24  C   UNL     1      26.262   0.187  45.850  1.00  0.00    -0.000 C 
BRANCH  24  25
ATOM     25  C   UNL     1      24.856   0.401  45.247  1.00  0.00    -0.000 C 
BRANCH  25  26
ATOM     26  C   UNL     1      24.767   1.701  44.431  1.00  0.00    -0.000 C 
BRANCH  26  27
ATOM     27  C   UNL     1      23.418   2.419  44.606  1.00  0.00    -0.000 C 
BRANCH  27  28
ATOM     28  C   UNL     1      23.513   3.634  45.541  1.00  0.00    -0.000 C 
BRANCH  28  29
ATOM     29  C   UNL     1      24.782   4.447  45.257  1.00  0.00    -0.003 C 
ATOM     30  C   UNL     1      25.131   5.355  46.434  1.00  0.00     0.004 C 
ENDBRANCH  28  29
ENDBRANCH  27  28
ENDBRANCH  26  27
ENDBRANCH  25  26
ENDBRANCH  24  25
ENDBRANCH  23  24
ENDBRANCH  22  23
ENDBRANCH  21  22
ENDBRANCH  20  21
ENDBRANCH  19  20
ENDBRANCH  18  19
ENDBRANCH  17  18
ENDBRANCH   1  17
TORSDOF 26
ENDMDL
MODEL 5
REMARK VINA RESULT:    -4.430      4.068      9.854
REMARK INTER + INTRA:         -15.284
REMARK INTER:                 -12.018
REMARK INTRA:                  -3.266
REMARK UNBOUND:                -4.120
REMARK SMILES CCCCCCCCCCCCCCCCCCCCCCCCCCCC(=O)[O-]
REMARK SMILES IDX 15 1 16 2 17 3 18 4 19 5 20 6 21 7 22 8 23 9 24 10 25 11
REMARK SMILES IDX 26 12 27 13 28 14 29 15 30 16 14 17 13 18 12 19 11 20 10 21
REMARK SMILES IDX 9 22 8 23 7 24 6 25 5 26 4 27 3 28 2 29 1 30
REMARK H PARENT
REMARK Flexibility Score: inf
ROOT
ATOM      1  C   UNL     1      18.707  -1.359  44.521  1.00  0.00     0.000 C 
ENDROOT
BRANCH   1   2
ATOM      2  C   UNL     1      19.109  -2.662  45.232  1.00  0.00     0.000 C 
BRANCH   2   3
ATOM      3  C   UNL     1      18.200  -2.982  46.433  1.00  0.00     0.000 C 
BRANCH   3   4
ATOM      4  C   UNL     1      18.227  -1.882  47.505  1.00  0.00     0.000 C 
BRANCH   4   5
ATOM      5  C   UNL     1      16.924  -1.064  47.547  1.00  0.00     0.000 C 
BRANCH   5   6
ATOM      6  C   UNL     1      17.166   0.451  47.447  1.00  0.00     0.000 C 
BRANCH   6   7
ATOM      7  C   UNL     1      15.907   1.275  47.772  1.00  0.00     0.000 C 
BRANCH   7   8
ATOM      8  C   UNL     1      14.745   0.410  48.294  1.00  0.00     0.000 C 
BRANCH   8   9
ATOM      9  C   UNL     1      13.342   1.024  48.126  1.00  0.00     0.000 C 
BRANCH   9  10
ATOM     10  C   UNL     1      12.688   0.663  46.781  1.00  0.00     0.000 C 
BRANCH  10  11
ATOM     11  C   UNL     1      12.886   1.753  45.715  1.00  0.00     0.000 C 
BRANCH  11  12
ATOM     12  C   UNL     1      11.695   1.882  44.739  1.00  0.00     0.006 C 
BRANCH  12  13
ATOM     13  C   UNL     1      11.970   1.187  43.400  1.00  0.00     0.053 C 
BRANCH  13  14
ATOM     14  C   UNL     1      11.947  -0.301  43.562  1.00  0.00     0.041 C 
ATOM     15  O   UNL     1      13.023  -0.956  43.540  1.00  0.00    -0.550 OA
ATOM     16  O   UNL     1      10.737  -0.968  43.701  1.00  0.00    -0.550 OA
ENDBRANCH  13  14
ENDBRANCH  12  13
ENDBRANCH  11  12
ENDBRANCH  10  11
ENDBRANCH   9  10
ENDBRANCH   8   9
ENDBRANCH   7   8
ENDBRANCH   6   7
ENDBRANCH   5   6
ENDBRANCH   4   5
ENDBRANCH   3   4
ENDBRANCH   2   3
ENDBRANCH   1   2
BRANCH   1  17
ATOM     17  C   UNL     1      19.827  -0.809  43.620  1.00  0.00     0.000 C 
BRANCH  17  18
ATOM     18  C   UNL     1      20.826   0.079  44.383  1.00  0.00     0.000 C 
BRANCH  18  19
ATOM     19  C   UNL     1      22.154  -0.605  44.757  1.00  0.00     0.000 C 
BRANCH  19  20
ATOM     20  C   UNL     1      22.356  -0.735  46.274  1.00  0.00     0.000 C 
BRANCH  20  21
ATOM     21  C   UNL     1      21.290   0.060  47.042  1.00  0.00     0.000 C 
BRANCH  21  22
ATOM     22  C   UNL     1      21.892   0.916  48.168  1.00  0.00    -0.000 C 
BRANCH  22  23
ATOM     23  C   UNL     1      23.310   0.464  48.559  1.00  0.00    -0.000 C 
BRANCH  23  24
ATOM     24  C   UNL     1      24.325   1.619  48.558  1.00  0.00    -0.000 C 
BRANCH  24  25
ATOM     25  C   UNL     1      24.962   1.880  47.175  1.00  0.00    -0.000 C 
BRANCH  25  26
ATOM     26  C   UNL     1      25.152   3.380  46.896  1.00  0.00    -0.000 C 
BRANCH  26  27
ATOM     27  C   UNL     1      23.936   4.012  46.199  1.00  0.00    -0.000 C 
BRANCH  27  28
ATOM     28  C   UNL     1      23.158   3.003  45.340  1.00  0.00    -0.000 C 
BRANCH  28  29
ATOM     29  C   UNL     1      23.829   2.810  43.975  1.00  0.00    -0.003 C 
ATOM     30  C   UNL     1      23.536   3.984  43.045  1.00  0.00     0.004 C 
ENDBRANCH  28  29
ENDBRANCH  27  28
ENDBRANCH  26  27
ENDBRANCH  25  26
ENDBRANCH  24  25
ENDBRANCH  23  24
ENDBRANCH  22  23
ENDBRANCH  21  22
ENDBRANCH  20  21
ENDBRANCH  19  20
ENDBRANCH  18  19
ENDBRANCH  17  18
ENDBRANCH   1  17
TORSDOF 26
ENDMDL
MODEL 6
REMARK VINA RESULT:    -4.386      2.168      3.535
REMARK INTER + INTRA:         -15.173
REMARK INTER:                 -11.842
REMARK INTRA:                  -3.331
REMARK UNBOUND:                -4.120
REMARK SMILES CCCCCCCCCCCCCCCCCCCCCCCCCCCC(=O)[O-]
REMARK SMILES IDX 15 1 16 2 17 3 18 4 19 5 20 6 21 7 22 8 23 9 24 10 25 11
REMARK SMILES IDX 26 12 27 13 28 14 29 15 30 16 14 17 13 18 12 19 11 20 10 21
REMARK SMILES IDX 9 22 8 23 7 24 6 25 5 26 4 27 3 28 2 29 1 30
REMARK H PARENT
REMARK Flexibility Score: inf
ROOT
ATOM      1  C   UNL     1      17.845  -0.874  47.035  1.00  0.00     0.000 C 
ENDROOT
BRANCH   1   2
ATOM      2  C   UNL     1      19.098  -0.308  47.722  1.00  0.00     0.000 C 
BRANCH   2   3
ATOM      3  C   UNL     1      20.301  -0.213  46.766  1.00  0.00     0.000 C 
BRANCH   3   4
ATOM      4  C   UNL     1      21.629   0.014  47.506  1.00  0.00     0.000 C 
BRANCH   4   5
ATOM      5  C   UNL     1      22.811  -0.711  46.838  1.00  0.00     0.000 C 
BRANCH   5   6
ATOM      6  C   UNL     1      24.019  -0.873  47.775  1.00  0.00     0.000 C 
BRANCH   6   7
ATOM      7  C   UNL     1      23.972   0.089  48.975  1.00  0.00     0.000 C 
BRANCH   7   8
ATOM      8  C   UNL     1      24.759   1.390  48.730  1.00  0.00     0.000 C 
BRANCH   8   9
ATOM      9  C   UNL     1      25.895   1.286  47.695  1.00  0.00     0.000 C 
BRANCH   9  10
ATOM     10  C   UNL     1      25.787   2.341  46.580  1.00  0.00     0.000 C 
BRANCH  10  11
ATOM     11  C   UNL     1      24.983   3.578  47.012  1.00  0.00     0.000 C 
BRANCH  11  12
ATOM     12  C   UNL     1      23.884   3.980  46.003  1.00  0.00     0.006 C 
BRANCH  12  13
ATOM     13  C   UNL     1      22.798   2.905  45.876  1.00  0.00     0.053 C 
BRANCH  13  14
ATOM     14  C   UNL     1      22.760   2.353  44.486  1.00  0.00     0.041 C 
ATOM     15  O   UNL     1      21.900   1.486  44.173  1.00  0.00    -0.550 OA
ATOM     16  O   UNL     1      23.694   2.767  43.546  1.00  0.00    -0.550 OA
ENDBRANCH  13  14
ENDBRANCH  12  13
ENDBRANCH  11  12
ENDBRANCH  10  11
ENDBRANCH   9  10
ENDBRANCH   8   9
ENDBRANCH   7   8
ENDBRANCH   6   7
ENDBRANCH   5   6
ENDBRANCH   4   5
ENDBRANCH   3   4
ENDBRANCH   2   3
ENDBRANCH   1   2
BRANCH   1  17
ATOM     17  C   UNL     1      17.426  -2.241  47.604  1.00  0.00     0.000 C 
BRANCH  17  18
ATOM     18  C   UNL     1      16.007  -2.657  47.177  1.00  0.00     0.000 C 
BRANCH  18  19
ATOM     19  C   UNL     1      15.629  -2.298  45.728  1.00  0.00     0.000 C 
BRANCH  19  20
ATOM     20  C   UNL     1      14.234  -2.800  45.328  1.00  0.00     0.000 C 
BRANCH  20  21
ATOM     21  C   UNL     1      13.735  -2.087  44.063  1.00  0.00     0.000 C 
BRANCH  21  22
ATOM     22  C   UNL     1      12.225  -2.274  43.840  1.00  0.00    -0.000 C 
BRANCH  22  23
ATOM     23  C   UNL     1      11.513  -0.955  43.488  1.00  0.00    -0.000 C 
BRANCH  23  24
ATOM     24  C   UNL     1      12.449   0.068  42.823  1.00  0.00    -0.000 C 
BRANCH  24  25
ATOM     25  C   UNL     1      12.440   1.451  43.511  1.00  0.00    -0.000 C 
BRANCH  25  26
ATOM     26  C   UNL     1      11.750   1.411  44.884  1.00  0.00    -0.000 C 
BRANCH  26  27
ATOM     27  C   UNL     1      12.703   1.772  46.036  1.00  0.00    -0.000 C 
BRANCH  27  28
ATOM     28  C   UNL     1      13.898   0.813  46.135  1.00  0.00    -0.000 C 
BRANCH  28  29
ATOM     29  C   UNL     1      14.875   1.263  47.228  1.00  0.00    -0.003 C 
ATOM     30  C   UNL     1      14.472   0.707  48.591  1.00  0.00     0.004 C 
ENDBRANCH  28  29
ENDBRANCH  27  28
ENDBRANCH  26  27
ENDBRANCH  25  26
ENDBRANCH  24  25
ENDBRANCH  23  24
ENDBRANCH  22  23
ENDBRANCH  21  22
ENDBRANCH  20  21
ENDBRANCH  19  20
ENDBRANCH  18  19
ENDBRANCH  17  18
ENDBRANCH   1  17
TORSDOF 26
ENDMDL
MODEL 7
REMARK VINA RESULT:    -4.375      9.950     13.372
REMARK INTER + INTRA:         -15.145
REMARK INTER:                 -13.226
REMARK INTRA:                  -1.919
REMARK UNBOUND:                -4.120
REMARK SMILES CCCCCCCCCCCCCCCCCCCCCCCCCCCC(=O)[O-]
REMARK SMILES IDX 15 1 16 2 17 3 18 4 19 5 20 6 21 7 22 8 23 9 24 10 25 11
REMARK SMILES IDX 26 12 27 13 28 14 29 15 30 16 14 17 13 18 12 19 11 20 10 21
REMARK SMILES IDX 9 22 8 23 7 24 6 25 5 26 4 27 3 28 2 29 1 30
REMARK H PARENT
REMARK Flexibility Score: inf
ROOT
ATOM      1  C   UNL     1      23.883  13.060  47.944  1.00  0.00     0.000 C 
ENDROOT
BRANCH   1   2
ATOM      2  C   UNL     1      25.010  13.873  47.287  1.00  0.00     0.000 C 
BRANCH   2   3
ATOM      3  C   UNL     1      26.378  13.625  47.947  1.00  0.00     0.000 C 
BRANCH   3   4
ATOM      4  C   UNL     1      27.451  14.619  47.477  1.00  0.00     0.000 C 
BRANCH   4   5
ATOM      5  C   UNL     1      27.358  14.922  45.971  1.00  0.00     0.000 C 
BRANCH   5   6
ATOM      6  C   UNL     1      27.848  13.757  45.095  1.00  0.00     0.000 C 
BRANCH   6   7
ATOM      7  C   UNL     1      26.763  13.241  44.134  1.00  0.00     0.000 C 
BRANCH   7   8
ATOM      8  C   UNL     1      26.212  11.861  44.538  1.00  0.00     0.000 C 
BRANCH   8   9
ATOM      9  C   UNL     1      26.802  10.666  43.767  1.00  0.00     0.000 C 
BRANCH   9  10
ATOM     10  C   UNL     1      26.867   9.382  44.612  1.00  0.00     0.000 C 
BRANCH  10  11
ATOM     11  C   UNL     1      25.913   8.289  44.102  1.00  0.00     0.000 C 
BRANCH  11  12
ATOM     12  C   UNL     1      25.446   8.511  42.646  1.00  0.00     0.006 C 
BRANCH  12  13
ATOM     13  C   UNL     1      26.291   7.714  41.644  1.00  0.00     0.053 C 
BRANCH  13  14
ATOM     14  C   UNL     1      25.428   7.141  40.564  1.00  0.00     0.041 C 
ATOM     15  O   UNL     1      25.948   6.498  39.612  1.00  0.00    -0.550 OA
ATOM     16  O   UNL     1      24.054   7.345  40.587  1.00  0.00    -0.550 OA
ENDBRANCH  13  14
ENDBRANCH  12  13
ENDBRANCH  11  12
ENDBRANCH  10  11
ENDBRANCH   9  10
ENDBRANCH   8   9
ENDBRANCH   7   8
ENDBRANCH   6   7
ENDBRANCH   5   6
ENDBRANCH   4   5
ENDBRANCH   3   4
ENDBRANCH   2   3
ENDBRANCH   1   2
BRANCH   1  17
ATOM     17  C   UNL     1      23.315  13.744  49.199  1.00  0.00     0.000 C 
BRANCH  17  18
ATOM     18  C   UNL     1      22.144  12.967  49.827  1.00  0.00     0.000 C 
BRANCH  18  19
ATOM     19  C   UNL     1      22.003  11.508  49.356  1.00  0.00     0.000 C 
BRANCH  19  20
ATOM     20  C   UNL     1      20.561  10.986  49.439  1.00  0.00     0.000 C 
BRANCH  20  21
ATOM     21  C   UNL     1      20.529   9.451  49.414  1.00  0.00     0.000 C 
BRANCH  21  22
ATOM     22  C   UNL     1      19.781   8.858  50.619  1.00  0.00    -0.000 C 
BRANCH  22  23
ATOM     23  C   UNL     1      18.544   9.686  51.011  1.00  0.00    -0.000 C 
BRANCH  23  24
ATOM     24  C   UNL     1      17.273   9.249  50.264  1.00  0.00    -0.000 C 
BRANCH  24  25
ATOM     25  C   UNL     1      17.236   7.739  49.941  1.00  0.00    -0.000 C 
BRANCH  25  26
ATOM     26  C   UNL     1      15.809   7.169  49.992  1.00  0.00    -0.000 C 
BRANCH  26  27
ATOM     27  C   UNL     1      15.440   6.382  48.724  1.00  0.00    -0.000 C 
BRANCH  27  28
ATOM     28  C   UNL     1      14.324   7.058  47.913  1.00  0.00    -0.000 C 
BRANCH  28  29
ATOM     29  C   UNL     1      14.877   8.220  47.080  1.00  0.00    -0.003 C 
ATOM     30  C   UNL     1      16.171   7.825  46.372  1.00  0.00     0.004 C 
ENDBRANCH  28  29
ENDBRANCH  27  28
ENDBRANCH  26  27
ENDBRANCH  25  26
ENDBRANCH  24  25
ENDBRANCH  23  24
ENDBRANCH  22  23
ENDBRANCH  21  22
ENDBRANCH  20  21
ENDBRANCH  19  20
ENDBRANCH  18  19
ENDBRANCH  17  18
ENDBRANCH   1  17
TORSDOF 26
ENDMDL
MODEL 8
REMARK VINA RESULT:    -4.373      3.928      6.360
REMARK INTER + INTRA:         -15.139
REMARK INTER:                 -12.664
REMARK INTRA:                  -2.476
REMARK UNBOUND:                -4.120
REMARK SMILES CCCCCCCCCCCCCCCCCCCCCCCCCCCC(=O)[O-]
REMARK SMILES IDX 15 1 16 2 17 3 18 4 19 5 20 6 21 7 22 8 23 9 24 10 25 11
REMARK SMILES IDX 26 12 27 13 28 14 29 15 30 16 14 17 13 18 12 19 11 20 10 21
REMARK SMILES IDX 9 22 8 23 7 24 6 25 5 26 4 27 3 28 2 29 1 30
REMARK H PARENT
REMARK Flexibility Score: inf
ROOT
ATOM      1  C   UNL     1      20.538   0.628  47.641  1.00  0.00     0.000 C 
ENDROOT
BRANCH   1   2
ATOM      2  C   UNL     1      21.883   1.038  48.262  1.00  0.00     0.000 C 
BRANCH   2   3
ATOM      3  C   UNL     1      22.982  -0.016  48.033  1.00  0.00     0.000 C 
BRANCH   3   4
ATOM      4  C   UNL     1      24.352   0.435  48.563  1.00  0.00     0.000 C 
BRANCH   4   5
ATOM      5  C   UNL     1      24.515   1.965  48.559  1.00  0.00     0.000 C 
BRANCH   5   6
ATOM      6  C   UNL     1      25.595   2.449  47.577  1.00  0.00     0.000 C 
BRANCH   6   7
ATOM      7  C   UNL     1      25.117   2.433  46.115  1.00  0.00     0.000 C 
BRANCH   7   8
ATOM      8  C   UNL     1      24.014   3.471  45.835  1.00  0.00     0.000 C 
BRANCH   8   9
ATOM      9  C   UNL     1      24.324   4.903  46.309  1.00  0.00     0.000 C 
BRANCH   9  10
ATOM     10  C   UNL     1      25.408   5.592  45.463  1.00  0.00     0.000 C 
BRANCH  10  11
ATOM     11  C   UNL     1      25.214   5.366  43.954  1.00  0.00     0.000 C 
BRANCH  11  12
ATOM     12  C   UNL     1      24.614   6.586  43.221  1.00  0.00     0.006 C 
BRANCH  12  13
ATOM     13  C   UNL     1      23.853   6.178  41.953  1.00  0.00     0.053 C 
BRANCH  13  14
ATOM     14  C   UNL     1      24.634   6.537  40.729  1.00  0.00     0.041 C 
ATOM     15  O   UNL     1      24.542   7.693  40.236  1.00  0.00    -0.550 OA
ATOM     16  O   UNL     1      25.437   5.587  40.111  1.00  0.00    -0.550 OA
ENDBRANCH  13  14
ENDBRANCH  12  13
ENDBRANCH  11  12
ENDBRANCH  10  11
ENDBRANCH   9  10
ENDBRANCH   8   9
ENDBRANCH   7   8
ENDBRANCH   6   7
ENDBRANCH   5   6
ENDBRANCH   4   5
ENDBRANCH   3   4
ENDBRANCH   2   3
ENDBRANCH   1   2
BRANCH   1  17
ATOM     17  C   UNL     1      20.673  -0.556  46.668  1.00  0.00     0.000 C 
BRANCH  17  18
ATOM     18  C   UNL     1      19.408  -1.432  46.613  1.00  0.00     0.000 C 
BRANCH  18  19
ATOM     19  C   UNL     1      18.462  -1.288  47.819  1.00  0.00     0.000 C 
BRANCH  19  20
ATOM     20  C   UNL     1      17.102  -1.967  47.601  1.00  0.00     0.000 C 
BRANCH  20  21
ATOM     21  C   UNL     1      15.960  -0.941  47.655  1.00  0.00     0.000 C 
BRANCH  21  22
ATOM     22  C   UNL     1      16.469   0.509  47.614  1.00  0.00    -0.000 C 
BRANCH  22  23
ATOM     23  C   UNL     1      15.416   1.518  48.104  1.00  0.00    -0.000 C 
BRANCH  23  24
ATOM     24  C   UNL     1      14.134   0.840  48.617  1.00  0.00    -0.000 C 
BRANCH  24  25
ATOM     25  C   UNL     1      12.868   1.238  47.828  1.00  0.00    -0.000 C 
BRANCH  25  26
ATOM     26  C   UNL     1      13.188   1.638  46.378  1.00  0.00    -0.000 C 
BRANCH  26  27
ATOM     27  C   UNL     1      12.491   0.734  45.347  1.00  0.00    -0.000 C 
BRANCH  27  28
ATOM     28  C   UNL     1      13.085  -0.682  45.308  1.00  0.00    -0.000 C 
BRANCH  28  29
ATOM     29  C   UNL     1      13.050  -1.253  43.885  1.00  0.00    -0.003 C 
ATOM     30  C   UNL     1      12.045  -2.395  43.773  1.00  0.00     0.004 C 
ENDBRANCH  28  29
ENDBRANCH  27  28
ENDBRANCH  26  27
ENDBRANCH  25  26
ENDBRANCH  24  25
ENDBRANCH  23  24
ENDBRANCH  22  23
ENDBRANCH  21  22
ENDBRANCH  20  21
ENDBRANCH  19  20
ENDBRANCH  18  19
ENDBRANCH  17  18
ENDBRANCH   1  17
TORSDOF 26
ENDMDL
MODEL 9
REMARK VINA RESULT:    -4.357      6.243     11.078
REMARK INTER + INTRA:         -15.100
REMARK INTER:                 -10.034
REMARK INTRA:                  -5.066
REMARK UNBOUND:                -4.120
REMARK SMILES CCCCCCCCCCCCCCCCCCCCCCCCCCCC(=O)[O-]
REMARK SMILES IDX 15 1 16 2 17 3 18 4 19 5 20 6 21 7 22 8 23 9 24 10 25 11
REMARK SMILES IDX 26 12 27 13 28 14 29 15 30 16 14 17 13 18 12 19 11 20 10 21
REMARK SMILES IDX 9 22 8 23 7 24 6 25 5 26 4 27 3 28 2 29 1 30
REMARK H PARENT
REMARK Flexibility Score: inf
ROOT
ATOM      1  C   UNL     1      25.135   5.823  45.997  1.00  0.00     0.000 C 
ENDROOT
BRANCH   1   2
ATOM      2  C   UNL     1      24.392   4.813  45.107  1.00  0.00     0.000 C 
BRANCH   2   3
ATOM      3  C   UNL     1      23.929   3.569  45.887  1.00  0.00     0.000 C 
BRANCH   3   4
ATOM      4  C   UNL     1      24.763   3.321  47.153  1.00  0.00     0.000 C 
BRANCH   4   5
ATOM      5  C   UNL     1      25.871   2.275  46.937  1.00  0.00     0.000 C 
BRANCH   5   6
ATOM      6  C   UNL     1      25.668   1.005  47.780  1.00  0.00     0.000 C 
BRANCH   6   7
ATOM      7  C   UNL     1      24.557   1.165  48.833  1.00  0.00     0.000 C 
BRANCH   7   8
ATOM      8  C   UNL     1      23.357   0.232  48.584  1.00  0.00     0.000 C 
BRANCH   8   9
ATOM      9  C   UNL     1      22.011   0.942  48.350  1.00  0.00     0.000 C 
BRANCH   9  10
ATOM     10  C   UNL     1      21.537   0.861  46.889  1.00  0.00     0.000 C 
BRANCH  10  11
ATOM     11  C   UNL     1      22.195  -0.293  46.116  1.00  0.00     0.000 C 
BRANCH  11  12
ATOM     12  C   UNL     1      22.981   0.170  44.869  1.00  0.00     0.006 C 
BRANCH  12  13
ATOM     13  C   UNL     1      22.116   1.014  43.925  1.00  0.00     0.053 C 
BRANCH  13  14
ATOM     14  C   UNL     1      21.154   0.149  43.174  1.00  0.00     0.041 C 
ATOM     15  O   UNL     1      21.560  -0.570  42.221  1.00  0.00    -0.550 OA
ATOM     16  O   UNL     1      19.804   0.162  43.500  1.00  0.00    -0.550 OA
ENDBRANCH  13  14
ENDBRANCH  12  13
ENDBRANCH  11  12
ENDBRANCH  10  11
ENDBRANCH   9  10
ENDBRANCH   8   9
ENDBRANCH   7   8
ENDBRANCH   6   7
ENDBRANCH   5   6
ENDBRANCH   4   5
ENDBRANCH   3   4
ENDBRANCH   2   3
ENDBRANCH   1   2
BRANCH   1  17
ATOM     17  C   UNL     1      26.570   6.092  45.514  1.00  0.00     0.000 C 
BRANCH  17  18
ATOM     18  C   UNL     1      26.886   5.414  44.168  1.00  0.00     0.000 C 
BRANCH  18  19
ATOM     19  C   UNL     1      27.558   6.322  43.122  1.00  0.00     0.000 C 
BRANCH  19  20
ATOM     20  C   UNL     1      27.446   7.815  43.463  1.00  0.00     0.000 C 
BRANCH  20  21
ATOM     21  C   UNL     1      26.449   8.520  42.530  1.00  0.00     0.000 C 
BRANCH  21  22
ATOM     22  C   UNL     1      24.995   8.385  43.013  1.00  0.00    -0.000 C 
BRANCH  22  23
ATOM     23  C   UNL     1      24.200   7.344  42.206  1.00  0.00    -0.000 C 
BRANCH  23  24
ATOM     24  C   UNL     1      24.737   7.161  40.776  1.00  0.00    -0.000 C 
BRANCH  24  25
ATOM     25  C   UNL     1      24.944   5.684  40.378  1.00  0.00    -0.000 C 
BRANCH  25  26
ATOM     26  C   UNL     1      24.333   4.715  41.405  1.00  0.00    -0.000 C 
BRANCH  26  27
ATOM     27  C   UNL     1      25.139   3.413  41.543  1.00  0.00    -0.000 C 
BRANCH  27  28
ATOM     28  C   UNL     1      24.303   2.165  41.222  1.00  0.00    -0.000 C 
BRANCH  28  29
ATOM     29  C   UNL     1      23.281   2.457  40.117  1.00  0.00    -0.003 C 
ATOM     30  C   UNL     1      22.870   1.179  39.392  1.00  0.00     0.004 C 
ENDBRANCH  28  29
ENDBRANCH  27  28
ENDBRANCH  26  27
ENDBRANCH  25  26
ENDBRANCH  24  25
ENDBRANCH  23  24
ENDBRANCH  22  23
ENDBRANCH  21  22
ENDBRANCH  20  21
ENDBRANCH  19  20
ENDBRANCH  18  19
ENDBRANCH  17  18
ENDBRANCH   1  17
TORSDOF 26
ENDMDL
