MODEL 1
REMARK VINA RESULT:    -2.723      0.000      0.000
REMARK INTER + INTRA:          -3.063
REMARK INTER:                  -3.041
REMARK INTRA:                  -0.022
REMARK UNBOUND:                -0.022
REMARK SMILES CCCC(=O)[O-]
REMARK SMILES IDX 3 1 4 2 5 3 6 4 2 5 1 6
REMARK H PARENT
REMARK Flexibility Score: inf
ROOT
ATOM      1  C   UNL     1     153.830 151.032 157.489  1.00  0.00     0.052 C 
ENDROOT
BRANCH   1   2
ATOM      2  C   UNL     1     152.921 151.438 158.606  1.00  0.00     0.041 C 
ATOM      3  O   UNL     1     153.107 150.989 159.768  1.00  0.00    -0.550 OA
ATOM      4  O   UNL     1     151.839 152.271 158.354  1.00  0.00    -0.550 OA
ENDBRANCH   1   2
BRANCH   1   5
ATOM      5  C   UNL     1     155.148 151.809 157.562  1.00  0.00     0.003 C 
ATOM      6  C   UNL     1     156.346 150.875 157.419  1.00  0.00     0.004 C 
ENDBRANCH   1   5
TORSDOF 2
ENDMDL
MODEL 2
REMARK VINA RESULT:    -2.701     11.313     12.063
REMARK INTER + INTRA:          -3.039
REMARK INTER:                  -3.003
REMARK INTRA:                  -0.036
REMARK UNBOUND:                -0.022
REMARK SMILES CCCC(=O)[O-]
REMARK SMILES IDX 3 1 4 2 5 3 6 4 2 5 1 6
REMARK H PARENT
REMARK Flexibility Score: inf
ROOT
ATOM      1  C   UNL     1     150.865 152.081 147.412  1.00  0.00     0.052 C 
ENDROOT
BRANCH   1   2
ATOM      2  C   UNL     1     150.760 153.570 147.322  1.00  0.00     0.041 C 
ATOM      3  O   UNL     1     151.538 154.216 146.571  1.00  0.00    -0.550 OA
ATOM      4  O   UNL     1     149.836 154.251 148.104  1.00  0.00    -0.550 OA
ENDBRANCH   1   2
BRANCH   1   5
ATOM      5  C   UNL     1     150.103 151.419 146.260  1.00  0.00     0.003 C 
ATOM      6  C   UNL     1     148.757 150.875 146.732  1.00  0.00     0.004 C 
ENDBRANCH   1   5
TORSDOF 2
ENDMDL
MODEL 3
REMARK VINA RESULT:    -2.667      0.268      1.349
REMARK INTER + INTRA:          -3.001
REMARK INTER:                  -2.971
REMARK INTRA:                  -0.030
REMARK UNBOUND:                -0.022
REMARK SMILES CCCC(=O)[O-]
REMARK SMILES IDX 3 1 4 2 5 3 6 4 2 5 1 6
REMARK H PARENT
REMARK Flexibility Score: inf
ROOT
ATOM      1  C   UNL     1     153.536 151.169 157.450  1.00  0.00     0.052 C 
ENDROOT
BRANCH   1   2
ATOM      2  C   UNL     1     152.724 151.562 158.644  1.00  0.00     0.041 C 
ATOM      3  O   UNL     1     151.777 152.384 158.523  1.00  0.00    -0.550 OA
ATOM      4  O   UNL     1     153.042 151.060 159.898  1.00  0.00    -0.550 OA
ENDBRANCH   1   2
BRANCH   1   5
ATOM      5  C   UNL     1     154.873 151.915 157.445  1.00  0.00     0.003 C 
ATOM      6  C   UNL     1     156.047 150.940 157.474  1.00  0.00     0.004 C 
ENDBRANCH   1   5
TORSDOF 2
ENDMDL
MODEL 4
REMARK VINA RESULT:    -2.586     11.736     12.352
REMARK INTER + INTRA:          -2.910
REMARK INTER:                  -2.842
REMARK INTRA:                  -0.069
REMARK UNBOUND:                -0.022
REMARK SMILES CCCC(=O)[O-]
REMARK SMILES IDX 3 1 4 2 5 3 6 4 2 5 1 6
REMARK H PARENT
REMARK Flexibility Score: inf
ROOT
ATOM      1  C   UNL     1     148.870 152.785 147.294  1.00  0.00     0.052 C 
ENDROOT
BRANCH   1   2
ATOM      2  C   UNL     1     149.893 151.731 147.013  1.00  0.00     0.041 C 
ATOM      3  O   UNL     1     150.911 151.624 147.748  1.00  0.00    -0.550 OA
ATOM      4  O   UNL     1     149.750 150.898 145.911  1.00  0.00    -0.550 OA
ENDBRANCH   1   2
BRANCH   1   5
ATOM      5  C   UNL     1     149.511 154.175 147.265  1.00  0.00     0.003 C 
ATOM      6  C   UNL     1     150.051 154.503 145.875  1.00  0.00     0.004 C 
ENDBRANCH   1   5
TORSDOF 2
ENDMDL
MODEL 5
REMARK VINA RESULT:    -2.575     11.782     12.445
REMARK INTER + INTRA:          -2.898
REMARK INTER:                  -2.830
REMARK INTRA:                  -0.068
REMARK UNBOUND:                -0.022
REMARK SMILES CCCC(=O)[O-]
REMARK SMILES IDX 3 1 4 2 5 3 6 4 2 5 1 6
REMARK H PARENT
REMARK Flexibility Score: inf
ROOT
ATOM      1  C   UNL     1     148.451 151.989 146.728  1.00  0.00     0.052 C 
ENDROOT
BRANCH   1   2
ATOM      2  C   UNL     1     148.584 153.465 146.932  1.00  0.00     0.041 C 
ATOM      3  O   UNL     1     148.253 153.985 148.031  1.00  0.00    -0.550 OA
ATOM      4  O   UNL     1     149.027 154.274 145.894  1.00  0.00    -0.550 OA
ENDBRANCH   1   2
BRANCH   1   5
ATOM      5  C   UNL     1     149.795 151.384 146.312  1.00  0.00     0.003 C 
ATOM      6  C   UNL     1     150.863 151.632 147.373  1.00  0.00     0.004 C 
ENDBRANCH   1   5
TORSDOF 2
ENDMDL
MODEL 6
REMARK VINA RESULT:    -2.558      2.219      3.352
REMARK INTER + INTRA:          -2.879
REMARK INTER:                  -2.840
REMARK INTRA:                  -0.039
REMARK UNBOUND:                -0.022
REMARK SMILES CCCC(=O)[O-]
REMARK SMILES IDX 3 1 4 2 5 3 6 4 2 5 1 6
REMARK H PARENT
REMARK Flexibility Score: inf
ROOT
ATOM      1  C   UNL     1     154.037 153.003 158.884  1.00  0.00     0.052 C 
ENDROOT
BRANCH   1   2
ATOM      2  C   UNL     1     154.371 151.984 157.841  1.00  0.00     0.041 C 
ATOM      3  O   UNL     1     153.465 151.258 157.352  1.00  0.00    -0.550 OA
ATOM      4  O   UNL     1     155.689 151.800 157.444  1.00  0.00    -0.550 OA
ENDBRANCH   1   2
BRANCH   1   5
ATOM      5  C   UNL     1     152.637 152.750 159.451  1.00  0.00     0.003 C 
ATOM      6  C   UNL     1     152.708 152.020 160.789  1.00  0.00     0.004 C 
ENDBRANCH   1   5
TORSDOF 2
ENDMDL
MODEL 7
REMARK VINA RESULT:    -2.461      2.607      3.490
REMARK INTER + INTRA:          -2.771
REMARK INTER:                  -2.710
REMARK INTRA:                  -0.062
REMARK UNBOUND:                -0.022
REMARK SMILES CCCC(=O)[O-]
REMARK SMILES IDX 3 1 4 2 5 3 6 4 2 5 1 6
REMARK H PARENT
REMARK Flexibility Score: inf
ROOT
ATOM      1  C   UNL     1     153.007 153.366 159.082  1.00  0.00     0.052 C 
ENDROOT
BRANCH   1   2
ATOM      2  C   UNL     1     152.958 152.022 159.736  1.00  0.00     0.041 C 
ATOM      3  O   UNL     1     152.720 151.925 160.969  1.00  0.00    -0.550 OA
ATOM      4  O   UNL     1     153.224 150.878 158.995  1.00  0.00    -0.550 OA
ENDBRANCH   1   2
BRANCH   1   5
ATOM      5  C   UNL     1     151.599 153.957 158.968  1.00  0.00     0.003 C 
ATOM      6  C   UNL     1     150.752 153.172 157.969  1.00  0.00     0.004 C 
ENDBRANCH   1   5
TORSDOF 2
ENDMDL
MODEL 8
REMARK VINA RESULT:    -2.450      2.601      3.101
REMARK INTER + INTRA:          -2.758
REMARK INTER:                  -2.693
REMARK INTRA:                  -0.066
REMARK UNBOUND:                -0.022
REMARK SMILES CCCC(=O)[O-]
REMARK SMILES IDX 3 1 4 2 5 3 6 4 2 5 1 6
REMARK H PARENT
REMARK Flexibility Score: inf
ROOT
ATOM      1  C   UNL     1     151.846 152.620 158.690  1.00  0.00     0.052 C 
ENDROOT
BRANCH   1   2
ATOM      2  C   UNL     1     152.785 151.841 159.554  1.00  0.00     0.041 C 
ATOM      3  O   UNL     1     153.536 150.966 159.047  1.00  0.00    -0.550 OA
ATOM      4  O   UNL     1     152.797 152.044 160.928  1.00  0.00    -0.550 OA
ENDBRANCH   1   2
BRANCH   1   5
ATOM      5  C   UNL     1     152.024 154.123 158.926  1.00  0.00     0.003 C 
ATOM      6  C   UNL     1     153.437 154.573 158.565  1.00  0.00     0.004 C 
ENDBRANCH   1   5
TORSDOF 2
ENDMDL
MODEL 9
REMARK VINA RESULT:    -2.420      2.869      3.307
REMARK INTER + INTRA:          -2.725
REMARK INTER:                  -2.664
REMARK INTRA:                  -0.061
REMARK UNBOUND:                -0.022
REMARK SMILES CCCC(=O)[O-]
REMARK SMILES IDX 3 1 4 2 5 3 6 4 2 5 1 6
REMARK H PARENT
REMARK Flexibility Score: inf
ROOT
ATOM      1  C   UNL     1     152.575 152.607 158.321  1.00  0.00     0.052 C 
ENDROOT
BRANCH   1   2
ATOM      2  C   UNL     1     151.263 153.318 158.415  1.00  0.00     0.041 C 
ATOM      3  O   UNL     1     150.219 152.787 157.951  1.00  0.00    -0.550 OA
ATOM      4  O   UNL     1     151.198 154.589 158.971  1.00  0.00    -0.550 OA
ENDBRANCH   1   2
BRANCH   1   5
ATOM      5  C   UNL     1     153.365 152.767 159.623  1.00  0.00     0.003 C 
ATOM      6  C   UNL     1     152.748 151.940 160.747  1.00  0.00     0.004 C 
ENDBRANCH   1   5
TORSDOF 2
ENDMDL
