MODEL 1
REMARK VINA RESULT:    -5.093      0.000      0.000
REMARK INTER + INTRA:          -6.869
REMARK INTER:                  -6.433
REMARK INTRA:                  -0.436
REMARK UNBOUND:                -0.436
REMARK SMILES Oc1ccc(CCc2cc(O)cc(O)c2)cc1
REMARK SMILES IDX 6 1 5 2 4 3 3 4 2 5 16 6 17 7 1 8 7 10 8 11 15 12 9 13 13 14
REMARK SMILES IDX 10 15 12 16 14 17 11 19
REMARK H PARENT 1 9 14 18 11 20
REMARK Flexibility Score: inf
ROOT
ATOM      1  C   UNL     1      36.354  -6.065  52.890  1.00  0.00     0.040 C 
ENDROOT
BRANCH   1   2
ATOM      2  C   UNL     1      35.970  -5.257  51.680  1.00  0.00    -0.047 A 
ATOM      3  C   UNL     1      36.916  -4.431  51.050  1.00  0.00     0.007 A 
ATOM      4  C   UNL     1      36.567  -3.707  49.906  1.00  0.00     0.046 A 
ATOM      5  C   UNL     1      35.278  -3.807  49.374  1.00  0.00     0.115 A 
ATOM      6  C   UNL     1      34.679  -5.366  51.135  1.00  0.00     0.007 A 
ATOM      7  C   UNL     1      34.334  -4.640  49.992  1.00  0.00     0.046 A 
BRANCH   5   8
ATOM      8  O   UNL     1      34.945  -3.079  48.234  1.00  0.00    -0.508 OA
ATOM      9  H   UNL     1      34.193  -2.400  48.241  1.00  0.00     0.293 HD
ENDBRANCH   5   8
ENDBRANCH   1   2
BRANCH   1  10
ATOM     10  C   UNL     1      37.125  -7.321  52.477  1.00  0.00     0.040 C 
BRANCH  10  11
ATOM     11  C   UNL     1      36.622  -8.522  53.231  1.00  0.00    -0.040 A 
ATOM     12  C   UNL     1      36.851  -8.639  54.612  1.00  0.00     0.050 A 
ATOM     13  C   UNL     1      35.970  -9.563  52.550  1.00  0.00     0.050 A 
ATOM     14  C   UNL     1      36.412  -9.773  55.309  1.00  0.00     0.119 A 
ATOM     15  C   UNL     1      35.531 -10.698  53.247  1.00  0.00     0.119 A 
ATOM     16  C   UNL     1      35.750 -10.798  54.624  1.00  0.00     0.092 A 
BRANCH  14  17
ATOM     17  O   UNL     1      36.629  -9.892  56.680  1.00  0.00    -0.508 OA
ATOM     18  H   UNL     1      37.137 -10.677  57.069  1.00  0.00     0.293 HD
ENDBRANCH  14  17
BRANCH  15  19
ATOM     19  O   UNL     1      34.877 -11.731  52.579  1.00  0.00    -0.508 OA
ATOM     20  H   UNL     1      35.083 -11.951  51.611  1.00  0.00     0.293 HD
ENDBRANCH  15  19
ENDBRANCH  10  11
ENDBRANCH   1  10
TORSDOF 6
ENDMDL
MODEL 2
REMARK VINA RESULT:    -5.084      0.043      2.031
REMARK INTER + INTRA:          -6.857
REMARK INTER:                  -6.422
REMARK INTRA:                  -0.435
REMARK UNBOUND:                -0.436
REMARK SMILES Oc1ccc(CCc2cc(O)cc(O)c2)cc1
REMARK SMILES IDX 6 1 5 2 4 3 3 4 2 5 16 6 17 7 1 8 7 10 8 11 15 12 9 13 13 14
REMARK SMILES IDX 10 15 12 16 14 17 11 19
REMARK H PARENT 1 9 14 18 11 20
REMARK Flexibility Score: inf
ROOT
ATOM      1  C   UNL     1      36.271  -6.087  52.915  1.00  0.00     0.040 C 
ENDROOT
BRANCH   1   2
ATOM      2  C   UNL     1      35.921  -5.267  51.703  1.00  0.00    -0.047 A 
ATOM      3  C   UNL     1      36.889  -4.447  51.099  1.00  0.00     0.007 A 
ATOM      4  C   UNL     1      36.572  -3.710  49.954  1.00  0.00     0.046 A 
ATOM      5  C   UNL     1      35.292  -3.791  49.396  1.00  0.00     0.115 A 
ATOM      6  C   UNL     1      34.640  -5.356  51.132  1.00  0.00     0.007 A 
ATOM      7  C   UNL     1      34.327  -4.618  49.987  1.00  0.00     0.046 A 
BRANCH   5   8
ATOM      8  O   UNL     1      34.991  -3.051  48.254  1.00  0.00    -0.508 OA
ATOM      9  H   UNL     1      34.039  -2.959  47.920  1.00  0.00     0.293 HD
ENDBRANCH   5   8
ENDBRANCH   1   2
BRANCH   1  10
ATOM     10  C   UNL     1      37.125  -7.294  52.519  1.00  0.00     0.040 C 
BRANCH  10  11
ATOM     11  C   UNL     1      36.668  -8.528  53.250  1.00  0.00    -0.040 A 
ATOM     12  C   UNL     1      35.991  -9.548  52.563  1.00  0.00     0.050 A 
ATOM     13  C   UNL     1      36.865  -8.644  54.636  1.00  0.00     0.050 A 
ATOM     14  C   UNL     1      35.536 -10.683  53.249  1.00  0.00     0.119 A 
ATOM     15  C   UNL     1      36.410  -9.778  55.322  1.00  0.00     0.119 A 
ATOM     16  C   UNL     1      35.750 -10.795  54.626  1.00  0.00     0.092 A 
BRANCH  14  17
ATOM     17  O   UNL     1      34.870 -11.702  52.571  1.00  0.00    -0.508 OA
ATOM     18  H   UNL     1      33.968 -11.547  52.136  1.00  0.00     0.293 HD
ENDBRANCH  14  17
BRANCH  15  19
ATOM     19  O   UNL     1      36.608  -9.903  56.696  1.00  0.00    -0.508 OA
ATOM     20  H   UNL     1      37.251  -9.299  57.196  1.00  0.00     0.293 HD
ENDBRANCH  15  19
ENDBRANCH  10  11
ENDBRANCH   1  10
TORSDOF 6
ENDMDL
MODEL 3
REMARK VINA RESULT:    -5.031      5.327      7.082
REMARK INTER + INTRA:          -6.790
REMARK INTER:                  -6.215
REMARK INTRA:                  -0.575
REMARK UNBOUND:                -0.436
REMARK SMILES Oc1ccc(CCc2cc(O)cc(O)c2)cc1
REMARK SMILES IDX 6 1 5 2 4 3 3 4 2 5 16 6 17 7 1 8 7 10 8 11 15 12 9 13 13 14
REMARK SMILES IDX 10 15 12 16 14 17 11 19
REMARK H PARENT 1 9 14 18 11 20
REMARK Flexibility Score: inf
ROOT
ATOM      1  C   UNL     1      36.383  -2.155  55.841  1.00  0.00     0.040 C 
ENDROOT
BRANCH   1   2
ATOM      2  C   UNL     1      35.384  -1.955  56.948  1.00  0.00    -0.047 A 
ATOM      3  C   UNL     1      34.320  -1.052  56.788  1.00  0.00     0.007 A 
ATOM      4  C   UNL     1      33.374  -0.890  57.804  1.00  0.00     0.046 A 
ATOM      5  C   UNL     1      33.474  -1.635  58.984  1.00  0.00     0.115 A 
ATOM      6  C   UNL     1      35.474  -2.710  58.130  1.00  0.00     0.007 A 
ATOM      7  C   UNL     1      34.527  -2.547  59.144  1.00  0.00     0.046 A 
BRANCH   5   8
ATOM      8  O   UNL     1      32.524  -1.464  59.989  1.00  0.00    -0.508 OA
ATOM      9  H   UNL     1      31.670  -2.009  60.008  1.00  0.00     0.293 HD
ENDBRANCH   5   8
ENDBRANCH   1   2
BRANCH   1  10
ATOM     10  C   UNL     1      36.934  -3.583  55.865  1.00  0.00     0.040 C 
BRANCH  10  11
ATOM     11  C   UNL     1      36.507  -4.336  54.634  1.00  0.00    -0.040 A 
ATOM     12  C   UNL     1      35.741  -3.698  53.644  1.00  0.00     0.050 A 
ATOM     13  C   UNL     1      36.821  -5.697  54.492  1.00  0.00     0.050 A 
ATOM     14  C   UNL     1      35.315  -4.408  52.513  1.00  0.00     0.119 A 
ATOM     15  C   UNL     1      36.394  -6.407  53.362  1.00  0.00     0.119 A 
ATOM     16  C   UNL     1      35.646  -5.760  52.374  1.00  0.00     0.092 A 
BRANCH  14  17
ATOM     17  O   UNL     1      34.562  -3.780  51.524  1.00  0.00    -0.508 OA
ATOM     18  H   UNL     1      33.556  -3.889  51.475  1.00  0.00     0.293 HD
ENDBRANCH  14  17
BRANCH  15  19
ATOM     19  O   UNL     1      36.708  -7.756  53.210  1.00  0.00    -0.508 OA
ATOM     20  H   UNL     1      36.057  -8.408  52.787  1.00  0.00     0.293 HD
ENDBRANCH  15  19
ENDBRANCH  10  11
ENDBRANCH   1  10
TORSDOF 6
ENDMDL
MODEL 4
REMARK VINA RESULT:    -4.997      5.261      6.976
REMARK INTER + INTRA:          -6.747
REMARK INTER:                  -6.183
REMARK INTRA:                  -0.564
REMARK UNBOUND:                -0.436
REMARK SMILES Oc1ccc(CCc2cc(O)cc(O)c2)cc1
REMARK SMILES IDX 6 1 5 2 4 3 3 4 2 5 16 6 17 7 1 8 7 10 8 11 15 12 9 13 13 14
REMARK SMILES IDX 10 15 12 16 14 17 11 19
REMARK H PARENT 1 9 14 18 11 20
REMARK Flexibility Score: inf
ROOT
ATOM      1  C   UNL     1      36.547  -2.377  55.855  1.00  0.00     0.040 C 
ENDROOT
BRANCH   1   2
ATOM      2  C   UNL     1      35.522  -2.089  56.919  1.00  0.00    -0.047 A 
ATOM      3  C   UNL     1      34.494  -1.162  56.679  1.00  0.00     0.007 A 
ATOM      4  C   UNL     1      33.523  -0.920  57.656  1.00  0.00     0.046 A 
ATOM      5  C   UNL     1      33.562  -1.606  58.874  1.00  0.00     0.115 A 
ATOM      6  C   UNL     1      35.551  -2.786  58.139  1.00  0.00     0.007 A 
ATOM      7  C   UNL     1      34.579  -2.541  59.113  1.00  0.00     0.046 A 
BRANCH   5   8
ATOM      8  O   UNL     1      32.588  -1.354  59.837  1.00  0.00    -0.508 OA
ATOM      9  H   UNL     1      32.741  -1.574  60.815  1.00  0.00     0.293 HD
ENDBRANCH   5   8
ENDBRANCH   1   2
BRANCH   1  10
ATOM     10  C   UNL     1      36.919  -3.862  55.854  1.00  0.00     0.040 C 
BRANCH  10  11
ATOM     11  C   UNL     1      36.451  -4.522  54.585  1.00  0.00    -0.040 A 
ATOM     12  C   UNL     1      36.801  -5.854  54.309  1.00  0.00     0.050 A 
ATOM     13  C   UNL     1      35.707  -3.795  53.641  1.00  0.00     0.050 A 
ATOM     14  C   UNL     1      36.393  -6.459  53.113  1.00  0.00     0.119 A 
ATOM     15  C   UNL     1      35.300  -4.400  52.444  1.00  0.00     0.119 A 
ATOM     16  C   UNL     1      35.641  -5.731  52.185  1.00  0.00     0.092 A 
BRANCH  14  17
ATOM     17  O   UNL     1      36.731  -7.782  52.836  1.00  0.00    -0.508 OA
ATOM     18  H   UNL     1      36.464  -8.538  53.455  1.00  0.00     0.293 HD
ENDBRANCH  14  17
BRANCH  15  19
ATOM     19  O   UNL     1      34.556  -3.688  51.505  1.00  0.00    -0.508 OA
ATOM     20  H   UNL     1      34.793  -2.734  51.255  1.00  0.00     0.293 HD
ENDBRANCH  15  19
ENDBRANCH  10  11
ENDBRANCH   1  10
TORSDOF 6
ENDMDL
MODEL 5
REMARK VINA RESULT:    -4.795      3.757      8.409
REMARK INTER + INTRA:          -6.493
REMARK INTER:                  -6.049
REMARK INTRA:                  -0.443
REMARK UNBOUND:                -0.436
REMARK SMILES Oc1ccc(CCc2cc(O)cc(O)c2)cc1
REMARK SMILES IDX 6 1 5 2 4 3 3 4 2 5 16 6 17 7 1 8 7 10 8 11 15 12 9 13 13 14
REMARK SMILES IDX 10 15 12 16 14 17 11 19
REMARK H PARENT 1 9 14 18 11 20
REMARK Flexibility Score: inf
ROOT
ATOM      1  C   UNL     1      36.072  -2.427  48.524  1.00  0.00     0.040 C 
ENDROOT
BRANCH   1   2
ATOM      2  C   UNL     1      35.925  -3.563  49.500  1.00  0.00    -0.047 A 
ATOM      3  C   UNL     1      34.649  -3.994  49.899  1.00  0.00     0.007 A 
ATOM      4  C   UNL     1      34.512  -5.070  50.781  1.00  0.00     0.046 A 
ATOM      5  C   UNL     1      35.645  -5.733  51.263  1.00  0.00     0.115 A 
ATOM      6  C   UNL     1      37.060  -4.240  49.977  1.00  0.00     0.007 A 
ATOM      7  C   UNL     1      36.921  -5.315  50.858  1.00  0.00     0.046 A 
BRANCH   5   8
ATOM      8  O   UNL     1      35.494  -6.804  52.141  1.00  0.00    -0.508 OA
ATOM      9  H   UNL     1      35.359  -7.750  51.803  1.00  0.00     0.293 HD
ENDBRANCH   5   8
ENDBRANCH   1   2
BRANCH   1  10
ATOM     10  C   UNL     1      34.821  -2.303  47.650  1.00  0.00     0.040 C 
BRANCH  10  11
ATOM     11  C   UNL     1      35.018  -3.018  46.340  1.00  0.00    -0.040 A 
ATOM     12  C   UNL     1      35.672  -4.260  46.302  1.00  0.00     0.050 A 
ATOM     13  C   UNL     1      34.600  -2.422  45.139  1.00  0.00     0.050 A 
ATOM     14  C   UNL     1      35.884  -4.911  45.079  1.00  0.00     0.119 A 
ATOM     15  C   UNL     1      34.813  -3.072  43.916  1.00  0.00     0.119 A 
ATOM     16  C   UNL     1      35.452  -4.316  43.890  1.00  0.00     0.092 A 
BRANCH  14  17
ATOM     17  O   UNL     1      36.526  -6.147  45.035  1.00  0.00    -0.508 OA
ATOM     18  H   UNL     1      36.116  -6.940  44.558  1.00  0.00     0.293 HD
ENDBRANCH  14  17
BRANCH  15  19
ATOM     19  O   UNL     1      34.395  -2.491  42.720  1.00  0.00    -0.508 OA
ATOM     20  H   UNL     1      33.761  -1.699  42.709  1.00  0.00     0.293 HD
ENDBRANCH  15  19
ENDBRANCH  10  11
ENDBRANCH   1  10
TORSDOF 6
ENDMDL
MODEL 6
REMARK VINA RESULT:    -4.753      3.779      8.516
REMARK INTER + INTRA:          -6.439
REMARK INTER:                  -5.964
REMARK INTRA:                  -0.474
REMARK UNBOUND:                -0.436
REMARK SMILES Oc1ccc(CCc2cc(O)cc(O)c2)cc1
REMARK SMILES IDX 6 1 5 2 4 3 3 4 2 5 16 6 17 7 1 8 7 10 8 11 15 12 9 13 13 14
REMARK SMILES IDX 10 15 12 16 14 17 11 19
REMARK H PARENT 1 9 14 18 11 20
REMARK Flexibility Score: inf
ROOT
ATOM      1  C   UNL     1      36.111  -2.403  48.504  1.00  0.00     0.040 C 
ENDROOT
BRANCH   1   2
ATOM      2  C   UNL     1      35.959  -3.536  49.483  1.00  0.00    -0.047 A 
ATOM      3  C   UNL     1      34.681  -3.972  49.869  1.00  0.00     0.007 A 
ATOM      4  C   UNL     1      34.540  -5.046  50.753  1.00  0.00     0.046 A 
ATOM      5  C   UNL     1      35.671  -5.700  51.253  1.00  0.00     0.115 A 
ATOM      6  C   UNL     1      37.093  -4.203  49.977  1.00  0.00     0.007 A 
ATOM      7  C   UNL     1      36.949  -5.276  50.861  1.00  0.00     0.046 A 
BRANCH   5   8
ATOM      8  O   UNL     1      35.515  -6.768  52.133  1.00  0.00    -0.508 OA
ATOM      9  H   UNL     1      35.524  -7.727  51.807  1.00  0.00     0.293 HD
ENDBRANCH   5   8
ENDBRANCH   1   2
BRANCH   1  10
ATOM     10  C   UNL     1      34.869  -2.288  47.617  1.00  0.00     0.040 C 
BRANCH  10  11
ATOM     11  C   UNL     1      35.100  -2.967  46.294  1.00  0.00    -0.040 A 
ATOM     12  C   UNL     1      34.682  -2.355  45.101  1.00  0.00     0.050 A 
ATOM     13  C   UNL     1      35.683  -4.244  46.246  1.00  0.00     0.050 A 
ATOM     14  C   UNL     1      34.867  -3.002  43.872  1.00  0.00     0.119 A 
ATOM     15  C   UNL     1      35.867  -4.891  45.017  1.00  0.00     0.119 A 
ATOM     16  C   UNL     1      35.461  -4.267  43.833  1.00  0.00     0.092 A 
BRANCH  14  17
ATOM     17  O   UNL     1      34.461  -2.397  42.684  1.00  0.00    -0.508 OA
ATOM     18  H   UNL     1      34.615  -1.410  42.513  1.00  0.00     0.293 HD
ENDBRANCH  14  17
BRANCH  15  19
ATOM     19  O   UNL     1      36.451  -6.155  44.960  1.00  0.00    -0.508 OA
ATOM     20  H   UNL     1      37.199  -6.364  44.309  1.00  0.00     0.293 HD
ENDBRANCH  15  19
ENDBRANCH  10  11
ENDBRANCH   1  10
TORSDOF 6
ENDMDL
MODEL 7
REMARK VINA RESULT:    -4.492      3.134      4.949
REMARK INTER + INTRA:          -6.109
REMARK INTER:                  -5.730
REMARK INTRA:                  -0.380
REMARK UNBOUND:                -0.436
REMARK SMILES Oc1ccc(CCc2cc(O)cc(O)c2)cc1
REMARK SMILES IDX 6 1 5 2 4 3 3 4 2 5 16 6 17 7 1 8 7 10 8 11 15 12 9 13 13 14
REMARK SMILES IDX 10 15 12 16 14 17 11 19
REMARK H PARENT 1 9 14 18 11 20
REMARK Flexibility Score: inf
ROOT
ATOM      1  C   UNL     1      35.666  -3.867  48.849  1.00  0.00     0.040 C 
ENDROOT
BRANCH   1   2
ATOM      2  C   UNL     1      35.198  -3.187  47.591  1.00  0.00    -0.047 A 
ATOM      3  C   UNL     1      34.893  -1.816  47.598  1.00  0.00     0.007 A 
ATOM      4  C   UNL     1      34.490  -1.178  46.421  1.00  0.00     0.046 A 
ATOM      5  C   UNL     1      34.398  -1.898  45.225  1.00  0.00     0.115 A 
ATOM      6  C   UNL     1      35.117  -3.905  46.385  1.00  0.00     0.007 A 
ATOM      7  C   UNL     1      34.714  -3.264  45.210  1.00  0.00     0.046 A 
BRANCH   5   8
ATOM      8  O   UNL     1      33.995  -1.249  44.060  1.00  0.00    -0.508 OA
ATOM      9  H   UNL     1      33.022  -1.219  43.781  1.00  0.00     0.293 HD
ENDBRANCH   5   8
ENDBRANCH   1   2
BRANCH   1  10
ATOM     10  C   UNL     1      34.769  -3.488  50.030  1.00  0.00     0.040 C 
BRANCH  10  11
ATOM     11  C   UNL     1      35.125  -4.300  51.247  1.00  0.00    -0.040 A 
ATOM     12  C   UNL     1      35.303  -3.672  52.490  1.00  0.00     0.050 A 
ATOM     13  C   UNL     1      35.339  -5.684  51.136  1.00  0.00     0.050 A 
ATOM     14  C   UNL     1      35.666  -4.423  53.616  1.00  0.00     0.119 A 
ATOM     15  C   UNL     1      35.703  -6.435  52.262  1.00  0.00     0.119 A 
ATOM     16  C   UNL     1      35.863  -5.803  53.499  1.00  0.00     0.092 A 
BRANCH  14  17
ATOM     17  O   UNL     1      35.837  -3.807  54.855  1.00  0.00    -0.508 OA
ATOM     18  H   UNL     1      35.601  -2.833  54.998  1.00  0.00     0.293 HD
ENDBRANCH  14  17
BRANCH  15  19
ATOM     19  O   UNL     1      35.910  -7.809  52.162  1.00  0.00    -0.508 OA
ATOM     20  H   UNL     1      36.810  -8.191  51.894  1.00  0.00     0.293 HD
ENDBRANCH  15  19
ENDBRANCH  10  11
ENDBRANCH   1  10
TORSDOF 6
ENDMDL
MODEL 8
REMARK VINA RESULT:    -4.466      3.145      5.271
REMARK INTER + INTRA:          -6.076
REMARK INTER:                  -5.701
REMARK INTRA:                  -0.375
REMARK UNBOUND:                -0.436
REMARK SMILES Oc1ccc(CCc2cc(O)cc(O)c2)cc1
REMARK SMILES IDX 6 1 5 2 4 3 3 4 2 5 16 6 17 7 1 8 7 10 8 11 15 12 9 13 13 14
REMARK SMILES IDX 10 15 12 16 14 17 11 19
REMARK H PARENT 1 9 14 18 11 20
REMARK Flexibility Score: inf
ROOT
ATOM      1  C   UNL     1      35.681  -3.855  48.818  1.00  0.00     0.040 C 
ENDROOT
BRANCH   1   2
ATOM      2  C   UNL     1      35.197  -3.158  47.575  1.00  0.00    -0.047 A 
ATOM      3  C   UNL     1      34.900  -1.785  47.603  1.00  0.00     0.007 A 
ATOM      4  C   UNL     1      34.481  -1.131  46.440  1.00  0.00     0.046 A 
ATOM      5  C   UNL     1      34.365  -1.837  45.238  1.00  0.00     0.115 A 
ATOM      6  C   UNL     1      35.092  -3.861  46.363  1.00  0.00     0.007 A 
ATOM      7  C   UNL     1      34.673  -3.205  45.202  1.00  0.00     0.046 A 
BRANCH   5   8
ATOM      8  O   UNL     1      33.947  -1.173  44.087  1.00  0.00    -0.508 OA
ATOM      9  H   UNL     1      33.945  -1.631  43.183  1.00  0.00     0.293 HD
ENDBRANCH   5   8
ENDBRANCH   1   2
BRANCH   1  10
ATOM     10  C   UNL     1      34.801  -3.491  50.016  1.00  0.00     0.040 C 
BRANCH  10  11
ATOM     11  C   UNL     1      35.196  -4.295  51.226  1.00  0.00    -0.040 A 
ATOM     12  C   UNL     1      35.402  -5.680  51.120  1.00  0.00     0.050 A 
ATOM     13  C   UNL     1      35.305  -3.676  52.482  1.00  0.00     0.050 A 
ATOM     14  C   UNL     1      35.738  -6.434  52.252  1.00  0.00     0.119 A 
ATOM     15  C   UNL     1      35.640  -4.430  53.615  1.00  0.00     0.119 A 
ATOM     16  C   UNL     1      35.858  -5.806  53.496  1.00  0.00     0.092 A 
BRANCH  14  17
ATOM     17  O   UNL     1      35.951  -7.807  52.152  1.00  0.00    -0.508 OA
ATOM     18  H   UNL     1      35.240  -8.429  51.787  1.00  0.00     0.293 HD
ENDBRANCH  14  17
BRANCH  15  19
ATOM     19  O   UNL     1      35.757  -3.822  54.863  1.00  0.00    -0.508 OA
ATOM     20  H   UNL     1      35.517  -2.847  55.003  1.00  0.00     0.293 HD
ENDBRANCH  15  19
ENDBRANCH  10  11
ENDBRANCH   1  10
TORSDOF 6
ENDMDL
MODEL 9
REMARK VINA RESULT:    -4.431     16.686     19.843
REMARK INTER + INTRA:          -6.033
REMARK INTER:                  -5.499
REMARK INTRA:                  -0.534
REMARK UNBOUND:                -0.436
REMARK SMILES Oc1ccc(CCc2cc(O)cc(O)c2)cc1
REMARK SMILES IDX 6 1 5 2 4 3 3 4 2 5 16 6 17 7 1 8 7 10 8 11 15 12 9 13 13 14
REMARK SMILES IDX 10 15 12 16 14 17 11 19
REMARK H PARENT 1 9 14 18 11 20
REMARK Flexibility Score: inf
ROOT
ATOM      1  C   UNL     1      19.046  -3.118  40.629  1.00  0.00     0.040 C 
ENDROOT
BRANCH   1   2
ATOM      2  C   UNL     1      18.522  -4.528  40.592  1.00  0.00    -0.047 A 
ATOM      3  C   UNL     1      19.215  -5.523  39.882  1.00  0.00     0.007 A 
ATOM      4  C   UNL     1      18.745  -6.840  39.875  1.00  0.00     0.046 A 
ATOM      5  C   UNL     1      17.587  -7.178  40.582  1.00  0.00     0.115 A 
ATOM      6  C   UNL     1      17.366  -4.874  41.312  1.00  0.00     0.007 A 
ATOM      7  C   UNL     1      16.898  -6.191  41.302  1.00  0.00     0.046 A 
BRANCH   5   8
ATOM      8  O   UNL     1      17.130  -8.494  40.566  1.00  0.00    -0.508 OA
ATOM      9  H   UNL     1      16.751  -8.933  41.397  1.00  0.00     0.293 HD
ENDBRANCH   5   8
ENDBRANCH   1   2
BRANCH   1  10
ATOM     10  C   UNL     1      20.444  -3.047  40.011  1.00  0.00     0.040 C 
BRANCH  10  11
ATOM     11  C   UNL     1      21.499  -3.261  41.064  1.00  0.00    -0.040 A 
ATOM     12  C   UNL     1      21.596  -2.386  42.158  1.00  0.00     0.050 A 
ATOM     13  C   UNL     1      22.431  -4.303  40.930  1.00  0.00     0.050 A 
ATOM     14  C   UNL     1      22.598  -2.565  43.121  1.00  0.00     0.119 A 
ATOM     15  C   UNL     1      23.434  -4.482  41.892  1.00  0.00     0.119 A 
ATOM     16  C   UNL     1      23.513  -3.614  42.986  1.00  0.00     0.092 A 
BRANCH  14  17
ATOM     17  O   UNL     1      22.695  -1.705  44.212  1.00  0.00    -0.508 OA
ATOM     18  H   UNL     1      23.028  -0.753  44.109  1.00  0.00     0.293 HD
ENDBRANCH  14  17
BRANCH  15  19
ATOM     19  O   UNL     1      24.358  -5.518  41.770  1.00  0.00    -0.508 OA
ATOM     20  H   UNL     1      24.079  -6.489  41.852  1.00  0.00     0.293 HD
ENDBRANCH  15  19
ENDBRANCH  10  11
ENDBRANCH   1  10
TORSDOF 6
ENDMDL
