MODEL 1
REMARK VINA RESULT:     7.096      0.000      0.000
REMARK INTER + INTRA:           7.299
REMARK INTER:                   7.511
REMARK INTRA:                  -0.212
REMARK UNBOUND:                -0.212
REMARK SMILES CC1=CC[C@@H]2[C@H]3[C@@H](C(C)C)CC[C@]2(C)[C@@H]13
REMARK SMILES IDX 1 1 2 2 3 3 4 4 5 5 6 6 15 7 13 8 12 9 11 10 7 11 14 12 8 13
REMARK SMILES IDX 9 14 10 15
REMARK H PARENT
REMARK Flexibility Score: inf
ROOT
ATOM      1  C   UNL     1     134.883 134.905 161.824  1.00  0.00     0.039 C 
ATOM      2  C   UNL     1     135.742 136.132 161.900  1.00  0.00    -0.073 C 
ATOM      3  C   UNL     1     136.941 136.193 161.263  1.00  0.00    -0.027 C 
ATOM      4  C   UNL     1     137.762 137.482 161.355  1.00  0.00     0.031 C 
ATOM      5  C   UNL     1     137.031 138.532 162.254  1.00  0.00     0.003 C 
ATOM      6  C   UNL     1     136.553 137.797 163.534  1.00  0.00     0.004 C 
ATOM      7  C   UNL     1     135.320 137.361 162.709  1.00  0.00     0.024 C 
ATOM      8  C   UNL     1     135.531 138.652 161.883  1.00  0.00    -0.022 C 
ATOM      9  C   UNL     1     134.875 139.852 162.634  1.00  0.00     0.008 C 
ATOM     10  C   UNL     1     135.499 140.089 164.035  1.00  0.00     0.005 C 
ATOM     11  C   UNL     1     136.106 138.788 164.650  1.00  0.00    -0.005 C 
ATOM     12  C   UNL     1     135.121 138.645 160.391  1.00  0.00     0.012 C 
ENDROOT
BRANCH  11  13
ATOM     13  C   UNL     1     137.226 139.037 165.704  1.00  0.00    -0.014 C 
ATOM     14  C   UNL     1     137.189 140.436 166.345  1.00  0.00     0.007 C 
ATOM     15  C   UNL     1     137.231 137.953 166.791  1.00  0.00     0.007 C 
ENDBRANCH  11  13
TORSDOF 1
ENDMDL
MODEL 2
REMARK VINA RESULT:     7.645      1.116      4.443
REMARK INTER + INTRA:           7.880
REMARK INTER:                   8.098
REMARK INTRA:                  -0.219
REMARK UNBOUND:                -0.212
REMARK SMILES CC1=CC[C@@H]2[C@H]3[C@@H](C(C)C)CC[C@]2(C)[C@@H]13
REMARK SMILES IDX 1 1 2 2 3 3 4 4 5 5 6 6 15 7 13 8 12 9 11 10 7 11 14 12 8 13
REMARK SMILES IDX 9 14 10 15
REMARK H PARENT
REMARK Flexibility Score: inf
ROOT
ATOM      1  C   UNL     1     138.340 140.126 165.540  1.00  0.00     0.039 C 
ATOM      2  C   UNL     1     137.101 139.488 164.987  1.00  0.00    -0.073 C 
ATOM      3  C   UNL     1     136.131 139.005 165.807  1.00  0.00    -0.027 C 
ATOM      4  C   UNL     1     134.876 138.388 165.184  1.00  0.00     0.031 C 
ATOM      5  C   UNL     1     134.978 138.400 163.624  1.00  0.00     0.003 C 
ATOM      6  C   UNL     1     136.392 137.886 163.245  1.00  0.00     0.004 C 
ATOM      7  C   UNL     1     136.878 139.335 163.479  1.00  0.00     0.024 C 
ATOM      8  C   UNL     1     135.447 139.780 163.096  1.00  0.00    -0.022 C 
ATOM      9  C   UNL     1     135.330 139.839 161.541  1.00  0.00     0.008 C 
ATOM     10  C   UNL     1     135.585 138.462 160.873  1.00  0.00     0.005 C 
ATOM     11  C   UNL     1     136.506 137.539 161.731  1.00  0.00    -0.005 C 
ATOM     12  C   UNL     1     134.879 141.066 163.741  1.00  0.00     0.012 C 
ENDROOT
BRANCH  11  13
ATOM     13  C   UNL     1     136.325 136.016 161.456  1.00  0.00    -0.014 C 
ATOM     14  C   UNL     1     137.352 135.120 162.171  1.00  0.00     0.007 C 
ATOM     15  C   UNL     1     134.897 135.550 161.775  1.00  0.00     0.007 C 
ENDBRANCH  11  13
TORSDOF 1
ENDMDL
