MODEL 1
REMARK VINA RESULT:    -4.535      0.000      0.000
REMARK INTER + INTRA:          -6.215
REMARK INTER:                  -6.390
REMARK INTRA:                   0.175
REMARK UNBOUND:                 0.175
REMARK SMILES CC1=CCC(=C(C)C)C(=O)CC(C)=CCC1
REMARK SMILES IDX 12 1 14 2 13 3 15 4 16 5 2 6 1 7 3 8 11 10 9 11 10 12 5 13
REMARK SMILES IDX 6 14 7 15 8 16 4 17
REMARK H PARENT
REMARK Flexibility Score: 60.00
ROOT
ATOM      1  C   UNL     1      28.731  53.157  16.889  1.00  0.00    -0.070 C 
ATOM      2  C   UNL     1      27.420  53.494  17.019  1.00  0.00    -0.027 C 
ATOM      3  C   UNL     1      29.694  54.283  16.598  1.00  0.00     0.039 C 
ENDROOT
BRANCH   2   4
ATOM      4  C   UNL     1      26.278  52.592  17.422  1.00  0.00     0.032 C 
BRANCH   4   5
ATOM      5  C   UNL     1      25.784  51.646  16.316  1.00  0.00     0.034 C 
BRANCH   5   6
ATOM      6  C   UNL     1      25.752  50.172  16.677  1.00  0.00    -0.077 C 
ATOM      7  C   UNL     1      24.822  49.713  17.772  1.00  0.00     0.039 C 
ATOM      8  C   UNL     1      26.581  49.251  16.129  1.00  0.00    -0.023 CG0
ATOM      9  G   UNL     1      27.468  49.477  14.932  1.00  0.00     0.000 G0
ENDBRANCH   5   6
ENDBRANCH   4   5
ENDBRANCH   2   4
BRANCH   1  10
ATOM     10  C   UNL     1      29.289  51.738  16.891  1.00  0.00     0.111 C 
BRANCH  10  11
ATOM     11  C   UNL     1      29.375  51.069  15.548  1.00  0.00     0.163 C 
ATOM     12  O   UNL     1      29.754  51.731  14.543  1.00  0.00    -0.294 OA
BRANCH  11  13
ATOM     13  C   UNL     1      28.909  49.670  15.372  1.00  0.00    -0.002 C 
ATOM     14  C   UNL     1      29.777  48.637  15.555  1.00  0.00    -0.069 C 
ATOM     15  C   UNL     1      31.212  48.900  15.953  1.00  0.00     0.039 C 
ATOM     16  C   UNL     1      29.357  47.201  15.346  1.00  0.00     0.039 C 
BRANCH  13  17
ATOM     17  C   UNL     1      27.466  49.466  14.930  1.00  0.00     0.066 CG0
ATOM     18  G   UNL     1      26.583  49.260  16.133  1.00  0.00     0.000 G0
ENDBRANCH  13  17
ENDBRANCH  11  13
ENDBRANCH  10  11
ENDBRANCH   1  10
TORSDOF 0
ENDMDL
MODEL 2
REMARK VINA RESULT:    -4.446      7.054      8.529
REMARK INTER + INTRA:          -6.090
REMARK INTER:                  -6.279
REMARK INTRA:                   0.189
REMARK UNBOUND:                 0.175
REMARK SMILES CC1=CCC(=C(C)C)C(=O)CC(C)=CCC1
REMARK SMILES IDX 12 1 14 2 13 3 15 4 16 5 2 6 1 7 3 8 11 10 9 11 10 12 5 13
REMARK SMILES IDX 6 14 7 15 8 16 4 17
REMARK H PARENT
REMARK Flexibility Score: 60.00
ROOT
ATOM      1  C   UNL     1      28.017  52.619  10.515  1.00  0.00    -0.070 C 
ATOM      2  C   UNL     1      28.732  53.689  10.953  1.00  0.00    -0.027 C 
ATOM      3  C   UNL     1      28.805  51.475   9.921  1.00  0.00     0.039 C 
ENDROOT
BRANCH   2   4
ATOM      4  C   UNL     1      28.210  54.902  11.686  1.00  0.00     0.032 C 
BRANCH   4   5
ATOM      5  C   UNL     1      27.658  56.013  10.779  1.00  0.00     0.034 C 
BRANCH   5   6
ATOM      6  C   UNL     1      26.229  56.444  11.062  1.00  0.00    -0.077 C 
ATOM      7  C   UNL     1      25.951  57.271  12.293  1.00  0.00     0.039 C 
ATOM      8  C   UNL     1      25.170  56.052  10.316  1.00  0.00    -0.023 CG0
ATOM      9  G   UNL     1      25.251  55.355   8.982  1.00  0.00     0.000 G0
ENDBRANCH   5   6
ENDBRANCH   4   5
ENDBRANCH   2   4
BRANCH   1  10
ATOM     10  C   UNL     1      26.496  52.529  10.459  1.00  0.00     0.111 C 
BRANCH  10  11
ATOM     11  C   UNL     1      25.869  52.885   9.140  1.00  0.00     0.163 C 
ATOM     12  O   UNL     1      26.319  52.378   8.076  1.00  0.00    -0.294 OA
BRANCH  11  13
ATOM     13  C   UNL     1      24.804  53.917   9.067  1.00  0.00    -0.002 C 
ATOM     14  C   UNL     1      23.495  53.540   9.044  1.00  0.00    -0.069 C 
ATOM     15  C   UNL     1      23.114  52.078   9.109  1.00  0.00     0.039 C 
ATOM     16  C   UNL     1      22.379  54.552   8.929  1.00  0.00     0.039 C 
BRANCH  13  17
ATOM     17  C   UNL     1      25.244  55.370   8.963  1.00  0.00     0.066 CG0
ATOM     18  G   UNL     1      25.177  56.028  10.317  1.00  0.00     0.000 G0
ENDBRANCH  13  17
ENDBRANCH  11  13
ENDBRANCH  10  11
ENDBRANCH   1  10
TORSDOF 0
ENDMDL
MODEL 3
REMARK VINA RESULT:    -4.439      6.668      7.913
REMARK INTER + INTRA:          -6.080
REMARK INTER:                  -6.295
REMARK INTRA:                   0.215
REMARK UNBOUND:                 0.175
REMARK SMILES CC1=CCC(=C(C)C)C(=O)CC(C)=CCC1
REMARK SMILES IDX 12 1 14 2 13 3 15 4 16 5 2 6 1 7 3 8 11 10 9 11 10 12 5 13
REMARK SMILES IDX 6 14 7 15 8 16 4 17
REMARK H PARENT
REMARK Flexibility Score: 60.00
ROOT
ATOM      1  C   UNL     1      24.685  55.408   9.516  1.00  0.00    -0.070 C 
ATOM      2  C   UNL     1      25.344  56.213  10.392  1.00  0.00    -0.027 C 
ATOM      3  C   UNL     1      24.852  55.725   8.049  1.00  0.00     0.039 C 
ENDROOT
BRANCH   2   4
ATOM      4  C   UNL     1      25.444  56.049  11.890  1.00  0.00     0.032 C 
BRANCH   4   5
ATOM      5  C   UNL     1      26.618  55.177  12.364  1.00  0.00     0.034 C 
BRANCH   5   6
ATOM      6  C   UNL     1      27.670  54.863  11.315  1.00  0.00    -0.077 C 
ATOM      7  C   UNL     1      28.715  55.905  11.001  1.00  0.00     0.039 C 
ATOM      8  C   UNL     1      27.672  53.728  10.576  1.00  0.00    -0.023 CG0
ATOM      9  G   UNL     1      26.813  52.518  10.833  1.00  0.00     0.000 G0
ENDBRANCH   5   6
ENDBRANCH   4   5
ENDBRANCH   2   4
BRANCH   1  10
ATOM     10  C   UNL     1      23.706  54.301   9.891  1.00  0.00     0.111 C 
BRANCH  10  11
ATOM     11  C   UNL     1      24.319  53.049  10.451  1.00  0.00     0.163 C 
ATOM     12  O   UNL     1      23.801  52.495  11.459  1.00  0.00    -0.294 OA
BRANCH  11  13
ATOM     13  C   UNL     1      25.595  52.524   9.901  1.00  0.00    -0.002 C 
ATOM     14  C   UNL     1      25.636  52.039   8.629  1.00  0.00    -0.069 C 
ATOM     15  C   UNL     1      24.397  52.045   7.762  1.00  0.00     0.039 C 
ATOM     16  C   UNL     1      26.901  51.458   8.042  1.00  0.00     0.039 C 
BRANCH  13  17
ATOM     17  C   UNL     1      26.801  52.504  10.830  1.00  0.00     0.066 CG0
ATOM     18  G   UNL     1      27.656  53.720  10.590  1.00  0.00     0.000 G0
ENDBRANCH  13  17
ENDBRANCH  11  13
ENDBRANCH  10  11
ENDBRANCH   1  10
TORSDOF 0
ENDMDL
MODEL 4
REMARK VINA RESULT:    -4.401      1.994      3.606
REMARK INTER + INTRA:          -6.027
REMARK INTER:                  -6.469
REMARK INTRA:                   0.442
REMARK UNBOUND:                 0.175
REMARK SMILES CC1=CCC(=C(C)C)C(=O)CC(C)=CCC1
REMARK SMILES IDX 12 1 14 2 13 3 15 4 16 5 2 6 1 7 3 8 11 10 9 11 10 12 5 13
REMARK SMILES IDX 6 14 7 15 8 16 4 17
REMARK H PARENT
REMARK Flexibility Score: 60.00
ROOT
ATOM      1  C   UNL     1      25.960  51.898  14.102  1.00  0.00    -0.070 C 
ATOM      2  C   UNL     1      25.940  52.993  14.908  1.00  0.00    -0.027 C 
ATOM      3  C   UNL     1      24.690  51.591  13.345  1.00  0.00     0.039 C 
ENDROOT
BRANCH   2   4
ATOM      4  C   UNL     1      27.097  53.587  15.676  1.00  0.00     0.032 C 
BRANCH   4   5
ATOM      5  C   UNL     1      27.705  52.660  16.741  1.00  0.00     0.034 C 
BRANCH   5   6
ATOM      6  C   UNL     1      29.161  52.283  16.530  1.00  0.00    -0.077 C 
ATOM      7  C   UNL     1      30.170  53.381  16.311  1.00  0.00     0.039 C 
ATOM      8  C   UNL     1      29.595  51.003  16.438  1.00  0.00    -0.023 CG0
ATOM      9  G   UNL     1      28.780  49.779  16.768  1.00  0.00     0.000 G0
ENDBRANCH   5   6
ENDBRANCH   4   5
ENDBRANCH   2   4
BRANCH   1  10
ATOM     10  C   UNL     1      27.103  50.895  13.994  1.00  0.00     0.111 C 
BRANCH  10  11
ATOM     11  C   UNL     1      27.017  49.706  14.910  1.00  0.00     0.163 C 
ATOM     12  O   UNL     1      25.887  49.267  15.259  1.00  0.00    -0.294 OA
BRANCH  11  13
ATOM     13  C   UNL     1      28.247  49.117  15.497  1.00  0.00    -0.002 C 
ATOM     14  C   UNL     1      28.814  48.018  14.925  1.00  0.00    -0.069 C 
ATOM     15  C   UNL     1      28.211  47.400  13.683  1.00  0.00     0.039 C 
ATOM     16  C   UNL     1      30.041  47.361  15.512  1.00  0.00     0.039 C 
BRANCH  13  17
ATOM     17  C   UNL     1      28.787  49.754  16.770  1.00  0.00     0.066 CG0
ATOM     18  G   UNL     1      29.571  50.996  16.432  1.00  0.00     0.000 G0
ENDBRANCH  13  17
ENDBRANCH  11  13
ENDBRANCH  10  11
ENDBRANCH   1  10
TORSDOF 0
ENDMDL
MODEL 5
REMARK VINA RESULT:    -4.312      2.177      4.690
REMARK INTER + INTRA:          -5.902
REMARK INTER:                  -6.262
REMARK INTRA:                   0.360
REMARK UNBOUND:                 0.175
REMARK SMILES CC1=CCC(=C(C)C)C(=O)CC(C)=CCC1
REMARK SMILES IDX 12 1 14 2 13 3 15 4 16 5 2 6 1 7 3 8 11 10 9 11 10 12 5 13
REMARK SMILES IDX 6 14 7 15 8 16 4 17
REMARK H PARENT
REMARK Flexibility Score: 60.00
ROOT
ATOM      1  C   UNL     1      28.299  53.231  16.778  1.00  0.00    -0.070 C 
ATOM      2  C   UNL     1      29.112  52.176  16.503  1.00  0.00    -0.027 C 
ATOM      3  C   UNL     1      28.966  54.479  17.307  1.00  0.00     0.039 C 
ENDROOT
BRANCH   2   4
ATOM      4  C   UNL     1      28.725  50.864  15.861  1.00  0.00     0.032 C 
BRANCH   4   5
ATOM      5  C   UNL     1      28.001  49.880  16.794  1.00  0.00     0.034 C 
BRANCH   5   6
ATOM      6  C   UNL     1      26.591  49.498  16.381  1.00  0.00    -0.077 C 
ATOM      7  C   UNL     1      26.398  48.686  15.125  1.00  0.00     0.039 C 
ATOM      8  C   UNL     1      25.482  49.923  17.031  1.00  0.00    -0.023 CG0
ATOM      9  G   UNL     1      25.465  50.611  18.371  1.00  0.00     0.000 G0
ENDBRANCH   5   6
ENDBRANCH   4   5
ENDBRANCH   2   4
BRANCH   1  10
ATOM     10  C   UNL     1      26.776  53.219  16.716  1.00  0.00     0.111 C 
BRANCH  10  11
ATOM     11  C   UNL     1      26.070  53.085  18.036  1.00  0.00     0.163 C 
ATOM     12  O   UNL     1      26.447  53.779  19.020  1.00  0.00    -0.294 OA
BRANCH  11  13
ATOM     13  C   UNL     1      25.011  52.061  18.223  1.00  0.00    -0.002 C 
ATOM     14  C   UNL     1      23.706  52.442  18.306  1.00  0.00    -0.069 C 
ATOM     15  C   UNL     1      23.321  53.901  18.191  1.00  0.00     0.039 C 
ATOM     16  C   UNL     1      22.599  51.440  18.537  1.00  0.00     0.039 C 
BRANCH  13  17
ATOM     17  C   UNL     1      25.458  50.614  18.374  1.00  0.00     0.066 CG0
ATOM     18  G   UNL     1      25.485  49.941  17.026  1.00  0.00     0.000 G0
ENDBRANCH  13  17
ENDBRANCH  11  13
ENDBRANCH  10  11
ENDBRANCH   1  10
TORSDOF 0
ENDMDL
MODEL 6
REMARK VINA RESULT:    -4.308      1.727      2.481
REMARK INTER + INTRA:          -5.897
REMARK INTER:                  -6.174
REMARK INTRA:                   0.277
REMARK UNBOUND:                 0.175
REMARK SMILES CC1=CCC(=C(C)C)C(=O)CC(C)=CCC1
REMARK SMILES IDX 12 1 14 2 13 3 15 4 16 5 2 6 1 7 3 8 11 10 9 11 10 12 5 13
REMARK SMILES IDX 6 14 7 15 8 16 4 17
REMARK H PARENT
REMARK Flexibility Score: 60.00
ROOT
ATOM      1  C   UNL     1      29.085  53.179  16.625  1.00  0.00    -0.070 C 
ATOM      2  C   UNL     1      28.381  54.164  17.245  1.00  0.00    -0.027 C 
ATOM      3  C   UNL     1      30.277  53.612  15.805  1.00  0.00     0.039 C 
ENDROOT
BRANCH   2   4
ATOM      4  C   UNL     1      27.231  54.000  18.210  1.00  0.00     0.032 C 
BRANCH   4   5
ATOM      5  C   UNL     1      25.860  53.787  17.546  1.00  0.00     0.034 C 
BRANCH   5   6
ATOM      6  C   UNL     1      25.153  52.490  17.899  1.00  0.00    -0.077 C 
ATOM      7  C   UNL     1      24.564  52.338  19.279  1.00  0.00     0.039 C 
ATOM      8  C   UNL     1      25.098  51.421  17.070  1.00  0.00    -0.023 CG0
ATOM      9  G   UNL     1      25.493  51.422  15.616  1.00  0.00     0.000 G0
ENDBRANCH   5   6
ENDBRANCH   4   5
ENDBRANCH   2   4
BRANCH   1  10
ATOM     10  C   UNL     1      28.704  51.703  16.588  1.00  0.00     0.111 C 
BRANCH  10  11
ATOM     11  C   UNL     1      28.043  51.232  15.323  1.00  0.00     0.163 C 
ATOM     12  O   UNL     1      28.564  51.504  14.207  1.00  0.00    -0.294 OA
BRANCH  11  13
ATOM     13  C   UNL     1      26.725  50.550  15.371  1.00  0.00    -0.002 C 
ATOM     14  C   UNL     1      26.648  49.206  15.165  1.00  0.00    -0.069 C 
ATOM     15  C   UNL     1      27.897  48.395  14.904  1.00  0.00     0.039 C 
ATOM     16  C   UNL     1      25.324  48.477  15.164  1.00  0.00     0.039 C 
BRANCH  13  17
ATOM     17  C   UNL     1      25.496  51.421  15.596  1.00  0.00     0.066 CG0
ATOM     18  G   UNL     1      25.125  51.420  17.056  1.00  0.00     0.000 G0
ENDBRANCH  13  17
ENDBRANCH  11  13
ENDBRANCH  10  11
ENDBRANCH   1  10
TORSDOF 0
ENDMDL
MODEL 7
REMARK VINA RESULT:    -4.285      3.259      4.460
REMARK INTER + INTRA:          -5.864
REMARK INTER:                  -6.197
REMARK INTRA:                   0.333
REMARK UNBOUND:                 0.175
REMARK SMILES CC1=CCC(=C(C)C)C(=O)CC(C)=CCC1
REMARK SMILES IDX 12 1 14 2 13 3 15 4 16 5 2 6 1 7 3 8 11 10 9 11 10 12 5 13
REMARK SMILES IDX 6 14 7 15 8 16 4 17
REMARK H PARENT
REMARK Flexibility Score: 60.00
ROOT
ATOM      1  C   UNL     1      26.545  53.968  17.724  1.00  0.00    -0.070 C 
ATOM      2  C   UNL     1      26.235  54.377  18.983  1.00  0.00    -0.027 C 
ATOM      3  C   UNL     1      27.980  53.570  17.475  1.00  0.00     0.039 C 
ENDROOT
BRANCH   2   4
ATOM      4  C   UNL     1      24.867  54.714  19.526  1.00  0.00     0.032 C 
BRANCH   4   5
ATOM      5  C   UNL     1      24.042  53.502  19.988  1.00  0.00     0.034 C 
BRANCH   5   6
ATOM      6  C   UNL     1      24.831  52.231  20.251  1.00  0.00    -0.077 C 
ATOM      7  C   UNL     1      25.670  52.144  21.501  1.00  0.00     0.039 C 
ATOM      8  C   UNL     1      24.896  51.199  19.376  1.00  0.00    -0.023 CG0
ATOM      9  G   UNL     1      24.028  51.033  18.155  1.00  0.00     0.000 G0
ENDBRANCH   5   6
ENDBRANCH   4   5
ENDBRANCH   2   4
BRANCH   1  10
ATOM     10  C   UNL     1      25.605  53.994  16.524  1.00  0.00     0.111 C 
BRANCH  10  11
ATOM     11  C   UNL     1      24.502  52.973  16.537  1.00  0.00     0.163 C 
ATOM     12  O   UNL     1      23.315  53.330  16.302  1.00  0.00    -0.294 OA
BRANCH  11  13
ATOM     13  C   UNL     1      24.781  51.570  16.936  1.00  0.00    -0.002 C 
ATOM     14  C   UNL     1      25.628  50.807  16.191  1.00  0.00    -0.069 C 
ATOM     15  C   UNL     1      26.303  51.382  14.965  1.00  0.00     0.039 C 
ATOM     16  C   UNL     1      25.908  49.363  16.536  1.00  0.00     0.039 C 
BRANCH  13  17
ATOM     17  C   UNL     1      24.042  51.030  18.153  1.00  0.00     0.066 CG0
ATOM     18  G   UNL     1      24.897  51.184  19.384  1.00  0.00     0.000 G0
ENDBRANCH  13  17
ENDBRANCH  11  13
ENDBRANCH  10  11
ENDBRANCH   1  10
TORSDOF 0
ENDMDL
MODEL 8
REMARK VINA RESULT:    -4.261      2.340      5.191
REMARK INTER + INTRA:          -5.830
REMARK INTER:                  -6.039
REMARK INTRA:                   0.210
REMARK UNBOUND:                 0.175
REMARK SMILES CC1=CCC(=C(C)C)C(=O)CC(C)=CCC1
REMARK SMILES IDX 12 1 14 2 13 3 15 4 16 5 2 6 1 7 3 8 11 10 9 11 10 12 5 13
REMARK SMILES IDX 6 14 7 15 8 16 4 17
REMARK H PARENT
REMARK Flexibility Score: 60.00
ROOT
ATOM      1  C   UNL     1      28.084  49.864  15.606  1.00  0.00    -0.070 C 
ATOM      2  C   UNL     1      28.831  50.736  14.878  1.00  0.00    -0.027 C 
ATOM      3  C   UNL     1      27.683  48.579  14.921  1.00  0.00     0.039 C 
ENDROOT
BRANCH   2   4
ATOM      4  C   UNL     1      29.458  52.025  15.353  1.00  0.00     0.032 C 
BRANCH   4   5
ATOM      5  C   UNL     1      28.494  53.220  15.427  1.00  0.00     0.034 C 
BRANCH   5   6
ATOM      6  C   UNL     1      28.368  53.880  16.789  1.00  0.00    -0.077 C 
ATOM      7  C   UNL     1      29.550  54.634  17.342  1.00  0.00     0.039 C 
ATOM      8  C   UNL     1      27.276  53.753  17.581  1.00  0.00    -0.023 CG0
ATOM      9  G   UNL     1      25.953  53.170  17.157  1.00  0.00     0.000 G0
ENDBRANCH   5   6
ENDBRANCH   4   5
ENDBRANCH   2   4
BRANCH   1  10
ATOM     10  C   UNL     1      27.521  50.124  16.999  1.00  0.00     0.111 C 
BRANCH  10  11
ATOM     11  C   UNL     1      26.092  50.590  17.048  1.00  0.00     0.163 C 
ATOM     12  O   UNL     1      25.220  50.006  16.348  1.00  0.00    -0.294 OA
BRANCH  11  13
ATOM     13  C   UNL     1      25.722  51.801  17.822  1.00  0.00    -0.002 C 
ATOM     14  C   UNL     1      25.153  51.672  19.054  1.00  0.00    -0.069 C 
ATOM     15  C   UNL     1      24.910  50.303  19.649  1.00  0.00     0.039 C 
ATOM     16  C   UNL     1      24.722  52.876  19.859  1.00  0.00     0.039 C 
BRANCH  13  17
ATOM     17  C   UNL     1      25.950  53.152  17.158  1.00  0.00     0.066 CG0
ATOM     18  G   UNL     1      27.276  53.721  17.591  1.00  0.00     0.000 G0
ENDBRANCH  13  17
ENDBRANCH  11  13
ENDBRANCH  10  11
ENDBRANCH   1  10
TORSDOF 0
ENDMDL
MODEL 9
REMARK VINA RESULT:    -4.240      6.853      8.276
REMARK INTER + INTRA:          -5.800
REMARK INTER:                  -6.437
REMARK INTRA:                   0.637
REMARK UNBOUND:                 0.175
REMARK SMILES CC1=CCC(=C(C)C)C(=O)CC(C)=CCC1
REMARK SMILES IDX 12 1 14 2 13 3 15 4 16 5 2 6 1 7 3 8 11 10 9 11 10 12 5 13
REMARK SMILES IDX 6 14 7 15 8 16 4 17
REMARK H PARENT
REMARK Flexibility Score: 60.00
ROOT
ATOM      1  C   UNL     1      27.402  52.229  10.189  1.00  0.00    -0.070 C 
ATOM      2  C   UNL     1      27.244  51.908   8.877  1.00  0.00    -0.027 C 
ATOM      3  C   UNL     1      28.802  52.576  10.638  1.00  0.00     0.039 C 
ENDROOT
BRANCH   2   4
ATOM      4  C   UNL     1      25.948  51.639   8.149  1.00  0.00     0.032 C 
BRANCH   4   5
ATOM      5  C   UNL     1      25.308  52.876   7.500  1.00  0.00     0.034 C 
BRANCH   5   6
ATOM      6  C   UNL     1      24.153  53.498   8.266  1.00  0.00    -0.077 C 
ATOM      7  C   UNL     1      22.761  52.966   8.039  1.00  0.00     0.039 C 
ATOM      8  C   UNL     1      24.291  54.571   9.081  1.00  0.00    -0.023 CG0
ATOM      9  G   UNL     1      25.601  55.151   9.548  1.00  0.00     0.000 G0
ENDBRANCH   5   6
ENDBRANCH   4   5
ENDBRANCH   2   4
BRANCH   1  10
ATOM     10  C   UNL     1      26.320  52.149  11.260  1.00  0.00     0.111 C 
BRANCH  10  11
ATOM     11  C   UNL     1      25.421  53.350  11.371  1.00  0.00     0.163 C 
ATOM     12  O   UNL     1      24.216  53.200  11.710  1.00  0.00    -0.294 OA
BRANCH  11  13
ATOM     13  C   UNL     1      25.910  54.694  10.972  1.00  0.00    -0.002 C 
ATOM     14  C   UNL     1      26.553  55.480  11.880  1.00  0.00    -0.069 C 
ATOM     15  C   UNL     1      26.791  54.988  13.291  1.00  0.00     0.039 C 
ATOM     16  C   UNL     1      27.030  56.870  11.531  1.00  0.00     0.039 C 
BRANCH  13  17
ATOM     17  C   UNL     1      25.606  55.155   9.553  1.00  0.00     0.066 CG0
ATOM     18  G   UNL     1      24.298  54.569   9.090  1.00  0.00     0.000 G0
ENDBRANCH  13  17
ENDBRANCH  11  13
ENDBRANCH  10  11
ENDBRANCH   1  10
TORSDOF 0
ENDMDL
