MODEL 1
REMARK VINA RESULT:   142.231      0.000      0.000
REMARK INTER + INTRA:         155.514
REMARK INTER:                 154.704
REMARK INTRA:                   0.810
REMARK UNBOUND:                 0.810
REMARK SMILES C[C@@H]1[C@H](C)CC[C@@]2(C(=O)[O-])CC[C@@]3(C)C(=CC[C@@H]4[C@@]5(C)CC[C@H](O)C(C)(C)[C@@H]5CC[C@@]43C)[C@H]12
REMARK SMILES IDX 7 1 6 2 11 3 33 4 5 5 12 6 15 7 2 8 3 9 13 10 16 11 1 12
REMARK SMILES IDX 4 13 14 14 31 15 17 16 18 17 30 18 32 19 19 20 29 21 28 22
REMARK SMILES IDX 21 23 20 24 25 25 22 26 23 27 26 28 27 29 8 30 9 31 10 32
REMARK SMILES IDX 24 33
REMARK H PARENT 24 34
REMARK Flexibility Score: inf
ROOT
ATOM      1  C   UNL     1       1.566  -1.226   3.681  1.00  0.00     0.017 C 
ATOM      2  C   UNL     1       2.602  -1.109   4.844  1.00  0.00     0.014 C 
ATOM      3  C   UNL     1       0.295  -2.036   4.129  1.00  0.00     0.014 C 
ATOM      4  C   UNL     1       1.146   0.232   3.318  1.00  0.00     0.030 C 
ATOM      5  C   UNL     1       3.796  -0.193   4.474  1.00  0.00     0.004 C 
ATOM      6  C   UNL     1      -0.908  -1.200   4.656  1.00  0.00     0.013 C 
ATOM      7  C   UNL     1      -0.267   0.267   2.730  1.00  0.00    -0.063 C 
ATOM      8  C   UNL     1       2.297   1.193   2.871  1.00  0.00    -0.003 C 
ATOM      9  C   UNL     1       3.356   1.226   4.030  1.00  0.00    -0.011 C 
ATOM     10  C   UNL     1      -1.391   0.038   3.756  1.00  0.00    -0.006 C 
ATOM     11  C   UNL     1      -0.442  -0.035   1.442  1.00  0.00    -0.027 C 
ATOM     12  C   UNL     1       2.946   0.912   1.498  1.00  0.00     0.008 C 
ATOM     13  C   UNL     1       4.579   2.105   3.728  1.00  0.00     0.008 C 
ATOM     14  C   UNL     1      -1.461   1.321   4.665  1.00  0.00     0.017 C 
ATOM     15  C   UNL     1      -2.858  -0.178   3.094  1.00  0.00    -0.020 C 
ATOM     16  C   UNL     1      -1.704  -0.559   0.856  1.00  0.00     0.032 C 
ATOM     17  C   UNL     1      -2.765  -1.153   1.846  1.00  0.00     0.006 C 
ATOM     18  C   UNL     1      -3.468   1.176   2.547  1.00  0.00     0.008 C 
ATOM     19  C   UNL     1      -3.797  -0.711   4.247  1.00  0.00     0.012 C 
ATOM     20  C   UNL     1      -4.170  -1.459   1.076  1.00  0.00    -0.025 C 
ATOM     21  C   UNL     1      -4.610   1.041   1.489  1.00  0.00     0.005 C 
ATOM     22  C   UNL     1      -5.240  -0.373   1.457  1.00  0.00     0.003 C 
ATOM     23  C   UNL     1      -4.756  -2.842   1.496  1.00  0.00     0.010 C 
ATOM     24  C   UNL     1      -3.943  -1.542  -0.475  1.00  0.00     0.012 C 
ATOM     25  C   UNL     1      -6.685  -0.536   0.838  1.00  0.00    -0.006 C 
ATOM     26  C   UNL     1      -6.162  -3.125   0.909  1.00  0.00     0.033 C 
ATOM     27  C   UNL     1      -7.184  -1.991   1.179  1.00  0.00     0.120 C 
ATOM     28  C   UNL     1      -7.664   0.449   1.543  1.00  0.00     0.014 C 
ATOM     29  C   UNL     1      -6.757  -0.219  -0.683  1.00  0.00     0.014 C 
ENDROOT
BRANCH   1  30
ATOM     30  C   UNL     1       2.185  -1.998   2.514  1.00  0.00     0.048 C 
ATOM     31  O   UNL     1       1.487  -2.772   1.804  1.00  0.00    -0.550 OA
ATOM     32  O   UNL     1       3.501  -1.775   2.132  1.00  0.00    -0.550 OA
ENDBRANCH   1  30
BRANCH  27  33
ATOM     33  O   UNL     1      -8.425  -2.274   0.578  1.00  0.00    -0.393 OA
ATOM     34  H   UNL     1      -8.288  -2.988  -0.097  1.00  0.00     0.210 HD
ENDBRANCH  27  33
TORSDOF 2
ENDMDL
MODEL 2
REMARK VINA RESULT:   142.437     13.533     16.748
REMARK INTER + INTRA:         155.737
REMARK INTER:                 154.054
REMARK INTRA:                   1.683
REMARK UNBOUND:                 0.810
REMARK SMILES C[C@@H]1[C@H](C)CC[C@@]2(C(=O)[O-])CC[C@@]3(C)C(=CC[C@@H]4[C@@]5(C)CC[C@H](O)C(C)(C)[C@@H]5CC[C@@]43C)[C@H]12
REMARK SMILES IDX 7 1 6 2 11 3 33 4 5 5 12 6 15 7 2 8 3 9 13 10 16 11 1 12
REMARK SMILES IDX 4 13 14 14 31 15 17 16 18 17 30 18 32 19 19 20 29 21 28 22
REMARK SMILES IDX 21 23 20 24 25 25 22 26 23 27 26 28 27 29 8 30 9 31 10 32
REMARK SMILES IDX 24 33
REMARK H PARENT 24 34
REMARK Flexibility Score: inf
ROOT
ATOM      1  C   UNL     1      -6.763  15.370   7.083  1.00  0.00     0.017 C 
ATOM      2  C   UNL     1      -8.178  16.002   6.897  1.00  0.00     0.014 C 
ATOM      3  C   UNL     1      -6.390  15.244   8.606  1.00  0.00     0.014 C 
ATOM      4  C   UNL     1      -6.829  13.947   6.448  1.00  0.00     0.030 C 
ATOM      5  C   UNL     1      -8.628  16.004   5.414  1.00  0.00     0.004 C 
ATOM      6  C   UNL     1      -6.709  13.880   9.285  1.00  0.00     0.013 C 
ATOM      7  C   UNL     1      -5.824  13.002   7.112  1.00  0.00    -0.063 C 
ATOM      8  C   UNL     1      -7.213  13.881   4.934  1.00  0.00    -0.003 C 
ATOM      9  C   UNL     1      -8.604  14.592   4.772  1.00  0.00    -0.011 C 
ATOM     10  C   UNL     1      -6.212  12.552   8.532  1.00  0.00    -0.006 C 
ATOM     11  C   UNL     1      -4.546  13.041   6.730  1.00  0.00    -0.027 C 
ATOM     12  C   UNL     1      -6.169  14.410   3.926  1.00  0.00     0.008 C 
ATOM     13  C   UNL     1      -9.109  14.646   3.322  1.00  0.00     0.008 C 
ATOM     14  C   UNL     1      -7.433  11.569   8.392  1.00  0.00     0.017 C 
ATOM     15  C   UNL     1      -5.034  11.764   9.323  1.00  0.00    -0.020 C 
ATOM     16  C   UNL     1      -3.394  12.626   7.574  1.00  0.00     0.032 C 
ATOM     17  C   UNL     1      -3.642  12.498   9.118  1.00  0.00     0.006 C 
ATOM     18  C   UNL     1      -4.835  10.291   8.780  1.00  0.00     0.008 C 
ATOM     19  C   UNL     1      -5.487  11.675  10.834  1.00  0.00     0.012 C 
ATOM     20  C   UNL     1      -2.360  11.811   9.856  1.00  0.00    -0.025 C 
ATOM     21  C   UNL     1      -3.464   9.615   9.102  1.00  0.00     0.005 C 
ATOM     22  C   UNL     1      -2.693  10.325  10.241  1.00  0.00     0.003 C 
ATOM     23  C   UNL     1      -2.003  12.556  11.180  1.00  0.00     0.010 C 
ATOM     24  C   UNL     1      -1.082  11.912   8.950  1.00  0.00     0.012 C 
ATOM     25  C   UNL     1      -1.578   9.512  11.012  1.00  0.00    -0.006 C 
ATOM     26  C   UNL     1      -0.887  11.863  12.001  1.00  0.00     0.033 C 
ATOM     27  C   UNL     1      -1.160  10.361  12.272  1.00  0.00     0.120 C 
ATOM     28  C   UNL     1      -2.186   8.183  11.550  1.00  0.00     0.014 C 
ATOM     29  C   UNL     1      -0.363   9.117  10.126  1.00  0.00     0.014 C 
ENDROOT
BRANCH   1  30
ATOM     30  C   UNL     1      -5.705  16.279   6.450  1.00  0.00     0.048 C 
ATOM     31  O   UNL     1      -5.078  17.125   7.144  1.00  0.00    -0.550 OA
ATOM     32  O   UNL     1      -5.324  16.111   5.127  1.00  0.00    -0.550 OA
ENDBRANCH   1  30
BRANCH  27  33
ATOM     33  O   UNL     1      -0.091   9.770  12.971  1.00  0.00    -0.393 OA
ATOM     34  H   UNL     1      -0.015   8.825  12.682  1.00  0.00     0.210 HD
ENDBRANCH  27  33
TORSDOF 2
ENDMDL
