MODEL 1
REMARK VINA RESULT:    -2.803      0.000      0.000
REMARK INTER + INTRA:          -4.779
REMARK INTER:                  -4.278
REMARK INTRA:                  -0.501
REMARK UNBOUND:                -0.501
REMARK SMILES CC1=CCC[C@H](C)C(=O)C[C@H](C(C)C)C(=O)C1
REMARK SMILES IDX 8 1 9 2 6 3 7 4 5 5 4 6 3 7 2 8 1 9 10 11 11 12 15 13 16 14
REMARK SMILES IDX 17 15 12 17 13 18 14 19
REMARK H PARENT
REMARK Flexibility Score: 70.00
ROOT
ATOM      1  C   UNL     1      23.992 -32.156 -10.744  1.00  0.00     0.136 C 
ATOM      2  O   UNL     1      23.271 -32.807 -10.001  1.00  0.00    -0.299 OA
ENDROOT
BRANCH   1   3
ATOM      3  C   UNL     1      24.147 -30.665 -10.491  1.00  0.00     0.053 C 
ATOM      4  C   UNL     1      22.794 -29.956 -10.618  1.00  0.00     0.016 C 
BRANCH   3   5
ATOM      5  C   UNL     1      24.798 -30.369  -9.125  1.00  0.00     0.015 C 
BRANCH   5   6
ATOM      6  C   UNL     1      26.157 -31.076  -8.974  1.00  0.00     0.028 C 
BRANCH   6   7
ATOM      7  C   UNL     1      27.283 -30.356  -9.672  1.00  0.00    -0.028 C 
ATOM      8  C   UNL     1      27.986 -30.818 -10.738  1.00  0.00    -0.070 CG0
ATOM      9  C   UNL     1      28.986 -29.876 -11.363  1.00  0.00     0.039 C 
ATOM     10  G   UNL     1      27.888 -32.238 -11.288  1.00  0.00     0.000 G0
ENDBRANCH   6   7
ENDBRANCH   5   6
ENDBRANCH   3   5
ENDBRANCH   1   3
BRANCH   1  11
ATOM     11  C   UNL     1      24.742 -32.871 -11.846  1.00  0.00     0.087 C 
BRANCH  11  12
ATOM     12  C   UNL     1      25.643 -31.924 -12.684  1.00  0.00     0.066 C 
BRANCH  12  13
ATOM     13  C   UNL     1      27.109 -32.336 -12.608  1.00  0.00     0.140 C 
ATOM     14  O   UNL     1      27.619 -32.888 -13.573  1.00  0.00    -0.299 OA
BRANCH  13  15
ATOM     15  C   UNL     1      27.891 -32.226 -11.319  1.00  0.00     0.106 CG0
ATOM     16  G   UNL     1      27.970 -30.820 -10.731  1.00  0.00     0.000 G0
ENDBRANCH  13  15
ENDBRANCH  12  13
BRANCH  12  17
ATOM     17  C   UNL     1      25.180 -31.819 -14.174  1.00  0.00    -0.006 C 
ATOM     18  C   UNL     1      23.690 -32.161 -14.355  1.00  0.00     0.008 C 
ATOM     19  C   UNL     1      25.434 -30.407 -14.738  1.00  0.00     0.008 C 
ENDBRANCH  12  17
ENDBRANCH  11  12
ENDBRANCH   1  11
TORSDOF 1
ENDMDL
MODEL 2
REMARK VINA RESULT:    -2.765     13.094     14.751
REMARK INTER + INTRA:          -4.721
REMARK INTER:                  -4.373
REMARK INTRA:                  -0.348
REMARK UNBOUND:                -0.501
REMARK SMILES CC1=CCC[C@H](C)C(=O)C[C@H](C(C)C)C(=O)C1
REMARK SMILES IDX 8 1 9 2 6 3 7 4 5 5 4 6 3 7 2 8 1 9 10 11 11 12 15 13 16 14
REMARK SMILES IDX 17 15 12 17 13 18 14 19
REMARK H PARENT
REMARK Flexibility Score: 70.00
ROOT
ATOM      1  C   UNL     1      26.865 -43.160 -10.373  1.00  0.00     0.136 C 
ATOM      2  O   UNL     1      26.247 -42.247  -9.845  1.00  0.00    -0.299 OA
ENDROOT
BRANCH   1   3
ATOM      3  C   UNL     1      27.122 -43.100 -11.871  1.00  0.00     0.053 C 
ATOM      4  C   UNL     1      28.475 -43.737 -12.208  1.00  0.00     0.016 C 
BRANCH   3   5
ATOM      5  C   UNL     1      25.988 -43.752 -12.685  1.00  0.00     0.015 C 
BRANCH   5   6
ATOM      6  C   UNL     1      26.478 -44.986 -13.462  1.00  0.00     0.028 C 
BRANCH   6   7
ATOM      7  C   UNL     1      25.698 -46.237 -13.147  1.00  0.00    -0.028 C 
ATOM      8  C   UNL     1      25.930 -47.084 -12.110  1.00  0.00    -0.070 CG0
ATOM      9  C   UNL     1      24.942 -48.207 -11.905  1.00  0.00     0.039 C 
ATOM     10  G   UNL     1      27.152 -47.019 -11.200  1.00  0.00     0.000 G0
ENDBRANCH   6   7
ENDBRANCH   5   6
ENDBRANCH   3   5
ENDBRANCH   1   3
BRANCH   1  11
ATOM     11  C   UNL     1      27.396 -44.280  -9.506  1.00  0.00     0.087 C 
BRANCH  11  12
ATOM     12  C   UNL     1      26.362 -45.416  -9.278  1.00  0.00     0.066 C 
BRANCH  12  13
ATOM     13  C   UNL     1      26.897 -46.762  -9.757  1.00  0.00     0.140 C 
ATOM     14  O   UNL     1      27.241 -47.591  -8.926  1.00  0.00    -0.299 OA
BRANCH  13  15
ATOM     15  C   UNL     1      27.162 -47.027 -11.221  1.00  0.00     0.106 CG0
ATOM     16  G   UNL     1      25.917 -47.082 -12.102  1.00  0.00     0.000 G0
ENDBRANCH  13  15
ENDBRANCH  12  13
BRANCH  12  17
ATOM     17  C   UNL     1      25.894 -45.511  -7.790  1.00  0.00    -0.006 C 
ATOM     18  C   UNL     1      27.003 -45.118  -6.796  1.00  0.00     0.008 C 
ATOM     19  C   UNL     1      24.665 -44.618  -7.534  1.00  0.00     0.008 C 
ENDBRANCH  12  17
ENDBRANCH  11  12
ENDBRANCH   1  11
TORSDOF 1
ENDMDL
MODEL 3
REMARK VINA RESULT:    -2.627      2.501      4.390
REMARK INTER + INTRA:          -4.510
REMARK INTER:                  -4.335
REMARK INTRA:                  -0.175
REMARK UNBOUND:                -0.501
REMARK SMILES CC1=CCC[C@H](C)C(=O)C[C@H](C(C)C)C(=O)C1
REMARK SMILES IDX 8 1 9 2 6 3 7 4 5 5 4 6 3 7 2 8 1 9 10 11 11 12 15 13 16 14
REMARK SMILES IDX 17 15 12 17 13 18 14 19
REMARK H PARENT
REMARK Flexibility Score: 70.00
ROOT
ATOM      1  C   UNL     1      26.199 -33.726 -14.772  1.00  0.00     0.136 C 
ATOM      2  O   UNL     1      26.719 -34.091 -13.727  1.00  0.00    -0.299 OA
ENDROOT
BRANCH   1   3
ATOM      3  C   UNL     1      24.701 -33.917 -14.950  1.00  0.00     0.053 C 
ATOM      4  C   UNL     1      24.402 -35.318 -15.495  1.00  0.00     0.016 C 
BRANCH   3   5
ATOM      5  C   UNL     1      23.921 -33.654 -13.647  1.00  0.00     0.015 C 
BRANCH   5   6
ATOM      6  C   UNL     1      23.804 -32.150 -13.344  1.00  0.00     0.028 C 
BRANCH   6   7
ATOM      7  C   UNL     1      24.750 -31.684 -12.266  1.00  0.00    -0.028 C 
ATOM      8  C   UNL     1      25.708 -30.730 -12.401  1.00  0.00    -0.070 CG0
ATOM      9  C   UNL     1      26.457 -30.326 -11.154  1.00  0.00     0.039 C 
ATOM     10  G   UNL     1      26.123 -30.106 -13.730  1.00  0.00     0.000 G0
ENDBRANCH   6   7
ENDBRANCH   5   6
ENDBRANCH   3   5
ENDBRANCH   1   3
BRANCH   1  11
ATOM     11  C   UNL     1      27.058 -33.048 -15.816  1.00  0.00     0.087 C 
BRANCH  11  12
ATOM     12  C   UNL     1      26.858 -31.508 -15.864  1.00  0.00     0.066 C 
BRANCH  12  13
ATOM     13  C   UNL     1      27.169 -30.863 -14.517  1.00  0.00     0.140 C 
ATOM     14  O   UNL     1      28.254 -31.077 -13.995  1.00  0.00    -0.299 OA
BRANCH  13  15
ATOM     15  C   UNL     1      26.112 -30.107 -13.745  1.00  0.00     0.106 CG0
ATOM     16  G   UNL     1      25.719 -30.731 -12.409  1.00  0.00     0.000 G0
ENDBRANCH  13  15
ENDBRANCH  12  13
BRANCH  12  17
ATOM     17  C   UNL     1      27.690 -30.831 -17.000  1.00  0.00    -0.006 C 
ATOM     18  C   UNL     1      28.687 -31.801 -17.661  1.00  0.00     0.008 C 
ATOM     19  C   UNL     1      26.771 -30.250 -18.093  1.00  0.00     0.008 C 
ENDBRANCH  12  17
ENDBRANCH  11  12
ENDBRANCH   1  11
TORSDOF 1
ENDMDL
MODEL 4
REMARK VINA RESULT:    -2.609     13.153     14.497
REMARK INTER + INTRA:          -4.483
REMARK INTER:                  -4.223
REMARK INTRA:                  -0.260
REMARK UNBOUND:                -0.501
REMARK SMILES CC1=CCC[C@H](C)C(=O)C[C@H](C(C)C)C(=O)C1
REMARK SMILES IDX 8 1 9 2 6 3 7 4 5 5 4 6 3 7 2 8 1 9 10 11 11 12 15 13 16 14
REMARK SMILES IDX 17 15 12 17 13 18 14 19
REMARK H PARENT
REMARK Flexibility Score: 70.00
ROOT
ATOM      1  C   UNL     1      26.565 -45.151  -7.904  1.00  0.00     0.136 C 
ATOM      2  O   UNL     1      26.944 -44.989  -6.752  1.00  0.00    -0.299 OA
ENDROOT
BRANCH   1   3
ATOM      3  C   UNL     1      25.266 -44.494  -8.344  1.00  0.00     0.053 C 
ATOM      4  C   UNL     1      24.201 -44.627  -7.250  1.00  0.00     0.016 C 
BRANCH   3   5
ATOM      5  C   UNL     1      25.464 -43.019  -8.744  1.00  0.00     0.015 C 
BRANCH   5   6
ATOM      6  C   UNL     1      26.608 -42.850  -9.760  1.00  0.00     0.028 C 
BRANCH   6   7
ATOM      7  C   UNL     1      26.159 -42.994 -11.192  1.00  0.00    -0.028 C 
ATOM      8  C   UNL     1      26.396 -44.060 -12.000  1.00  0.00    -0.070 CG0
ATOM      9  C   UNL     1      25.740 -44.053 -13.359  1.00  0.00     0.039 C 
ATOM     10  G   UNL     1      27.334 -45.213 -11.655  1.00  0.00     0.000 G0
ENDBRANCH   6   7
ENDBRANCH   5   6
ENDBRANCH   3   5
ENDBRANCH   1   3
BRANCH   1  11
ATOM     11  C   UNL     1      27.431 -45.948  -8.853  1.00  0.00     0.087 C 
BRANCH  11  12
ATOM     12  C   UNL     1      26.616 -46.919  -9.751  1.00  0.00     0.066 C 
BRANCH  12  13
ATOM     13  C   UNL     1      26.660 -46.495 -11.216  1.00  0.00     0.140 C 
ATOM     14  O   UNL     1      26.257 -47.272 -12.069  1.00  0.00    -0.299 OA
BRANCH  13  15
ATOM     15  C   UNL     1      27.337 -45.212 -11.642  1.00  0.00     0.106 CG0
ATOM     16  G   UNL     1      26.390 -44.062 -11.972  1.00  0.00     0.000 G0
ENDBRANCH  13  15
ENDBRANCH  12  13
BRANCH  12  17
ATOM     17  C   UNL     1      27.076 -48.405  -9.598  1.00  0.00    -0.006 C 
ATOM     18  C   UNL     1      28.551 -48.611  -9.992  1.00  0.00     0.008 C 
ATOM     19  C   UNL     1      26.879 -48.903  -8.153  1.00  0.00     0.008 C 
ENDBRANCH  12  17
ENDBRANCH  11  12
ENDBRANCH   1  11
TORSDOF 1
ENDMDL
MODEL 5
REMARK VINA RESULT:    -2.551     13.414     14.610
REMARK INTER + INTRA:          -4.395
REMARK INTER:                  -3.999
REMARK INTRA:                  -0.396
REMARK UNBOUND:                -0.501
REMARK SMILES CC1=CCC[C@H](C)C(=O)C[C@H](C(C)C)C(=O)C1
REMARK SMILES IDX 8 1 9 2 6 3 7 4 5 5 4 6 3 7 2 8 1 9 10 11 11 12 15 13 16 14
REMARK SMILES IDX 17 15 12 17 13 18 14 19
REMARK H PARENT
REMARK Flexibility Score: 70.00
ROOT
ATOM      1  C   UNL     1      26.051 -43.787  -9.210  1.00  0.00     0.136 C 
ATOM      2  O   UNL     1      26.064 -42.565  -9.252  1.00  0.00    -0.299 OA
ENDROOT
BRANCH   1   3
ATOM      3  C   UNL     1      26.145 -44.473  -7.857  1.00  0.00     0.053 C 
ATOM      4  C   UNL     1      24.770 -44.993  -7.424  1.00  0.00     0.016 C 
BRANCH   3   5
ATOM      5  C   UNL     1      27.190 -45.605  -7.847  1.00  0.00     0.015 C 
BRANCH   5   6
ATOM      6  C   UNL     1      26.531 -46.994  -7.926  1.00  0.00     0.028 C 
BRANCH   6   7
ATOM      7  C   UNL     1      27.372 -48.012  -8.653  1.00  0.00    -0.028 C 
ATOM      8  C   UNL     1      27.512 -48.117 -10.000  1.00  0.00    -0.070 CG0
ATOM      9  C   UNL     1      28.510 -49.129 -10.511  1.00  0.00     0.039 C 
ATOM     10  G   UNL     1      26.680 -47.344 -11.018  1.00  0.00     0.000 G0
ENDBRANCH   6   7
ENDBRANCH   5   6
ENDBRANCH   3   5
ENDBRANCH   1   3
BRANCH   1  11
ATOM     11  C   UNL     1      25.885 -44.560 -10.499  1.00  0.00     0.087 C 
BRANCH  11  12
ATOM     12  C   UNL     1      27.222 -44.763 -11.264  1.00  0.00     0.066 C 
BRANCH  12  13
ATOM     13  C   UNL     1      27.385 -46.206 -11.730  1.00  0.00     0.140 C 
ATOM     14  O   UNL     1      27.993 -46.428 -12.768  1.00  0.00    -0.299 OA
BRANCH  13  15
ATOM     15  C   UNL     1      26.677 -47.343 -11.029  1.00  0.00     0.106 CG0
ATOM     16  G   UNL     1      27.519 -48.091 -10.000  1.00  0.00     0.000 G0
ENDBRANCH  13  15
ENDBRANCH  12  13
BRANCH  12  17
ATOM     17  C   UNL     1      27.378 -43.779 -12.469  1.00  0.00    -0.006 C 
ATOM     18  C   UNL     1      26.038 -43.153 -12.898  1.00  0.00     0.008 C 
ATOM     19  C   UNL     1      28.367 -42.644 -12.136  1.00  0.00     0.008 C 
ENDBRANCH  12  17
ENDBRANCH  11  12
ENDBRANCH   1  11
TORSDOF 1
ENDMDL
MODEL 6
REMARK VINA RESULT:    -2.425      2.014      4.180
REMARK INTER + INTRA:          -4.202
REMARK INTER:                  -4.581
REMARK INTRA:                   0.380
REMARK UNBOUND:                -0.501
REMARK SMILES CC1=CCC[C@H](C)C(=O)C[C@H](C(C)C)C(=O)C1
REMARK SMILES IDX 8 1 9 2 6 3 7 4 5 5 4 6 3 7 2 8 1 9 10 11 11 12 15 13 16 14
REMARK SMILES IDX 17 15 12 17 13 18 14 19
REMARK H PARENT
REMARK Flexibility Score: 70.00
ROOT
ATOM      1  C   UNL     1      24.546 -33.511 -13.944  1.00  0.00     0.136 C 
ATOM      2  O   UNL     1      23.603 -34.284 -13.861  1.00  0.00    -0.299 OA
ENDROOT
BRANCH   1   3
ATOM      3  C   UNL     1      25.802 -33.964 -14.671  1.00  0.00     0.053 C 
ATOM      4  C   UNL     1      25.509 -35.205 -15.522  1.00  0.00     0.016 C 
BRANCH   3   5
ATOM      5  C   UNL     1      26.417 -32.841 -15.528  1.00  0.00     0.015 C 
BRANCH   5   6
ATOM      6  C   UNL     1      27.536 -32.096 -14.778  1.00  0.00     0.028 C 
BRANCH   6   7
ATOM      7  C   UNL     1      28.193 -32.930 -13.708  1.00  0.00    -0.028 C 
ATOM      8  C   UNL     1      28.202 -32.659 -12.377  1.00  0.00    -0.070 CG0
ATOM      9  C   UNL     1      28.808 -33.700 -11.467  1.00  0.00     0.039 C 
ATOM     10  G   UNL     1      27.717 -31.352 -11.758  1.00  0.00     0.000 G0
ENDBRANCH   6   7
ENDBRANCH   5   6
ENDBRANCH   3   5
ENDBRANCH   1   3
BRANCH   1  11
ATOM     11  C   UNL     1      24.402 -32.119 -13.369  1.00  0.00     0.087 C 
BRANCH  11  12
ATOM     12  C   UNL     1      25.140 -31.940 -12.014  1.00  0.00     0.066 C 
BRANCH  12  13
ATOM     13  C   UNL     1      26.300 -30.958 -12.135  1.00  0.00     0.140 C 
ATOM     14  O   UNL     1      26.106 -29.877 -12.674  1.00  0.00    -0.299 OA
BRANCH  13  15
ATOM     15  C   UNL     1      27.709 -31.354 -11.756  1.00  0.00     0.106 CG0
ATOM     16  G   UNL     1      28.200 -32.658 -12.375  1.00  0.00     0.000 G0
ENDBRANCH  13  15
ENDBRANCH  12  13
BRANCH  12  17
ATOM     17  C   UNL     1      24.177 -31.510 -10.860  1.00  0.00    -0.006 C 
ATOM     18  C   UNL     1      23.023 -32.508 -10.650  1.00  0.00     0.008 C 
ATOM     19  C   UNL     1      24.939 -31.351  -9.529  1.00  0.00     0.008 C 
ENDBRANCH  12  17
ENDBRANCH  11  12
ENDBRANCH   1  11
TORSDOF 1
ENDMDL
MODEL 7
REMARK VINA RESULT:    -2.376     13.197     14.690
REMARK INTER + INTRA:          -4.127
REMARK INTER:                  -4.141
REMARK INTRA:                   0.014
REMARK UNBOUND:                -0.501
REMARK SMILES CC1=CCC[C@H](C)C(=O)C[C@H](C(C)C)C(=O)C1
REMARK SMILES IDX 8 1 9 2 6 3 7 4 5 5 4 6 3 7 2 8 1 9 10 11 11 12 15 13 16 14
REMARK SMILES IDX 17 15 12 17 13 18 14 19
REMARK H PARENT
REMARK Flexibility Score: 70.00
ROOT
ATOM      1  C   UNL     1      26.295 -43.861  -8.974  1.00  0.00     0.136 C 
ATOM      2  O   UNL     1      25.255 -43.896  -8.333  1.00  0.00    -0.299 OA
ENDROOT
BRANCH   1   3
ATOM      3  C   UNL     1      26.506 -42.727  -9.965  1.00  0.00     0.053 C 
ATOM      4  C   UNL     1      27.966 -42.260  -9.942  1.00  0.00     0.016 C 
BRANCH   3   5
ATOM      5  C   UNL     1      26.072 -43.111 -11.393  1.00  0.00     0.015 C 
BRANCH   5   6
ATOM      6  C   UNL     1      27.282 -43.390 -12.303  1.00  0.00     0.028 C 
BRANCH   6   7
ATOM      7  C   UNL     1      27.098 -44.599 -13.184  1.00  0.00    -0.028 C 
ATOM      8  C   UNL     1      27.194 -45.896 -12.791  1.00  0.00    -0.070 CG0
ATOM      9  C   UNL     1      26.841 -46.951 -13.812  1.00  0.00     0.039 C 
ATOM     10  G   UNL     1      27.703 -46.349 -11.427  1.00  0.00     0.000 G0
ENDBRANCH   6   7
ENDBRANCH   5   6
ENDBRANCH   3   5
ENDBRANCH   1   3
BRANCH   1  11
ATOM     11  C   UNL     1      27.350 -44.913  -8.713  1.00  0.00     0.087 C 
BRANCH  11  12
ATOM     12  C   UNL     1      26.829 -46.362  -8.921  1.00  0.00     0.066 C 
BRANCH  12  13
ATOM     13  C   UNL     1      26.644 -46.682 -10.400  1.00  0.00     0.140 C 
ATOM     14  O   UNL     1      25.673 -47.341 -10.746  1.00  0.00    -0.299 OA
BRANCH  13  15
ATOM     15  C   UNL     1      27.711 -46.346 -11.417  1.00  0.00     0.106 CG0
ATOM     16  G   UNL     1      27.186 -45.894 -12.777  1.00  0.00     0.000 G0
ENDBRANCH  13  15
ENDBRANCH  12  13
BRANCH  12  17
ATOM     17  C   UNL     1      27.745 -47.430  -8.240  1.00  0.00    -0.006 C 
ATOM     18  C   UNL     1      28.373 -46.922  -6.929  1.00  0.00     0.008 C 
ATOM     19  C   UNL     1      26.962 -48.725  -7.941  1.00  0.00     0.008 C 
ENDBRANCH  12  17
ENDBRANCH  11  12
ENDBRANCH   1  11
TORSDOF 1
ENDMDL
MODEL 8
REMARK VINA RESULT:    -2.371      2.646      4.498
REMARK INTER + INTRA:          -4.119
REMARK INTER:                  -4.040
REMARK INTRA:                  -0.079
REMARK UNBOUND:                -0.501
REMARK SMILES CC1=CCC[C@H](C)C(=O)C[C@H](C(C)C)C(=O)C1
REMARK SMILES IDX 8 1 9 2 6 3 7 4 5 5 4 6 3 7 2 8 1 9 10 11 11 12 15 13 16 14
REMARK SMILES IDX 17 15 12 17 13 18 14 19
REMARK H PARENT
REMARK Flexibility Score: 70.00
ROOT
ATOM      1  C   UNL     1      28.027 -33.070 -12.708  1.00  0.00     0.136 C 
ATOM      2  O   UNL     1      28.944 -33.858 -12.524  1.00  0.00    -0.299 OA
ENDROOT
BRANCH   1   3
ATOM      3  C   UNL     1      27.600 -32.166 -11.563  1.00  0.00     0.053 C 
ATOM      4  C   UNL     1      28.330 -32.554 -10.272  1.00  0.00     0.016 C 
BRANCH   3   5
ATOM      5  C   UNL     1      27.810 -30.674 -11.888  1.00  0.00     0.015 C 
BRANCH   5   6
ATOM      6  C   UNL     1      26.573 -30.056 -12.564  1.00  0.00     0.028 C 
BRANCH   6   7
ATOM      7  C   UNL     1      25.272 -30.638 -12.073  1.00  0.00    -0.028 C 
ATOM      8  C   UNL     1      24.492 -31.527 -12.741  1.00  0.00    -0.070 CG0
ATOM      9  C   UNL     1      23.296 -32.081 -12.006  1.00  0.00     0.039 C 
ATOM     10  G   UNL     1      24.701 -31.936 -14.196  1.00  0.00     0.000 G0
ENDBRANCH   6   7
ENDBRANCH   5   6
ENDBRANCH   3   5
ENDBRANCH   1   3
BRANCH   1  11
ATOM     11  C   UNL     1      27.397 -32.990 -14.080  1.00  0.00     0.087 C 
BRANCH  11  12
ATOM     12  C   UNL     1      26.300 -34.065 -14.311  1.00  0.00     0.066 C 
BRANCH  12  13
ATOM     13  C   UNL     1      24.916 -33.435 -14.422  1.00  0.00     0.140 C 
ATOM     14  O   UNL     1      23.985 -34.119 -14.823  1.00  0.00    -0.299 OA
BRANCH  13  15
ATOM     15  C   UNL     1      24.707 -31.954 -14.204  1.00  0.00     0.106 CG0
ATOM     16  G   UNL     1      24.502 -31.538 -12.750  1.00  0.00     0.000 G0
ENDBRANCH  13  15
ENDBRANCH  12  13
BRANCH  12  17
ATOM     17  C   UNL     1      26.594 -34.963 -15.557  1.00  0.00    -0.006 C 
ATOM     18  C   UNL     1      27.584 -34.307 -16.538  1.00  0.00     0.008 C 
ATOM     19  C   UNL     1      27.155 -36.335 -15.135  1.00  0.00     0.008 C 
ENDBRANCH  12  17
ENDBRANCH  11  12
ENDBRANCH   1  11
TORSDOF 1
ENDMDL
MODEL 9
REMARK VINA RESULT:    -2.309      2.124      5.139
REMARK INTER + INTRA:          -4.024
REMARK INTER:                  -4.281
REMARK INTRA:                   0.256
REMARK UNBOUND:                -0.501
REMARK SMILES CC1=CCC[C@H](C)C(=O)C[C@H](C(C)C)C(=O)C1
REMARK SMILES IDX 8 1 9 2 6 3 7 4 5 5 4 6 3 7 2 8 1 9 10 11 11 12 15 13 16 14
REMARK SMILES IDX 17 15 12 17 13 18 14 19
REMARK H PARENT
REMARK Flexibility Score: 70.00
ROOT
ATOM      1  C   UNL     1      27.488 -32.051 -12.127  1.00  0.00     0.136 C 
ATOM      2  O   UNL     1      28.061 -33.121 -11.973  1.00  0.00    -0.299 OA
ENDROOT
BRANCH   1   3
ATOM      3  C   UNL     1      27.722 -31.275 -13.414  1.00  0.00     0.053 C 
ATOM      4  C   UNL     1      28.916 -30.327 -13.258  1.00  0.00     0.016 C 
BRANCH   3   5
ATOM      5  C   UNL     1      27.911 -32.204 -14.629  1.00  0.00     0.015 C 
BRANCH   5   6
ATOM      6  C   UNL     1      26.698 -32.160 -15.576  1.00  0.00     0.028 C 
BRANCH   6   7
ATOM      7  C   UNL     1      25.753 -33.319 -15.387  1.00  0.00    -0.028 C 
ATOM      8  C   UNL     1      24.581 -33.290 -14.700  1.00  0.00    -0.070 CG0
ATOM      9  C   UNL     1      23.724 -34.533 -14.748  1.00  0.00     0.039 C 
ATOM     10  G   UNL     1      24.117 -32.125 -13.831  1.00  0.00     0.000 G0
ENDBRANCH   6   7
ENDBRANCH   5   6
ENDBRANCH   3   5
ENDBRANCH   1   3
BRANCH   1  11
ATOM     11  C   UNL     1      26.529 -31.575 -11.059  1.00  0.00     0.087 C 
BRANCH  11  12
ATOM     12  C   UNL     1      25.168 -31.094 -11.632  1.00  0.00     0.066 C 
BRANCH  12  13
ATOM     13  C   UNL     1      24.441 -32.219 -12.363  1.00  0.00     0.140 C 
ATOM     14  O   UNL     1      24.247 -33.276 -11.778  1.00  0.00    -0.299 OA
BRANCH  13  15
ATOM     15  C   UNL     1      24.106 -32.114 -13.833  1.00  0.00     0.106 CG0
ATOM     16  G   UNL     1      24.584 -33.284 -14.688  1.00  0.00     0.000 G0
ENDBRANCH  13  15
ENDBRANCH  12  13
BRANCH  12  17
ATOM     17  C   UNL     1      24.245 -30.467 -10.538  1.00  0.00    -0.006 C 
ATOM     18  C   UNL     1      22.782 -30.934 -10.660  1.00  0.00     0.008 C 
ATOM     19  C   UNL     1      24.753 -30.803  -9.122  1.00  0.00     0.008 C 
ENDBRANCH  12  17
ENDBRANCH  11  12
ENDBRANCH   1  11
TORSDOF 1
ENDMDL
