MODEL 1
REMARK VINA RESULT:    19.258      0.000      0.000
REMARK INTER + INTRA:          28.931
REMARK INTER:                  26.576
REMARK INTRA:                   2.355
REMARK UNBOUND:                 2.355
REMARK SMILES C=C(CC[C@H](C(=O)[O-])[C@@H]1CC[C@]2(C)C3=C(CC[C@@]12C)[C@@]1(C)CC[C@@H](O)C(C)(C)[C@H]1CC3)C(C)C
REMARK SMILES IDX 4 1 5 2 6 3 7 4 8 5 9 6 10 7 18 8 11 9 12 10 17 11 19 12
REMARK SMILES IDX 13 13 14 14 16 15 15 16 31 17 20 18 30 19 29 20 22 21 21 22
REMARK SMILES IDX 26 23 23 24 24 25 27 26 28 27 25 28 3 30 2 31 1 32 32 33
REMARK SMILES IDX 33 34 34 35
REMARK H PARENT 25 29
REMARK Flexibility Score: inf
ROOT
ATOM      1  C   UNL     1      72.237  34.700  54.109  1.00  0.00     0.014 C 
ENDROOT
BRANCH   1   2
ATOM      2  C   UNL     1      73.277  33.868  53.307  1.00  0.00     0.039 C 
BRANCH   2   3
ATOM      3  C   UNL     1      73.456  32.466  53.862  1.00  0.00     0.045 C 
ATOM      4  O   UNL     1      72.657  31.990  54.712  1.00  0.00    -0.550 OA
ATOM      5  O   UNL     1      74.502  31.671  53.412  1.00  0.00    -0.550 OA
ENDBRANCH   2   3
BRANCH   2   6
ATOM      6  C   UNL     1      74.609  34.668  53.058  1.00  0.00     0.004 C 
ATOM      7  C   UNL     1      74.485  35.799  52.002  1.00  0.00     0.006 C 
ATOM      8  C   UNL     1      75.939  33.947  52.678  1.00  0.00    -0.020 C 
ATOM      9  C   UNL     1      75.859  35.933  51.318  1.00  0.00     0.012 C 
ATOM     10  C   UNL     1      76.827  35.142  52.212  1.00  0.00    -0.006 C 
ATOM     11  C   UNL     1      76.693  33.226  53.812  1.00  0.00     0.012 C 
ATOM     12  C   UNL     1      75.678  32.913  51.532  1.00  0.00     0.012 C 
ATOM     13  C   UNL     1      77.303  36.110  53.347  1.00  0.00     0.017 C 
ATOM     14  C   UNL     1      78.098  34.605  51.577  1.00  0.00    -0.064 C 
ATOM     15  C   UNL     1      78.133  32.823  53.380  1.00  0.00     0.032 C 
ATOM     16  C   UNL     1      78.778  33.594  52.200  1.00  0.00    -0.064 C 
ATOM     17  C   UNL     1      78.740  35.323  50.422  1.00  0.00     0.032 C 
ATOM     18  C   UNL     1      80.107  33.072  51.578  1.00  0.00    -0.008 C 
ATOM     19  C   UNL     1      80.191  35.585  50.782  1.00  0.00     0.009 C 
ATOM     20  C   UNL     1      81.005  34.260  50.967  1.00  0.00     0.007 C 
ATOM     21  C   UNL     1      79.669  32.033  50.506  1.00  0.00     0.014 C 
ATOM     22  C   UNL     1      80.923  32.347  52.688  1.00  0.00     0.016 C 
ATOM     23  C   UNL     1      81.978  33.863  49.747  1.00  0.00    -0.006 C 
ATOM     24  C   UNL     1      80.780  31.603  49.559  1.00  0.00     0.033 C 
ATOM     25  C   UNL     1      81.338  32.808  48.796  1.00  0.00     0.120 C 
ATOM     26  C   UNL     1      82.399  35.087  48.880  1.00  0.00     0.014 C 
ATOM     27  C   UNL     1      83.329  33.304  50.289  1.00  0.00     0.014 C 
BRANCH  25  28
ATOM     28  O   UNL     1      80.317  33.393  48.025  1.00  0.00    -0.393 OA
ATOM     29  H   UNL     1      79.495  32.856  48.172  1.00  0.00     0.210 HD
ENDBRANCH  25  28
ENDBRANCH   2   6
ENDBRANCH   1   2
BRANCH   1  30
ATOM     30  C   UNL     1      72.713  35.149  55.505  1.00  0.00     0.031 C 
BRANCH  30  31
ATOM     31  C   UNL     1      71.998  34.486  56.667  1.00  0.00    -0.075 C 
ATOM     32  C   UNL     1      70.737  34.848  56.966  1.00  0.00     0.008 C 
BRANCH  31  33
ATOM     33  C   UNL     1      72.665  33.322  57.396  1.00  0.00     0.008 C 
ATOM     34  C   UNL     1      72.508  33.452  58.917  1.00  0.00     0.012 C 
ATOM     35  C   UNL     1      74.140  33.181  57.005  1.00  0.00     0.012 C 
ENDBRANCH  31  33
ENDBRANCH  30  31
ENDBRANCH   1  30
TORSDOF 7
ENDMDL
MODEL 2
REMARK VINA RESULT:    19.425      1.777      3.565
REMARK INTER + INTRA:          29.161
REMARK INTER:                  28.792
REMARK INTRA:                   0.369
REMARK UNBOUND:                 2.355
REMARK SMILES C=C(CC[C@H](C(=O)[O-])[C@@H]1CC[C@]2(C)C3=C(CC[C@@]12C)[C@@]1(C)CC[C@@H](O)C(C)(C)[C@H]1CC3)C(C)C
REMARK SMILES IDX 4 1 5 2 6 3 7 4 8 5 9 6 10 7 18 8 11 9 12 10 17 11 19 12
REMARK SMILES IDX 13 13 14 14 16 15 15 16 31 17 20 18 30 19 29 20 22 21 21 22
REMARK SMILES IDX 26 23 23 24 24 25 27 26 28 27 25 28 3 30 2 31 1 32 32 33
REMARK SMILES IDX 33 34 34 35
REMARK H PARENT 25 29
REMARK Flexibility Score: inf
ROOT
ATOM      1  C   UNL     1      73.480  34.735  56.984  1.00  0.00     0.014 C 
ENDROOT
BRANCH   1   2
ATOM      2  C   UNL     1      72.893  34.831  55.548  1.00  0.00     0.039 C 
BRANCH   2   3
ATOM      3  C   UNL     1      71.392  34.605  55.516  1.00  0.00     0.045 C 
ATOM      4  O   UNL     1      70.822  34.129  54.498  1.00  0.00    -0.550 OA
ATOM      5  O   UNL     1      70.623  34.899  56.635  1.00  0.00    -0.550 OA
ENDBRANCH   2   3
BRANCH   2   6
ATOM      6  C   UNL     1      73.723  33.988  54.512  1.00  0.00     0.004 C 
ATOM      7  C   UNL     1      74.262  32.644  55.070  1.00  0.00     0.006 C 
ATOM      8  C   UNL     1      74.946  34.594  53.755  1.00  0.00    -0.020 C 
ATOM      9  C   UNL     1      75.585  32.346  54.339  1.00  0.00     0.012 C 
ATOM     10  C   UNL     1      75.608  33.318  53.149  1.00  0.00    -0.006 C 
ATOM     11  C   UNL     1      74.640  35.554  52.589  1.00  0.00     0.012 C 
ATOM     12  C   UNL     1      75.886  35.335  54.764  1.00  0.00     0.012 C 
ATOM     13  C   UNL     1      74.817  32.637  51.982  1.00  0.00     0.017 C 
ATOM     14  C   UNL     1      76.960  33.687  52.562  1.00  0.00    -0.064 C 
ATOM     15  C   UNL     1      75.907  35.838  51.732  1.00  0.00     0.032 C 
ATOM     16  C   UNL     1      77.067  34.811  51.789  1.00  0.00    -0.064 C 
ATOM     17  C   UNL     1      78.108  32.716  52.615  1.00  0.00     0.032 C 
ATOM     18  C   UNL     1      78.440  35.166  51.146  1.00  0.00    -0.008 C 
ATOM     19  C   UNL     1      78.635  32.537  51.203  1.00  0.00     0.009 C 
ATOM     20  C   UNL     1      79.224  33.864  50.616  1.00  0.00     0.007 C 
ATOM     21  C   UNL     1      79.218  35.931  52.255  1.00  0.00     0.014 C 
ATOM     22  C   UNL     1      78.191  36.125  49.945  1.00  0.00     0.016 C 
ATOM     23  C   UNL     1      80.831  33.961  50.588  1.00  0.00    -0.006 C 
ATOM     24  C   UNL     1      80.699  36.123  51.963  1.00  0.00     0.033 C 
ATOM     25  C   UNL     1      81.398  34.771  51.793  1.00  0.00     0.120 C 
ATOM     26  C   UNL     1      81.526  32.568  50.585  1.00  0.00     0.014 C 
ATOM     27  C   UNL     1      81.312  34.624  49.261  1.00  0.00     0.014 C 
BRANCH  25  28
ATOM     28  O   UNL     1      81.286  34.028  52.982  1.00  0.00    -0.393 OA
ATOM     29  H   UNL     1      81.527  34.635  53.730  1.00  0.00     0.210 HD
ENDBRANCH  25  28
ENDBRANCH   2   6
ENDBRANCH   1   2
BRANCH   1  30
ATOM     30  C   UNL     1      72.474  34.279  58.061  1.00  0.00     0.031 C 
BRANCH  30  31
ATOM     31  C   UNL     1      72.936  33.113  58.915  1.00  0.00    -0.075 C 
ATOM     32  C   UNL     1      73.783  32.205  58.397  1.00  0.00     0.008 C 
BRANCH  31  33
ATOM     33  C   UNL     1      72.544  33.060  60.389  1.00  0.00     0.008 C 
ATOM     34  C   UNL     1      73.470  33.936  61.245  1.00  0.00     0.012 C 
ATOM     35  C   UNL     1      72.509  31.620  60.913  1.00  0.00     0.012 C 
ENDBRANCH  31  33
ENDBRANCH  30  31
ENDBRANCH   1  30
TORSDOF 7
ENDMDL
MODEL 3
REMARK VINA RESULT:    21.080      1.733      3.193
REMARK INTER + INTRA:          31.445
REMARK INTER:                  24.539
REMARK INTRA:                   6.907
REMARK UNBOUND:                 2.355
REMARK SMILES C=C(CC[C@H](C(=O)[O-])[C@@H]1CC[C@]2(C)C3=C(CC[C@@]12C)[C@@]1(C)CC[C@@H](O)C(C)(C)[C@H]1CC3)C(C)C
REMARK SMILES IDX 4 1 5 2 6 3 7 4 8 5 9 6 10 7 18 8 11 9 12 10 17 11 19 12
REMARK SMILES IDX 13 13 14 14 16 15 15 16 31 17 20 18 30 19 29 20 22 21 21 22
REMARK SMILES IDX 26 23 23 24 24 25 27 26 28 27 25 28 3 30 2 31 1 32 32 33
REMARK SMILES IDX 33 34 34 35
REMARK H PARENT 25 29
REMARK Flexibility Score: inf
ROOT
ATOM      1  C   UNL     1      73.432  35.758  55.386  1.00  0.00     0.014 C 
ENDROOT
BRANCH   1   2
ATOM      2  C   UNL     1      72.808  35.208  54.072  1.00  0.00     0.039 C 
BRANCH   2   3
ATOM      3  C   UNL     1      71.427  34.615  54.286  1.00  0.00     0.045 C 
ATOM      4  O   UNL     1      70.928  34.512  55.438  1.00  0.00    -0.550 OA
ATOM      5  O   UNL     1      70.676  34.199  53.194  1.00  0.00    -0.550 OA
ENDBRANCH   2   3
BRANCH   2   6
ATOM      6  C   UNL     1      73.815  34.299  53.275  1.00  0.00     0.004 C 
ATOM      7  C   UNL     1      74.166  32.964  53.984  1.00  0.00     0.006 C 
ATOM      8  C   UNL     1      75.196  34.838  52.789  1.00  0.00    -0.020 C 
ATOM      9  C   UNL     1      75.607  32.598  53.575  1.00  0.00     0.012 C 
ATOM     10  C   UNL     1      75.928  33.519  52.387  1.00  0.00    -0.006 C 
ATOM     11  C   UNL     1      75.191  35.758  51.552  1.00  0.00     0.012 C 
ATOM     12  C   UNL     1      75.918  35.592  53.955  1.00  0.00     0.012 C 
ATOM     13  C   UNL     1      75.389  32.815  51.098  1.00  0.00     0.017 C 
ATOM     14  C   UNL     1      77.388  33.824  52.103  1.00  0.00    -0.064 C 
ATOM     15  C   UNL     1      76.626  35.969  50.988  1.00  0.00     0.032 C 
ATOM     16  C   UNL     1      77.705  34.912  51.336  1.00  0.00    -0.064 C 
ATOM     17  C   UNL     1      78.459  32.824  52.442  1.00  0.00     0.032 C 
ATOM     18  C   UNL     1      79.199  35.201  51.002  1.00  0.00    -0.008 C 
ATOM     19  C   UNL     1      79.278  32.572  51.189  1.00  0.00     0.009 C 
ATOM     20  C   UNL     1      80.031  33.856  50.703  1.00  0.00     0.007 C 
ATOM     21  C   UNL     1      79.741  35.988  52.230  1.00  0.00     0.014 C 
ATOM     22  C   UNL     1      79.257  36.117  49.744  1.00  0.00     0.016 C 
ATOM     23  C   UNL     1      81.607  33.906  51.030  1.00  0.00    -0.006 C 
ATOM     24  C   UNL     1      81.256  36.125  52.268  1.00  0.00     0.033 C 
ATOM     25  C   UNL     1      81.924  34.747  52.303  1.00  0.00     0.120 C 
ATOM     26  C   UNL     1      82.233  32.494  51.228  1.00  0.00     0.014 C 
ATOM     27  C   UNL     1      82.394  34.499  49.821  1.00  0.00     0.014 C 
BRANCH  25  28
ATOM     28  O   UNL     1      81.525  34.057  53.462  1.00  0.00    -0.393 OA
ATOM     29  H   UNL     1      82.349  33.827  53.964  1.00  0.00     0.210 HD
ENDBRANCH  25  28
ENDBRANCH   2   6
ENDBRANCH   1   2
BRANCH   1  30
ATOM     30  C   UNL     1      74.199  34.711  56.219  1.00  0.00     0.031 C 
BRANCH  30  31
ATOM     31  C   UNL     1      73.389  33.490  56.613  1.00  0.00    -0.075 C 
ATOM     32  C   UNL     1      73.677  32.296  56.067  1.00  0.00     0.008 C 
BRANCH  31  33
ATOM     33  C   UNL     1      72.348  33.605  57.725  1.00  0.00     0.008 C 
ATOM     34  C   UNL     1      71.566  34.922  57.623  1.00  0.00     0.012 C 
ATOM     35  C   UNL     1      72.981  33.447  59.111  1.00  0.00     0.012 C 
ENDBRANCH  31  33
ENDBRANCH  30  31
ENDBRANCH   1  30
TORSDOF 7
ENDMDL
