MODEL 1
REMARK VINA RESULT:    76.753      0.000      0.000
REMARK INTER + INTRA:         106.588
REMARK INTER:                 103.676
REMARK INTRA:                   2.913
REMARK UNBOUND:                 2.913
REMARK SMILES CC[C@H](CC[C@H](C)[C@H]1CC[C@H]2[C@@H]3CC(=O)C4=CC(=O)CC[C@@]4(C)[C@@H]3CC[C@@]12C)C(C)C
REMARK SMILES IDX 4 1 3 2 2 3 1 4 29 5 30 6 31 7 5 8 6 9 7 10 8 11 9 12 27 13
REMARK SMILES IDX 10 14 11 15 26 16 28 17 12 18 25 19 24 20 13 21 22 22 14 23
REMARK SMILES IDX 16 24 21 25 23 26 15 27 17 28 20 29 18 30 19 31
REMARK H PARENT
REMARK Flexibility Score: inf
ROOT
ATOM      1  C   UNL     1     -29.157 -11.918  22.895  1.00  0.00     0.004 C 
ENDROOT
BRANCH   1   2
ATOM      2  C   UNL     1     -29.831 -13.129  22.192  1.00  0.00    -0.009 C 
BRANCH   2   3
ATOM      3  C   UNL     1     -29.768 -12.982  20.644  1.00  0.00     0.000 C 
ATOM      4  C   UNL     1     -28.767 -11.921  20.182  1.00  0.00     0.004 C 
ENDBRANCH   2   3
BRANCH   2   5
ATOM      5  C   UNL     1     -29.352 -14.511  22.785  1.00  0.00    -0.014 C 
ATOM      6  C   UNL     1     -30.117 -15.683  22.150  1.00  0.00     0.007 C 
ATOM      7  C   UNL     1     -27.837 -14.787  22.705  1.00  0.00     0.007 C 
ENDBRANCH   2   5
ENDBRANCH   1   2
BRANCH   1   8
ATOM      8  C   UNL     1     -30.110 -10.747  23.245  1.00  0.00     0.004 C 
BRANCH   8   9
ATOM      9  C   UNL     1     -29.991 -10.248  24.721  1.00  0.00    -0.011 C 
ATOM     10  C   UNL     1     -29.755  -8.722  24.703  1.00  0.00     0.008 C 
BRANCH   9  11
ATOM     11  C   UNL     1     -28.860 -11.005  25.514  1.00  0.00    -0.002 C 
ATOM     12  C   UNL     1     -29.125 -12.498  25.644  1.00  0.00     0.005 C 
ATOM     13  C   UNL     1     -27.383 -10.927  24.968  1.00  0.00    -0.026 C 
ATOM     14  C   UNL     1     -27.817 -13.085  26.116  1.00  0.00     0.005 C 
ATOM     15  C   UNL     1     -26.700 -12.275  25.428  1.00  0.00    -0.001 C 
ATOM     16  C   UNL     1     -27.345 -10.805  23.415  1.00  0.00     0.007 C 
ATOM     17  C   UNL     1     -26.646  -9.715  25.604  1.00  0.00     0.012 C 
ATOM     18  C   UNL     1     -26.044 -13.113  24.274  1.00  0.00     0.004 C 
ATOM     19  C   UNL     1     -25.928 -10.938  22.853  1.00  0.00     0.005 C 
ATOM     20  C   UNL     1     -25.236 -12.284  23.218  1.00  0.00     0.003 C 
ATOM     21  C   UNL     1     -25.318 -14.397  24.774  1.00  0.00     0.085 C 
ATOM     22  C   UNL     1     -23.680 -12.144  23.455  1.00  0.00    -0.000 C 
ATOM     23  C   UNL     1     -23.824 -14.376  24.724  1.00  0.00     0.159 C 
ATOM     24  C   UNL     1     -23.098 -13.516  23.771  1.00  0.00     0.005 C 
ATOM     25  C   UNL     1     -23.035 -11.572  22.147  1.00  0.00     0.020 C 
ATOM     26  C   UNL     1     -23.330 -11.221  24.648  1.00  0.00     0.017 C 
ATOM     27  O   UNL     1     -23.187 -15.175  25.464  1.00  0.00    -0.295 OA
ATOM     28  C   UNL     1     -21.878 -13.895  23.337  1.00  0.00     0.055 C 
ATOM     29  C   UNL     1     -21.504 -11.651  22.140  1.00  0.00     0.081 C 
ATOM     30  C   UNL     1     -21.055 -13.034  22.481  1.00  0.00     0.156 C 
ATOM     31  O   UNL     1     -19.931 -13.442  22.082  1.00  0.00    -0.295 OA
ENDBRANCH   9  11
ENDBRANCH   8   9
ENDBRANCH   1   8
TORSDOF 6
ENDMDL
MODEL 2
REMARK VINA RESULT:    79.027      2.736      4.301
REMARK INTER + INTRA:         109.659
REMARK INTER:                  99.306
REMARK INTRA:                  10.353
REMARK UNBOUND:                 2.913
REMARK SMILES CC[C@H](CC[C@H](C)[C@H]1CC[C@H]2[C@@H]3CC(=O)C4=CC(=O)CC[C@@]4(C)[C@@H]3CC[C@@]12C)C(C)C
REMARK SMILES IDX 4 1 3 2 2 3 1 4 29 5 30 6 31 7 5 8 6 9 7 10 8 11 9 12 27 13
REMARK SMILES IDX 10 14 11 15 26 16 28 17 12 18 25 19 24 20 13 21 22 22 14 23
REMARK SMILES IDX 16 24 21 25 23 26 15 27 17 28 20 29 18 30 19 31
REMARK H PARENT
REMARK Flexibility Score: inf
ROOT
ATOM      1  C   UNL     1     -30.015 -16.018  22.501  1.00  0.00     0.004 C 
ENDROOT
BRANCH   1   2
ATOM      2  C   UNL     1     -30.033 -14.754  21.597  1.00  0.00    -0.009 C 
BRANCH   2   3
ATOM      3  C   UNL     1     -30.104 -13.456  22.453  1.00  0.00     0.000 C 
ATOM      4  C   UNL     1     -29.774 -12.192  21.658  1.00  0.00     0.004 C 
ENDBRANCH   2   3
BRANCH   2   5
ATOM      5  C   UNL     1     -28.920 -14.797  20.480  1.00  0.00    -0.014 C 
ATOM      6  C   UNL     1     -28.759 -16.216  19.912  1.00  0.00     0.007 C 
ATOM      7  C   UNL     1     -29.095 -13.799  19.318  1.00  0.00     0.007 C 
ENDBRANCH   2   5
ENDBRANCH   1   2
BRANCH   1   8
ATOM      8  C   UNL     1     -28.779 -16.147  23.426  1.00  0.00     0.004 C 
BRANCH   8   9
ATOM      9  C   UNL     1     -28.970 -15.505  24.838  1.00  0.00    -0.011 C 
ATOM     10  C   UNL     1     -30.120 -16.243  25.558  1.00  0.00     0.008 C 
BRANCH   9  11
ATOM     11  C   UNL     1     -29.232 -13.954  24.754  1.00  0.00    -0.002 C 
ATOM     12  C   UNL     1     -29.487 -13.321  26.115  1.00  0.00     0.005 C 
ATOM     13  C   UNL     1     -28.118 -13.040  24.112  1.00  0.00    -0.026 C 
ATOM     14  C   UNL     1     -29.380 -11.835  25.877  1.00  0.00     0.005 C 
ATOM     15  C   UNL     1     -28.275 -11.637  24.820  1.00  0.00    -0.001 C 
ATOM     16  C   UNL     1     -26.689 -13.612  24.355  1.00  0.00     0.007 C 
ATOM     17  C   UNL     1     -28.368 -12.895  22.585  1.00  0.00     0.012 C 
ATOM     18  C   UNL     1     -26.967 -11.082  25.488  1.00  0.00     0.004 C 
ATOM     19  C   UNL     1     -25.590 -12.638  23.925  1.00  0.00     0.005 C 
ATOM     20  C   UNL     1     -25.656 -11.262  24.649  1.00  0.00     0.003 C 
ATOM     21  C   UNL     1     -27.141  -9.666  26.113  1.00  0.00     0.085 C 
ATOM     22  C   UNL     1     -25.221 -10.050  23.733  1.00  0.00    -0.000 C 
ATOM     23  C   UNL     1     -26.472  -8.538  25.394  1.00  0.00     0.159 C 
ATOM     24  C   UNL     1     -25.290  -8.762  24.543  1.00  0.00     0.005 C 
ATOM     25  C   UNL     1     -23.753 -10.306  23.248  1.00  0.00     0.020 C 
ATOM     26  C   UNL     1     -26.143  -9.859  22.504  1.00  0.00     0.017 C 
ATOM     27  O   UNL     1     -26.893  -7.366  25.593  1.00  0.00    -0.295 OA
ATOM     28  C   UNL     1     -24.393  -7.766  24.385  1.00  0.00     0.055 C 
ATOM     29  C   UNL     1     -23.110  -9.082  22.587  1.00  0.00     0.081 C 
ATOM     30  C   UNL     1     -23.257  -7.882  23.464  1.00  0.00     0.156 C 
ATOM     31  O   UNL     1     -22.432  -6.933  23.368  1.00  0.00    -0.295 OA
ENDBRANCH   9  11
ENDBRANCH   8   9
ENDBRANCH   1   8
TORSDOF 6
ENDMDL
MODEL 3
REMARK VINA RESULT:    79.488      3.386      6.476
REMARK INTER + INTRA:         110.282
REMARK INTER:                 102.616
REMARK INTRA:                   7.666
REMARK UNBOUND:                 2.913
REMARK SMILES CC[C@H](CC[C@H](C)[C@H]1CC[C@H]2[C@@H]3CC(=O)C4=CC(=O)CC[C@@]4(C)[C@@H]3CC[C@@]12C)C(C)C
REMARK SMILES IDX 4 1 3 2 2 3 1 4 29 5 30 6 31 7 5 8 6 9 7 10 8 11 9 12 27 13
REMARK SMILES IDX 10 14 11 15 26 16 28 17 12 18 25 19 24 20 13 21 22 22 14 23
REMARK SMILES IDX 16 24 21 25 23 26 15 27 17 28 20 29 18 30 19 31
REMARK H PARENT
REMARK Flexibility Score: inf
ROOT
ATOM      1  C   UNL     1     -29.230  -6.753  24.632  1.00  0.00     0.004 C 
ENDROOT
BRANCH   1   2
ATOM      2  C   UNL     1     -28.732  -5.856  23.466  1.00  0.00    -0.009 C 
BRANCH   2   3
ATOM      3  C   UNL     1     -27.586  -6.553  22.676  1.00  0.00     0.000 C 
ATOM      4  C   UNL     1     -26.972  -7.735  23.427  1.00  0.00     0.004 C 
ENDBRANCH   2   3
BRANCH   2   5
ATOM      5  C   UNL     1     -29.919  -5.270  22.608  1.00  0.00    -0.014 C 
ATOM      6  C   UNL     1     -30.118  -3.771  22.886  1.00  0.00     0.007 C 
ATOM      7  C   UNL     1     -29.827  -5.499  21.086  1.00  0.00     0.007 C 
ENDBRANCH   2   5
ENDBRANCH   1   2
BRANCH   1   8
ATOM      8  C   UNL     1     -28.301  -7.939  24.994  1.00  0.00     0.004 C 
BRANCH   8   9
ATOM      9  C   UNL     1     -28.221  -9.045  23.893  1.00  0.00    -0.011 C 
ATOM     10  C   UNL     1     -29.508  -8.981  23.043  1.00  0.00     0.008 C 
BRANCH   9  11
ATOM     11  C   UNL     1     -27.996 -10.478  24.507  1.00  0.00    -0.002 C 
ATOM     12  C   UNL     1     -29.062 -10.862  25.523  1.00  0.00     0.005 C 
ATOM     13  C   UNL     1     -27.945 -11.713  23.526  1.00  0.00    -0.026 C 
ATOM     14  C   UNL     1     -28.879 -12.344  25.738  1.00  0.00     0.005 C 
ATOM     15  C   UNL     1     -28.470 -12.938  24.374  1.00  0.00    -0.001 C 
ATOM     16  C   UNL     1     -28.846 -11.496  22.274  1.00  0.00     0.007 C 
ATOM     17  C   UNL     1     -26.480 -11.970  23.075  1.00  0.00     0.012 C 
ATOM     18  C   UNL     1     -29.670 -13.722  23.733  1.00  0.00     0.004 C 
ATOM     19  C   UNL     1     -28.973 -12.760  21.420  1.00  0.00     0.005 C 
ATOM     20  C   UNL     1     -29.556 -13.979  22.192  1.00  0.00     0.003 C 
ATOM     21  C   UNL     1     -30.113 -14.964  24.561  1.00  0.00     0.085 C 
ATOM     22  C   UNL     1     -28.937 -15.361  21.740  1.00  0.00    -0.000 C 
ATOM     23  C   UNL     1     -29.779 -16.301  23.980  1.00  0.00     0.159 C 
ATOM     24  C   UNL     1     -29.596 -16.485  22.530  1.00  0.00     0.005 C 
ATOM     25  C   UNL     1     -29.211 -15.543  20.208  1.00  0.00     0.020 C 
ATOM     26  C   UNL     1     -27.414 -15.457  22.006  1.00  0.00     0.017 C 
ATOM     27  O   UNL     1     -29.736 -17.297  24.753  1.00  0.00    -0.295 OA
ATOM     28  C   UNL     1     -29.865 -17.686  21.977  1.00  0.00     0.055 C 
ATOM     29  C   UNL     1     -28.914 -16.959  19.702  1.00  0.00     0.081 C 
ATOM     30  C   UNL     1     -29.597 -17.971  20.564  1.00  0.00     0.156 C 
ATOM     31  O   UNL     1     -29.887 -19.102  20.088  1.00  0.00    -0.295 OA
ENDBRANCH   9  11
ENDBRANCH   8   9
ENDBRANCH   1   8
TORSDOF 6
ENDMDL
