MODEL 1
REMARK VINA RESULT:    -7.350      0.000      0.000
REMARK INTER + INTRA:          -8.611
REMARK INTER:                  -8.639
REMARK INTRA:                   0.028
REMARK UNBOUND:                 0.028
REMARK SMILES O=c1c(O)c(-c2ccc(O)c(O)c2)oc2cc(O)ccc12
REMARK SMILES IDX 5 1 3 2 2 3 1 4 21 5 15 6 14 7 16 8 17 9 19 10 20 11 6 12
REMARK SMILES IDX 7 13 8 14 9 15 13 16 11 17 10 18 12 20 4 22 18 24
REMARK H PARENT 10 19 12 21 4 23 18 25
REMARK Flexibility Score: inf
ROOT
ATOM      1  C   UNL     1      -1.455   4.563   2.483  1.00  0.00     0.180 A 
ATOM      2  C   UNL     1      -2.365   5.457   3.083  1.00  0.00     0.208 A 
ATOM      3  C   UNL     1      -2.118   6.836   2.995  1.00  0.00     0.235 A 
ATOM      4  O   UNL     1      -2.923   7.656   3.515  1.00  0.00    -0.285 OA
ATOM      5  C   UNL     1      -0.966   7.290   2.333  1.00  0.00     0.069 A 
ATOM      6  C   UNL     1      -0.091   6.330   1.778  1.00  0.00     0.142 A 
ATOM      7  O   UNL     1      -0.366   5.034   1.876  1.00  0.00    -0.452 OA
ATOM      8  C   UNL     1       1.072   6.743   1.119  1.00  0.00     0.094 A 
ATOM      9  C   UNL     1       1.373   8.103   1.004  1.00  0.00     0.119 A 
ATOM     10  C   UNL     1       0.507   9.059   1.552  1.00  0.00     0.047 A 
ATOM     11  C   UNL     1      -0.658   8.657   2.213  1.00  0.00     0.020 A 
ENDROOT
BRANCH   1  12
ATOM     12  C   UNL     1      -1.655   3.097   2.516  1.00  0.00     0.025 A 
ATOM     13  C   UNL     1      -0.567   2.258   2.808  1.00  0.00     0.016 A 
ATOM     14  C   UNL     1      -0.729   0.871   2.825  1.00  0.00     0.051 A 
ATOM     15  C   UNL     1      -1.975   0.300   2.534  1.00  0.00     0.157 A 
ATOM     16  C   UNL     1      -2.899   2.520   2.205  1.00  0.00     0.062 A 
ATOM     17  C   UNL     1      -3.064   1.130   2.219  1.00  0.00     0.158 A 
BRANCH  15  18
ATOM     18  O   UNL     1      -2.133  -1.085   2.554  1.00  0.00    -0.504 OA
ATOM     19  H   UNL     1      -3.025  -1.521   2.354  1.00  0.00     0.293 HD
ENDBRANCH  15  18
BRANCH  17  20
ATOM     20  O   UNL     1      -4.314   0.593   1.911  1.00  0.00    -0.504 OA
ATOM     21  H   UNL     1      -4.559  -0.363   2.138  1.00  0.00     0.293 HD
ENDBRANCH  17  20
ENDBRANCH   1  12
BRANCH   2  22
ATOM     22  O   UNL     1      -3.476   4.975   3.778  1.00  0.00    -0.502 OA
ATOM     23  H   UNL     1      -4.051   5.571   4.363  1.00  0.00     0.293 HD
ENDBRANCH   2  22
BRANCH   9  24
ATOM     24  O   UNL     1       2.535   8.496   0.343  1.00  0.00    -0.508 OA
ATOM     25  H   UNL     1       3.084   9.286   0.661  1.00  0.00     0.293 HD
ENDBRANCH   9  24
TORSDOF 5
ENDMDL
MODEL 2
REMARK VINA RESULT:    -7.336      3.780      6.824
REMARK INTER + INTRA:          -8.595
REMARK INTER:                  -8.322
REMARK INTRA:                  -0.273
REMARK UNBOUND:                 0.028
REMARK SMILES O=c1c(O)c(-c2ccc(O)c(O)c2)oc2cc(O)ccc12
REMARK SMILES IDX 5 1 3 2 2 3 1 4 21 5 15 6 14 7 16 8 17 9 19 10 20 11 6 12
REMARK SMILES IDX 7 13 8 14 9 15 13 16 11 17 10 18 12 20 4 22 18 24
REMARK H PARENT 10 19 12 21 4 23 18 25
REMARK Flexibility Score: inf
ROOT
ATOM      1  C   UNL     1      -2.066   5.568  -0.788  1.00  0.00     0.180 A 
ATOM      2  C   UNL     1      -2.087   6.596   0.176  1.00  0.00     0.208 A 
ATOM      3  C   UNL     1      -2.695   6.348   1.416  1.00  0.00     0.235 A 
ATOM      4  O   UNL     1      -2.717   7.249   2.300  1.00  0.00    -0.285 OA
ATOM      5  C   UNL     1      -3.282   5.097   1.659  1.00  0.00     0.069 A 
ATOM      6  C   UNL     1      -3.240   4.127   0.633  1.00  0.00     0.142 A 
ATOM      7  O   UNL     1      -2.647   4.399  -0.523  1.00  0.00    -0.452 OA
ATOM      8  C   UNL     1      -3.824   2.871   0.834  1.00  0.00     0.094 A 
ATOM      9  C   UNL     1      -4.448   2.568   2.048  1.00  0.00     0.119 A 
ATOM     10  C   UNL     1      -4.490   3.527   3.069  1.00  0.00     0.047 A 
ATOM     11  C   UNL     1      -3.911   4.785   2.879  1.00  0.00     0.020 A 
ENDROOT
BRANCH   1  12
ATOM     12  C   UNL     1      -1.428   5.745  -2.113  1.00  0.00     0.025 A 
ATOM     13  C   UNL     1      -2.233   5.872  -3.256  1.00  0.00     0.016 A 
ATOM     14  C   UNL     1      -1.653   6.020  -4.517  1.00  0.00     0.051 A 
ATOM     15  C   UNL     1      -0.258   6.027  -4.658  1.00  0.00     0.157 A 
ATOM     16  C   UNL     1      -0.029   5.731  -2.260  1.00  0.00     0.062 A 
ATOM     17  C   UNL     1       0.556   5.877  -3.523  1.00  0.00     0.158 A 
BRANCH  15  18
ATOM     18  O   UNL     1       0.318   6.176  -5.918  1.00  0.00    -0.504 OA
ATOM     19  H   UNL     1      -0.231   6.448  -6.725  1.00  0.00     0.293 HD
ENDBRANCH  15  18
BRANCH  17  20
ATOM     20  O   UNL     1       1.947   5.865  -3.630  1.00  0.00    -0.504 OA
ATOM     21  H   UNL     1       2.483   5.007  -3.568  1.00  0.00     0.293 HD
ENDBRANCH  17  20
ENDBRANCH   1  12
BRANCH   2  22
ATOM     22  O   UNL     1      -1.538   7.848  -0.112  1.00  0.00    -0.502 OA
ATOM     23  H   UNL     1      -1.962   8.711   0.207  1.00  0.00     0.293 HD
ENDBRANCH   2  22
BRANCH   9  24
ATOM     24  O   UNL     1      -5.022   1.312   2.230  1.00  0.00    -0.508 OA
ATOM     25  H   UNL     1      -4.696   0.502   1.717  1.00  0.00     0.293 HD
ENDBRANCH   9  24
TORSDOF 5
ENDMDL
MODEL 3
REMARK VINA RESULT:    -7.302      1.571      2.387
REMARK INTER + INTRA:          -8.555
REMARK INTER:                  -8.238
REMARK INTRA:                  -0.317
REMARK UNBOUND:                 0.028
REMARK SMILES O=c1c(O)c(-c2ccc(O)c(O)c2)oc2cc(O)ccc12
REMARK SMILES IDX 5 1 3 2 2 3 1 4 21 5 15 6 14 7 16 8 17 9 19 10 20 11 6 12
REMARK SMILES IDX 7 13 8 14 9 15 13 16 11 17 10 18 12 20 4 22 18 24
REMARK H PARENT 10 19 12 21 4 23 18 25
REMARK Flexibility Score: inf
ROOT
ATOM      1  C   UNL     1      -1.025   5.512   1.365  1.00  0.00     0.180 A 
ATOM      2  C   UNL     1      -1.390   6.721   1.992  1.00  0.00     0.208 A 
ATOM      3  C   UNL     1      -0.615   7.866   1.755  1.00  0.00     0.235 A 
ATOM      4  O   UNL     1      -0.928   8.962   2.296  1.00  0.00    -0.285 OA
ATOM      5  C   UNL     1       0.511   7.778   0.921  1.00  0.00     0.069 A 
ATOM      6  C   UNL     1       0.824   6.525   0.350  1.00  0.00     0.142 A 
ATOM      7  O   UNL     1       0.059   5.467   0.593  1.00  0.00    -0.452 OA
ATOM      8  C   UNL     1       1.944   6.395  -0.478  1.00  0.00     0.094 A 
ATOM      9  C   UNL     1       2.756   7.501  -0.747  1.00  0.00     0.119 A 
ATOM     10  C   UNL     1       2.448   8.746  -0.183  1.00  0.00     0.047 A 
ATOM     11  C   UNL     1       1.332   8.887   0.647  1.00  0.00     0.020 A 
ENDROOT
BRANCH   1  12
ATOM     12  C   UNL     1      -1.802   4.264   1.549  1.00  0.00     0.025 A 
ATOM     13  C   UNL     1      -2.869   3.981   0.682  1.00  0.00     0.016 A 
ATOM     14  C   UNL     1      -3.627   2.821   0.849  1.00  0.00     0.051 A 
ATOM     15  C   UNL     1      -3.341   1.933   1.896  1.00  0.00     0.157 A 
ATOM     16  C   UNL     1      -1.531   3.382   2.610  1.00  0.00     0.062 A 
ATOM     17  C   UNL     1      -2.290   2.219   2.783  1.00  0.00     0.158 A 
BRANCH  15  18
ATOM     18  O   UNL     1      -4.099   0.775   2.059  1.00  0.00    -0.504 OA
ATOM     19  H   UNL     1      -3.770  -0.001   2.619  1.00  0.00     0.293 HD
ENDBRANCH  15  18
BRANCH  17  20
ATOM     20  O   UNL     1      -1.989   1.365   3.842  1.00  0.00    -0.504 OA
ATOM     21  H   UNL     1      -1.988   1.681   4.805  1.00  0.00     0.293 HD
ENDBRANCH  17  20
ENDBRANCH   1  12
BRANCH   2  22
ATOM     22  O   UNL     1      -2.487   6.767   2.856  1.00  0.00    -0.502 OA
ATOM     23  H   UNL     1      -2.385   6.920   3.852  1.00  0.00     0.293 HD
ENDBRANCH   2  22
BRANCH   9  24
ATOM     24  O   UNL     1       3.867   7.352  -1.574  1.00  0.00    -0.508 OA
ATOM     25  H   UNL     1       4.008   6.514  -2.125  1.00  0.00     0.293 HD
ENDBRANCH   9  24
TORSDOF 5
ENDMDL
MODEL 4
REMARK VINA RESULT:    -7.165      1.941      6.915
REMARK INTER + INTRA:          -8.394
REMARK INTER:                  -8.141
REMARK INTRA:                  -0.253
REMARK UNBOUND:                 0.028
REMARK SMILES O=c1c(O)c(-c2ccc(O)c(O)c2)oc2cc(O)ccc12
REMARK SMILES IDX 5 1 3 2 2 3 1 4 21 5 15 6 14 7 16 8 17 9 19 10 20 11 6 12
REMARK SMILES IDX 7 13 8 14 9 15 13 16 11 17 10 18 12 20 4 22 18 24
REMARK H PARENT 10 19 12 21 4 23 18 25
REMARK Flexibility Score: inf
ROOT
ATOM      1  C   UNL     1      -0.985   3.915   1.851  1.00  0.00     0.180 A 
ATOM      2  C   UNL     1      -0.476   2.743   2.446  1.00  0.00     0.208 A 
ATOM      3  C   UNL     1      -1.270   1.586   2.449  1.00  0.00     0.235 A 
ATOM      4  O   UNL     1      -0.832   0.521   2.966  1.00  0.00    -0.285 OA
ATOM      5  C   UNL     1      -2.552   1.627   1.881  1.00  0.00     0.069 A 
ATOM      6  C   UNL     1      -3.000   2.845   1.326  1.00  0.00     0.142 A 
ATOM      7  O   UNL     1      -2.214   3.916   1.336  1.00  0.00    -0.452 OA
ATOM      8  C   UNL     1      -4.277   2.929   0.760  1.00  0.00     0.094 A 
ATOM      9  C   UNL     1      -5.114   1.810   0.738  1.00  0.00     0.119 A 
ATOM     10  C   UNL     1      -4.674   0.598   1.286  1.00  0.00     0.047 A 
ATOM     11  C   UNL     1      -3.400   0.504   1.856  1.00  0.00     0.020 A 
ENDROOT
BRANCH   1  12
ATOM     12  C   UNL     1      -0.203   5.171   1.791  1.00  0.00     0.025 A 
ATOM     13  C   UNL     1      -0.071   5.958   2.946  1.00  0.00     0.016 A 
ATOM     14  C   UNL     1       0.646   7.156   2.907  1.00  0.00     0.051 A 
ATOM     15  C   UNL     1       1.227   7.594   1.709  1.00  0.00     0.157 A 
ATOM     16  C   UNL     1       0.364   5.623   0.586  1.00  0.00     0.062 A 
ATOM     17  C   UNL     1       1.081   6.825   0.543  1.00  0.00     0.158 A 
BRANCH  15  18
ATOM     18  O   UNL     1       1.943   8.789   1.675  1.00  0.00    -0.504 OA
ATOM     19  H   UNL     1       2.448   9.083   0.847  1.00  0.00     0.293 HD
ENDBRANCH  15  18
BRANCH  17  20
ATOM     20  O   UNL     1       1.635   7.239  -0.668  1.00  0.00    -0.504 OA
ATOM     21  H   UNL     1       2.588   7.576  -0.736  1.00  0.00     0.293 HD
ENDBRANCH  17  20
ENDBRANCH   1  12
BRANCH   2  22
ATOM     22  O   UNL     1       0.785   2.745   3.048  1.00  0.00    -0.502 OA
ATOM     23  H   UNL     1       1.282   1.890   3.267  1.00  0.00     0.293 HD
ENDBRANCH   2  22
BRANCH   9  24
ATOM     24  O   UNL     1      -6.382   1.911   0.169  1.00  0.00    -0.508 OA
ATOM     25  H   UNL     1      -6.523   1.821  -0.830  1.00  0.00     0.293 HD
ENDBRANCH   9  24
TORSDOF 5
ENDMDL
MODEL 5
REMARK VINA RESULT:    -7.163      2.137      2.772
REMARK INTER + INTRA:          -8.391
REMARK INTER:                  -8.076
REMARK INTRA:                  -0.315
REMARK UNBOUND:                 0.028
REMARK SMILES O=c1c(O)c(-c2ccc(O)c(O)c2)oc2cc(O)ccc12
REMARK SMILES IDX 5 1 3 2 2 3 1 4 21 5 15 6 14 7 16 8 17 9 19 10 20 11 6 12
REMARK SMILES IDX 7 13 8 14 9 15 13 16 11 17 10 18 12 20 4 22 18 24
REMARK H PARENT 10 19 12 21 4 23 18 25
REMARK Flexibility Score: inf
ROOT
ATOM      1  C   UNL     1       0.005   4.488   1.416  1.00  0.00     0.180 A 
ATOM      2  C   UNL     1       0.126   5.714   2.101  1.00  0.00     0.208 A 
ATOM      3  C   UNL     1       0.597   6.836   1.403  1.00  0.00     0.235 A 
ATOM      4  O   UNL     1       0.704   7.947   1.991  1.00  0.00    -0.285 OA
ATOM      5  C   UNL     1       0.954   6.709   0.051  1.00  0.00     0.069 A 
ATOM      6  C   UNL     1       0.827   5.441  -0.558  1.00  0.00     0.142 A 
ATOM      7  O   UNL     1       0.369   4.406   0.137  1.00  0.00    -0.452 OA
ATOM      8  C   UNL     1       1.183   5.271  -1.900  1.00  0.00     0.094 A 
ATOM      9  C   UNL     1       1.662   6.353  -2.646  1.00  0.00     0.119 A 
ATOM     10  C   UNL     1       1.789   7.613  -2.046  1.00  0.00     0.047 A 
ATOM     11  C   UNL     1       1.437   7.793  -0.704  1.00  0.00     0.020 A 
ENDROOT
BRANCH   1  12
ATOM     12  C   UNL     1      -0.501   3.264   2.077  1.00  0.00     0.025 A 
ATOM     13  C   UNL     1       0.397   2.422   2.752  1.00  0.00     0.016 A 
ATOM     14  C   UNL     1      -0.056   1.252   3.366  1.00  0.00     0.051 A 
ATOM     15  C   UNL     1      -1.410   0.897   3.300  1.00  0.00     0.157 A 
ATOM     16  C   UNL     1      -1.855   2.893   1.994  1.00  0.00     0.062 A 
ATOM     17  C   UNL     1      -2.312   1.720   2.606  1.00  0.00     0.158 A 
BRANCH  15  18
ATOM     18  O   UNL     1      -1.858  -0.271   3.914  1.00  0.00    -0.504 OA
ATOM     19  H   UNL     1      -1.967  -0.335   4.919  1.00  0.00     0.293 HD
ENDBRANCH  15  18
BRANCH  17  20
ATOM     20  O   UNL     1      -3.663   1.388   2.509  1.00  0.00    -0.504 OA
ATOM     21  H   UNL     1      -3.980   0.565   2.009  1.00  0.00     0.293 HD
ENDBRANCH  17  20
ENDBRANCH   1  12
BRANCH   2  22
ATOM     22  O   UNL     1      -0.190   5.800   3.459  1.00  0.00    -0.502 OA
ATOM     23  H   UNL     1      -0.429   4.985   4.012  1.00  0.00     0.293 HD
ENDBRANCH   2  22
BRANCH   9  24
ATOM     24  O   UNL     1       2.011   6.165  -3.982  1.00  0.00    -0.508 OA
ATOM     25  H   UNL     1       2.298   6.939  -4.568  1.00  0.00     0.293 HD
ENDBRANCH   9  24
TORSDOF 5
ENDMDL
MODEL 6
REMARK VINA RESULT:    -6.998      1.965      6.454
REMARK INTER + INTRA:          -8.197
REMARK INTER:                  -8.062
REMARK INTRA:                  -0.136
REMARK UNBOUND:                 0.028
REMARK SMILES O=c1c(O)c(-c2ccc(O)c(O)c2)oc2cc(O)ccc12
REMARK SMILES IDX 5 1 3 2 2 3 1 4 21 5 15 6 14 7 16 8 17 9 19 10 20 11 6 12
REMARK SMILES IDX 7 13 8 14 9 15 13 16 11 17 10 18 12 20 4 22 18 24
REMARK H PARENT 10 19 12 21 4 23 18 25
REMARK Flexibility Score: inf
ROOT
ATOM      1  C   UNL     1      -0.105   6.566   1.178  1.00  0.00     0.180 A 
ATOM      2  C   UNL     1      -0.958   7.544   1.728  1.00  0.00     0.208 A 
ATOM      3  C   UNL     1      -2.008   7.133   2.564  1.00  0.00     0.235 A 
ATOM      4  O   UNL     1      -2.778   7.990   3.078  1.00  0.00    -0.285 OA
ATOM      5  C   UNL     1      -2.195   5.765   2.816  1.00  0.00     0.069 A 
ATOM      6  C   UNL     1      -1.313   4.846   2.207  1.00  0.00     0.142 A 
ATOM      7  O   UNL     1      -0.327   5.277   1.429  1.00  0.00    -0.452 OA
ATOM      8  C   UNL     1      -1.474   3.473   2.425  1.00  0.00     0.094 A 
ATOM      9  C   UNL     1      -2.505   3.004   3.246  1.00  0.00     0.119 A 
ATOM     10  C   UNL     1      -3.382   3.913   3.852  1.00  0.00     0.047 A 
ATOM     11  C   UNL     1      -3.230   5.287   3.640  1.00  0.00     0.020 A 
ENDROOT
BRANCH   1  12
ATOM     12  C   UNL     1       1.035   6.919   0.302  1.00  0.00     0.025 A 
ATOM     13  C   UNL     1       2.077   7.710   0.810  1.00  0.00     0.016 A 
ATOM     14  C   UNL     1       3.153   8.072  -0.004  1.00  0.00     0.051 A 
ATOM     15  C   UNL     1       3.195   7.663  -1.344  1.00  0.00     0.157 A 
ATOM     16  C   UNL     1       1.070   6.528  -1.049  1.00  0.00     0.062 A 
ATOM     17  C   UNL     1       2.145   6.890  -1.869  1.00  0.00     0.158 A 
BRANCH  15  18
ATOM     18  O   UNL     1       4.270   8.025  -2.153  1.00  0.00    -0.504 OA
ATOM     19  H   UNL     1       4.135   8.518  -3.027  1.00  0.00     0.293 HD
ENDBRANCH  15  18
BRANCH  17  20
ATOM     20  O   UNL     1       2.149   6.479  -3.201  1.00  0.00    -0.504 OA
ATOM     21  H   UNL     1       1.353   6.018  -3.624  1.00  0.00     0.293 HD
ENDBRANCH  17  20
ENDBRANCH   1  12
BRANCH   2  22
ATOM     22  O   UNL     1      -0.778   8.894   1.421  1.00  0.00    -0.502 OA
ATOM     23  H   UNL     1      -1.294   9.630   1.889  1.00  0.00     0.293 HD
ENDBRANCH   2  22
BRANCH   9  24
ATOM     24  O   UNL     1      -2.649   1.634   3.452  1.00  0.00    -0.508 OA
ATOM     25  H   UNL     1      -1.849   1.038   3.629  1.00  0.00     0.293 HD
ENDBRANCH   9  24
TORSDOF 5
ENDMDL
MODEL 7
REMARK VINA RESULT:    -6.996      3.737      6.577
REMARK INTER + INTRA:          -8.195
REMARK INTER:                  -7.880
REMARK INTRA:                  -0.315
REMARK UNBOUND:                 0.028
REMARK SMILES O=c1c(O)c(-c2ccc(O)c(O)c2)oc2cc(O)ccc12
REMARK SMILES IDX 5 1 3 2 2 3 1 4 21 5 15 6 14 7 16 8 17 9 19 10 20 11 6 12
REMARK SMILES IDX 7 13 8 14 9 15 13 16 11 17 10 18 12 20 4 22 18 24
REMARK H PARENT 10 19 12 21 4 23 18 25
REMARK Flexibility Score: inf
ROOT
ATOM      1  C   UNL     1      -1.425   6.484  -0.632  1.00  0.00     0.180 A 
ATOM      2  C   UNL     1      -1.055   7.562   0.198  1.00  0.00     0.208 A 
ATOM      3  C   UNL     1      -1.449   7.545   1.544  1.00  0.00     0.235 A 
ATOM      4  O   UNL     1      -1.121   8.493   2.310  1.00  0.00    -0.285 OA
ATOM      5  C   UNL     1      -2.214   6.472   2.027  1.00  0.00     0.069 A 
ATOM      6  C   UNL     1      -2.564   5.442   1.126  1.00  0.00     0.142 A 
ATOM      7  O   UNL     1      -2.164   5.492  -0.139  1.00  0.00    -0.452 OA
ATOM      8  C   UNL     1      -3.335   4.361   1.566  1.00  0.00     0.094 A 
ATOM      9  C   UNL     1      -3.760   4.292   2.897  1.00  0.00     0.119 A 
ATOM     10  C   UNL     1      -3.414   5.311   3.794  1.00  0.00     0.047 A 
ATOM     11  C   UNL     1      -2.644   6.397   3.364  1.00  0.00     0.020 A 
ENDROOT
BRANCH   1  12
ATOM     12  C   UNL     1      -1.032   6.419  -2.059  1.00  0.00     0.025 A 
ATOM     13  C   UNL     1      -1.958   6.790  -3.047  1.00  0.00     0.016 A 
ATOM     14  C   UNL     1      -1.616   6.717  -4.399  1.00  0.00     0.051 A 
ATOM     15  C   UNL     1      -0.350   6.257  -4.785  1.00  0.00     0.157 A 
ATOM     16  C   UNL     1       0.230   5.938  -2.450  1.00  0.00     0.062 A 
ATOM     17  C   UNL     1       0.576   5.862  -3.804  1.00  0.00     0.158 A 
BRANCH  15  18
ATOM     18  O   UNL     1      -0.012   6.187  -6.135  1.00  0.00    -0.504 OA
ATOM     19  H   UNL     1       0.756   6.725  -6.519  1.00  0.00     0.293 HD
ENDBRANCH  15  18
BRANCH  17  20
ATOM     20  O   UNL     1       1.838   5.386  -4.155  1.00  0.00    -0.504 OA
ATOM     21  H   UNL     1       2.576   5.263  -3.471  1.00  0.00     0.293 HD
ENDBRANCH  17  20
ENDBRANCH   1  12
BRANCH   2  22
ATOM     22  O   UNL     1      -0.335   8.640  -0.322  1.00  0.00    -0.502 OA
ATOM     23  H   UNL     1       0.484   8.515  -0.904  1.00  0.00     0.293 HD
ENDBRANCH   2  22
BRANCH   9  24
ATOM     24  O   UNL     1      -4.526   3.207   3.317  1.00  0.00    -0.508 OA
ATOM     25  H   UNL     1      -4.978   2.589   2.654  1.00  0.00     0.293 HD
ENDBRANCH   9  24
TORSDOF 5
ENDMDL
MODEL 8
REMARK VINA RESULT:    -6.983      2.021      3.285
REMARK INTER + INTRA:          -8.180
REMARK INTER:                  -7.943
REMARK INTRA:                  -0.237
REMARK UNBOUND:                 0.028
REMARK SMILES O=c1c(O)c(-c2ccc(O)c(O)c2)oc2cc(O)ccc12
REMARK SMILES IDX 5 1 3 2 2 3 1 4 21 5 15 6 14 7 16 8 17 9 19 10 20 11 6 12
REMARK SMILES IDX 7 13 8 14 9 15 13 16 11 17 10 18 12 20 4 22 18 24
REMARK H PARENT 10 19 12 21 4 23 18 25
REMARK Flexibility Score: inf
ROOT
ATOM      1  C   UNL     1      -0.531   5.567   1.148  1.00  0.00     0.180 A 
ATOM      2  C   UNL     1       0.133   6.296   2.155  1.00  0.00     0.208 A 
ATOM      3  C   UNL     1       1.176   7.162   1.789  1.00  0.00     0.235 A 
ATOM      4  O   UNL     1       1.778   7.833   2.672  1.00  0.00    -0.285 OA
ATOM      5  C   UNL     1       1.544   7.266   0.439  1.00  0.00     0.069 A 
ATOM      6  C   UNL     1       0.846   6.485  -0.507  1.00  0.00     0.142 A 
ATOM      7  O   UNL     1      -0.140   5.684  -0.120  1.00  0.00    -0.452 OA
ATOM      8  C   UNL     1       1.191   6.553  -1.862  1.00  0.00     0.094 A 
ATOM      9  C   UNL     1       2.224   7.395  -2.286  1.00  0.00     0.119 A 
ATOM     10  C   UNL     1       2.918   8.173  -1.350  1.00  0.00     0.047 A 
ATOM     11  C   UNL     1       2.582   8.111   0.006  1.00  0.00     0.020 A 
ENDROOT
BRANCH   1  12
ATOM     12  C   UNL     1      -1.651   4.648   1.451  1.00  0.00     0.025 A 
ATOM     13  C   UNL     1      -2.898   5.178   1.818  1.00  0.00     0.016 A 
ATOM     14  C   UNL     1      -3.964   4.329   2.127  1.00  0.00     0.051 A 
ATOM     15  C   UNL     1      -3.795   2.938   2.089  1.00  0.00     0.157 A 
ATOM     16  C   UNL     1      -1.479   3.252   1.434  1.00  0.00     0.062 A 
ATOM     17  C   UNL     1      -2.544   2.399   1.745  1.00  0.00     0.158 A 
BRANCH  15  18
ATOM     18  O   UNL     1      -4.860   2.094   2.397  1.00  0.00    -0.504 OA
ATOM     19  H   UNL     1      -5.821   2.413   2.351  1.00  0.00     0.293 HD
ENDBRANCH  15  18
BRANCH  17  20
ATOM     20  O   UNL     1      -2.338   1.020   1.712  1.00  0.00    -0.504 OA
ATOM     21  H   UNL     1      -2.839   0.387   2.324  1.00  0.00     0.293 HD
ENDBRANCH  17  20
ENDBRANCH   1  12
BRANCH   2  22
ATOM     22  O   UNL     1      -0.222   6.135   3.497  1.00  0.00    -0.502 OA
ATOM     23  H   UNL     1      -0.939   6.698   3.939  1.00  0.00     0.293 HD
ENDBRANCH   2  22
BRANCH   9  24
ATOM     24  O   UNL     1       2.553   7.451  -3.638  1.00  0.00    -0.508 OA
ATOM     25  H   UNL     1       1.928   7.868  -4.318  1.00  0.00     0.293 HD
ENDBRANCH   9  24
TORSDOF 5
ENDMDL
MODEL 9
REMARK VINA RESULT:    -6.893      2.632      2.706
REMARK INTER + INTRA:          -8.074
REMARK INTER:                  -7.793
REMARK INTRA:                  -0.280
REMARK UNBOUND:                 0.028
REMARK SMILES O=c1c(O)c(-c2ccc(O)c(O)c2)oc2cc(O)ccc12
REMARK SMILES IDX 5 1 3 2 2 3 1 4 21 5 15 6 14 7 16 8 17 9 19 10 20 11 6 12
REMARK SMILES IDX 7 13 8 14 9 15 13 16 11 17 10 18 12 20 4 22 18 24
REMARK H PARENT 10 19 12 21 4 23 18 25
REMARK Flexibility Score: inf
ROOT
ATOM      1  C   UNL     1      -2.498   4.700   1.332  1.00  0.00     0.180 A 
ATOM      2  C   UNL     1      -2.483   5.708   2.318  1.00  0.00     0.208 A 
ATOM      3  C   UNL     1      -2.531   7.051   1.913  1.00  0.00     0.235 A 
ATOM      4  O   UNL     1      -2.530   7.970   2.776  1.00  0.00    -0.285 OA
ATOM      5  C   UNL     1      -2.574   7.358   0.544  1.00  0.00     0.069 A 
ATOM      6  C   UNL     1      -2.562   6.292  -0.382  1.00  0.00     0.142 A 
ATOM      7  O   UNL     1      -2.523   5.034   0.043  1.00  0.00    -0.452 OA
ATOM      8  C   UNL     1      -2.592   6.558  -1.755  1.00  0.00     0.094 A 
ATOM      9  C   UNL     1      -2.637   7.877  -2.218  1.00  0.00     0.119 A 
ATOM     10  C   UNL     1      -2.651   8.938  -1.302  1.00  0.00     0.047 A 
ATOM     11  C   UNL     1      -2.619   8.683   0.072  1.00  0.00     0.020 A 
ENDROOT
BRANCH   1  12
ATOM     12  C   UNL     1      -2.468   3.261   1.678  1.00  0.00     0.025 A 
ATOM     13  C   UNL     1      -1.245   2.656   2.012  1.00  0.00     0.016 A 
ATOM     14  C   UNL     1      -1.190   1.296   2.323  1.00  0.00     0.051 A 
ATOM     15  C   UNL     1      -2.354   0.515   2.289  1.00  0.00     0.157 A 
ATOM     16  C   UNL     1      -3.629   2.470   1.625  1.00  0.00     0.062 A 
ATOM     17  C   UNL     1      -3.578   1.105   1.933  1.00  0.00     0.158 A 
BRANCH  15  18
ATOM     18  O   UNL     1      -2.295  -0.842   2.600  1.00  0.00    -0.504 OA
ATOM     19  H   UNL     1      -2.449  -1.556   1.898  1.00  0.00     0.293 HD
ENDBRANCH  15  18
BRANCH  17  20
ATOM     20  O   UNL     1      -4.751   0.354   1.875  1.00  0.00    -0.504 OA
ATOM     21  H   UNL     1      -4.823  -0.489   1.316  1.00  0.00     0.293 HD
ENDBRANCH  17  20
ENDBRANCH   1  12
BRANCH   2  22
ATOM     22  O   UNL     1      -2.390   5.373   3.671  1.00  0.00    -0.502 OA
ATOM     23  H   UNL     1      -2.017   4.485   3.985  1.00  0.00     0.293 HD
ENDBRANCH   2  22
BRANCH   9  24
ATOM     24  O   UNL     1      -2.668   8.123  -3.589  1.00  0.00    -0.508 OA
ATOM     25  H   UNL     1      -3.216   8.881  -3.979  1.00  0.00     0.293 HD
ENDBRANCH   9  24
TORSDOF 5
ENDMDL
