MODEL 1
REMARK VINA RESULT:    -4.259      0.000      0.000
REMARK INTER + INTRA:          -9.173
REMARK INTER:                  -7.993
REMARK INTRA:                  -1.180
REMARK UNBOUND:                -1.180
REMARK SMILES CCCCCCCCC=CCCCCCCCC(=O)[O-]
REMARK SMILES IDX 10 1 9 2 11 3 12 4 13 5 14 6 15 7 16 8 17 9 18 10 19 11
REMARK SMILES IDX 20 12 8 13 7 14 6 15 5 16 4 17 3 18 2 19 1 20
REMARK H PARENT
REMARK Flexibility Score: inf
ROOT
ATOM      1  C   UNL     1      57.726  25.058  28.584  1.00  0.00    -0.031 C 
ATOM      2  C   UNL     1      56.477  24.722  28.941  1.00  0.00    -0.031 C 
ENDROOT
BRANCH   1   3
ATOM      3  C   UNL     1      58.181  26.493  28.565  1.00  0.00     0.027 C 
BRANCH   3   4
ATOM      4  C   UNL     1      57.022  27.460  28.853  1.00  0.00     0.004 C 
BRANCH   4   5
ATOM      5  C   UNL     1      57.295  28.921  28.444  1.00  0.00     0.000 C 
BRANCH   5   6
ATOM      6  C   UNL     1      57.755  29.053  26.983  1.00  0.00     0.000 C 
BRANCH   6   7
ATOM      7  C   UNL     1      58.806  30.160  26.785  1.00  0.00     0.000 C 
BRANCH   7   8
ATOM      8  C   UNL     1      59.957  30.172  27.810  1.00  0.00     0.006 C 
BRANCH   8   9
ATOM      9  C   UNL     1      61.190  30.978  27.362  1.00  0.00     0.053 C 
BRANCH   9  10
ATOM     10  C   UNL     1      62.479  30.278  27.675  1.00  0.00     0.041 C 
ATOM     11  O   UNL     1      62.473  29.065  28.012  1.00  0.00    -0.550 OA
ATOM     12  O   UNL     1      63.680  30.974  27.640  1.00  0.00    -0.550 OA
ENDBRANCH   9  10
ENDBRANCH   8   9
ENDBRANCH   7   8
ENDBRANCH   6   7
ENDBRANCH   5   6
ENDBRANCH   4   5
ENDBRANCH   3   4
ENDBRANCH   1   3
BRANCH   2  13
ATOM     13  C   UNL     1      56.009  23.292  28.922  1.00  0.00     0.027 C 
BRANCH  13  14
ATOM     14  C   UNL     1      54.713  23.168  28.116  1.00  0.00     0.004 C 
BRANCH  14  15
ATOM     15  C   UNL     1      54.953  23.481  26.633  1.00  0.00     0.000 C 
BRANCH  15  16
ATOM     16  C   UNL     1      53.736  23.084  25.784  1.00  0.00     0.000 C 
BRANCH  16  17
ATOM     17  C   UNL     1      53.473  21.569  25.799  1.00  0.00    -0.000 C 
BRANCH  17  18
ATOM     18  C   UNL     1      51.988  21.230  26.010  1.00  0.00    -0.000 C 
BRANCH  18  19
ATOM     19  C   UNL     1      51.704  20.675  27.414  1.00  0.00    -0.003 C 
ATOM     20  C   UNL     1      51.242  21.755  28.392  1.00  0.00     0.004 C 
ENDBRANCH  18  19
ENDBRANCH  17  18
ENDBRANCH  16  17
ENDBRANCH  15  16
ENDBRANCH  14  15
ENDBRANCH  13  14
ENDBRANCH   2  13
TORSDOF 15
ENDMDL
MODEL 2
REMARK VINA RESULT:    -4.248      2.424      3.891
REMARK INTER + INTRA:          -9.154
REMARK INTER:                  -7.436
REMARK INTRA:                  -1.718
REMARK UNBOUND:                -1.180
REMARK SMILES CCCCCCCCC=CCCCCCCCC(=O)[O-]
REMARK SMILES IDX 10 1 9 2 11 3 12 4 13 5 14 6 15 7 16 8 17 9 18 10 19 11
REMARK SMILES IDX 20 12 8 13 7 14 6 15 5 16 4 17 3 18 2 19 1 20
REMARK H PARENT
REMARK Flexibility Score: inf
ROOT
ATOM      1  C   UNL     1      54.782  24.331  28.682  1.00  0.00    -0.031 C 
ATOM      2  C   UNL     1      53.794  23.529  29.109  1.00  0.00    -0.031 C 
ENDROOT
BRANCH   1   3
ATOM      3  C   UNL     1      56.227  23.923  28.788  1.00  0.00     0.027 C 
BRANCH   3   4
ATOM      4  C   UNL     1      57.147  24.888  28.024  1.00  0.00     0.004 C 
BRANCH   4   5
ATOM      5  C   UNL     1      58.595  24.939  28.550  1.00  0.00     0.000 C 
BRANCH   5   6
ATOM      6  C   UNL     1      59.090  26.375  28.790  1.00  0.00     0.000 C 
BRANCH   6   7
ATOM      7  C   UNL     1      58.023  27.437  28.467  1.00  0.00     0.000 C 
BRANCH   7   8
ATOM      8  C   UNL     1      58.563  28.774  27.923  1.00  0.00     0.006 C 
BRANCH   8   9
ATOM      9  C   UNL     1      57.660  29.432  26.863  1.00  0.00     0.053 C 
BRANCH   9  10
ATOM     10  C   UNL     1      56.909  30.613  27.403  1.00  0.00     0.041 C 
ATOM     11  O   UNL     1      55.651  30.632  27.365  1.00  0.00    -0.550 OA
ATOM     12  O   UNL     1      57.595  31.711  27.904  1.00  0.00    -0.550 OA
ENDBRANCH   9  10
ENDBRANCH   8   9
ENDBRANCH   7   8
ENDBRANCH   6   7
ENDBRANCH   5   6
ENDBRANCH   4   5
ENDBRANCH   3   4
ENDBRANCH   1   3
BRANCH   2  13
ATOM     13  C   UNL     1      52.351  23.952  29.041  1.00  0.00     0.027 C 
BRANCH  13  14
ATOM     14  C   UNL     1      51.435  22.726  29.107  1.00  0.00     0.004 C 
BRANCH  14  15
ATOM     15  C   UNL     1      52.228  21.432  28.883  1.00  0.00     0.000 C 
BRANCH  15  16
ATOM     16  C   UNL     1      51.591  20.582  27.774  1.00  0.00     0.000 C 
BRANCH  16  17
ATOM     17  C   UNL     1      51.662  21.259  26.396  1.00  0.00    -0.000 C 
BRANCH  17  18
ATOM     18  C   UNL     1      52.951  20.910  25.631  1.00  0.00    -0.000 C 
BRANCH  18  19
ATOM     19  C   UNL     1      54.047  21.970  25.811  1.00  0.00    -0.003 C 
ATOM     20  C   UNL     1      53.604  23.359  25.352  1.00  0.00     0.004 C 
ENDBRANCH  18  19
ENDBRANCH  17  18
ENDBRANCH  16  17
ENDBRANCH  15  16
ENDBRANCH  14  15
ENDBRANCH  13  14
ENDBRANCH   2  13
TORSDOF 15
ENDMDL
MODEL 3
REMARK VINA RESULT:    -4.215      4.607     10.283
REMARK INTER + INTRA:          -9.092
REMARK INTER:                  -8.064
REMARK INTRA:                  -1.028
REMARK UNBOUND:                -1.180
REMARK SMILES CCCCCCCCC=CCCCCCCCC(=O)[O-]
REMARK SMILES IDX 10 1 9 2 11 3 12 4 13 5 14 6 15 7 16 8 17 9 18 10 19 11
REMARK SMILES IDX 20 12 8 13 7 14 6 15 5 16 4 17 3 18 2 19 1 20
REMARK H PARENT
REMARK Flexibility Score: inf
ROOT
ATOM      1  C   UNL     1      56.653  24.845  29.039  1.00  0.00    -0.031 C 
ATOM      2  C   UNL     1      57.594  25.510  28.352  1.00  0.00    -0.031 C 
ENDROOT
BRANCH   1   3
ATOM      3  C   UNL     1      56.189  23.477  28.615  1.00  0.00     0.027 C 
BRANCH   3   4
ATOM      4  C   UNL     1      54.656  23.381  28.585  1.00  0.00     0.004 C 
BRANCH   4   5
ATOM      5  C   UNL     1      53.987  24.206  27.468  1.00  0.00     0.000 C 
BRANCH   5   6
ATOM      6  C   UNL     1      54.253  23.634  26.065  1.00  0.00     0.000 C 
BRANCH   6   7
ATOM      7  C   UNL     1      53.922  22.135  25.959  1.00  0.00     0.000 C 
BRANCH   7   8
ATOM      8  C   UNL     1      52.434  21.799  25.738  1.00  0.00     0.006 C 
BRANCH   8   9
ATOM      9  C   UNL     1      51.960  20.533  26.477  1.00  0.00     0.053 C 
BRANCH   9  10
ATOM     10  C   UNL     1      51.409  20.836  27.839  1.00  0.00     0.041 C 
ATOM     11  O   UNL     1      51.203  22.027  28.187  1.00  0.00    -0.550 OA
ATOM     12  O   UNL     1      51.167  19.807  28.740  1.00  0.00    -0.550 OA
ENDBRANCH   9  10
ENDBRANCH   8   9
ENDBRANCH   7   8
ENDBRANCH   6   7
ENDBRANCH   5   6
ENDBRANCH   4   5
ENDBRANCH   3   4
ENDBRANCH   1   3
BRANCH   2  13
ATOM     13  C   UNL     1      58.031  26.894  28.751  1.00  0.00     0.027 C 
BRANCH  13  14
ATOM     14  C   UNL     1      57.630  27.908  27.675  1.00  0.00     0.004 C 
BRANCH  14  15
ATOM     15  C   UNL     1      58.028  29.333  28.083  1.00  0.00     0.000 C 
BRANCH  15  16
ATOM     16  C   UNL     1      59.547  29.442  28.286  1.00  0.00     0.000 C 
BRANCH  16  17
ATOM     17  C   UNL     1      60.226  30.310  27.214  1.00  0.00    -0.000 C 
BRANCH  17  18
ATOM     18  C   UNL     1      61.545  30.930  27.706  1.00  0.00    -0.000 C 
BRANCH  18  19
ATOM     19  C   UNL     1      62.778  30.159  27.212  1.00  0.00    -0.003 C 
ATOM     20  C   UNL     1      63.601  29.569  28.357  1.00  0.00     0.004 C 
ENDBRANCH  18  19
ENDBRANCH  17  18
ENDBRANCH  16  17
ENDBRANCH  15  16
ENDBRANCH  14  15
ENDBRANCH  13  14
ENDBRANCH   2  13
TORSDOF 15
ENDMDL
MODEL 4
REMARK VINA RESULT:    -4.163      4.718      9.748
REMARK INTER + INTRA:          -8.993
REMARK INTER:                  -7.838
REMARK INTRA:                  -1.155
REMARK UNBOUND:                -1.180
REMARK SMILES CCCCCCCCC=CCCCCCCCC(=O)[O-]
REMARK SMILES IDX 10 1 9 2 11 3 12 4 13 5 14 6 15 7 16 8 17 9 18 10 19 11
REMARK SMILES IDX 20 12 8 13 7 14 6 15 5 16 4 17 3 18 2 19 1 20
REMARK H PARENT
REMARK Flexibility Score: inf
ROOT
ATOM      1  C   UNL     1      60.188  26.200  29.063  1.00  0.00    -0.031 C 
ATOM      2  C   UNL     1      61.523  26.071  29.045  1.00  0.00    -0.031 C 
ENDROOT
BRANCH   1   3
ATOM      3  C   UNL     1      59.280  25.006  28.944  1.00  0.00     0.027 C 
BRANCH   3   4
ATOM      4  C   UNL     1      57.878  25.404  28.455  1.00  0.00     0.004 C 
BRANCH   4   5
ATOM      5  C   UNL     1      56.859  24.248  28.436  1.00  0.00     0.000 C 
BRANCH   5   6
ATOM      6  C   UNL     1      55.815  24.395  27.316  1.00  0.00     0.000 C 
BRANCH   6   7
ATOM      7  C   UNL     1      54.398  23.992  27.763  1.00  0.00     0.000 C 
BRANCH   7   8
ATOM      8  C   UNL     1      53.882  22.653  27.201  1.00  0.00     0.006 C 
BRANCH   8   9
ATOM      9  C   UNL     1      52.643  22.101  27.930  1.00  0.00     0.053 C 
BRANCH   9  10
ATOM     10  C   UNL     1      51.917  21.065  27.125  1.00  0.00     0.041 C 
ATOM     11  O   UNL     1      51.395  20.072  27.696  1.00  0.00    -0.550 OA
ATOM     12  O   UNL     1      51.855  21.169  25.742  1.00  0.00    -0.550 OA
ENDBRANCH   9  10
ENDBRANCH   8   9
ENDBRANCH   7   8
ENDBRANCH   6   7
ENDBRANCH   5   6
ENDBRANCH   4   5
ENDBRANCH   3   4
ENDBRANCH   1   3
BRANCH   2  13
ATOM     13  C   UNL     1      62.432  27.268  29.124  1.00  0.00     0.027 C 
BRANCH  13  14
ATOM     14  C   UNL     1      61.634  28.557  28.903  1.00  0.00     0.004 C 
BRANCH  14  15
ATOM     15  C   UNL     1      62.269  29.417  27.802  1.00  0.00     0.000 C 
BRANCH  15  16
ATOM     16  C   UNL     1      61.354  30.592  27.428  1.00  0.00     0.000 C 
BRANCH  16  17
ATOM     17  C   UNL     1      60.391  30.977  28.563  1.00  0.00    -0.000 C 
BRANCH  17  18
ATOM     18  C   UNL     1      58.919  30.976  28.115  1.00  0.00    -0.000 C 
BRANCH  18  19
ATOM     19  C   UNL     1      58.672  30.055  26.910  1.00  0.00    -0.003 C 
ATOM     20  C   UNL     1      57.840  28.825  27.271  1.00  0.00     0.004 C 
ENDBRANCH  18  19
ENDBRANCH  17  18
ENDBRANCH  16  17
ENDBRANCH  15  16
ENDBRANCH  14  15
ENDBRANCH  13  14
ENDBRANCH   2  13
TORSDOF 15
ENDMDL
MODEL 5
REMARK VINA RESULT:    -4.159      2.285      3.909
REMARK INTER + INTRA:          -8.987
REMARK INTER:                  -7.814
REMARK INTRA:                  -1.173
REMARK UNBOUND:                -1.180
REMARK SMILES CCCCCCCCC=CCCCCCCCC(=O)[O-]
REMARK SMILES IDX 10 1 9 2 11 3 12 4 13 5 14 6 15 7 16 8 17 9 18 10 19 11
REMARK SMILES IDX 20 12 8 13 7 14 6 15 5 16 4 17 3 18 2 19 1 20
REMARK H PARENT
REMARK Flexibility Score: inf
ROOT
ATOM      1  C   UNL     1      60.409  26.855  29.082  1.00  0.00    -0.031 C 
ATOM      2  C   UNL     1      59.499  25.918  28.777  1.00  0.00    -0.031 C 
ENDROOT
BRANCH   1   3
ATOM      3  C   UNL     1      61.886  26.575  28.999  1.00  0.00     0.027 C 
BRANCH   3   4
ATOM      4  C   UNL     1      62.716  27.865  29.088  1.00  0.00     0.004 C 
BRANCH   4   5
ATOM      5  C   UNL     1      63.266  28.364  27.738  1.00  0.00     0.000 C 
BRANCH   5   6
ATOM      6  C   UNL     1      62.884  29.825  27.444  1.00  0.00     0.000 C 
BRANCH   6   7
ATOM      7  C   UNL     1      61.562  30.244  28.113  1.00  0.00     0.000 C 
BRANCH   7   8
ATOM      8  C   UNL     1      60.367  30.432  27.158  1.00  0.00     0.006 C 
BRANCH   8   9
ATOM      9  C   UNL     1      59.005  30.063  27.776  1.00  0.00     0.053 C 
BRANCH   9  10
ATOM     10  C   UNL     1      57.915  29.973  26.750  1.00  0.00     0.041 C 
ATOM     11  O   UNL     1      57.612  28.860  26.246  1.00  0.00    -0.550 OA
ATOM     12  O   UNL     1      57.264  31.121  26.317  1.00  0.00    -0.550 OA
ENDBRANCH   9  10
ENDBRANCH   8   9
ENDBRANCH   7   8
ENDBRANCH   6   7
ENDBRANCH   5   6
ENDBRANCH   4   5
ENDBRANCH   3   4
ENDBRANCH   1   3
BRANCH   2  13
ATOM     13  C   UNL     1      58.023  26.184  28.899  1.00  0.00     0.027 C 
BRANCH  13  14
ATOM     14  C   UNL     1      57.228  25.135  28.114  1.00  0.00     0.004 C 
BRANCH  14  15
ATOM     15  C   UNL     1      56.035  24.622  28.931  1.00  0.00     0.000 C 
BRANCH  15  16
ATOM     16  C   UNL     1      55.672  23.185  28.528  1.00  0.00     0.000 C 
BRANCH  16  17
ATOM     17  C   UNL     1      54.502  23.128  27.533  1.00  0.00    -0.000 C 
BRANCH  17  18
ATOM     18  C   UNL     1      53.174  22.735  28.203  1.00  0.00    -0.000 C 
BRANCH  18  19
ATOM     19  C   UNL     1      52.410  21.664  27.411  1.00  0.00    -0.003 C 
ATOM     20  C   UNL     1      52.949  21.484  25.992  1.00  0.00     0.004 C 
ENDBRANCH  18  19
ENDBRANCH  17  18
ENDBRANCH  16  17
ENDBRANCH  15  16
ENDBRANCH  14  15
ENDBRANCH  13  14
ENDBRANCH   2  13
TORSDOF 15
ENDMDL
MODEL 6
REMARK VINA RESULT:    -4.126      1.236      1.942
REMARK INTER + INTRA:          -8.924
REMARK INTER:                  -7.755
REMARK INTRA:                  -1.169
REMARK UNBOUND:                -1.180
REMARK SMILES CCCCCCCCC=CCCCCCCCC(=O)[O-]
REMARK SMILES IDX 10 1 9 2 11 3 12 4 13 5 14 6 15 7 16 8 17 9 18 10 19 11
REMARK SMILES IDX 20 12 8 13 7 14 6 15 5 16 4 17 3 18 2 19 1 20
REMARK H PARENT
REMARK Flexibility Score: inf
ROOT
ATOM      1  C   UNL     1      57.953  26.095  28.831  1.00  0.00    -0.031 C 
ATOM      2  C   UNL     1      56.942  25.759  28.015  1.00  0.00    -0.031 C 
ENDROOT
BRANCH   1   3
ATOM      3  C   UNL     1      58.649  27.424  28.714  1.00  0.00     0.027 C 
BRANCH   3   4
ATOM      4  C   UNL     1      57.975  28.331  27.672  1.00  0.00     0.004 C 
BRANCH   4   5
ATOM      5  C   UNL     1      58.183  29.839  27.909  1.00  0.00     0.000 C 
BRANCH   5   6
ATOM      6  C   UNL     1      59.427  30.388  27.190  1.00  0.00     0.000 C 
BRANCH   6   7
ATOM      7  C   UNL     1      60.294  31.283  28.093  1.00  0.00     0.000 C 
BRANCH   7   8
ATOM      8  C   UNL     1      61.640  30.675  28.532  1.00  0.00     0.006 C 
BRANCH   8   9
ATOM      9  C   UNL     1      62.332  29.830  27.446  1.00  0.00     0.053 C 
BRANCH   9  10
ATOM     10  C   UNL     1      62.972  28.593  28.003  1.00  0.00     0.041 C 
ATOM     11  O   UNL     1      62.263  27.701  28.538  1.00  0.00    -0.550 OA
ATOM     12  O   UNL     1      64.352  28.443  27.971  1.00  0.00    -0.550 OA
ENDBRANCH   9  10
ENDBRANCH   8   9
ENDBRANCH   7   8
ENDBRANCH   6   7
ENDBRANCH   5   6
ENDBRANCH   4   5
ENDBRANCH   3   4
ENDBRANCH   1   3
BRANCH   2  13
ATOM     13  C   UNL     1      56.271  24.415  28.104  1.00  0.00     0.027 C 
BRANCH  13  14
ATOM     14  C   UNL     1      55.777  23.975  26.722  1.00  0.00     0.004 C 
BRANCH  14  15
ATOM     15  C   UNL     1      54.260  23.752  26.723  1.00  0.00     0.000 C 
BRANCH  15  16
ATOM     16  C   UNL     1      53.629  24.276  28.022  1.00  0.00     0.000 C 
BRANCH  16  17
ATOM     17  C   UNL     1      52.492  23.375  28.532  1.00  0.00    -0.000 C 
BRANCH  17  18
ATOM     18  C   UNL     1      52.772  21.881  28.298  1.00  0.00    -0.000 C 
BRANCH  18  19
ATOM     19  C   UNL     1      51.634  21.180  27.540  1.00  0.00    -0.003 C 
ATOM     20  C   UNL     1      51.996  20.870  26.088  1.00  0.00     0.004 C 
ENDBRANCH  18  19
ENDBRANCH  17  18
ENDBRANCH  16  17
ENDBRANCH  15  16
ENDBRANCH  14  15
ENDBRANCH  13  14
ENDBRANCH   2  13
TORSDOF 15
ENDMDL
MODEL 7
REMARK VINA RESULT:    -4.037      3.939     10.068
REMARK INTER + INTRA:          -8.756
REMARK INTER:                  -7.606
REMARK INTRA:                  -1.150
REMARK UNBOUND:                -1.180
REMARK SMILES CCCCCCCCC=CCCCCCCCC(=O)[O-]
REMARK SMILES IDX 10 1 9 2 11 3 12 4 13 5 14 6 15 7 16 8 17 9 18 10 19 11
REMARK SMILES IDX 20 12 8 13 7 14 6 15 5 16 4 17 3 18 2 19 1 20
REMARK H PARENT
REMARK Flexibility Score: inf
ROOT
ATOM      1  C   UNL     1      57.274  26.134  28.355  1.00  0.00    -0.031 C 
ATOM      2  C   UNL     1      58.273  26.952  28.724  1.00  0.00    -0.031 C 
ENDROOT
BRANCH   1   3
ATOM      3  C   UNL     1      57.440  24.639  28.361  1.00  0.00     0.027 C 
BRANCH   3   4
ATOM      4  C   UNL     1      56.083  23.916  28.366  1.00  0.00     0.004 C 
BRANCH   4   5
ATOM      5  C   UNL     1      54.939  24.714  29.021  1.00  0.00     0.000 C 
BRANCH   5   6
ATOM      6  C   UNL     1      53.621  23.924  29.080  1.00  0.00     0.000 C 
BRANCH   6   7
ATOM      7  C   UNL     1      53.839  22.401  29.125  1.00  0.00     0.000 C 
BRANCH   7   8
ATOM      8  C   UNL     1      52.668  21.548  28.596  1.00  0.00     0.006 C 
BRANCH   8   9
ATOM      9  C   UNL     1      52.128  22.003  27.228  1.00  0.00     0.053 C 
BRANCH   9  10
ATOM     10  C   UNL     1      53.070  21.686  26.104  1.00  0.00     0.041 C 
ATOM     11  O   UNL     1      53.078  20.537  25.592  1.00  0.00    -0.550 OA
ATOM     12  O   UNL     1      53.970  22.643  25.653  1.00  0.00    -0.550 OA
ENDBRANCH   9  10
ENDBRANCH   8   9
ENDBRANCH   7   8
ENDBRANCH   6   7
ENDBRANCH   5   6
ENDBRANCH   4   5
ENDBRANCH   3   4
ENDBRANCH   1   3
BRANCH   2  13
ATOM     13  C   UNL     1      58.122  28.449  28.681  1.00  0.00     0.027 C 
BRANCH  13  14
ATOM     14  C   UNL     1      57.910  28.920  27.239  1.00  0.00     0.004 C 
BRANCH  14  15
ATOM     15  C   UNL     1      58.856  30.076  26.891  1.00  0.00     0.000 C 
BRANCH  15  16
ATOM     16  C   UNL     1      59.019  31.030  28.084  1.00  0.00     0.000 C 
BRANCH  16  17
ATOM     17  C   UNL     1      60.493  31.318  28.414  1.00  0.00    -0.000 C 
BRANCH  17  18
ATOM     18  C   UNL     1      61.463  30.550  27.500  1.00  0.00    -0.000 C 
BRANCH  18  19
ATOM     19  C   UNL     1      62.611  31.432  26.987  1.00  0.00    -0.003 C 
ATOM     20  C   UNL     1      63.732  31.597  28.013  1.00  0.00     0.004 C 
ENDBRANCH  18  19
ENDBRANCH  17  18
ENDBRANCH  16  17
ENDBRANCH  15  16
ENDBRANCH  14  15
ENDBRANCH  13  14
ENDBRANCH   2  13
TORSDOF 15
ENDMDL
MODEL 8
REMARK VINA RESULT:    -4.007      4.431     10.139
REMARK INTER + INTRA:          -8.700
REMARK INTER:                  -7.561
REMARK INTRA:                  -1.139
REMARK UNBOUND:                -1.180
REMARK SMILES CCCCCCCCC=CCCCCCCCC(=O)[O-]
REMARK SMILES IDX 10 1 9 2 11 3 12 4 13 5 14 6 15 7 16 8 17 9 18 10 19 11
REMARK SMILES IDX 20 12 8 13 7 14 6 15 5 16 4 17 3 18 2 19 1 20
REMARK H PARENT
REMARK Flexibility Score: inf
ROOT
ATOM      1  C   UNL     1      58.091  27.923  28.546  1.00  0.00    -0.031 C 
ATOM      2  C   UNL     1      57.848  28.599  27.412  1.00  0.00    -0.031 C 
ENDROOT
BRANCH   1   3
ATOM      3  C   UNL     1      57.183  26.817  29.012  1.00  0.00     0.027 C 
BRANCH   3   4
ATOM      4  C   UNL     1      57.509  25.484  28.320  1.00  0.00     0.004 C 
BRANCH   4   5
ATOM      5  C   UNL     1      57.106  24.233  29.125  1.00  0.00     0.000 C 
BRANCH   5   6
ATOM      6  C   UNL     1      55.845  23.550  28.571  1.00  0.00     0.000 C 
BRANCH   6   7
ATOM      7  C   UNL     1      55.635  23.812  27.068  1.00  0.00     0.000 C 
BRANCH   7   8
ATOM      8  C   UNL     1      54.224  23.496  26.532  1.00  0.00     0.006 C 
BRANCH   8   9
ATOM      9  C   UNL     1      53.479  22.408  27.326  1.00  0.00     0.053 C 
BRANCH   9  10
ATOM     10  C   UNL     1      52.746  21.448  26.436  1.00  0.00     0.041 C 
ATOM     11  O   UNL     1      51.546  21.154  26.678  1.00  0.00    -0.550 OA
ATOM     12  O   UNL     1      53.398  20.844  25.369  1.00  0.00    -0.550 OA
ENDBRANCH   9  10
ENDBRANCH   8   9
ENDBRANCH   7   8
ENDBRANCH   6   7
ENDBRANCH   5   6
ENDBRANCH   4   5
ENDBRANCH   3   4
ENDBRANCH   1   3
BRANCH   2  13
ATOM     13  C   UNL     1      58.732  29.732  26.965  1.00  0.00     0.027 C 
BRANCH  13  14
ATOM     14  C   UNL     1      58.204  31.064  27.509  1.00  0.00     0.004 C 
BRANCH  14  15
ATOM     15  C   UNL     1      58.993  31.505  28.748  1.00  0.00     0.000 C 
BRANCH  15  16
ATOM     16  C   UNL     1      60.339  30.770  28.833  1.00  0.00     0.000 C 
BRANCH  16  17
ATOM     17  C   UNL     1      61.540  31.717  28.680  1.00  0.00    -0.000 C 
BRANCH  17  18
ATOM     18  C   UNL     1      62.399  31.387  27.448  1.00  0.00    -0.000 C 
BRANCH  18  19
ATOM     19  C   UNL     1      62.570  29.875  27.238  1.00  0.00    -0.003 C 
ATOM     20  C   UNL     1      63.708  29.289  28.074  1.00  0.00     0.004 C 
ENDBRANCH  18  19
ENDBRANCH  17  18
ENDBRANCH  16  17
ENDBRANCH  15  16
ENDBRANCH  14  15
ENDBRANCH  13  14
ENDBRANCH   2  13
TORSDOF 15
ENDMDL
MODEL 9
REMARK VINA RESULT:    -3.390      1.003      2.059
REMARK INTER + INTRA:          -7.542
REMARK INTER:                  -6.493
REMARK INTRA:                  -1.049
REMARK UNBOUND:                -1.180
REMARK SMILES CCCCCCCCC=CCCCCCCCC(=O)[O-]
REMARK SMILES IDX 10 1 9 2 11 3 12 4 13 5 14 6 15 7 16 8 17 9 18 10 19 11
REMARK SMILES IDX 20 12 8 13 7 14 6 15 5 16 4 17 3 18 2 19 1 20
REMARK H PARENT
REMARK Flexibility Score: inf
ROOT
ATOM      1  C   UNL     1      56.720  24.418  28.130  1.00  0.00    -0.031 C 
ATOM      2  C   UNL     1      56.271  24.246  26.877  1.00  0.00    -0.031 C 
ENDROOT
BRANCH   1   3
ATOM      3  C   UNL     1      58.028  25.107  28.410  1.00  0.00     0.027 C 
BRANCH   3   4
ATOM      4  C   UNL     1      57.818  26.492  29.041  1.00  0.00     0.004 C 
BRANCH   4   5
ATOM      5  C   UNL     1      57.897  27.665  28.045  1.00  0.00     0.000 C 
BRANCH   5   6
ATOM      6  C   UNL     1      58.663  28.874  28.609  1.00  0.00     0.000 C 
BRANCH   6   7
ATOM      7  C   UNL     1      58.807  30.019  27.590  1.00  0.00     0.000 C 
BRANCH   7   8
ATOM      8  C   UNL     1      60.240  30.281  27.087  1.00  0.00     0.006 C 
BRANCH   8   9
ATOM      9  C   UNL     1      61.341  29.871  28.083  1.00  0.00     0.053 C 
BRANCH   9  10
ATOM     10  C   UNL     1      62.711  29.915  27.474  1.00  0.00     0.041 C 
ATOM     11  O   UNL     1      63.247  31.021  27.203  1.00  0.00    -0.550 OA
ATOM     12  O   UNL     1      63.378  28.737  27.163  1.00  0.00    -0.550 OA
ENDBRANCH   9  10
ENDBRANCH   8   9
ENDBRANCH   7   8
ENDBRANCH   6   7
ENDBRANCH   5   6
ENDBRANCH   4   5
ENDBRANCH   3   4
ENDBRANCH   1   3
BRANCH   2  13
ATOM     13  C   UNL     1      54.983  23.522  26.593  1.00  0.00     0.027 C 
BRANCH  13  14
ATOM     14  C   UNL     1      53.929  23.879  27.647  1.00  0.00     0.004 C 
BRANCH  14  15
ATOM     15  C   UNL     1      53.667  22.697  28.587  1.00  0.00     0.000 C 
BRANCH  15  16
ATOM     16  C   UNL     1      52.228  22.732  29.125  1.00  0.00     0.000 C 
BRANCH  16  17
ATOM     17  C   UNL     1      51.245  21.958  28.233  1.00  0.00    -0.000 C 
BRANCH  17  18
ATOM     18  C   UNL     1      51.823  20.622  27.736  1.00  0.00    -0.000 C 
BRANCH  18  19
ATOM     19  C   UNL     1      51.670  20.442  26.218  1.00  0.00    -0.003 C 
ATOM     20  C   UNL     1      52.932  20.830  25.449  1.00  0.00     0.004 C 
ENDBRANCH  18  19
ENDBRANCH  17  18
ENDBRANCH  16  17
ENDBRANCH  15  16
ENDBRANCH  14  15
ENDBRANCH  13  14
ENDBRANCH   2  13
TORSDOF 15
ENDMDL
