MODEL 1
REMARK VINA RESULT:    -2.912      0.000      0.000
REMARK INTER + INTRA:          -4.699
REMARK INTER:                  -4.104
REMARK INTRA:                  -0.595
REMARK UNBOUND:                -0.595
REMARK SMILES CCCCCCCCC(=O)[O-]
REMARK SMILES IDX 6 1 7 2 8 3 9 4 10 5 11 6 5 7 4 8 3 9 2 10 1 11
REMARK H PARENT
REMARK Flexibility Score: inf
ROOT
ATOM      1  C   UNL     1      33.415  38.523   1.630  1.00  0.00     0.000 C 
ENDROOT
BRANCH   1   2
ATOM      2  C   UNL     1      33.312  37.281   2.528  1.00  0.00     0.006 C 
BRANCH   2   3
ATOM      3  C   UNL     1      33.908  36.028   1.875  1.00  0.00     0.053 C 
BRANCH   3   4
ATOM      4  C   UNL     1      32.855  34.977   1.703  1.00  0.00     0.041 C 
ATOM      5  O   UNL     1      31.656  35.309   1.516  1.00  0.00    -0.550 OA
ATOM      6  O   UNL     1      33.207  33.634   1.701  1.00  0.00    -0.550 OA
ENDBRANCH   3   4
ENDBRANCH   2   3
ENDBRANCH   1   2
BRANCH   1   7
ATOM      7  C   UNL     1      34.046  38.214   0.263  1.00  0.00     0.000 C 
BRANCH   7   8
ATOM      8  C   UNL     1      33.245  38.866  -0.871  1.00  0.00    -0.000 C 
BRANCH   8   9
ATOM      9  C   UNL     1      33.251  37.985  -2.125  1.00  0.00    -0.000 C 
BRANCH   9  10
ATOM     10  C   UNL     1      33.182  36.500  -1.755  1.00  0.00    -0.003 C 
ATOM     11  C   UNL     1      32.120  35.775  -2.578  1.00  0.00     0.004 C 
ENDBRANCH   9  10
ENDBRANCH   8   9
ENDBRANCH   7   8
ENDBRANCH   1   7
TORSDOF 7
ENDMDL
MODEL 2
REMARK VINA RESULT:    -2.865      2.715      5.175
REMARK INTER + INTRA:          -4.633
REMARK INTER:                  -4.334
REMARK INTRA:                  -0.299
REMARK UNBOUND:                -0.595
REMARK SMILES CCCCCCCCC(=O)[O-]
REMARK SMILES IDX 6 1 7 2 8 3 9 4 10 5 11 6 5 7 4 8 3 9 2 10 1 11
REMARK H PARENT
REMARK Flexibility Score: inf
ROOT
ATOM      1  C   UNL     1      33.378  36.745   1.707  1.00  0.00     0.000 C 
ENDROOT
BRANCH   1   2
ATOM      2  C   UNL     1      33.508  36.932   0.188  1.00  0.00     0.006 C 
BRANCH   2   3
ATOM      3  C   UNL     1      32.853  35.795  -0.606  1.00  0.00     0.053 C 
BRANCH   3   4
ATOM      4  C   UNL     1      32.606  36.219  -2.020  1.00  0.00     0.041 C 
ATOM      5  O   UNL     1      33.035  37.328  -2.432  1.00  0.00    -0.550 OA
ATOM      6  O   UNL     1      31.945  35.369  -2.896  1.00  0.00    -0.550 OA
ENDBRANCH   3   4
ENDBRANCH   2   3
ENDBRANCH   1   2
BRANCH   1   7
ATOM      7  C   UNL     1      34.692  36.292   2.363  1.00  0.00     0.000 C 
BRANCH   7   8
ATOM      8  C   UNL     1      35.035  37.173   3.570  1.00  0.00    -0.000 C 
BRANCH   8   9
ATOM      9  C   UNL     1      33.885  38.131   3.898  1.00  0.00    -0.000 C 
BRANCH   9  10
ATOM     10  C   UNL     1      34.109  38.819   5.249  1.00  0.00    -0.003 C 
ATOM     11  C   UNL     1      34.974  37.959   6.168  1.00  0.00     0.004 C 
ENDBRANCH   9  10
ENDBRANCH   8   9
ENDBRANCH   7   8
ENDBRANCH   1   7
TORSDOF 7
ENDMDL
MODEL 3
REMARK VINA RESULT:    -2.850      4.930      5.903
REMARK INTER + INTRA:          -4.611
REMARK INTER:                  -4.448
REMARK INTRA:                  -0.163
REMARK UNBOUND:                -0.595
REMARK SMILES CCCCCCCCC(=O)[O-]
REMARK SMILES IDX 6 1 7 2 8 3 9 4 10 5 11 6 5 7 4 8 3 9 2 10 1 11
REMARK H PARENT
REMARK Flexibility Score: inf
ROOT
ATOM      1  C   UNL     1      35.006  37.842   5.426  1.00  0.00     0.000 C 
ENDROOT
BRANCH   1   2
ATOM      2  C   UNL     1      34.115  38.599   6.423  1.00  0.00     0.006 C 
BRANCH   2   3
ATOM      3  C   UNL     1      34.756  38.723   7.812  1.00  0.00     0.053 C 
BRANCH   3   4
ATOM      4  C   UNL     1      33.702  38.727   8.875  1.00  0.00     0.041 C 
ATOM      5  O   UNL     1      32.484  38.708   8.558  1.00  0.00    -0.550 OA
ATOM      6  O   UNL     1      34.066  38.702  10.214  1.00  0.00    -0.550 OA
ENDBRANCH   3   4
ENDBRANCH   2   3
ENDBRANCH   1   2
BRANCH   1   7
ATOM      7  C   UNL     1      34.870  38.372   3.990  1.00  0.00     0.000 C 
BRANCH   7   8
ATOM      8  C   UNL     1      33.722  37.672   3.253  1.00  0.00    -0.000 C 
BRANCH   8   9
ATOM      9  C   UNL     1      34.255  36.607   2.288  1.00  0.00    -0.000 C 
BRANCH   9  10
ATOM     10  C   UNL     1      33.331  36.453   1.075  1.00  0.00    -0.003 C 
ATOM     11  C   UNL     1      32.523  35.161   1.157  1.00  0.00     0.004 C 
ENDBRANCH   9  10
ENDBRANCH   8   9
ENDBRANCH   7   8
ENDBRANCH   1   7
TORSDOF 7
ENDMDL
MODEL 4
REMARK VINA RESULT:    -2.785      2.147      4.635
REMARK INTER + INTRA:          -4.521
REMARK INTER:                  -4.130
REMARK INTRA:                  -0.391
REMARK UNBOUND:                -0.595
REMARK SMILES CCCCCCCCC(=O)[O-]
REMARK SMILES IDX 6 1 7 2 8 3 9 4 10 5 11 6 5 7 4 8 3 9 2 10 1 11
REMARK H PARENT
REMARK Flexibility Score: inf
ROOT
ATOM      1  C   UNL     1      34.701  38.340  -0.646  1.00  0.00     0.000 C 
ENDROOT
BRANCH   1   2
ATOM      2  C   UNL     1      33.219  38.162  -1.010  1.00  0.00     0.006 C 
BRANCH   2   3
ATOM      3  C   UNL     1      33.022  37.496  -2.378  1.00  0.00     0.053 C 
BRANCH   3   4
ATOM      4  C   UNL     1      32.454  36.122  -2.213  1.00  0.00     0.041 C 
ATOM      5  O   UNL     1      32.599  35.503  -1.127  1.00  0.00    -0.550 OA
ATOM      6  O   UNL     1      31.721  35.545  -3.241  1.00  0.00    -0.550 OA
ENDBRANCH   3   4
ENDBRANCH   2   3
ENDBRANCH   1   2
BRANCH   1   7
ATOM      7  C   UNL     1      35.017  37.887   0.788  1.00  0.00     0.000 C 
BRANCH   7   8
ATOM      8  C   UNL     1      33.785  37.256   1.449  1.00  0.00    -0.000 C 
BRANCH   8   9
ATOM      9  C   UNL     1      33.724  37.601   2.941  1.00  0.00    -0.000 C 
BRANCH   9  10
ATOM     10  C   UNL     1      35.124  37.873   3.501  1.00  0.00    -0.003 C 
ATOM     11  C   UNL     1      35.121  37.855   5.027  1.00  0.00     0.004 C 
ENDBRANCH   9  10
ENDBRANCH   8   9
ENDBRANCH   7   8
ENDBRANCH   1   7
TORSDOF 7
ENDMDL
MODEL 5
REMARK VINA RESULT:    -2.651      3.302      5.991
REMARK INTER + INTRA:          -4.331
REMARK INTER:                  -4.136
REMARK INTRA:                  -0.195
REMARK UNBOUND:                -0.595
REMARK SMILES CCCCCCCCC(=O)[O-]
REMARK SMILES IDX 6 1 7 2 8 3 9 4 10 5 11 6 5 7 4 8 3 9 2 10 1 11
REMARK H PARENT
REMARK Flexibility Score: inf
ROOT
ATOM      1  C   UNL     1      33.583  38.176   3.154  1.00  0.00     0.000 C 
ENDROOT
BRANCH   1   2
ATOM      2  C   UNL     1      34.293  37.693   1.880  1.00  0.00     0.006 C 
BRANCH   2   3
ATOM      3  C   UNL     1      33.355  36.934   0.933  1.00  0.00     0.053 C 
BRANCH   3   4
ATOM      4  C   UNL     1      33.086  35.558   1.456  1.00  0.00     0.041 C 
ATOM      5  O   UNL     1      34.025  34.867   1.931  1.00  0.00    -0.550 OA
ATOM      6  O   UNL     1      31.791  35.059   1.465  1.00  0.00    -0.550 OA
ENDBRANCH   3   4
ENDBRANCH   2   3
ENDBRANCH   1   2
BRANCH   1   7
ATOM      7  C   UNL     1      34.562  38.713   4.210  1.00  0.00     0.000 C 
BRANCH   7   8
ATOM      8  C   UNL     1      34.311  38.059   5.574  1.00  0.00    -0.000 C 
BRANCH   8   9
ATOM      9  C   UNL     1      33.508  38.988   6.491  1.00  0.00    -0.000 C 
BRANCH   9  10
ATOM     10  C   UNL     1      34.032  38.928   7.931  1.00  0.00    -0.003 C 
ATOM     11  C   UNL     1      32.884  38.931   8.936  1.00  0.00     0.004 C 
ENDBRANCH   9  10
ENDBRANCH   8   9
ENDBRANCH   7   8
ENDBRANCH   1   7
TORSDOF 7
ENDMDL
MODEL 6
REMARK VINA RESULT:    -2.450      1.884      3.895
REMARK INTER + INTRA:          -4.049
REMARK INTER:                  -3.711
REMARK INTRA:                  -0.337
REMARK UNBOUND:                -0.595
REMARK SMILES CCCCCCCCC(=O)[O-]
REMARK SMILES IDX 6 1 7 2 8 3 9 4 10 5 11 6 5 7 4 8 3 9 2 10 1 11
REMARK H PARENT
REMARK Flexibility Score: inf
ROOT
ATOM      1  C   UNL     1      32.932  39.125  -0.359  1.00  0.00     0.000 C 
ENDROOT
BRANCH   1   2
ATOM      2  C   UNL     1      33.744  38.632  -1.567  1.00  0.00     0.006 C 
BRANCH   2   3
ATOM      3  C   UNL     1      32.878  37.908  -2.606  1.00  0.00     0.053 C 
BRANCH   3   4
ATOM      4  C   UNL     1      32.793  36.448  -2.289  1.00  0.00     0.041 C 
ATOM      5  O   UNL     1      33.600  35.929  -1.474  1.00  0.00    -0.550 OA
ATOM      6  O   UNL     1      31.792  35.671  -2.855  1.00  0.00    -0.550 OA
ENDBRANCH   3   4
ENDBRANCH   2   3
ENDBRANCH   1   2
BRANCH   1   7
ATOM      7  C   UNL     1      33.745  39.115   0.945  1.00  0.00     0.000 C 
BRANCH   7   8
ATOM      8  C   UNL     1      34.306  37.717   1.232  1.00  0.00    -0.000 C 
BRANCH   8   9
ATOM      9  C   UNL     1      33.598  37.074   2.429  1.00  0.00    -0.000 C 
BRANCH   9  10
ATOM     10  C   UNL     1      32.272  36.433   2.004  1.00  0.00    -0.003 C 
ATOM     11  C   UNL     1      32.503  35.087   1.323  1.00  0.00     0.004 C 
ENDBRANCH   9  10
ENDBRANCH   8   9
ENDBRANCH   7   8
ENDBRANCH   1   7
TORSDOF 7
ENDMDL
MODEL 7
REMARK VINA RESULT:    -2.448      1.508      2.075
REMARK INTER + INTRA:          -4.045
REMARK INTER:                  -3.703
REMARK INTRA:                  -0.341
REMARK UNBOUND:                -0.595
REMARK SMILES CCCCCCCCC(=O)[O-]
REMARK SMILES IDX 6 1 7 2 8 3 9 4 10 5 11 6 5 7 4 8 3 9 2 10 1 11
REMARK H PARENT
REMARK Flexibility Score: inf
ROOT
ATOM      1  C   UNL     1      34.644  38.633   0.767  1.00  0.00     0.000 C 
ENDROOT
BRANCH   1   2
ATOM      2  C   UNL     1      35.125  37.240   1.204  1.00  0.00     0.006 C 
BRANCH   2   3
ATOM      3  C   UNL     1      34.221  36.611   2.272  1.00  0.00     0.053 C 
BRANCH   3   4
ATOM      4  C   UNL     1      32.887  36.265   1.688  1.00  0.00     0.041 C 
ATOM      5  O   UNL     1      32.808  35.461   0.723  1.00  0.00    -0.550 OA
ATOM      6  O   UNL     1      31.728  36.791   2.243  1.00  0.00    -0.550 OA
ENDBRANCH   3   4
ENDBRANCH   2   3
ENDBRANCH   1   2
BRANCH   1   7
ATOM      7  C   UNL     1      34.812  38.870  -0.742  1.00  0.00     0.000 C 
BRANCH   7   8
ATOM      8  C   UNL     1      33.453  39.078  -1.420  1.00  0.00    -0.000 C 
BRANCH   8   9
ATOM      9  C   UNL     1      33.225  38.044  -2.528  1.00  0.00    -0.000 C 
BRANCH   9  10
ATOM     10  C   UNL     1      33.632  38.604  -3.895  1.00  0.00    -0.003 C 
ATOM     11  C   UNL     1      32.707  38.094  -4.997  1.00  0.00     0.004 C 
ENDBRANCH   9  10
ENDBRANCH   8   9
ENDBRANCH   7   8
ENDBRANCH   1   7
TORSDOF 7
ENDMDL
MODEL 8
REMARK VINA RESULT:    -2.422      2.490      3.122
REMARK INTER + INTRA:          -4.008
REMARK INTER:                  -3.436
REMARK INTRA:                  -0.572
REMARK UNBOUND:                -0.595
REMARK SMILES CCCCCCCCC(=O)[O-]
REMARK SMILES IDX 6 1 7 2 8 3 9 4 10 5 11 6 5 7 4 8 3 9 2 10 1 11
REMARK H PARENT
REMARK Flexibility Score: inf
ROOT
ATOM      1  C   UNL     1      33.667  36.654   0.495  1.00  0.00     0.000 C 
ENDROOT
BRANCH   1   2
ATOM      2  C   UNL     1      33.308  36.516   1.983  1.00  0.00     0.006 C 
BRANCH   2   3
ATOM      3  C   UNL     1      33.126  37.873   2.675  1.00  0.00     0.053 C 
BRANCH   3   4
ATOM      4  C   UNL     1      33.892  37.912   3.959  1.00  0.00     0.041 C 
ATOM      5  O   UNL     1      35.006  37.332   4.049  1.00  0.00    -0.550 OA
ATOM      6  O   UNL     1      33.401  38.630   5.041  1.00  0.00    -0.550 OA
ENDBRANCH   3   4
ENDBRANCH   2   3
ENDBRANCH   1   2
BRANCH   1   7
ATOM      7  C   UNL     1      34.896  37.546   0.262  1.00  0.00     0.000 C 
BRANCH   7   8
ATOM      8  C   UNL     1      34.678  38.481  -0.933  1.00  0.00    -0.000 C 
BRANCH   8   9
ATOM      9  C   UNL     1      33.288  39.125  -0.882  1.00  0.00    -0.000 C 
BRANCH   9  10
ATOM     10  C   UNL     1      32.623  39.109  -2.263  1.00  0.00    -0.003 C 
ATOM     11  C   UNL     1      33.579  38.580  -3.329  1.00  0.00     0.004 C 
ENDBRANCH   9  10
ENDBRANCH   8   9
ENDBRANCH   7   8
ENDBRANCH   1   7
TORSDOF 7
ENDMDL
