MODEL 1
REMARK VINA RESULT:    -2.931      0.000      0.000
REMARK INTER + INTRA:          -4.779
REMARK INTER:                  -4.130
REMARK INTRA:                  -0.649
REMARK UNBOUND:                -0.649
REMARK SMILES CCCCCCCCC(=O)[O-]
REMARK SMILES IDX 6 1 7 2 8 3 9 4 10 5 11 6 5 7 4 8 3 9 2 10 1 11
REMARK H PARENT
REMARK Flexibility Score: inf
ROOT
ATOM      1  C   UNL     1    -101.145 -28.369 -12.689  1.00  0.00     0.000 C 
ENDROOT
BRANCH   1   2
ATOM      2  C   UNL     1     -99.722 -28.231 -13.261  1.00  0.00     0.006 C 
BRANCH   2   3
ATOM      3  C   UNL     1     -98.958 -29.560 -13.382  1.00  0.00     0.053 C 
BRANCH   3   4
ATOM      4  C   UNL     1     -97.896 -29.696 -12.334  1.00  0.00     0.041 C 
ATOM      5  O   UNL     1     -96.681 -29.712 -12.661  1.00  0.00    -0.550 OA
ATOM      6  O   UNL     1     -98.249 -29.770 -10.992  1.00  0.00    -0.550 OA
ENDBRANCH   3   4
ENDBRANCH   2   3
ENDBRANCH   1   2
BRANCH   1   7
ATOM      7  C   UNL     1    -102.232 -27.934 -13.683  1.00  0.00     0.000 C 
BRANCH   7   8
ATOM      8  C   UNL     1    -101.606 -27.389 -14.975  1.00  0.00    -0.000 C 
BRANCH   8   9
ATOM      9  C   UNL     1    -102.284 -27.931 -16.246  1.00  0.00    -0.000 C 
BRANCH   9  10
ATOM     10  C   UNL     1    -102.367 -29.466 -16.329  1.00  0.00    -0.003 C 
ATOM     11  C   UNL     1    -100.996 -30.140 -16.335  1.00  0.00     0.004 C 
ENDBRANCH   9  10
ENDBRANCH   8   9
ENDBRANCH   7   8
ENDBRANCH   1   7
TORSDOF 7
ENDMDL
MODEL 2
REMARK VINA RESULT:    -2.907      5.513      7.138
REMARK INTER + INTRA:          -4.745
REMARK INTER:                  -4.084
REMARK INTRA:                  -0.661
REMARK UNBOUND:                -0.649
REMARK SMILES CCCCCCCCC(=O)[O-]
REMARK SMILES IDX 6 1 7 2 8 3 9 4 10 5 11 6 5 7 4 8 3 9 2 10 1 11
REMARK H PARENT
REMARK Flexibility Score: inf
ROOT
ATOM      1  C   UNL     1    -103.416 -26.030 -16.755  1.00  0.00     0.000 C 
ENDROOT
BRANCH   1   2
ATOM      2  C   UNL     1    -104.672 -25.555 -16.001  1.00  0.00     0.006 C 
BRANCH   2   3
ATOM      3  C   UNL     1    -104.466 -24.275 -15.174  1.00  0.00     0.053 C 
BRANCH   3   4
ATOM      4  C   UNL     1    -105.353 -23.159 -15.634  1.00  0.00     0.041 C 
ATOM      5  O   UNL     1    -104.918 -21.979 -15.672  1.00  0.00    -0.550 OA
ATOM      6  O   UNL     1    -106.649 -23.430 -16.056  1.00  0.00    -0.550 OA
ENDBRANCH   3   4
ENDBRANCH   2   3
ENDBRANCH   1   2
BRANCH   1   7
ATOM      7  C   UNL     1    -103.246 -27.557 -16.728  1.00  0.00     0.000 C 
BRANCH   7   8
ATOM      8  C   UNL     1    -101.859 -27.945 -16.197  1.00  0.00    -0.000 C 
BRANCH   8   9
ATOM      9  C   UNL     1    -101.586 -27.409 -14.781  1.00  0.00    -0.000 C 
BRANCH   9  10
ATOM     10  C   UNL     1    -102.395 -28.094 -13.664  1.00  0.00    -0.003 C 
ATOM     11  C   UNL     1    -103.315 -27.130 -12.916  1.00  0.00     0.004 C 
ENDBRANCH   9  10
ENDBRANCH   8   9
ENDBRANCH   7   8
ENDBRANCH   1   7
TORSDOF 7
ENDMDL
MODEL 3
REMARK VINA RESULT:    -2.901      4.016      5.832
REMARK INTER + INTRA:          -4.737
REMARK INTER:                  -4.327
REMARK INTRA:                  -0.411
REMARK UNBOUND:                -0.649
REMARK SMILES CCCCCCCCC(=O)[O-]
REMARK SMILES IDX 6 1 7 2 8 3 9 4 10 5 11 6 5 7 4 8 3 9 2 10 1 11
REMARK H PARENT
REMARK Flexibility Score: inf
ROOT
ATOM      1  C   UNL     1    -101.875 -28.056 -16.374  1.00  0.00     0.000 C 
ENDROOT
BRANCH   1   2
ATOM      2  C   UNL     1    -103.319 -27.535 -16.499  1.00  0.00     0.006 C 
BRANCH   2   3
ATOM      3  C   UNL     1    -103.428 -26.012 -16.679  1.00  0.00     0.053 C 
BRANCH   3   4
ATOM      4  C   UNL     1    -104.099 -25.355 -15.513  1.00  0.00     0.041 C 
ATOM      5  O   UNL     1    -104.361 -26.018 -14.476  1.00  0.00    -0.550 OA
ATOM      6  O   UNL     1    -104.402 -23.999 -15.558  1.00  0.00    -0.550 OA
ENDBRANCH   3   4
ENDBRANCH   2   3
ENDBRANCH   1   2
BRANCH   1   7
ATOM      7  C   UNL     1    -101.666 -28.940 -15.135  1.00  0.00     0.000 C 
BRANCH   7   8
ATOM      8  C   UNL     1    -101.615 -28.089 -13.858  1.00  0.00    -0.000 C 
BRANCH   8   9
ATOM      9  C   UNL     1    -100.182 -27.859 -13.347  1.00  0.00    -0.000 C 
BRANCH   9  10
ATOM     10  C   UNL     1     -99.527 -29.084 -12.684  1.00  0.00    -0.003 C 
ATOM     11  C   UNL     1     -98.170 -29.438 -13.290  1.00  0.00     0.004 C 
ENDBRANCH   9  10
ENDBRANCH   8   9
ENDBRANCH   7   8
ENDBRANCH   1   7
TORSDOF 7
ENDMDL
MODEL 4
REMARK VINA RESULT:    -2.894      3.848      5.276
REMARK INTER + INTRA:          -4.727
REMARK INTER:                  -4.091
REMARK INTRA:                  -0.636
REMARK UNBOUND:                -0.649
REMARK SMILES CCCCCCCCC(=O)[O-]
REMARK SMILES IDX 6 1 7 2 8 3 9 4 10 5 11 6 5 7 4 8 3 9 2 10 1 11
REMARK H PARENT
REMARK Flexibility Score: inf
ROOT
ATOM      1  C   UNL     1    -102.168 -28.010 -13.696  1.00  0.00     0.000 C 
ENDROOT
BRANCH   1   2
ATOM      2  C   UNL     1    -101.617 -27.360 -14.979  1.00  0.00     0.006 C 
BRANCH   2   3
ATOM      3  C   UNL     1    -102.254 -27.885 -16.277  1.00  0.00     0.053 C 
BRANCH   3   4
ATOM      4  C   UNL     1    -103.480 -27.112 -16.654  1.00  0.00     0.041 C 
ATOM      5  O   UNL     1    -104.581 -27.704 -16.801  1.00  0.00    -0.550 OA
ATOM      6  O   UNL     1    -103.414 -25.733 -16.808  1.00  0.00    -0.550 OA
ENDBRANCH   3   4
ENDBRANCH   2   3
ENDBRANCH   1   2
BRANCH   1   7
ATOM      7  C   UNL     1    -101.118 -28.111 -12.580  1.00  0.00     0.000 C 
BRANCH   7   8
ATOM      8  C   UNL     1     -99.705 -28.245 -13.168  1.00  0.00    -0.000 C 
BRANCH   8   9
ATOM      9  C   UNL     1     -99.059 -29.609 -12.871  1.00  0.00    -0.000 C 
BRANCH   9  10
ATOM     10  C   UNL     1     -98.611 -30.397 -14.115  1.00  0.00    -0.003 C 
ATOM     11  C   UNL     1     -99.728 -30.582 -15.140  1.00  0.00     0.004 C 
ENDBRANCH   9  10
ENDBRANCH   8   9
ENDBRANCH   7   8
ENDBRANCH   1   7
TORSDOF 7
ENDMDL
MODEL 5
REMARK VINA RESULT:    -2.872      1.934      3.008
REMARK INTER + INTRA:          -4.696
REMARK INTER:                  -4.154
REMARK INTRA:                  -0.542
REMARK UNBOUND:                -0.649
REMARK SMILES CCCCCCCCC(=O)[O-]
REMARK SMILES IDX 6 1 7 2 8 3 9 4 10 5 11 6 5 7 4 8 3 9 2 10 1 11
REMARK H PARENT
REMARK Flexibility Score: inf
ROOT
ATOM      1  C   UNL     1    -101.707 -28.616 -14.989  1.00  0.00     0.000 C 
ENDROOT
BRANCH   1   2
ATOM      2  C   UNL     1    -100.978 -27.645 -14.042  1.00  0.00     0.006 C 
BRANCH   2   3
ATOM      3  C   UNL     1    -100.550 -28.270 -12.704  1.00  0.00     0.053 C 
BRANCH   3   4
ATOM      4  C   UNL     1     -99.518 -29.340 -12.887  1.00  0.00     0.041 C 
ATOM      5  O   UNL     1     -98.346 -29.038 -13.231  1.00  0.00    -0.550 OA
ATOM      6  O   UNL     1     -99.844 -30.669 -12.643  1.00  0.00    -0.550 OA
ENDBRANCH   3   4
ENDBRANCH   2   3
ENDBRANCH   1   2
BRANCH   1   7
ATOM      7  C   UNL     1    -101.963 -28.013 -16.379  1.00  0.00     0.000 C 
BRANCH   7   8
ATOM      8  C   UNL     1    -103.395 -27.470 -16.486  1.00  0.00    -0.000 C 
BRANCH   8   9
ATOM      9  C   UNL     1    -103.444 -25.957 -16.761  1.00  0.00    -0.000 C 
BRANCH   9  10
ATOM     10  C   UNL     1    -104.187 -25.130 -15.696  1.00  0.00    -0.003 C 
ATOM     11  C   UNL     1    -104.171 -25.782 -14.315  1.00  0.00     0.004 C 
ENDBRANCH   9  10
ENDBRANCH   8   9
ENDBRANCH   7   8
ENDBRANCH   1   7
TORSDOF 7
ENDMDL
MODEL 6
REMARK VINA RESULT:    -2.867      1.042      1.837
REMARK INTER + INTRA:          -4.689
REMARK INTER:                  -3.918
REMARK INTRA:                  -0.770
REMARK UNBOUND:                -0.649
REMARK SMILES CCCCCCCCC(=O)[O-]
REMARK SMILES IDX 6 1 7 2 8 3 9 4 10 5 11 6 5 7 4 8 3 9 2 10 1 11
REMARK H PARENT
REMARK Flexibility Score: inf
ROOT
ATOM      1  C   UNL     1    -102.550 -27.675 -14.022  1.00  0.00     0.000 C 
ENDROOT
BRANCH   1   2
ATOM      2  C   UNL     1    -101.536 -27.914 -12.887  1.00  0.00     0.006 C 
BRANCH   2   3
ATOM      3  C   UNL     1    -100.065 -27.848 -13.330  1.00  0.00     0.053 C 
BRANCH   3   4
ATOM      4  C   UNL     1     -99.309 -29.085 -12.955  1.00  0.00     0.041 C 
ATOM      5  O   UNL     1     -98.085 -29.187 -13.231  1.00  0.00    -0.550 OA
ATOM      6  O   UNL     1     -99.948 -30.111 -12.270  1.00  0.00    -0.550 OA
ENDBRANCH   3   4
ENDBRANCH   2   3
ENDBRANCH   1   2
BRANCH   1   7
ATOM      7  C   UNL     1    -101.879 -27.276 -15.345  1.00  0.00     0.000 C 
BRANCH   7   8
ATOM      8  C   UNL     1    -102.426 -28.114 -16.510  1.00  0.00    -0.000 C 
BRANCH   8   9
ATOM      9  C   UNL     1    -102.201 -29.624 -16.322  1.00  0.00    -0.000 C 
BRANCH   9  10
ATOM     10  C   UNL     1    -100.725 -30.050 -16.223  1.00  0.00    -0.003 C 
ATOM     11  C   UNL     1    -100.543 -31.437 -15.609  1.00  0.00     0.004 C 
ENDBRANCH   9  10
ENDBRANCH   8   9
ENDBRANCH   7   8
ENDBRANCH   1   7
TORSDOF 7
ENDMDL
MODEL 7
REMARK VINA RESULT:    -2.821      1.266      2.037
REMARK INTER + INTRA:          -4.624
REMARK INTER:                  -4.444
REMARK INTRA:                  -0.180
REMARK UNBOUND:                -0.649
REMARK SMILES CCCCCCCCC(=O)[O-]
REMARK SMILES IDX 6 1 7 2 8 3 9 4 10 5 11 6 5 7 4 8 3 9 2 10 1 11
REMARK H PARENT
REMARK Flexibility Score: inf
ROOT
ATOM      1  C   UNL     1    -100.061 -27.928 -13.354  1.00  0.00     0.000 C 
ENDROOT
BRANCH   1   2
ATOM      2  C   UNL     1     -99.041 -29.082 -13.370  1.00  0.00     0.006 C 
BRANCH   2   3
ATOM      3  C   UNL     1     -98.766 -29.700 -11.989  1.00  0.00     0.053 C 
BRANCH   3   4
ATOM      4  C   UNL     1     -97.300 -29.862 -11.727  1.00  0.00     0.041 C 
ATOM      5  O   UNL     1     -96.473 -29.761 -12.670  1.00  0.00    -0.550 OA
ATOM      6  O   UNL     1     -96.846 -30.088 -10.434  1.00  0.00    -0.550 OA
ENDBRANCH   3   4
ENDBRANCH   2   3
ENDBRANCH   1   2
BRANCH   1   7
ATOM      7  C   UNL     1    -101.429 -28.334 -13.924  1.00  0.00     0.000 C 
BRANCH   7   8
ATOM      8  C   UNL     1    -102.017 -27.210 -14.789  1.00  0.00    -0.000 C 
BRANCH   8   9
ATOM      9  C   UNL     1    -102.250 -27.636 -16.249  1.00  0.00    -0.000 C 
BRANCH   9  10
ATOM     10  C   UNL     1    -103.449 -26.959 -16.937  1.00  0.00    -0.003 C 
ATOM     11  C   UNL     1    -103.778 -25.588 -16.351  1.00  0.00     0.004 C 
ENDBRANCH   9  10
ENDBRANCH   8   9
ENDBRANCH   7   8
ENDBRANCH   1   7
TORSDOF 7
ENDMDL
MODEL 8
REMARK VINA RESULT:    -2.820      4.163      5.954
REMARK INTER + INTRA:          -4.623
REMARK INTER:                  -4.031
REMARK INTRA:                  -0.592
REMARK UNBOUND:                -0.649
REMARK SMILES CCCCCCCCC(=O)[O-]
REMARK SMILES IDX 6 1 7 2 8 3 9 4 10 5 11 6 5 7 4 8 3 9 2 10 1 11
REMARK H PARENT
REMARK Flexibility Score: inf
ROOT
ATOM      1  C   UNL     1    -101.747 -27.937 -16.173  1.00  0.00     0.000 C 
ENDROOT
BRANCH   1   2
ATOM      2  C   UNL     1    -103.214 -27.570 -16.461  1.00  0.00     0.006 C 
BRANCH   2   3
ATOM      3  C   UNL     1    -103.447 -26.078 -16.753  1.00  0.00     0.053 C 
BRANCH   3   4
ATOM      4  C   UNL     1    -104.316 -25.431 -15.719  1.00  0.00     0.041 C 
ATOM      5  O   UNL     1    -104.303 -24.181 -15.574  1.00  0.00    -0.550 OA
ATOM      6  O   UNL     1    -105.166 -26.206 -14.941  1.00  0.00    -0.550 OA
ENDBRANCH   3   4
ENDBRANCH   2   3
ENDBRANCH   1   2
BRANCH   1   7
ATOM      7  C   UNL     1    -101.591 -29.339 -15.565  1.00  0.00     0.000 C 
BRANCH   7   8
ATOM      8  C   UNL     1    -100.730 -29.292 -14.294  1.00  0.00    -0.000 C 
BRANCH   8   9
ATOM      9  C   UNL     1    -100.709 -27.902 -13.634  1.00  0.00    -0.000 C 
BRANCH   9  10
ATOM     10  C   UNL     1    -101.463 -27.811 -12.295  1.00  0.00    -0.003 C 
ATOM     11  C   UNL     1    -102.900 -27.318 -12.450  1.00  0.00     0.004 C 
ENDBRANCH   9  10
ENDBRANCH   8   9
ENDBRANCH   7   8
ENDBRANCH   1   7
TORSDOF 7
ENDMDL
MODEL 9
REMARK VINA RESULT:    -2.797      3.484      5.015
REMARK INTER + INTRA:          -4.590
REMARK INTER:                  -3.988
REMARK INTRA:                  -0.602
REMARK UNBOUND:                -0.649
REMARK SMILES CCCCCCCCC(=O)[O-]
REMARK SMILES IDX 6 1 7 2 8 3 9 4 10 5 11 6 5 7 4 8 3 9 2 10 1 11
REMARK H PARENT
REMARK Flexibility Score: inf
ROOT
ATOM      1  C   UNL     1    -103.427 -26.123 -16.792  1.00  0.00     0.000 C 
ENDROOT
BRANCH   1   2
ATOM      2  C   UNL     1    -102.605 -27.308 -16.250  1.00  0.00     0.006 C 
BRANCH   2   3
ATOM      3  C   UNL     1    -102.239 -27.194 -14.761  1.00  0.00     0.053 C 
BRANCH   3   4
ATOM      4  C   UNL     1    -101.069 -28.057 -14.402  1.00  0.00     0.041 C 
ATOM      5  O   UNL     1    -100.910 -29.174 -14.960  1.00  0.00    -0.550 OA
ATOM      6  O   UNL     1    -100.134 -27.610 -13.476  1.00  0.00    -0.550 OA
ENDBRANCH   3   4
ENDBRANCH   2   3
ENDBRANCH   1   2
BRANCH   1   7
ATOM      7  C   UNL     1    -104.934 -26.276 -16.536  1.00  0.00     0.000 C 
BRANCH   7   8
ATOM      8  C   UNL     1    -105.558 -24.936 -16.122  1.00  0.00    -0.000 C 
BRANCH   8   9
ATOM      9  C   UNL     1    -104.603 -24.059 -15.295  1.00  0.00    -0.000 C 
BRANCH   9  10
ATOM     10  C   UNL     1    -105.021 -23.852 -13.828  1.00  0.00    -0.003 C 
ATOM     11  C   UNL     1    -104.655 -25.033 -12.930  1.00  0.00     0.004 C 
ENDBRANCH   9  10
ENDBRANCH   8   9
ENDBRANCH   7   8
ENDBRANCH   1   7
TORSDOF 7
ENDMDL
