MODEL 1
REMARK VINA RESULT:    -3.739      0.000      0.000
REMARK INTER + INTRA:         -10.341
REMARK INTER:                  -8.110
REMARK INTRA:                  -2.231
REMARK UNBOUND:                -2.231
REMARK SMILES CCCCCCCCCCCCCCCCCCCCCC(=O)[O-]
REMARK SMILES IDX 12 1 11 2 10 3 9 4 8 5 7 6 6 7 5 8 4 9 3 10 2 11 1 12 13 13
REMARK SMILES IDX 14 14 15 15 16 16 17 17 18 18 19 19 20 20 21 21 22 22 23 23
REMARK SMILES IDX 24 24
REMARK H PARENT
REMARK Flexibility Score: inf
ROOT
ATOM      1  C   UNL     1      64.812  27.913  59.680  1.00  0.00     0.000 C 
ENDROOT
BRANCH   1   2
ATOM      2  C   UNL     1      64.876  29.341  60.252  1.00  0.00     0.000 C 
BRANCH   2   3
ATOM      3  C   UNL     1      63.580  29.736  60.981  1.00  0.00     0.000 C 
BRANCH   3   4
ATOM      4  C   UNL     1      62.501  28.628  60.955  1.00  0.00    -0.000 C 
BRANCH   4   5
ATOM      5  C   UNL     1      61.112  29.123  60.515  1.00  0.00    -0.000 C 
BRANCH   5   6
ATOM      6  C   UNL     1      60.910  29.051  58.994  1.00  0.00    -0.000 C 
BRANCH   6   7
ATOM      7  C   UNL     1      60.322  30.360  58.450  1.00  0.00    -0.000 C 
BRANCH   7   8
ATOM      8  C   UNL     1      61.379  31.477  58.461  1.00  0.00    -0.000 C 
BRANCH   8   9
ATOM      9  C   UNL     1      62.658  31.091  57.700  1.00  0.00    -0.000 C 
BRANCH   9  10
ATOM     10  C   UNL     1      63.789  32.116  57.895  1.00  0.00    -0.000 C 
BRANCH  10  11
ATOM     11  C   UNL     1      63.377  33.280  58.811  1.00  0.00    -0.003 C 
ATOM     12  C   UNL     1      64.110  33.265  60.153  1.00  0.00     0.004 C 
ENDBRANCH  10  11
ENDBRANCH   9  10
ENDBRANCH   8   9
ENDBRANCH   7   8
ENDBRANCH   6   7
ENDBRANCH   5   6
ENDBRANCH   4   5
ENDBRANCH   3   4
ENDBRANCH   2   3
ENDBRANCH   1   2
BRANCH   1  13
ATOM     13  C   UNL     1      66.210  27.310  59.455  1.00  0.00     0.000 C 
BRANCH  13  14
ATOM     14  C   UNL     1      67.360  28.263  59.840  1.00  0.00     0.000 C 
BRANCH  14  15
ATOM     15  C   UNL     1      68.609  27.505  60.327  1.00  0.00     0.000 C 
BRANCH  15  16
ATOM     16  C   UNL     1      69.532  28.377  61.197  1.00  0.00     0.000 C 
BRANCH  16  17
ATOM     17  C   UNL     1      71.029  28.284  60.844  1.00  0.00     0.000 C 
BRANCH  17  18
ATOM     18  C   UNL     1      71.915  29.279  61.629  1.00  0.00     0.000 C 
BRANCH  18  19
ATOM     19  C   UNL     1      72.781  30.141  60.700  1.00  0.00     0.000 C 
BRANCH  19  20
ATOM     20  C   UNL     1      71.937  30.779  59.589  1.00  0.00     0.006 C 
BRANCH  20  21
ATOM     21  C   UNL     1      71.141  31.991  60.092  1.00  0.00     0.053 C 
BRANCH  21  22
ATOM     22  C   UNL     1      70.955  33.019  59.017  1.00  0.00     0.041 C 
ATOM     23  O   UNL     1      70.522  34.166  59.306  1.00  0.00    -0.550 OA
ATOM     24  O   UNL     1      71.207  32.692  57.690  1.00  0.00    -0.550 OA
ENDBRANCH  21  22
ENDBRANCH  20  21
ENDBRANCH  19  20
ENDBRANCH  18  19
ENDBRANCH  17  18
ENDBRANCH  16  17
ENDBRANCH  15  16
ENDBRANCH  14  15
ENDBRANCH  13  14
ENDBRANCH   1  13
TORSDOF 20
ENDMDL
MODEL 2
REMARK VINA RESULT:    -3.658     12.143     14.838
REMARK INTER + INTRA:         -10.166
REMARK INTER:                  -6.480
REMARK INTRA:                  -3.686
REMARK UNBOUND:                -2.231
REMARK SMILES CCCCCCCCCCCCCCCCCCCCCC(=O)[O-]
REMARK SMILES IDX 12 1 11 2 10 3 9 4 8 5 7 6 6 7 5 8 4 9 3 10 2 11 1 12 13 13
REMARK SMILES IDX 14 14 15 15 16 16 17 17 18 18 19 19 20 20 21 21 22 22 23 23
REMARK SMILES IDX 24 24
REMARK H PARENT
REMARK Flexibility Score: inf
ROOT
ATOM      1  C   UNL     1      61.085  24.119  51.614  1.00  0.00     0.000 C 
ENDROOT
BRANCH   1   2
ATOM      2  C   UNL     1      59.867  24.093  50.674  1.00  0.00     0.000 C 
BRANCH   2   3
ATOM      3  C   UNL     1      60.138  24.823  49.347  1.00  0.00     0.000 C 
BRANCH   3   4
ATOM      4  C   UNL     1      59.106  25.932  49.036  1.00  0.00    -0.000 C 
BRANCH   4   5
ATOM      5  C   UNL     1      59.738  27.286  48.672  1.00  0.00    -0.000 C 
BRANCH   5   6
ATOM      6  C   UNL     1      61.262  27.302  48.864  1.00  0.00    -0.000 C 
BRANCH   6   7
ATOM      7  C   UNL     1      61.653  28.073  50.131  1.00  0.00    -0.000 C 
BRANCH   7   8
ATOM      8  C   UNL     1      60.568  29.097  50.502  1.00  0.00    -0.000 C 
BRANCH   8   9
ATOM      9  C   UNL     1      60.128  28.990  51.971  1.00  0.00    -0.000 C 
BRANCH   9  10
ATOM     10  C   UNL     1      59.980  27.530  52.434  1.00  0.00    -0.000 C 
BRANCH  10  11
ATOM     11  C   UNL     1      58.510  27.090  52.534  1.00  0.00    -0.003 C 
ATOM     12  C   UNL     1      58.300  25.949  53.529  1.00  0.00     0.004 C 
ENDBRANCH  10  11
ENDBRANCH   9  10
ENDBRANCH   8   9
ENDBRANCH   7   8
ENDBRANCH   6   7
ENDBRANCH   5   6
ENDBRANCH   4   5
ENDBRANCH   3   4
ENDBRANCH   2   3
ENDBRANCH   1   2
BRANCH   1  13
ATOM     13  C   UNL     1      62.387  24.480  50.875  1.00  0.00     0.000 C 
BRANCH  13  14
ATOM     14  C   UNL     1      63.394  23.314  50.802  1.00  0.00     0.000 C 
BRANCH  14  15
ATOM     15  C   UNL     1      63.558  22.772  49.370  1.00  0.00     0.000 C 
BRANCH  15  16
ATOM     16  C   UNL     1      62.808  21.446  49.148  1.00  0.00     0.000 C 
BRANCH  16  17
ATOM     17  C   UNL     1      61.589  21.544  48.210  1.00  0.00     0.000 C 
BRANCH  17  18
ATOM     18  C   UNL     1      60.320  20.861  48.769  1.00  0.00     0.000 C 
BRANCH  18  19
ATOM     19  C   UNL     1      60.512  20.370  50.211  1.00  0.00     0.000 C 
BRANCH  19  20
ATOM     20  C   UNL     1      59.952  18.953  50.393  1.00  0.00     0.006 C 
BRANCH  20  21
ATOM     21  C   UNL     1      59.035  18.541  49.234  1.00  0.00     0.053 C 
BRANCH  21  22
ATOM     22  C   UNL     1      57.826  17.801  49.718  1.00  0.00     0.041 C 
ATOM     23  O   UNL     1      56.773  18.428  50.009  1.00  0.00    -0.550 OA
ATOM     24  O   UNL     1      57.879  16.424  49.901  1.00  0.00    -0.550 OA
ENDBRANCH  21  22
ENDBRANCH  20  21
ENDBRANCH  19  20
ENDBRANCH  18  19
ENDBRANCH  17  18
ENDBRANCH  16  17
ENDBRANCH  15  16
ENDBRANCH  14  15
ENDBRANCH  13  14
ENDBRANCH   1  13
TORSDOF 20
ENDMDL
MODEL 3
REMARK VINA RESULT:    -3.654     11.491     14.045
REMARK INTER + INTRA:         -10.158
REMARK INTER:                  -6.528
REMARK INTRA:                  -3.630
REMARK UNBOUND:                -2.231
REMARK SMILES CCCCCCCCCCCCCCCCCCCCCC(=O)[O-]
REMARK SMILES IDX 12 1 11 2 10 3 9 4 8 5 7 6 6 7 5 8 4 9 3 10 2 11 1 12 13 13
REMARK SMILES IDX 14 14 15 15 16 16 17 17 18 18 19 19 20 20 21 21 22 22 23 23
REMARK SMILES IDX 24 24
REMARK H PARENT
REMARK Flexibility Score: inf
ROOT
ATOM      1  C   UNL     1      61.143  27.921  50.339  1.00  0.00     0.000 C 
ENDROOT
BRANCH   1   2
ATOM      2  C   UNL     1      60.104  28.652  49.471  1.00  0.00     0.000 C 
BRANCH   2   3
ATOM      3  C   UNL     1      59.278  27.683  48.608  1.00  0.00     0.000 C 
BRANCH   3   4
ATOM      4  C   UNL     1      59.506  26.196  48.969  1.00  0.00    -0.000 C 
BRANCH   4   5
ATOM      5  C   UNL     1      58.218  25.440  49.337  1.00  0.00    -0.000 C 
BRANCH   5   6
ATOM      6  C   UNL     1      58.323  24.705  50.682  1.00  0.00    -0.000 C 
BRANCH   6   7
ATOM      7  C   UNL     1      57.891  25.609  51.843  1.00  0.00    -0.000 C 
BRANCH   7   8
ATOM      8  C   UNL     1      56.838  26.628  51.377  1.00  0.00    -0.000 C 
BRANCH   8   9
ATOM      9  C   UNL     1      56.933  27.965  52.129  1.00  0.00    -0.000 C 
BRANCH   9  10
ATOM     10  C   UNL     1      56.964  29.174  51.177  1.00  0.00    -0.000 C 
BRANCH  10  11
ATOM     11  C   UNL     1      56.110  28.954  49.918  1.00  0.00    -0.003 C 
ATOM     12  C   UNL     1      54.787  29.719  49.959  1.00  0.00     0.004 C 
ENDBRANCH  10  11
ENDBRANCH   9  10
ENDBRANCH   8   9
ENDBRANCH   7   8
ENDBRANCH   6   7
ENDBRANCH   5   6
ENDBRANCH   4   5
ENDBRANCH   3   4
ENDBRANCH   2   3
ENDBRANCH   1   2
BRANCH   1  13
ATOM     13  C   UNL     1      60.776  27.942  51.834  1.00  0.00     0.000 C 
BRANCH  13  14
ATOM     14  C   UNL     1      61.162  26.648  52.579  1.00  0.00     0.000 C 
BRANCH  14  15
ATOM     15  C   UNL     1      62.354  25.928  51.921  1.00  0.00     0.000 C 
BRANCH  15  16
ATOM     16  C   UNL     1      62.009  24.497  51.469  1.00  0.00     0.000 C 
BRANCH  16  17
ATOM     17  C   UNL     1      62.257  24.214  49.975  1.00  0.00     0.000 C 
BRANCH  17  18
ATOM     18  C   UNL     1      62.142  22.720  49.598  1.00  0.00     0.000 C 
BRANCH  18  19
ATOM     19  C   UNL     1      60.734  22.352  49.107  1.00  0.00     0.000 C 
BRANCH  19  20
ATOM     20  C   UNL     1      60.565  20.831  48.995  1.00  0.00     0.006 C 
BRANCH  20  21
ATOM     21  C   UNL     1      60.605  20.144  50.367  1.00  0.00     0.053 C 
BRANCH  21  22
ATOM     22  C   UNL     1      59.571  19.066  50.478  1.00  0.00     0.041 C 
ATOM     23  O   UNL     1      58.432  19.326  50.950  1.00  0.00    -0.550 OA
ATOM     24  O   UNL     1      59.881  17.761  50.112  1.00  0.00    -0.550 OA
ENDBRANCH  21  22
ENDBRANCH  20  21
ENDBRANCH  19  20
ENDBRANCH  18  19
ENDBRANCH  17  18
ENDBRANCH  16  17
ENDBRANCH  15  16
ENDBRANCH  14  15
ENDBRANCH  13  14
ENDBRANCH   1  13
TORSDOF 20
ENDMDL
MODEL 4
REMARK VINA RESULT:    -3.650      6.214      9.966
REMARK INTER + INTRA:         -10.148
REMARK INTER:                  -6.455
REMARK INTRA:                  -3.693
REMARK UNBOUND:                -2.231
REMARK SMILES CCCCCCCCCCCCCCCCCCCCCC(=O)[O-]
REMARK SMILES IDX 12 1 11 2 10 3 9 4 8 5 7 6 6 7 5 8 4 9 3 10 2 11 1 12 13 13
REMARK SMILES IDX 14 14 15 15 16 16 17 17 18 18 19 19 20 20 21 21 22 22 23 23
REMARK SMILES IDX 24 24
REMARK H PARENT
REMARK Flexibility Score: inf
ROOT
ATOM      1  C   UNL     1      62.649  26.122  59.217  1.00  0.00     0.000 C 
ENDROOT
BRANCH   1   2
ATOM      2  C   UNL     1      62.248  27.604  59.115  1.00  0.00     0.000 C 
BRANCH   2   3
ATOM      3  C   UNL     1      61.868  28.202  60.480  1.00  0.00     0.000 C 
BRANCH   3   4
ATOM      4  C   UNL     1      60.750  29.267  60.393  1.00  0.00    -0.000 C 
BRANCH   4   5
ATOM      5  C   UNL     1      60.233  29.510  58.964  1.00  0.00    -0.000 C 
BRANCH   5   6
ATOM      6  C   UNL     1      60.507  30.937  58.467  1.00  0.00    -0.000 C 
BRANCH   6   7
ATOM      7  C   UNL     1      61.972  31.106  58.046  1.00  0.00    -0.000 C 
BRANCH   7   8
ATOM      8  C   UNL     1      62.678  32.141  58.937  1.00  0.00    -0.000 C 
BRANCH   8   9
ATOM      9  C   UNL     1      64.186  31.872  59.078  1.00  0.00    -0.000 C 
BRANCH   9  10
ATOM     10  C   UNL     1      64.489  30.738  60.073  1.00  0.00    -0.000 C 
BRANCH  10  11
ATOM     11  C   UNL     1      65.316  29.606  59.442  1.00  0.00    -0.003 C 
ATOM     12  C   UNL     1      65.626  28.479  60.427  1.00  0.00     0.004 C 
ENDBRANCH  10  11
ENDBRANCH   9  10
ENDBRANCH   8   9
ENDBRANCH   7   8
ENDBRANCH   6   7
ENDBRANCH   5   6
ENDBRANCH   4   5
ENDBRANCH   3   4
ENDBRANCH   2   3
ENDBRANCH   1   2
BRANCH   1  13
ATOM     13  C   UNL     1      63.098  25.733  60.638  1.00  0.00     0.000 C 
BRANCH  13  14
ATOM     14  C   UNL     1      62.262  24.593  61.254  1.00  0.00     0.000 C 
BRANCH  14  15
ATOM     15  C   UNL     1      61.437  25.064  62.467  1.00  0.00     0.000 C 
BRANCH  15  16
ATOM     16  C   UNL     1      59.940  25.219  62.142  1.00  0.00     0.000 C 
BRANCH  16  17
ATOM     17  C   UNL     1      59.545  24.815  60.708  1.00  0.00     0.000 C 
BRANCH  17  18
ATOM     18  C   UNL     1      58.844  25.943  59.917  1.00  0.00     0.000 C 
BRANCH  18  19
ATOM     19  C   UNL     1      58.074  26.903  60.835  1.00  0.00     0.000 C 
BRANCH  19  20
ATOM     20  C   UNL     1      56.576  26.907  60.501  1.00  0.00     0.006 C 
BRANCH  20  21
ATOM     21  C   UNL     1      55.716  26.489  61.702  1.00  0.00     0.053 C 
BRANCH  21  22
ATOM     22  C   UNL     1      55.366  25.033  61.653  1.00  0.00     0.041 C 
ATOM     23  O   UNL     1      54.202  24.671  61.336  1.00  0.00    -0.550 OA
ATOM     24  O   UNL     1      56.309  24.077  62.012  1.00  0.00    -0.550 OA
ENDBRANCH  21  22
ENDBRANCH  20  21
ENDBRANCH  19  20
ENDBRANCH  18  19
ENDBRANCH  17  18
ENDBRANCH  16  17
ENDBRANCH  15  16
ENDBRANCH  14  15
ENDBRANCH  13  14
ENDBRANCH   1  13
TORSDOF 20
ENDMDL
MODEL 5
REMARK VINA RESULT:    -3.556     11.129     13.925
REMARK INTER + INTRA:          -9.945
REMARK INTER:                  -6.315
REMARK INTRA:                  -3.629
REMARK UNBOUND:                -2.231
REMARK SMILES CCCCCCCCCCCCCCCCCCCCCC(=O)[O-]
REMARK SMILES IDX 12 1 11 2 10 3 9 4 8 5 7 6 6 7 5 8 4 9 3 10 2 11 1 12 13 13
REMARK SMILES IDX 14 14 15 15 16 16 17 17 18 18 19 19 20 20 21 21 22 22 23 23
REMARK SMILES IDX 24 24
REMARK H PARENT
REMARK Flexibility Score: inf
ROOT
ATOM      1  C   UNL     1      62.772  27.722  50.772  1.00  0.00     0.000 C 
ENDROOT
BRANCH   1   2
ATOM      2  C   UNL     1      63.344  26.352  50.368  1.00  0.00     0.000 C 
BRANCH   2   3
ATOM      3  C   UNL     1      63.538  26.226  48.847  1.00  0.00     0.000 C 
BRANCH   3   4
ATOM      4  C   UNL     1      63.093  27.485  48.067  1.00  0.00    -0.000 C 
BRANCH   4   5
ATOM      5  C   UNL     1      64.219  28.141  47.249  1.00  0.00    -0.000 C 
BRANCH   5   6
ATOM      6  C   UNL     1      65.359  28.676  48.129  1.00  0.00    -0.000 C 
BRANCH   6   7
ATOM      7  C   UNL     1      65.269  30.199  48.287  1.00  0.00    -0.000 C 
BRANCH   7   8
ATOM      8  C   UNL     1      65.007  30.579  49.754  1.00  0.00    -0.000 C 
BRANCH   8   9
ATOM      9  C   UNL     1      63.555  31.020  50.001  1.00  0.00    -0.000 C 
BRANCH   9  10
ATOM     10  C   UNL     1      62.859  31.497  48.714  1.00  0.00    -0.000 C 
BRANCH  10  11
ATOM     11  C   UNL     1      62.564  33.006  48.730  1.00  0.00    -0.003 C 
ATOM     12  C   UNL     1      63.827  33.858  48.594  1.00  0.00     0.004 C 
ENDBRANCH  10  11
ENDBRANCH   9  10
ENDBRANCH   8   9
ENDBRANCH   7   8
ENDBRANCH   6   7
ENDBRANCH   5   6
ENDBRANCH   4   5
ENDBRANCH   3   4
ENDBRANCH   2   3
ENDBRANCH   1   2
BRANCH   1  13
ATOM     13  C   UNL     1      61.634  27.602  51.802  1.00  0.00     0.000 C 
BRANCH  13  14
ATOM     14  C   UNL     1      60.359  28.369  51.400  1.00  0.00     0.000 C 
BRANCH  14  15
ATOM     15  C   UNL     1      60.456  28.962  49.982  1.00  0.00     0.000 C 
BRANCH  15  16
ATOM     16  C   UNL     1      59.437  28.342  49.008  1.00  0.00     0.000 C 
BRANCH  16  17
ATOM     17  C   UNL     1      58.866  26.981  49.451  1.00  0.00     0.000 C 
BRANCH  17  18
ATOM     18  C   UNL     1      59.667  25.770  48.922  1.00  0.00     0.000 C 
BRANCH  18  19
ATOM     19  C   UNL     1      59.993  24.760  50.032  1.00  0.00     0.000 C 
BRANCH  19  20
ATOM     20  C   UNL     1      60.897  23.635  49.510  1.00  0.00     0.006 C 
BRANCH  20  21
ATOM     21  C   UNL     1      60.365  22.246  49.885  1.00  0.00     0.053 C 
BRANCH  21  22
ATOM     22  C   UNL     1      60.679  21.228  48.832  1.00  0.00     0.041 C 
ATOM     23  O   UNL     1      61.506  21.494  47.919  1.00  0.00    -0.550 OA
ATOM     24  O   UNL     1      60.018  20.005  48.825  1.00  0.00    -0.550 OA
ENDBRANCH  21  22
ENDBRANCH  20  21
ENDBRANCH  19  20
ENDBRANCH  18  19
ENDBRANCH  17  18
ENDBRANCH  16  17
ENDBRANCH  15  16
ENDBRANCH  14  15
ENDBRANCH  13  14
ENDBRANCH   1  13
TORSDOF 20
ENDMDL
MODEL 6
REMARK VINA RESULT:    -3.547     13.099     16.104
REMARK INTER + INTRA:          -9.924
REMARK INTER:                  -8.389
REMARK INTRA:                  -1.535
REMARK UNBOUND:                -2.231
REMARK SMILES CCCCCCCCCCCCCCCCCCCCCC(=O)[O-]
REMARK SMILES IDX 12 1 11 2 10 3 9 4 8 5 7 6 6 7 5 8 4 9 3 10 2 11 1 12 13 13
REMARK SMILES IDX 14 14 15 15 16 16 17 17 18 18 19 19 20 20 21 21 22 22 23 23
REMARK SMILES IDX 24 24
REMARK H PARENT
REMARK Flexibility Score: inf
ROOT
ATOM      1  C   UNL     1      63.065  22.325  51.049  1.00  0.00     0.000 C 
ENDROOT
BRANCH   1   2
ATOM      2  C   UNL     1      63.085  23.690  50.338  1.00  0.00     0.000 C 
BRANCH   2   3
ATOM      3  C   UNL     1      62.066  24.675  50.936  1.00  0.00     0.000 C 
BRANCH   3   4
ATOM      4  C   UNL     1      61.321  25.509  49.867  1.00  0.00    -0.000 C 
BRANCH   4   5
ATOM      5  C   UNL     1      60.069  24.817  49.300  1.00  0.00    -0.000 C 
BRANCH   5   6
ATOM      6  C   UNL     1      58.875  25.772  49.157  1.00  0.00    -0.000 C 
BRANCH   6   7
ATOM      7  C   UNL     1      59.335  27.180  48.758  1.00  0.00    -0.000 C 
BRANCH   7   8
ATOM      8  C   UNL     1      58.803  28.229  49.748  1.00  0.00    -0.000 C 
BRANCH   8   9
ATOM      9  C   UNL     1      57.300  28.069  50.030  1.00  0.00    -0.000 C 
BRANCH   9  10
ATOM     10  C   UNL     1      56.843  28.883  51.254  1.00  0.00    -0.000 C 
BRANCH  10  11
ATOM     11  C   UNL     1      56.046  30.137  50.862  1.00  0.00    -0.003 C 
ATOM     12  C   UNL     1      54.935  29.843  49.853  1.00  0.00     0.004 C 
ENDBRANCH  10  11
ENDBRANCH   9  10
ENDBRANCH   8   9
ENDBRANCH   7   8
ENDBRANCH   6   7
ENDBRANCH   5   6
ENDBRANCH   4   5
ENDBRANCH   3   4
ENDBRANCH   2   3
ENDBRANCH   1   2
BRANCH   1  13
ATOM     13  C   UNL     1      62.805  21.161  50.076  1.00  0.00     0.000 C 
BRANCH  13  14
ATOM     14  C   UNL     1      62.172  21.606  48.742  1.00  0.00     0.000 C 
BRANCH  14  15
ATOM     15  C   UNL     1      60.717  21.123  48.596  1.00  0.00     0.000 C 
BRANCH  15  16
ATOM     16  C   UNL     1      60.322  20.090  49.667  1.00  0.00     0.000 C 
BRANCH  16  17
ATOM     17  C   UNL     1      59.343  19.003  49.185  1.00  0.00     0.000 C 
BRANCH  17  18
ATOM     18  C   UNL     1      59.503  17.653  49.921  1.00  0.00     0.000 C 
BRANCH  18  19
ATOM     19  C   UNL     1      58.168  16.908  50.064  1.00  0.00     0.000 C 
BRANCH  19  20
ATOM     20  C   UNL     1      56.980  17.842  49.792  1.00  0.00     0.006 C 
BRANCH  20  21
ATOM     21  C   UNL     1      56.235  18.217  51.080  1.00  0.00     0.053 C 
BRANCH  21  22
ATOM     22  C   UNL     1      54.908  18.849  50.790  1.00  0.00     0.041 C 
ATOM     23  O   UNL     1      54.226  19.350  51.724  1.00  0.00    -0.550 OA
ATOM     24  O   UNL     1      54.399  18.837  49.497  1.00  0.00    -0.550 OA
ENDBRANCH  21  22
ENDBRANCH  20  21
ENDBRANCH  19  20
ENDBRANCH  18  19
ENDBRANCH  17  18
ENDBRANCH  16  17
ENDBRANCH  15  16
ENDBRANCH  14  15
ENDBRANCH  13  14
ENDBRANCH   1  13
TORSDOF 20
ENDMDL
MODEL 7
REMARK VINA RESULT:    -3.521     12.210     15.103
REMARK INTER + INTRA:          -9.869
REMARK INTER:                  -7.635
REMARK INTRA:                  -2.233
REMARK UNBOUND:                -2.231
REMARK SMILES CCCCCCCCCCCCCCCCCCCCCC(=O)[O-]
REMARK SMILES IDX 12 1 11 2 10 3 9 4 8 5 7 6 6 7 5 8 4 9 3 10 2 11 1 12 13 13
REMARK SMILES IDX 14 14 15 15 16 16 17 17 18 18 19 19 20 20 21 21 22 22 23 23
REMARK SMILES IDX 24 24
REMARK H PARENT
REMARK Flexibility Score: inf
ROOT
ATOM      1  C   UNL     1      58.139  24.297  51.180  1.00  0.00     0.000 C 
ENDROOT
BRANCH   1   2
ATOM      2  C   UNL     1      57.149  25.194  50.415  1.00  0.00     0.000 C 
BRANCH   2   3
ATOM      3  C   UNL     1      57.219  26.662  50.870  1.00  0.00     0.000 C 
BRANCH   3   4
ATOM      4  C   UNL     1      57.024  27.671  49.714  1.00  0.00    -0.000 C 
BRANCH   4   5
ATOM      5  C   UNL     1      58.326  28.343  49.248  1.00  0.00    -0.000 C 
BRANCH   5   6
ATOM      6  C   UNL     1      59.294  27.361  48.571  1.00  0.00    -0.000 C 
BRANCH   6   7
ATOM      7  C   UNL     1      60.720  27.527  49.110  1.00  0.00    -0.000 C 
BRANCH   7   8
ATOM      8  C   UNL     1      60.760  28.580  50.230  1.00  0.00    -0.000 C 
BRANCH   8   9
ATOM      9  C   UNL     1      62.181  28.823  50.765  1.00  0.00    -0.000 C 
BRANCH   9  10
ATOM     10  C   UNL     1      62.575  30.311  50.728  1.00  0.00    -0.000 C 
BRANCH  10  11
ATOM     11  C   UNL     1      62.283  30.963  49.367  1.00  0.00    -0.003 C 
ATOM     12  C   UNL     1      63.527  31.580  48.727  1.00  0.00     0.004 C 
ENDBRANCH  10  11
ENDBRANCH   9  10
ENDBRANCH   8   9
ENDBRANCH   7   8
ENDBRANCH   6   7
ENDBRANCH   5   6
ENDBRANCH   4   5
ENDBRANCH   3   4
ENDBRANCH   2   3
ENDBRANCH   1   2
BRANCH   1  13
ATOM     13  C   UNL     1      59.412  25.054  51.599  1.00  0.00     0.000 C 
BRANCH  13  14
ATOM     14  C   UNL     1      60.710  24.407  51.076  1.00  0.00     0.000 C 
BRANCH  14  15
ATOM     15  C   UNL     1      60.466  23.525  49.837  1.00  0.00     0.000 C 
BRANCH  15  16
ATOM     16  C   UNL     1      61.716  22.731  49.416  1.00  0.00     0.000 C 
BRANCH  16  17
ATOM     17  C   UNL     1      61.433  21.507  48.524  1.00  0.00     0.000 C 
BRANCH  17  18
ATOM     18  C   UNL     1      60.171  20.717  48.938  1.00  0.00     0.000 C 
BRANCH  18  19
ATOM     19  C   UNL     1      60.370  19.954  50.255  1.00  0.00     0.000 C 
BRANCH  19  20
ATOM     20  C   UNL     1      59.966  18.480  50.109  1.00  0.00     0.006 C 
BRANCH  20  21
ATOM     21  C   UNL     1      58.815  18.293  49.112  1.00  0.00     0.053 C 
BRANCH  21  22
ATOM     22  C   UNL     1      57.653  17.578  49.732  1.00  0.00     0.041 C 
ATOM     23  O   UNL     1      57.815  16.445  50.260  1.00  0.00    -0.550 OA
ATOM     24  O   UNL     1      56.382  18.136  49.678  1.00  0.00    -0.550 OA
ENDBRANCH  21  22
ENDBRANCH  20  21
ENDBRANCH  19  20
ENDBRANCH  18  19
ENDBRANCH  17  18
ENDBRANCH  16  17
ENDBRANCH  15  16
ENDBRANCH  14  15
ENDBRANCH  13  14
ENDBRANCH   1  13
TORSDOF 20
ENDMDL
MODEL 8
REMARK VINA RESULT:    -3.488     11.329     14.895
REMARK INTER + INTRA:          -9.797
REMARK INTER:                  -7.157
REMARK INTRA:                  -2.640
REMARK UNBOUND:                -2.231
REMARK SMILES CCCCCCCCCCCCCCCCCCCCCC(=O)[O-]
REMARK SMILES IDX 12 1 11 2 10 3 9 4 8 5 7 6 6 7 5 8 4 9 3 10 2 11 1 12 13 13
REMARK SMILES IDX 14 14 15 15 16 16 17 17 18 18 19 19 20 20 21 21 22 22 23 23
REMARK SMILES IDX 24 24
REMARK H PARENT
REMARK Flexibility Score: inf
ROOT
ATOM      1  C   UNL     1      59.695  24.173  49.693  1.00  0.00     0.000 C 
ENDROOT
BRANCH   1   2
ATOM      2  C   UNL     1      61.234  24.185  49.647  1.00  0.00     0.000 C 
BRANCH   2   3
ATOM      3  C   UNL     1      61.826  22.768  49.551  1.00  0.00     0.000 C 
BRANCH   3   4
ATOM      4  C   UNL     1      61.008  21.823  48.639  1.00  0.00    -0.000 C 
BRANCH   4   5
ATOM      5  C   UNL     1      60.460  20.581  49.363  1.00  0.00    -0.000 C 
BRANCH   5   6
ATOM      6  C   UNL     1      60.743  20.599  50.873  1.00  0.00    -0.000 C 
BRANCH   6   7
ATOM      7  C   UNL     1      59.964  19.493  51.596  1.00  0.00    -0.000 C 
BRANCH   7   8
ATOM      8  C   UNL     1      58.454  19.641  51.352  1.00  0.00    -0.000 C 
BRANCH   8   9
ATOM      9  C   UNL     1      57.642  18.468  51.925  1.00  0.00    -0.000 C 
BRANCH   9  10
ATOM     10  C   UNL     1      57.039  17.578  50.823  1.00  0.00    -0.000 C 
BRANCH  10  11
ATOM     11  C   UNL     1      58.076  16.628  50.201  1.00  0.00    -0.003 C 
ATOM     12  C   UNL     1      58.897  15.878  51.251  1.00  0.00     0.004 C 
ENDBRANCH  10  11
ENDBRANCH   9  10
ENDBRANCH   8   9
ENDBRANCH   7   8
ENDBRANCH   6   7
ENDBRANCH   5   6
ENDBRANCH   4   5
ENDBRANCH   3   4
ENDBRANCH   2   3
ENDBRANCH   1   2
BRANCH   1  13
ATOM     13  C   UNL     1      59.150  24.364  51.120  1.00  0.00     0.000 C 
BRANCH  13  14
ATOM     14  C   UNL     1      57.878  25.233  51.179  1.00  0.00     0.000 C 
BRANCH  14  15
ATOM     15  C   UNL     1      57.385  25.644  49.779  1.00  0.00     0.000 C 
BRANCH  15  16
ATOM     16  C   UNL     1      56.844  27.085  49.738  1.00  0.00     0.000 C 
BRANCH  16  17
ATOM     17  C   UNL     1      57.922  28.181  49.833  1.00  0.00     0.000 C 
BRANCH  17  18
ATOM     18  C   UNL     1      58.857  28.241  48.604  1.00  0.00     0.000 C 
BRANCH  18  19
ATOM     19  C   UNL     1      60.267  27.722  48.921  1.00  0.00     0.000 C 
BRANCH  19  20
ATOM     20  C   UNL     1      60.876  28.466  50.117  1.00  0.00     0.006 C 
BRANCH  20  21
ATOM     21  C   UNL     1      61.488  27.505  51.144  1.00  0.00     0.053 C 
BRANCH  21  22
ATOM     22  C   UNL     1      62.981  27.445  51.027  1.00  0.00     0.041 C 
ATOM     23  O   UNL     1      63.586  26.353  51.195  1.00  0.00    -0.550 OA
ATOM     24  O   UNL     1      63.708  28.605  50.789  1.00  0.00    -0.550 OA
ENDBRANCH  21  22
ENDBRANCH  20  21
ENDBRANCH  19  20
ENDBRANCH  18  19
ENDBRANCH  17  18
ENDBRANCH  16  17
ENDBRANCH  15  16
ENDBRANCH  14  15
ENDBRANCH  13  14
ENDBRANCH   1  13
TORSDOF 20
ENDMDL
MODEL 9
REMARK VINA RESULT:    -3.473     12.849     15.330
REMARK INTER + INTRA:          -9.766
REMARK INTER:                  -7.036
REMARK INTRA:                  -2.730
REMARK UNBOUND:                -2.231
REMARK SMILES CCCCCCCCCCCCCCCCCCCCCC(=O)[O-]
REMARK SMILES IDX 12 1 11 2 10 3 9 4 8 5 7 6 6 7 5 8 4 9 3 10 2 11 1 12 13 13
REMARK SMILES IDX 14 14 15 15 16 16 17 17 18 18 19 19 20 20 21 21 22 22 23 23
REMARK SMILES IDX 24 24
REMARK H PARENT
REMARK Flexibility Score: inf
ROOT
ATOM      1  C   UNL     1      58.447  24.136  50.961  1.00  0.00     0.000 C 
ENDROOT
BRANCH   1   2
ATOM      2  C   UNL     1      57.628  25.216  50.232  1.00  0.00     0.000 C 
BRANCH   2   3
ATOM      3  C   UNL     1      57.076  26.279  51.196  1.00  0.00     0.000 C 
BRANCH   3   4
ATOM      4  C   UNL     1      57.403  27.728  50.764  1.00  0.00    -0.000 C 
BRANCH   4   5
ATOM      5  C   UNL     1      58.678  28.297  51.409  1.00  0.00    -0.000 C 
BRANCH   5   6
ATOM      6  C   UNL     1      59.703  28.784  50.372  1.00  0.00    -0.000 C 
BRANCH   6   7
ATOM      7  C   UNL     1      59.420  28.184  48.989  1.00  0.00    -0.000 C 
BRANCH   7   8
ATOM      8  C   UNL     1      60.475  27.125  48.629  1.00  0.00    -0.000 C 
BRANCH   8   9
ATOM      9  C   UNL     1      61.712  27.187  49.540  1.00  0.00    -0.000 C 
BRANCH   9  10
ATOM     10  C   UNL     1      62.912  26.422  48.953  1.00  0.00    -0.000 C 
BRANCH  10  11
ATOM     11  C   UNL     1      63.687  27.249  47.915  1.00  0.00    -0.003 C 
ATOM     12  C   UNL     1      63.799  28.725  48.299  1.00  0.00     0.004 C 
ENDBRANCH  10  11
ENDBRANCH   9  10
ENDBRANCH   8   9
ENDBRANCH   7   8
ENDBRANCH   6   7
ENDBRANCH   5   6
ENDBRANCH   4   5
ENDBRANCH   3   4
ENDBRANCH   2   3
ENDBRANCH   1   2
BRANCH   1  13
ATOM     13  C   UNL     1      59.841  24.639  51.378  1.00  0.00     0.000 C 
BRANCH  13  14
ATOM     14  C   UNL     1      60.995  23.788  50.810  1.00  0.00     0.000 C 
BRANCH  14  15
ATOM     15  C   UNL     1      60.708  23.292  49.380  1.00  0.00     0.000 C 
BRANCH  15  16
ATOM     16  C   UNL     1      60.816  21.762  49.248  1.00  0.00     0.000 C 
BRANCH  16  17
ATOM     17  C   UNL     1      60.310  20.972  50.471  1.00  0.00     0.000 C 
BRANCH  17  18
ATOM     18  C   UNL     1      61.001  19.602  50.654  1.00  0.00     0.000 C 
BRANCH  18  19
ATOM     19  C   UNL     1      59.994  18.443  50.686  1.00  0.00     0.000 C 
BRANCH  19  20
ATOM     20  C   UNL     1      58.989  18.550  49.531  1.00  0.00     0.006 C 
BRANCH  20  21
ATOM     21  C   UNL     1      57.879  17.495  49.632  1.00  0.00     0.053 C 
BRANCH  21  22
ATOM     22  C   UNL     1      56.675  18.023  50.350  1.00  0.00     0.041 C 
ATOM     23  O   UNL     1      56.653  18.060  51.609  1.00  0.00    -0.550 OA
ATOM     24  O   UNL     1      55.555  18.423  49.630  1.00  0.00    -0.550 OA
ENDBRANCH  21  22
ENDBRANCH  20  21
ENDBRANCH  19  20
ENDBRANCH  18  19
ENDBRANCH  17  18
ENDBRANCH  16  17
ENDBRANCH  15  16
ENDBRANCH  14  15
ENDBRANCH  13  14
ENDBRANCH   1  13
TORSDOF 20
ENDMDL
