MODEL 1
REMARK VINA RESULT:    -4.200      0.000      0.000
REMARK INTER + INTRA:          -9.929
REMARK INTER:                  -7.637
REMARK INTRA:                  -2.292
REMARK UNBOUND:                -2.292
REMARK SMILES CCCCCCCCCCCCCC[C@H](C)C(=O)[O-]
REMARK SMILES IDX 9 1 10 2 11 3 12 4 13 5 14 6 15 7 16 8 17 9 18 10 19 11 8 12
REMARK SMILES IDX 7 13 6 14 5 15 4 16 3 17 2 18 1 19
REMARK H PARENT
REMARK Flexibility Score: inf
ROOT
ATOM      1  C   UNL     1      11.989  31.845  29.150  1.00  0.00     0.000 C 
ENDROOT
BRANCH   1   2
ATOM      2  C   UNL     1      10.596  32.454  28.931  1.00  0.00     0.000 C 
BRANCH   2   3
ATOM      3  C   UNL     1       9.585  32.049  30.020  1.00  0.00     0.000 C 
BRANCH   3   4
ATOM      4  C   UNL     1       9.084  30.594  29.932  1.00  0.00     0.000 C 
BRANCH   4   5
ATOM      5  C   UNL     1       8.104  30.318  28.776  1.00  0.00     0.001 C 
BRANCH   5   6
ATOM      6  C   UNL     1       8.478  29.080  27.929  1.00  0.00     0.009 C 
BRANCH   6   7
ATOM      7  C   UNL     1       7.268  28.420  27.228  1.00  0.00     0.032 C 
ATOM      8  C   UNL     1       6.932  29.105  25.896  1.00  0.00     0.014 C 
BRANCH   7   9
ATOM      9  C   UNL     1       6.065  28.467  28.129  1.00  0.00     0.044 C 
ATOM     10  O   UNL     1       5.982  27.687  29.115  1.00  0.00    -0.550 OA
ATOM     11  O   UNL     1       5.037  29.369  27.881  1.00  0.00    -0.550 OA
ENDBRANCH   7   9
ENDBRANCH   6   7
ENDBRANCH   5   6
ENDBRANCH   4   5
ENDBRANCH   3   4
ENDBRANCH   2   3
ENDBRANCH   1   2
BRANCH   1  12
ATOM     12  C   UNL     1      12.612  31.410  27.818  1.00  0.00     0.000 C 
BRANCH  12  13
ATOM     13  C   UNL     1      11.703  30.411  27.085  1.00  0.00    -0.000 C 
BRANCH  13  14
ATOM     14  C   UNL     1      11.552  30.723  25.585  1.00  0.00    -0.000 C 
BRANCH  14  15
ATOM     15  C   UNL     1      10.102  30.915  25.106  1.00  0.00    -0.000 C 
BRANCH  15  16
ATOM     16  C   UNL     1       9.542  32.309  25.438  1.00  0.00    -0.000 C 
BRANCH  16  17
ATOM     17  C   UNL     1       9.788  33.334  24.316  1.00  0.00    -0.000 C 
BRANCH  17  18
ATOM     18  C   UNL     1      11.066  34.176  24.482  1.00  0.00    -0.003 C 
ATOM     19  C   UNL     1      11.393  34.488  25.942  1.00  0.00     0.004 C 
ENDBRANCH  17  18
ENDBRANCH  16  17
ENDBRANCH  15  16
ENDBRANCH  14  15
ENDBRANCH  13  14
ENDBRANCH  12  13
ENDBRANCH   1  12
TORSDOF 14
ENDMDL
MODEL 2
REMARK VINA RESULT:    -4.161      3.172      6.401
REMARK INTER + INTRA:          -9.858
REMARK INTER:                  -7.415
REMARK INTRA:                  -2.443
REMARK UNBOUND:                -2.292
REMARK SMILES CCCCCCCCCCCCCC[C@H](C)C(=O)[O-]
REMARK SMILES IDX 9 1 10 2 11 3 12 4 13 5 14 6 15 7 16 8 17 9 18 10 19 11 8 12
REMARK SMILES IDX 7 13 6 14 5 15 4 16 3 17 2 18 1 19
REMARK H PARENT
REMARK Flexibility Score: inf
ROOT
ATOM      1  C   UNL     1       7.736  30.199  26.347  1.00  0.00     0.000 C 
ENDROOT
BRANCH   1   2
ATOM      2  C   UNL     1       8.347  29.874  27.718  1.00  0.00     0.000 C 
BRANCH   2   3
ATOM      3  C   UNL     1       9.637  29.037  27.617  1.00  0.00     0.000 C 
BRANCH   3   4
ATOM      4  C   UNL     1      10.924  29.775  28.033  1.00  0.00     0.000 C 
BRANCH   4   5
ATOM      5  C   UNL     1      10.816  31.312  28.026  1.00  0.00     0.001 C 
BRANCH   5   6
ATOM      6  C   UNL     1      11.517  31.976  26.818  1.00  0.00     0.009 C 
BRANCH   6   7
ATOM      7  C   UNL     1      10.648  32.010  25.539  1.00  0.00     0.032 C 
ATOM      8  C   UNL     1      11.223  31.117  24.430  1.00  0.00     0.014 C 
BRANCH   7   9
ATOM      9  C   UNL     1      10.533  33.421  25.034  1.00  0.00     0.044 C 
ATOM     10  O   UNL     1       9.649  33.722  24.189  1.00  0.00    -0.550 OA
ATOM     11  O   UNL     1      11.403  34.404  25.493  1.00  0.00    -0.550 OA
ENDBRANCH   7   9
ENDBRANCH   6   7
ENDBRANCH   5   6
ENDBRANCH   4   5
ENDBRANCH   3   4
ENDBRANCH   2   3
ENDBRANCH   1   2
BRANCH   1  12
ATOM     12  C   UNL     1       8.070  29.105  25.325  1.00  0.00     0.000 C 
BRANCH  12  13
ATOM     13  C   UNL     1       6.790  28.466  24.765  1.00  0.00    -0.000 C 
BRANCH  13  14
ATOM     14  C   UNL     1       7.047  27.117  24.067  1.00  0.00    -0.000 C 
BRANCH  14  15
ATOM     15  C   UNL     1       8.148  26.254  24.709  1.00  0.00    -0.000 C 
BRANCH  15  16
ATOM     16  C   UNL     1       7.628  25.391  25.872  1.00  0.00    -0.000 C 
BRANCH  16  17
ATOM     17  C   UNL     1       8.293  25.738  27.217  1.00  0.00    -0.000 C 
BRANCH  17  18
ATOM     18  C   UNL     1       7.317  26.178  28.323  1.00  0.00    -0.003 C 
ATOM     19  C   UNL     1       5.950  26.600  27.784  1.00  0.00     0.004 C 
ENDBRANCH  17  18
ENDBRANCH  16  17
ENDBRANCH  15  16
ENDBRANCH  14  15
ENDBRANCH  13  14
ENDBRANCH  12  13
ENDBRANCH   1  12
TORSDOF 14
ENDMDL
MODEL 3
REMARK VINA RESULT:    -4.157      1.868      3.977
REMARK INTER + INTRA:          -9.851
REMARK INTER:                  -7.967
REMARK INTRA:                  -1.883
REMARK UNBOUND:                -2.292
REMARK SMILES CCCCCCCCCCCCCC[C@H](C)C(=O)[O-]
REMARK SMILES IDX 9 1 10 2 11 3 12 4 13 5 14 6 15 7 16 8 17 9 18 10 19 11 8 12
REMARK SMILES IDX 7 13 6 14 5 15 4 16 3 17 2 18 1 19
REMARK H PARENT
REMARK Flexibility Score: inf
ROOT
ATOM      1  C   UNL     1       9.326  32.117  25.560  1.00  0.00     0.000 C 
ENDROOT
BRANCH   1   2
ATOM      2  C   UNL     1       8.894  30.659  25.776  1.00  0.00     0.000 C 
BRANCH   2   3
ATOM      3  C   UNL     1       7.673  30.526  26.706  1.00  0.00     0.000 C 
BRANCH   3   4
ATOM      4  C   UNL     1       7.793  29.428  27.781  1.00  0.00     0.000 C 
BRANCH   4   5
ATOM      5  C   UNL     1       8.649  28.215  27.371  1.00  0.00     0.001 C 
BRANCH   5   6
ATOM      6  C   UNL     1       7.854  27.119  26.623  1.00  0.00     0.009 C 
BRANCH   6   7
ATOM      7  C   UNL     1       7.749  25.788  27.404  1.00  0.00     0.032 C 
ATOM      8  C   UNL     1       7.483  24.597  26.473  1.00  0.00     0.014 C 
BRANCH   7   9
ATOM      9  C   UNL     1       6.650  25.878  28.426  1.00  0.00     0.044 C 
ATOM     10  O   UNL     1       5.446  25.771  28.073  1.00  0.00    -0.550 OA
ATOM     11  O   UNL     1       6.954  26.082  29.767  1.00  0.00    -0.550 OA
ENDBRANCH   7   9
ENDBRANCH   6   7
ENDBRANCH   5   6
ENDBRANCH   4   5
ENDBRANCH   3   4
ENDBRANCH   2   3
ENDBRANCH   1   2
BRANCH   1  12
ATOM     12  C   UNL     1      10.852  32.253  25.640  1.00  0.00     0.000 C 
BRANCH  12  13
ATOM     13  C   UNL     1      11.503  30.923  26.048  1.00  0.00    -0.000 C 
BRANCH  13  14
ATOM     14  C   UNL     1      12.212  30.993  27.413  1.00  0.00    -0.000 C 
BRANCH  14  15
ATOM     15  C   UNL     1      11.457  30.313  28.570  1.00  0.00    -0.000 C 
BRANCH  15  16
ATOM     16  C   UNL     1      10.493  31.267  29.297  1.00  0.00    -0.000 C 
BRANCH  16  17
ATOM     17  C   UNL     1      11.223  32.289  30.187  1.00  0.00    -0.000 C 
BRANCH  17  18
ATOM     18  C   UNL     1      12.300  31.687  31.108  1.00  0.00    -0.003 C 
ATOM     19  C   UNL     1      13.675  32.327  30.920  1.00  0.00     0.004 C 
ENDBRANCH  17  18
ENDBRANCH  16  17
ENDBRANCH  15  16
ENDBRANCH  14  15
ENDBRANCH  13  14
ENDBRANCH  12  13
ENDBRANCH   1  12
TORSDOF 14
ENDMDL
MODEL 4
REMARK VINA RESULT:    -4.148      2.902      6.312
REMARK INTER + INTRA:          -9.835
REMARK INTER:                  -7.179
REMARK INTRA:                  -2.656
REMARK UNBOUND:                -2.292
REMARK SMILES CCCCCCCCCCCCCC[C@H](C)C(=O)[O-]
REMARK SMILES IDX 9 1 10 2 11 3 12 4 13 5 14 6 15 7 16 8 17 9 18 10 19 11 8 12
REMARK SMILES IDX 7 13 6 14 5 15 4 16 3 17 2 18 1 19
REMARK H PARENT
REMARK Flexibility Score: inf
ROOT
ATOM      1  C   UNL     1       8.125  27.620  27.374  1.00  0.00     0.000 C 
ENDROOT
BRANCH   1   2
ATOM      2  C   UNL     1       8.125  27.533  25.841  1.00  0.00     0.000 C 
BRANCH   2   3
ATOM      3  C   UNL     1       7.953  28.906  25.162  1.00  0.00     0.000 C 
BRANCH   3   4
ATOM      4  C   UNL     1       9.234  29.481  24.528  1.00  0.00     0.000 C 
BRANCH   4   5
ATOM      5  C   UNL     1       9.614  30.894  25.011  1.00  0.00     0.001 C 
BRANCH   5   6
ATOM      6  C   UNL     1       9.065  31.237  26.416  1.00  0.00     0.009 C 
BRANCH   6   7
ATOM      7  C   UNL     1      10.157  31.301  27.509  1.00  0.00     0.032 C 
ATOM      8  C   UNL     1       9.650  30.772  28.858  1.00  0.00     0.014 C 
BRANCH   7   9
ATOM      9  C   UNL     1      10.633  32.717  27.676  1.00  0.00     0.044 C 
ATOM     10  O   UNL     1      11.320  33.265  26.774  1.00  0.00    -0.550 OA
ATOM     11  O   UNL     1      10.321  33.431  28.827  1.00  0.00    -0.550 OA
ENDBRANCH   7   9
ENDBRANCH   6   7
ENDBRANCH   5   6
ENDBRANCH   4   5
ENDBRANCH   3   4
ENDBRANCH   2   3
ENDBRANCH   1   2
BRANCH   1  12
ATOM     12  C   UNL     1       7.067  26.686  27.975  1.00  0.00     0.000 C 
BRANCH  12  13
ATOM     13  C   UNL     1       6.627  27.175  29.364  1.00  0.00    -0.000 C 
BRANCH  13  14
ATOM     14  C   UNL     1       6.759  28.700  29.535  1.00  0.00    -0.000 C 
BRANCH  14  15
ATOM     15  C   UNL     1       5.503  29.505  29.157  1.00  0.00    -0.000 C 
BRANCH  15  16
ATOM     16  C   UNL     1       5.796  30.632  28.150  1.00  0.00    -0.000 C 
BRANCH  16  17
ATOM     17  C   UNL     1       5.102  30.414  26.793  1.00  0.00    -0.000 C 
BRANCH  17  18
ATOM     18  C   UNL     1       4.047  29.293  26.782  1.00  0.00    -0.003 C 
ATOM     19  C   UNL     1       4.328  28.216  25.734  1.00  0.00     0.004 C 
ENDBRANCH  17  18
ENDBRANCH  16  17
ENDBRANCH  15  16
ENDBRANCH  14  15
ENDBRANCH  13  14
ENDBRANCH  12  13
ENDBRANCH   1  12
TORSDOF 14
ENDMDL
MODEL 5
REMARK VINA RESULT:    -4.145      3.150      6.598
REMARK INTER + INTRA:          -9.829
REMARK INTER:                  -7.240
REMARK INTRA:                  -2.589
REMARK UNBOUND:                -2.292
REMARK SMILES CCCCCCCCCCCCCC[C@H](C)C(=O)[O-]
REMARK SMILES IDX 9 1 10 2 11 3 12 4 13 5 14 6 15 7 16 8 17 9 18 10 19 11 8 12
REMARK SMILES IDX 7 13 6 14 5 15 4 16 3 17 2 18 1 19
REMARK H PARENT
REMARK Flexibility Score: inf
ROOT
ATOM      1  C   UNL     1       6.476  30.510  27.024  1.00  0.00     0.000 C 
ENDROOT
BRANCH   1   2
ATOM      2  C   UNL     1       6.617  28.997  26.799  1.00  0.00     0.000 C 
BRANCH   2   3
ATOM      3  C   UNL     1       7.647  28.344  27.741  1.00  0.00     0.000 C 
BRANCH   3   4
ATOM      4  C   UNL     1       8.701  29.308  28.319  1.00  0.00     0.000 C 
BRANCH   4   5
ATOM      5  C   UNL     1      10.112  29.156  27.720  1.00  0.00     0.001 C 
BRANCH   5   6
ATOM      6  C   UNL     1      10.860  30.498  27.547  1.00  0.00     0.009 C 
BRANCH   6   7
ATOM      7  C   UNL     1       9.959  31.648  27.040  1.00  0.00     0.032 C 
ATOM      8  C   UNL     1       9.736  31.576  25.522  1.00  0.00     0.014 C 
BRANCH   7   9
ATOM      9  C   UNL     1      10.573  32.975  27.391  1.00  0.00     0.044 C 
ATOM     10  O   UNL     1      10.509  33.410  28.571  1.00  0.00    -0.550 OA
ATOM     11  O   UNL     1      11.214  33.731  26.417  1.00  0.00    -0.550 OA
ENDBRANCH   7   9
ENDBRANCH   6   7
ENDBRANCH   5   6
ENDBRANCH   4   5
ENDBRANCH   3   4
ENDBRANCH   2   3
ENDBRANCH   1   2
BRANCH   1  12
ATOM     12  C   UNL     1       5.004  30.936  26.969  1.00  0.00     0.000 C 
BRANCH  12  13
ATOM     13  C   UNL     1       4.075  29.714  27.003  1.00  0.00    -0.000 C 
BRANCH  13  14
ATOM     14  C   UNL     1       2.917  29.865  28.007  1.00  0.00    -0.000 C 
BRANCH  14  15
ATOM     15  C   UNL     1       3.341  29.875  29.487  1.00  0.00    -0.000 C 
BRANCH  15  16
ATOM     16  C   UNL     1       4.347  28.761  29.828  1.00  0.00    -0.000 C 
BRANCH  16  17
ATOM     17  C   UNL     1       5.563  29.276  30.619  1.00  0.00    -0.000 C 
BRANCH  17  18
ATOM     18  C   UNL     1       5.603  30.803  30.814  1.00  0.00    -0.003 C 
ATOM     19  C   UNL     1       7.018  31.379  30.745  1.00  0.00     0.004 C 
ENDBRANCH  17  18
ENDBRANCH  16  17
ENDBRANCH  15  16
ENDBRANCH  14  15
ENDBRANCH  13  14
ENDBRANCH  12  13
ENDBRANCH   1  12
TORSDOF 14
ENDMDL
MODEL 6
REMARK VINA RESULT:    -4.123      2.922      5.854
REMARK INTER + INTRA:          -9.790
REMARK INTER:                  -6.957
REMARK INTRA:                  -2.833
REMARK UNBOUND:                -2.292
REMARK SMILES CCCCCCCCCCCCCC[C@H](C)C(=O)[O-]
REMARK SMILES IDX 9 1 10 2 11 3 12 4 13 5 14 6 15 7 16 8 17 9 18 10 19 11 8 12
REMARK SMILES IDX 7 13 6 14 5 15 4 16 3 17 2 18 1 19
REMARK H PARENT
REMARK Flexibility Score: inf
ROOT
ATOM      1  C   UNL     1       5.850  27.047  28.917  1.00  0.00     0.000 C 
ENDROOT
BRANCH   1   2
ATOM      2  C   UNL     1       7.079  27.868  29.334  1.00  0.00     0.000 C 
BRANCH   2   3
ATOM      3  C   UNL     1       6.898  29.381  29.102  1.00  0.00     0.000 C 
BRANCH   3   4
ATOM      4  C   UNL     1       8.196  30.150  28.789  1.00  0.00     0.000 C 
BRANCH   4   5
ATOM      5  C   UNL     1       9.319  29.295  28.170  1.00  0.00     0.001 C 
BRANCH   5   6
ATOM      6  C   UNL     1      10.309  30.108  27.305  1.00  0.00     0.009 C 
BRANCH   6   7
ATOM      7  C   UNL     1       9.631  31.200  26.446  1.00  0.00     0.032 C 
ATOM      8  C   UNL     1       9.616  30.833  24.956  1.00  0.00     0.014 C 
BRANCH   7   9
ATOM      9  C   UNL     1      10.342  32.512  26.629  1.00  0.00     0.044 C 
ATOM     10  O   UNL     1      10.728  33.169  25.626  1.00  0.00    -0.550 OA
ATOM     11  O   UNL     1      10.582  33.008  27.905  1.00  0.00    -0.550 OA
ENDBRANCH   7   9
ENDBRANCH   6   7
ENDBRANCH   5   6
ENDBRANCH   4   5
ENDBRANCH   3   4
ENDBRANCH   2   3
ENDBRANCH   1   2
BRANCH   1  12
ATOM     12  C   UNL     1       6.242  25.932  27.940  1.00  0.00     0.000 C 
BRANCH  12  13
ATOM     13  C   UNL     1       7.750  25.962  27.646  1.00  0.00    -0.000 C 
BRANCH  13  14
ATOM     14  C   UNL     1       8.071  25.932  26.140  1.00  0.00    -0.000 C 
BRANCH  14  15
ATOM     15  C   UNL     1       8.254  27.315  25.490  1.00  0.00    -0.000 C 
BRANCH  15  16
ATOM     16  C   UNL     1       6.969  27.838  24.825  1.00  0.00    -0.000 C 
BRANCH  16  17
ATOM     17  C   UNL     1       6.360  29.041  25.568  1.00  0.00    -0.000 C 
BRANCH  17  18
ATOM     18  C   UNL     1       4.843  29.217  25.373  1.00  0.00    -0.003 C 
ATOM     19  C   UNL     1       4.086  29.401  26.688  1.00  0.00     0.004 C 
ENDBRANCH  17  18
ENDBRANCH  16  17
ENDBRANCH  15  16
ENDBRANCH  14  15
ENDBRANCH  13  14
ENDBRANCH  12  13
ENDBRANCH   1  12
TORSDOF 14
ENDMDL
MODEL 7
REMARK VINA RESULT:    -4.078      3.168      6.493
REMARK INTER + INTRA:          -9.708
REMARK INTER:                  -6.962
REMARK INTRA:                  -2.746
REMARK UNBOUND:                -2.292
REMARK SMILES CCCCCCCCCCCCCC[C@H](C)C(=O)[O-]
REMARK SMILES IDX 9 1 10 2 11 3 12 4 13 5 14 6 15 7 16 8 17 9 18 10 19 11 8 12
REMARK SMILES IDX 7 13 6 14 5 15 4 16 3 17 2 18 1 19
REMARK H PARENT
REMARK Flexibility Score: inf
ROOT
ATOM      1  C   UNL     1       6.804  26.580  28.753  1.00  0.00     0.000 C 
ENDROOT
BRANCH   1   2
ATOM      2  C   UNL     1       7.476  25.782  27.627  1.00  0.00     0.000 C 
BRANCH   2   3
ATOM      3  C   UNL     1       8.525  26.603  26.852  1.00  0.00     0.000 C 
BRANCH   3   4
ATOM      4  C   UNL     1       7.949  27.530  25.765  1.00  0.00     0.000 C 
BRANCH   4   5
ATOM      5  C   UNL     1       8.632  28.907  25.663  1.00  0.00     0.001 C 
BRANCH   5   6
ATOM      6  C   UNL     1       9.378  29.326  26.951  1.00  0.00     0.009 C 
BRANCH   6   7
ATOM      7  C   UNL     1       9.916  30.775  26.913  1.00  0.00     0.032 C 
ATOM      8  C   UNL     1       9.185  31.631  25.870  1.00  0.00     0.014 C 
BRANCH   7   9
ATOM      9  C   UNL     1      11.389  30.767  26.609  1.00  0.00     0.044 C 
ATOM     10  O   UNL     1      11.789  30.708  25.416  1.00  0.00    -0.550 OA
ATOM     11  O   UNL     1      12.319  30.824  27.641  1.00  0.00    -0.550 OA
ENDBRANCH   7   9
ENDBRANCH   6   7
ENDBRANCH   5   6
ENDBRANCH   4   5
ENDBRANCH   3   4
ENDBRANCH   2   3
ENDBRANCH   1   2
BRANCH   1  12
ATOM     12  C   UNL     1       5.278  26.569  28.597  1.00  0.00     0.000 C 
BRANCH  12  13
ATOM     13  C   UNL     1       4.871  26.060  27.205  1.00  0.00    -0.000 C 
BRANCH  13  14
ATOM     14  C   UNL     1       4.199  27.142  26.341  1.00  0.00    -0.000 C 
BRANCH  14  15
ATOM     15  C   UNL     1       4.019  28.505  27.033  1.00  0.00    -0.000 C 
BRANCH  15  16
ATOM     16  C   UNL     1       4.670  29.662  26.254  1.00  0.00    -0.000 C 
BRANCH  16  17
ATOM     17  C   UNL     1       5.694  30.445  27.095  1.00  0.00    -0.000 C 
BRANCH  17  18
ATOM     18  C   UNL     1       5.489  30.344  28.617  1.00  0.00    -0.003 C 
ATOM     19  C   UNL     1       6.802  30.216  29.391  1.00  0.00     0.004 C 
ENDBRANCH  17  18
ENDBRANCH  16  17
ENDBRANCH  15  16
ENDBRANCH  14  15
ENDBRANCH  13  14
ENDBRANCH  12  13
ENDBRANCH   1  12
TORSDOF 14
ENDMDL
MODEL 8
REMARK VINA RESULT:    -4.067      3.073      6.659
REMARK INTER + INTRA:          -9.687
REMARK INTER:                  -7.576
REMARK INTRA:                  -2.111
REMARK UNBOUND:                -2.292
REMARK SMILES CCCCCCCCCCCCCC[C@H](C)C(=O)[O-]
REMARK SMILES IDX 9 1 10 2 11 3 12 4 13 5 14 6 15 7 16 8 17 9 18 10 19 11 8 12
REMARK SMILES IDX 7 13 6 14 5 15 4 16 3 17 2 18 1 19
REMARK H PARENT
REMARK Flexibility Score: inf
ROOT
ATOM      1  C   UNL     1       6.737  29.914  25.995  1.00  0.00     0.000 C 
ENDROOT
BRANCH   1   2
ATOM      2  C   UNL     1       8.057  30.669  26.205  1.00  0.00     0.000 C 
BRANCH   2   3
ATOM      3  C   UNL     1       9.288  29.742  26.194  1.00  0.00     0.000 C 
BRANCH   3   4
ATOM      4  C   UNL     1       9.886  29.440  27.582  1.00  0.00     0.000 C 
BRANCH   4   5
ATOM      5  C   UNL     1      11.190  30.196  27.900  1.00  0.00     0.001 C 
BRANCH   5   6
ATOM      6  C   UNL     1      11.649  31.144  26.768  1.00  0.00     0.009 C 
BRANCH   6   7
ATOM      7  C   UNL     1      11.489  32.643  27.113  1.00  0.00     0.032 C 
ATOM      8  C   UNL     1      10.419  32.874  28.189  1.00  0.00     0.014 C 
BRANCH   7   9
ATOM      9  C   UNL     1      11.128  33.418  25.876  1.00  0.00     0.044 C 
ATOM     10  O   UNL     1      10.487  32.863  24.945  1.00  0.00    -0.550 OA
ATOM     11  O   UNL     1      11.500  34.752  25.750  1.00  0.00    -0.550 OA
ENDBRANCH   7   9
ENDBRANCH   6   7
ENDBRANCH   5   6
ENDBRANCH   4   5
ENDBRANCH   3   4
ENDBRANCH   2   3
ENDBRANCH   1   2
BRANCH   1  12
ATOM     12  C   UNL     1       5.602  30.558  26.801  1.00  0.00     0.000 C 
BRANCH  12  13
ATOM     13  C   UNL     1       5.722  30.212  28.293  1.00  0.00    -0.000 C 
BRANCH  13  14
ATOM     14  C   UNL     1       5.611  28.702  28.571  1.00  0.00    -0.000 C 
BRANCH  14  15
ATOM     15  C   UNL     1       6.845  28.075  29.245  1.00  0.00    -0.000 C 
BRANCH  15  16
ATOM     16  C   UNL     1       6.705  26.557  29.457  1.00  0.00    -0.000 C 
BRANCH  16  17
ATOM     17  C   UNL     1       6.978  25.749  28.175  1.00  0.00    -0.000 C 
BRANCH  17  18
ATOM     18  C   UNL     1       8.207  26.212  27.372  1.00  0.00    -0.003 C 
ATOM     19  C   UNL     1       7.934  26.330  25.873  1.00  0.00     0.004 C 
ENDBRANCH  17  18
ENDBRANCH  16  17
ENDBRANCH  15  16
ENDBRANCH  14  15
ENDBRANCH  13  14
ENDBRANCH  12  13
ENDBRANCH   1  12
TORSDOF 14
ENDMDL
MODEL 9
REMARK VINA RESULT:    -4.022      3.080      6.610
REMARK INTER + INTRA:          -9.605
REMARK INTER:                  -6.864
REMARK INTRA:                  -2.741
REMARK UNBOUND:                -2.292
REMARK SMILES CCCCCCCCCCCCCC[C@H](C)C(=O)[O-]
REMARK SMILES IDX 9 1 10 2 11 3 12 4 13 5 14 6 15 7 16 8 17 9 18 10 19 11 8 12
REMARK SMILES IDX 7 13 6 14 5 15 4 16 3 17 2 18 1 19
REMARK H PARENT
REMARK Flexibility Score: inf
ROOT
ATOM      1  C   UNL     1       4.733  29.472  26.221  1.00  0.00     0.000 C 
ENDROOT
BRANCH   1   2
ATOM      2  C   UNL     1       5.964  30.111  26.880  1.00  0.00     0.000 C 
BRANCH   2   3
ATOM      3  C   UNL     1       6.098  29.757  28.373  1.00  0.00     0.000 C 
BRANCH   3   4
ATOM      4  C   UNL     1       7.524  29.883  28.944  1.00  0.00     0.000 C 
BRANCH   4   5
ATOM      5  C   UNL     1       8.651  29.611  27.930  1.00  0.00     0.001 C 
BRANCH   5   6
ATOM      6  C   UNL     1       9.785  30.662  27.968  1.00  0.00     0.009 C 
BRANCH   6   7
ATOM      7  C   UNL     1       9.680  31.727  26.851  1.00  0.00     0.032 C 
ATOM      8  C   UNL     1       9.262  31.111  25.509  1.00  0.00     0.014 C 
BRANCH   7   9
ATOM      9  C   UNL     1      11.000  32.429  26.688  1.00  0.00     0.044 C 
ATOM     10  O   UNL     1      11.982  32.108  27.408  1.00  0.00    -0.550 OA
ATOM     11  O   UNL     1      11.145  33.438  25.743  1.00  0.00    -0.550 OA
ENDBRANCH   7   9
ENDBRANCH   6   7
ENDBRANCH   5   6
ENDBRANCH   4   5
ENDBRANCH   3   4
ENDBRANCH   2   3
ENDBRANCH   1   2
BRANCH   1  12
ATOM     12  C   UNL     1       5.150  28.469  25.138  1.00  0.00     0.000 C 
BRANCH  12  13
ATOM     13  C   UNL     1       6.676  28.455  24.960  1.00  0.00    -0.000 C 
BRANCH  13  14
ATOM     14  C   UNL     1       7.252  27.033  24.816  1.00  0.00    -0.000 C 
BRANCH  14  15
ATOM     15  C   UNL     1       8.107  26.559  26.004  1.00  0.00    -0.000 C 
BRANCH  15  16
ATOM     16  C   UNL     1       7.337  25.635  26.964  1.00  0.00    -0.000 C 
BRANCH  16  17
ATOM     17  C   UNL     1       7.354  26.139  28.419  1.00  0.00    -0.000 C 
BRANCH  17  18
ATOM     18  C   UNL     1       5.983  26.125  29.120  1.00  0.00    -0.003 C 
ATOM     19  C   UNL     1       4.809  26.197  28.144  1.00  0.00     0.004 C 
ENDBRANCH  17  18
ENDBRANCH  16  17
ENDBRANCH  15  16
ENDBRANCH  14  15
ENDBRANCH  13  14
ENDBRANCH  12  13
ENDBRANCH   1  12
TORSDOF 14
ENDMDL
