MODEL 1
REMARK VINA RESULT:    -4.198      0.000      0.000
REMARK INTER + INTRA:          -9.786
REMARK INTER:                  -7.635
REMARK INTRA:                  -2.151
REMARK UNBOUND:                -2.151
REMARK SMILES CCCCCCCCCCCCCC[C@H](C)C(=O)[O-]
REMARK SMILES IDX 9 1 10 2 11 3 12 4 13 5 14 6 15 7 16 8 17 9 18 10 19 11 8 12
REMARK SMILES IDX 7 13 6 14 5 15 4 16 3 17 2 18 1 19
REMARK H PARENT
REMARK Flexibility Score: inf
ROOT
ATOM      1  C   UNL     1      28.800   1.548   7.842  1.00  0.00     0.000 C 
ENDROOT
BRANCH   1   2
ATOM      2  C   UNL     1      28.323   2.976   8.161  1.00  0.00     0.000 C 
BRANCH   2   3
ATOM      3  C   UNL     1      28.799   3.462   9.539  1.00  0.00     0.000 C 
BRANCH   3   4
ATOM      4  C   UNL     1      27.673   4.111  10.361  1.00  0.00     0.000 C 
BRANCH   4   5
ATOM      5  C   UNL     1      26.412   4.387   9.525  1.00  0.00     0.001 C 
BRANCH   5   6
ATOM      6  C   UNL     1      25.902   5.830   9.685  1.00  0.00     0.009 C 
BRANCH   6   7
ATOM      7  C   UNL     1      25.521   6.464   8.330  1.00  0.00     0.032 C 
ATOM      8  C   UNL     1      25.805   5.492   7.179  1.00  0.00     0.014 C 
BRANCH   7   9
ATOM      9  C   UNL     1      26.256   7.758   8.099  1.00  0.00     0.044 C 
ATOM     10  O   UNL     1      26.989   7.907   7.085  1.00  0.00    -0.550 OA
ATOM     11  O   UNL     1      26.124   8.800   9.009  1.00  0.00    -0.550 OA
ENDBRANCH   7   9
ENDBRANCH   6   7
ENDBRANCH   5   6
ENDBRANCH   4   5
ENDBRANCH   3   4
ENDBRANCH   2   3
ENDBRANCH   1   2
BRANCH   1  12
ATOM     12  C   UNL     1      28.706   0.611   9.058  1.00  0.00     0.000 C 
BRANCH  12  13
ATOM     13  C   UNL     1      28.263  -0.811   8.675  1.00  0.00    -0.000 C 
BRANCH  13  14
ATOM     14  C   UNL     1      28.609  -1.171   7.218  1.00  0.00    -0.000 C 
BRANCH  14  15
ATOM     15  C   UNL     1      27.403  -1.538   6.331  1.00  0.00    -0.000 C 
BRANCH  15  16
ATOM     16  C   UNL     1      26.092  -0.797   6.667  1.00  0.00    -0.000 C 
BRANCH  16  17
ATOM     17  C   UNL     1      25.638   0.229   5.614  1.00  0.00    -0.000 C 
BRANCH  17  18
ATOM     18  C   UNL     1      25.498   1.647   6.186  1.00  0.00    -0.003 C 
ATOM     19  C   UNL     1      24.903   1.615   7.591  1.00  0.00     0.004 C 
ENDBRANCH  17  18
ENDBRANCH  16  17
ENDBRANCH  15  16
ENDBRANCH  14  15
ENDBRANCH  13  14
ENDBRANCH  12  13
ENDBRANCH   1  12
TORSDOF 14
ENDMDL
MODEL 2
REMARK VINA RESULT:    -4.177      3.135      6.336
REMARK INTER + INTRA:          -9.747
REMARK INTER:                  -7.494
REMARK INTRA:                  -2.253
REMARK UNBOUND:                -2.151
REMARK SMILES CCCCCCCCCCCCCC[C@H](C)C(=O)[O-]
REMARK SMILES IDX 9 1 10 2 11 3 12 4 13 5 14 6 15 7 16 8 17 9 18 10 19 11 8 12
REMARK SMILES IDX 7 13 6 14 5 15 4 16 3 17 2 18 1 19
REMARK H PARENT
REMARK Flexibility Score: inf
ROOT
ATOM      1  C   UNL     1      27.910   1.304   8.813  1.00  0.00     0.000 C 
ENDROOT
BRANCH   1   2
ATOM      2  C   UNL     1      28.937   0.167   8.956  1.00  0.00     0.000 C 
BRANCH   2   3
ATOM      3  C   UNL     1      28.326  -1.104   9.568  1.00  0.00     0.000 C 
BRANCH   3   4
ATOM      4  C   UNL     1      28.299  -2.284   8.581  1.00  0.00     0.000 C 
BRANCH   4   5
ATOM      5  C   UNL     1      28.639  -1.862   7.142  1.00  0.00     0.001 C 
BRANCH   5   6
ATOM      6  C   UNL     1      27.434  -1.980   6.192  1.00  0.00     0.009 C 
BRANCH   6   7
ATOM      7  C   UNL     1      26.748  -0.619   5.953  1.00  0.00     0.032 C 
ATOM      8  C   UNL     1      25.409  -0.550   6.698  1.00  0.00     0.014 C 
BRANCH   7   9
ATOM      9  C   UNL     1      26.530  -0.359   4.485  1.00  0.00     0.044 C 
ATOM     10  O   UNL     1      26.239   0.797   4.075  1.00  0.00    -0.550 OA
ATOM     11  O   UNL     1      26.653  -1.399   3.573  1.00  0.00    -0.550 OA
ENDBRANCH   7   9
ENDBRANCH   6   7
ENDBRANCH   5   6
ENDBRANCH   4   5
ENDBRANCH   3   4
ENDBRANCH   2   3
ENDBRANCH   1   2
BRANCH   1  12
ATOM     12  C   UNL     1      28.446   2.480   7.980  1.00  0.00     0.000 C 
BRANCH  12  13
ATOM     13  C   UNL     1      28.680   3.744   8.825  1.00  0.00    -0.000 C 
BRANCH  13  14
ATOM     14  C   UNL     1      27.891   3.731  10.147  1.00  0.00    -0.000 C 
BRANCH  14  15
ATOM     15  C   UNL     1      26.892   4.892  10.323  1.00  0.00    -0.000 C 
BRANCH  15  16
ATOM     16  C   UNL     1      25.404   4.487  10.300  1.00  0.00    -0.000 C 
BRANCH  16  17
ATOM     17  C   UNL     1      25.021   3.487   9.195  1.00  0.00    -0.000 C 
BRANCH  17  18
ATOM     18  C   UNL     1      24.881   4.148   7.816  1.00  0.00    -0.003 C 
ATOM     19  C   UNL     1      25.018   3.120   6.698  1.00  0.00     0.004 C 
ENDBRANCH  17  18
ENDBRANCH  16  17
ENDBRANCH  15  16
ENDBRANCH  14  15
ENDBRANCH  13  14
ENDBRANCH  12  13
ENDBRANCH   1  12
TORSDOF 14
ENDMDL
MODEL 3
REMARK VINA RESULT:    -4.132      1.362      2.523
REMARK INTER + INTRA:          -9.665
REMARK INTER:                  -7.577
REMARK INTRA:                  -2.088
REMARK UNBOUND:                -2.151
REMARK SMILES CCCCCCCCCCCCCC[C@H](C)C(=O)[O-]
REMARK SMILES IDX 9 1 10 2 11 3 12 4 13 5 14 6 15 7 16 8 17 9 18 10 19 11 8 12
REMARK SMILES IDX 7 13 6 14 5 15 4 16 3 17 2 18 1 19
REMARK H PARENT
REMARK Flexibility Score: inf
ROOT
ATOM      1  C   UNL     1      28.422  -0.745   8.779  1.00  0.00     0.000 C 
ENDROOT
BRANCH   1   2
ATOM      2  C   UNL     1      28.730   0.741   9.036  1.00  0.00     0.000 C 
BRANCH   2   3
ATOM      3  C   UNL     1      28.750   1.570   7.742  1.00  0.00     0.000 C 
BRANCH   3   4
ATOM      4  C   UNL     1      28.205   2.995   7.942  1.00  0.00     0.000 C 
BRANCH   4   5
ATOM      5  C   UNL     1      27.137   3.071   9.045  1.00  0.00     0.001 C 
BRANCH   5   6
ATOM      6  C   UNL     1      27.411   4.200  10.055  1.00  0.00     0.009 C 
BRANCH   6   7
ATOM      7  C   UNL     1      26.240   5.202  10.138  1.00  0.00     0.032 C 
ATOM      8  C   UNL     1      24.933   4.479  10.486  1.00  0.00     0.014 C 
BRANCH   7   9
ATOM      9  C   UNL     1      26.074   5.966   8.850  1.00  0.00     0.044 C 
ATOM     10  O   UNL     1      25.190   5.632   8.016  1.00  0.00    -0.550 OA
ATOM     11  O   UNL     1      26.899   7.050   8.577  1.00  0.00    -0.550 OA
ENDBRANCH   7   9
ENDBRANCH   6   7
ENDBRANCH   5   6
ENDBRANCH   4   5
ENDBRANCH   3   4
ENDBRANCH   2   3
ENDBRANCH   1   2
BRANCH   1  12
ATOM     12  C   UNL     1      28.921  -1.220   7.404  1.00  0.00     0.000 C 
BRANCH  12  13
ATOM     13  C   UNL     1      28.015  -2.301   6.789  1.00  0.00    -0.000 C 
BRANCH  13  14
ATOM     14  C   UNL     1      26.537  -2.136   7.186  1.00  0.00    -0.000 C 
BRANCH  14  15
ATOM     15  C   UNL     1      25.691  -1.286   6.217  1.00  0.00    -0.000 C 
BRANCH  15  16
ATOM     16  C   UNL     1      25.547   0.200   6.602  1.00  0.00    -0.000 C 
BRANCH  16  17
ATOM     17  C   UNL     1      25.843   1.196   5.466  1.00  0.00    -0.000 C 
BRANCH  17  18
ATOM     18  C   UNL     1      27.015   0.753   4.577  1.00  0.00    -0.003 C 
ATOM     19  C   UNL     1      26.561   0.544   3.135  1.00  0.00     0.004 C 
ENDBRANCH  17  18
ENDBRANCH  16  17
ENDBRANCH  15  16
ENDBRANCH  14  15
ENDBRANCH  13  14
ENDBRANCH  12  13
ENDBRANCH   1  12
TORSDOF 14
ENDMDL
MODEL 4
REMARK VINA RESULT:    -4.123      1.327      3.382
REMARK INTER + INTRA:          -9.649
REMARK INTER:                  -7.225
REMARK INTRA:                  -2.424
REMARK UNBOUND:                -2.151
REMARK SMILES CCCCCCCCCCCCCC[C@H](C)C(=O)[O-]
REMARK SMILES IDX 9 1 10 2 11 3 12 4 13 5 14 6 15 7 16 8 17 9 18 10 19 11 8 12
REMARK SMILES IDX 7 13 6 14 5 15 4 16 3 17 2 18 1 19
REMARK H PARENT
REMARK Flexibility Score: inf
ROOT
ATOM      1  C   UNL     1      24.870   1.615   5.986  1.00  0.00     0.000 C 
ENDROOT
BRANCH   1   2
ATOM      2  C   UNL     1      24.638   2.949   6.717  1.00  0.00     0.000 C 
BRANCH   2   3
ATOM      3  C   UNL     1      24.393   2.760   8.223  1.00  0.00     0.000 C 
BRANCH   3   4
ATOM      4  C   UNL     1      24.213   4.094   8.967  1.00  0.00     0.000 C 
BRANCH   4   5
ATOM      5  C   UNL     1      25.120   4.210  10.203  1.00  0.00     0.001 C 
BRANCH   5   6
ATOM      6  C   UNL     1      25.832   5.572  10.287  1.00  0.00     0.009 C 
BRANCH   6   7
ATOM      7  C   UNL     1      25.555   6.448   9.047  1.00  0.00     0.032 C 
ATOM      8  C   UNL     1      26.845   6.690   8.255  1.00  0.00     0.014 C 
BRANCH   7   9
ATOM      9  C   UNL     1      24.935   7.767   9.430  1.00  0.00     0.044 C 
ATOM     10  O   UNL     1      25.422   8.851   9.009  1.00  0.00    -0.550 OA
ATOM     11  O   UNL     1      23.814   7.793  10.251  1.00  0.00    -0.550 OA
ENDBRANCH   7   9
ENDBRANCH   6   7
ENDBRANCH   5   6
ENDBRANCH   4   5
ENDBRANCH   3   4
ENDBRANCH   2   3
ENDBRANCH   1   2
BRANCH   1  12
ATOM     12  C   UNL     1      25.122   0.448   6.955  1.00  0.00     0.000 C 
BRANCH  12  13
ATOM     13  C   UNL     1      26.523  -0.164   6.791  1.00  0.00    -0.000 C 
BRANCH  13  14
ATOM     14  C   UNL     1      27.339  -0.145   8.096  1.00  0.00    -0.000 C 
BRANCH  14  15
ATOM     15  C   UNL     1      28.725   0.522   7.992  1.00  0.00    -0.000 C 
BRANCH  15  16
ATOM     16  C   UNL     1      28.736   1.911   7.322  1.00  0.00    -0.000 C 
BRANCH  16  17
ATOM     17  C   UNL     1      28.022   3.020   8.116  1.00  0.00    -0.000 C 
BRANCH  17  18
ATOM     18  C   UNL     1      28.955   3.743   9.098  1.00  0.00    -0.003 C 
ATOM     19  C   UNL     1      28.805   3.185  10.510  1.00  0.00     0.004 C 
ENDBRANCH  17  18
ENDBRANCH  16  17
ENDBRANCH  15  16
ENDBRANCH  14  15
ENDBRANCH  13  14
ENDBRANCH  12  13
ENDBRANCH   1  12
TORSDOF 14
ENDMDL
MODEL 5
REMARK VINA RESULT:    -4.114      1.717      2.120
REMARK INTER + INTRA:          -9.632
REMARK INTER:                  -7.808
REMARK INTRA:                  -1.823
REMARK UNBOUND:                -2.151
REMARK SMILES CCCCCCCCCCCCCC[C@H](C)C(=O)[O-]
REMARK SMILES IDX 9 1 10 2 11 3 12 4 13 5 14 6 15 7 16 8 17 9 18 10 19 11 8 12
REMARK SMILES IDX 7 13 6 14 5 15 4 16 3 17 2 18 1 19
REMARK H PARENT
REMARK Flexibility Score: inf
ROOT
ATOM      1  C   UNL     1      27.795   1.352   8.483  1.00  0.00     0.000 C 
ENDROOT
BRANCH   1   2
ATOM      2  C   UNL     1      28.350   2.615   7.802  1.00  0.00     0.000 C 
BRANCH   2   3
ATOM      3  C   UNL     1      28.607   3.756   8.799  1.00  0.00     0.000 C 
BRANCH   3   4
ATOM      4  C   UNL     1      27.698   3.679  10.038  1.00  0.00     0.000 C 
BRANCH   4   5
ATOM      5  C   UNL     1      26.932   4.987  10.294  1.00  0.00     0.001 C 
BRANCH   5   6
ATOM      6  C   UNL     1      26.889   5.898   9.053  1.00  0.00     0.009 C 
BRANCH   6   7
ATOM      7  C   UNL     1      25.448   6.310   8.686  1.00  0.00     0.032 C 
ATOM      8  C   UNL     1      24.494   6.043   9.857  1.00  0.00     0.014 C 
BRANCH   7   9
ATOM      9  C   UNL     1      24.963   5.588   7.456  1.00  0.00     0.044 C 
ATOM     10  O   UNL     1      25.714   4.778   6.850  1.00  0.00    -0.550 OA
ATOM     11  O   UNL     1      23.675   5.813   6.985  1.00  0.00    -0.550 OA
ENDBRANCH   7   9
ENDBRANCH   6   7
ENDBRANCH   5   6
ENDBRANCH   4   5
ENDBRANCH   3   4
ENDBRANCH   2   3
ENDBRANCH   1   2
BRANCH   1  12
ATOM     12  C   UNL     1      28.879   0.287   8.723  1.00  0.00     0.000 C 
BRANCH  12  13
ATOM     13  C   UNL     1      28.383  -0.872   9.603  1.00  0.00    -0.000 C 
BRANCH  13  14
ATOM     14  C   UNL     1      28.208  -2.185   8.818  1.00  0.00    -0.000 C 
BRANCH  14  15
ATOM     15  C   UNL     1      28.698  -2.142   7.356  1.00  0.00    -0.000 C 
BRANCH  15  16
ATOM     16  C   UNL     1      27.583  -2.130   6.291  1.00  0.00    -0.000 C 
BRANCH  16  17
ATOM     17  C   UNL     1      26.239  -1.546   6.764  1.00  0.00    -0.000 C 
BRANCH  17  18
ATOM     18  C   UNL     1      25.697  -0.462   5.821  1.00  0.00    -0.003 C 
ATOM     19  C   UNL     1      26.832   0.236   5.078  1.00  0.00     0.004 C 
ENDBRANCH  17  18
ENDBRANCH  16  17
ENDBRANCH  15  16
ENDBRANCH  14  15
ENDBRANCH  13  14
ENDBRANCH  12  13
ENDBRANCH   1  12
TORSDOF 14
ENDMDL
MODEL 6
REMARK VINA RESULT:    -4.095      1.401      2.060
REMARK INTER + INTRA:          -9.597
REMARK INTER:                  -7.095
REMARK INTRA:                  -2.502
REMARK UNBOUND:                -2.151
REMARK SMILES CCCCCCCCCCCCCC[C@H](C)C(=O)[O-]
REMARK SMILES IDX 9 1 10 2 11 3 12 4 13 5 14 6 15 7 16 8 17 9 18 10 19 11 8 12
REMARK SMILES IDX 7 13 6 14 5 15 4 16 3 17 2 18 1 19
REMARK H PARENT
REMARK Flexibility Score: inf
ROOT
ATOM      1  C   UNL     1      28.691   0.869   9.022  1.00  0.00     0.000 C 
ENDROOT
BRANCH   1   2
ATOM      2  C   UNL     1      28.786   1.948   7.929  1.00  0.00     0.000 C 
BRANCH   2   3
ATOM      3  C   UNL     1      28.397   3.343   8.443  1.00  0.00     0.000 C 
BRANCH   3   4
ATOM      4  C   UNL     1      28.244   3.391   9.973  1.00  0.00     0.000 C 
BRANCH   4   5
ATOM      5  C   UNL     1      27.034   4.226  10.422  1.00  0.00     0.001 C 
BRANCH   5   6
ATOM      6  C   UNL     1      26.821   5.474   9.548  1.00  0.00     0.009 C 
BRANCH   6   7
ATOM      7  C   UNL     1      25.328   5.848   9.426  1.00  0.00     0.032 C 
ATOM      8  C   UNL     1      24.466   4.929  10.298  1.00  0.00     0.014 C 
BRANCH   7   9
ATOM      9  C   UNL     1      24.857   5.785   7.996  1.00  0.00     0.044 C 
ATOM     10  O   UNL     1      25.687   5.701   7.051  1.00  0.00    -0.550 OA
ATOM     11  O   UNL     1      23.497   5.817   7.714  1.00  0.00    -0.550 OA
ENDBRANCH   7   9
ENDBRANCH   6   7
ENDBRANCH   5   6
ENDBRANCH   4   5
ENDBRANCH   3   4
ENDBRANCH   2   3
ENDBRANCH   1   2
BRANCH   1  12
ATOM     12  C   UNL     1      28.102  -0.451   8.497  1.00  0.00     0.000 C 
BRANCH  12  13
ATOM     13  C   UNL     1      28.368  -0.661   6.997  1.00  0.00    -0.000 C 
BRANCH  13  14
ATOM     14  C   UNL     1      27.074  -0.748   6.167  1.00  0.00    -0.000 C 
BRANCH  14  15
ATOM     15  C   UNL     1      26.833   0.433   5.205  1.00  0.00    -0.000 C 
BRANCH  15  16
ATOM     16  C   UNL     1      25.466   1.131   5.353  1.00  0.00    -0.000 C 
BRANCH  16  17
ATOM     17  C   UNL     1      25.453   2.335   6.312  1.00  0.00    -0.000 C 
BRANCH  17  18
ATOM     18  C   UNL     1      25.066   1.947   7.747  1.00  0.00    -0.003 C 
ATOM     19  C   UNL     1      23.581   2.186   7.999  1.00  0.00     0.004 C 
ENDBRANCH  17  18
ENDBRANCH  16  17
ENDBRANCH  15  16
ENDBRANCH  14  15
ENDBRANCH  13  14
ENDBRANCH  12  13
ENDBRANCH   1  12
TORSDOF 14
ENDMDL
MODEL 7
REMARK VINA RESULT:    -4.076      3.309      6.520
REMARK INTER + INTRA:          -9.563
REMARK INTER:                  -7.391
REMARK INTRA:                  -2.172
REMARK UNBOUND:                -2.151
REMARK SMILES CCCCCCCCCCCCCC[C@H](C)C(=O)[O-]
REMARK SMILES IDX 9 1 10 2 11 3 12 4 13 5 14 6 15 7 16 8 17 9 18 10 19 11 8 12
REMARK SMILES IDX 7 13 6 14 5 15 4 16 3 17 2 18 1 19
REMARK H PARENT
REMARK Flexibility Score: inf
ROOT
ATOM      1  C   UNL     1      27.702   4.210  10.691  1.00  0.00     0.000 C 
ENDROOT
BRANCH   1   2
ATOM      2  C   UNL     1      28.625   3.280   9.883  1.00  0.00     0.000 C 
BRANCH   2   3
ATOM      3  C   UNL     1      28.407   3.407   8.367  1.00  0.00     0.000 C 
BRANCH   3   4
ATOM      4  C   UNL     1      28.402   2.045   7.652  1.00  0.00     0.000 C 
BRANCH   4   5
ATOM      5  C   UNL     1      28.652   0.871   8.613  1.00  0.00     0.001 C 
BRANCH   5   6
ATOM      6  C   UNL     1      28.933  -0.449   7.872  1.00  0.00     0.009 C 
BRANCH   6   7
ATOM      7  C   UNL     1      27.794  -1.473   8.059  1.00  0.00     0.032 C 
ATOM      8  C   UNL     1      28.361  -2.859   8.387  1.00  0.00     0.014 C 
BRANCH   7   9
ATOM      9  C   UNL     1      26.917  -1.556   6.836  1.00  0.00     0.044 C 
ATOM     10  O   UNL     1      27.175  -0.863   5.816  1.00  0.00    -0.550 OA
ATOM     11  O   UNL     1      25.818  -2.404   6.829  1.00  0.00    -0.550 OA
ENDBRANCH   7   9
ENDBRANCH   6   7
ENDBRANCH   5   6
ENDBRANCH   4   5
ENDBRANCH   3   4
ENDBRANCH   2   3
ENDBRANCH   1   2
BRANCH   1  12
ATOM     12  C   UNL     1      26.228   4.088  10.270  1.00  0.00     0.000 C 
BRANCH  12  13
ATOM     13  C   UNL     1      25.539   5.457  10.133  1.00  0.00    -0.000 C 
BRANCH  13  14
ATOM     14  C   UNL     1      26.103   6.296   8.972  1.00  0.00    -0.000 C 
BRANCH  14  15
ATOM     15  C   UNL     1      25.761   5.774   7.562  1.00  0.00    -0.000 C 
BRANCH  15  16
ATOM     16  C   UNL     1      24.255   5.622   7.266  1.00  0.00    -0.000 C 
BRANCH  16  17
ATOM     17  C   UNL     1      23.769   4.170   7.105  1.00  0.00    -0.000 C 
BRANCH  17  18
ATOM     18  C   UNL     1      24.919   3.180   6.871  1.00  0.00    -0.003 C 
ATOM     19  C   UNL     1      24.744   1.925   7.721  1.00  0.00     0.004 C 
ENDBRANCH  17  18
ENDBRANCH  16  17
ENDBRANCH  15  16
ENDBRANCH  14  15
ENDBRANCH  13  14
ENDBRANCH  12  13
ENDBRANCH   1  12
TORSDOF 14
ENDMDL
MODEL 8
REMARK VINA RESULT:    -4.003      1.192      3.533
REMARK INTER + INTRA:          -9.431
REMARK INTER:                  -7.217
REMARK INTRA:                  -2.213
REMARK UNBOUND:                -2.151
REMARK SMILES CCCCCCCCCCCCCC[C@H](C)C(=O)[O-]
REMARK SMILES IDX 9 1 10 2 11 3 12 4 13 5 14 6 15 7 16 8 17 9 18 10 19 11 8 12
REMARK SMILES IDX 7 13 6 14 5 15 4 16 3 17 2 18 1 19
REMARK H PARENT
REMARK Flexibility Score: inf
ROOT
ATOM      1  C   UNL     1      25.082   0.805   4.241  1.00  0.00     0.000 C 
ENDROOT
BRANCH   1   2
ATOM      2  C   UNL     1      24.214   1.562   5.261  1.00  0.00     0.000 C 
BRANCH   2   3
ATOM      3  C   UNL     1      25.053   2.360   6.272  1.00  0.00     0.000 C 
BRANCH   3   4
ATOM      4  C   UNL     1      24.662   2.067   7.731  1.00  0.00     0.000 C 
BRANCH   4   5
ATOM      5  C   UNL     1      25.211   3.115   8.713  1.00  0.00     0.001 C 
BRANCH   5   6
ATOM      6  C   UNL     1      25.234   4.532   8.112  1.00  0.00     0.009 C 
BRANCH   6   7
ATOM      7  C   UNL     1      26.478   5.330   8.556  1.00  0.00     0.032 C 
ATOM      8  C   UNL     1      26.837   5.009  10.011  1.00  0.00     0.014 C 
BRANCH   7   9
ATOM      9  C   UNL     1      26.270   6.814   8.396  1.00  0.00     0.044 C 
ATOM     10  O   UNL     1      25.198   7.355   8.776  1.00  0.00    -0.550 OA
ATOM     11  O   UNL     1      27.268   7.595   7.826  1.00  0.00    -0.550 OA
ENDBRANCH   7   9
ENDBRANCH   6   7
ENDBRANCH   5   6
ENDBRANCH   4   5
ENDBRANCH   3   4
ENDBRANCH   2   3
ENDBRANCH   1   2
BRANCH   1  12
ATOM     12  C   UNL     1      26.541   0.654   4.706  1.00  0.00     0.000 C 
BRANCH  12  13
ATOM     13  C   UNL     1      26.869  -0.777   5.163  1.00  0.00    -0.000 C 
BRANCH  13  14
ATOM     14  C   UNL     1      26.709  -0.970   6.682  1.00  0.00    -0.000 C 
BRANCH  14  15
ATOM     15  C   UNL     1      27.983  -1.427   7.421  1.00  0.00    -0.000 C 
BRANCH  15  16
ATOM     16  C   UNL     1      29.020  -0.317   7.690  1.00  0.00    -0.000 C 
BRANCH  16  17
ATOM     17  C   UNL     1      28.839   0.432   9.022  1.00  0.00    -0.000 C 
BRANCH  17  18
ATOM     18  C   UNL     1      28.474   1.911   8.828  1.00  0.00    -0.003 C 
ATOM     19  C   UNL     1      28.580   2.314   7.360  1.00  0.00     0.004 C 
ENDBRANCH  17  18
ENDBRANCH  16  17
ENDBRANCH  15  16
ENDBRANCH  14  15
ENDBRANCH  13  14
ENDBRANCH  12  13
ENDBRANCH   1  12
TORSDOF 14
ENDMDL
MODEL 9
REMARK VINA RESULT:    -4.002      3.224      5.983
REMARK INTER + INTRA:          -9.429
REMARK INTER:                  -6.700
REMARK INTRA:                  -2.728
REMARK UNBOUND:                -2.151
REMARK SMILES CCCCCCCCCCCCCC[C@H](C)C(=O)[O-]
REMARK SMILES IDX 9 1 10 2 11 3 12 4 13 5 14 6 15 7 16 8 17 9 18 10 19 11 8 12
REMARK SMILES IDX 7 13 6 14 5 15 4 16 3 17 2 18 1 19
REMARK H PARENT
REMARK Flexibility Score: inf
ROOT
ATOM      1  C   UNL     1      28.089   3.414  10.169  1.00  0.00     0.000 C 
ENDROOT
BRANCH   1   2
ATOM      2  C   UNL     1      28.764   3.752   8.828  1.00  0.00     0.000 C 
BRANCH   2   3
ATOM      3  C   UNL     1      28.737   2.572   7.842  1.00  0.00     0.000 C 
BRANCH   3   4
ATOM      4  C   UNL     1      28.163   1.289   8.467  1.00  0.00     0.000 C 
BRANCH   4   5
ATOM      5  C   UNL     1      27.423   0.412   7.444  1.00  0.00     0.001 C 
BRANCH   5   6
ATOM      6  C   UNL     1      27.270   1.102   6.076  1.00  0.00     0.009 C 
BRANCH   6   7
ATOM      7  C   UNL     1      26.035   0.592   5.304  1.00  0.00     0.032 C 
ATOM      8  C   UNL     1      25.268  -0.444   6.134  1.00  0.00     0.014 C 
BRANCH   7   9
ATOM      9  C   UNL     1      26.420  -0.002   3.974  1.00  0.00     0.044 C 
ATOM     10  O   UNL     1      26.815   0.737   3.033  1.00  0.00    -0.550 OA
ATOM     11  O   UNL     1      26.342  -1.376   3.782  1.00  0.00    -0.550 OA
ENDBRANCH   7   9
ENDBRANCH   6   7
ENDBRANCH   5   6
ENDBRANCH   4   5
ENDBRANCH   3   4
ENDBRANCH   2   3
ENDBRANCH   1   2
BRANCH   1  12
ATOM     12  C   UNL     1      26.797   4.216  10.396  1.00  0.00     0.000 C 
BRANCH  12  13
ATOM     13  C   UNL     1      26.842   5.606   9.739  1.00  0.00    -0.000 C 
BRANCH  13  14
ATOM     14  C   UNL     1      25.534   5.963   9.008  1.00  0.00    -0.000 C 
BRANCH  14  15
ATOM     15  C   UNL     1      25.593   5.851   7.472  1.00  0.00    -0.000 C 
BRANCH  15  16
ATOM     16  C   UNL     1      25.738   4.417   6.923  1.00  0.00    -0.000 C 
BRANCH  16  17
ATOM     17  C   UNL     1      24.456   3.566   6.982  1.00  0.00    -0.000 C 
BRANCH  17  18
ATOM     18  C   UNL     1      24.478   2.537   8.122  1.00  0.00    -0.003 C 
ATOM     19  C   UNL     1      23.425   2.864   9.176  1.00  0.00     0.004 C 
ENDBRANCH  17  18
ENDBRANCH  16  17
ENDBRANCH  15  16
ENDBRANCH  14  15
ENDBRANCH  13  14
ENDBRANCH  12  13
ENDBRANCH   1  12
TORSDOF 14
ENDMDL
