MODEL 1
REMARK VINA RESULT:    -2.802      0.000      0.000
REMARK INTER + INTRA:          -2.884
REMARK INTER:                  -2.884
REMARK INTRA:                   0.000
REMARK UNBOUND:                 0.000
REMARK SMILES CC1(C)[C@@H]2CC[C@@]1(C)[C@@H](O)C2
REMARK SMILES IDX 1 1 2 2 4 3 5 4 6 5 7 6 9 7 11 8 8 9 3 10 10 11
REMARK H PARENT 10 12
REMARK Flexibility Score: inf
ROOT
ATOM      1  C   UNL     1     131.413 144.742 141.400  1.00  0.00     0.012 C 
ATOM      2  C   UNL     1     130.679 145.539 140.276  1.00  0.00    -0.025 C 
ATOM      3  C   UNL     1     129.736 144.676 139.421  1.00  0.00    -0.002 C 
ATOM      4  C   UNL     1     130.694 143.678 138.728  1.00  0.00     0.005 C 
ATOM      5  C   UNL     1     131.956 144.529 138.481  1.00  0.00     0.010 C 
ATOM      6  C   UNL     1     131.544 145.915 139.051  1.00  0.00    -0.001 C 
ATOM      7  C   UNL     1     130.499 146.534 138.069  1.00  0.00     0.121 C 
ATOM      8  C   UNL     1     129.256 145.652 138.316  1.00  0.00     0.036 C 
ATOM      9  C   UNL     1     132.738 146.835 139.339  1.00  0.00     0.015 C 
ATOM     10  C   UNL     1     129.968 146.727 140.995  1.00  0.00     0.012 C 
ENDROOT
BRANCH   7  11
ATOM     11  O   UNL     1     130.900 146.463 136.725  1.00  0.00    -0.393 OA
ATOM     12  H   UNL     1     130.105 146.168 136.209  1.00  0.00     0.210 HD
ENDBRANCH   7  11
TORSDOF 1
ENDMDL
MODEL 2
REMARK VINA RESULT:    -2.780     11.403     13.152
REMARK INTER + INTRA:          -2.862
REMARK INTER:                  -2.862
REMARK INTRA:                   0.000
REMARK UNBOUND:                 0.000
REMARK SMILES CC1(C)[C@@H]2CC[C@@]1(C)[C@@H](O)C2
REMARK SMILES IDX 1 1 2 2 4 3 5 4 6 5 7 6 9 7 11 8 8 9 3 10 10 11
REMARK H PARENT 10 12
REMARK Flexibility Score: inf
ROOT
ATOM      1  C   UNL     1     141.238 145.923 139.526  1.00  0.00     0.012 C 
ATOM      2  C   UNL     1     142.629 145.216 139.545  1.00  0.00    -0.025 C 
ATOM      3  C   UNL     1     143.154 144.922 140.960  1.00  0.00    -0.002 C 
ATOM      4  C   UNL     1     143.345 146.332 141.570  1.00  0.00     0.005 C 
ATOM      5  C   UNL     1     143.809 147.168 140.361  1.00  0.00     0.010 C 
ATOM      6  C   UNL     1     143.841 146.117 139.216  1.00  0.00    -0.001 C 
ATOM      7  C   UNL     1     145.055 145.172 139.482  1.00  0.00     0.121 C 
ATOM      8  C   UNL     1     144.579 144.364 140.709  1.00  0.00     0.036 C 
ATOM      9  C   UNL     1     143.843 146.742 137.815  1.00  0.00     0.015 C 
ATOM     10  C   UNL     1     142.470 143.943 138.656  1.00  0.00     0.012 C 
ENDROOT
BRANCH   7  11
ATOM     11  O   UNL     1     146.239 145.869 139.776  1.00  0.00    -0.393 OA
ATOM     12  H   UNL     1     146.128 146.783 139.405  1.00  0.00     0.210 HD
ENDBRANCH   7  11
TORSDOF 1
ENDMDL
MODEL 3
REMARK VINA RESULT:    -2.773     10.829     12.344
REMARK INTER + INTRA:          -2.854
REMARK INTER:                  -2.854
REMARK INTRA:                   0.000
REMARK UNBOUND:                 0.000
REMARK SMILES CC1(C)[C@@H]2CC[C@@]1(C)[C@@H](O)C2
REMARK SMILES IDX 1 1 2 2 4 3 5 4 6 5 7 6 9 7 11 8 8 9 3 10 10 11
REMARK H PARENT 10 12
REMARK Flexibility Score: inf
ROOT
ATOM      1  C   UNL     1     142.487 145.682 141.430  1.00  0.00     0.012 C 
ATOM      2  C   UNL     1     142.957 146.681 140.326  1.00  0.00    -0.025 C 
ATOM      3  C   UNL     1     141.809 147.248 139.475  1.00  0.00    -0.002 C 
ATOM      4  C   UNL     1     141.247 145.997 138.756  1.00  0.00     0.005 C 
ATOM      5  C   UNL     1     142.511 145.152 138.501  1.00  0.00     0.010 C 
ATOM      6  C   UNL     1     143.638 146.043 139.093  1.00  0.00    -0.001 C 
ATOM      7  C   UNL     1     143.826 147.261 138.135  1.00  0.00     0.121 C 
ATOM      8  C   UNL     1     142.540 148.079 138.389  1.00  0.00     0.036 C 
ATOM      9  C   UNL     1     144.937 145.275 139.375  1.00  0.00     0.015 C 
ATOM     10  C   UNL     1     143.788 147.773 141.069  1.00  0.00     0.012 C 
ENDROOT
BRANCH   7  11
ATOM     11  O   UNL     1     143.918 146.886 136.783  1.00  0.00    -0.393 OA
ATOM     12  H   UNL     1     144.736 147.318 136.426  1.00  0.00     0.210 HD
ENDBRANCH   7  11
TORSDOF 1
ENDMDL
MODEL 4
REMARK VINA RESULT:    -2.753      1.387      2.299
REMARK INTER + INTRA:          -2.833
REMARK INTER:                  -2.833
REMARK INTRA:                   0.000
REMARK UNBOUND:                 0.000
REMARK SMILES CC1(C)[C@@H]2CC[C@@]1(C)[C@@H](O)C2
REMARK SMILES IDX 1 1 2 2 4 3 5 4 6 5 7 6 9 7 11 8 8 9 3 10 10 11
REMARK H PARENT 10 12
REMARK Flexibility Score: inf
ROOT
ATOM      1  C   UNL     1     132.828 146.997 139.487  1.00  0.00     0.012 C 
ATOM      2  C   UNL     1     131.536 146.150 139.716  1.00  0.00    -0.025 C 
ATOM      3  C   UNL     1     131.804 144.769 140.337  1.00  0.00    -0.002 C 
ATOM      4  C   UNL     1     132.643 144.048 139.255  1.00  0.00     0.005 C 
ATOM      5  C   UNL     1     132.038 144.580 137.940  1.00  0.00     0.010 C 
ATOM      6  C   UNL     1     130.913 145.526 138.445  1.00  0.00    -0.001 C 
ATOM      7  C   UNL     1     129.773 144.632 139.025  1.00  0.00     0.121 C 
ATOM      8  C   UNL     1     130.409 144.092 140.325  1.00  0.00     0.036 C 
ATOM      9  C   UNL     1     130.433 146.524 137.383  1.00  0.00     0.015 C 
ATOM     10  C   UNL     1     130.586 147.049 140.565  1.00  0.00     0.012 C 
ENDROOT
BRANCH   7  11
ATOM     11  O   UNL     1     129.416 143.575 138.171  1.00  0.00    -0.393 OA
ATOM     12  H   UNL     1     128.424 143.540 138.164  1.00  0.00     0.210 HD
ENDBRANCH   7  11
TORSDOF 1
ENDMDL
MODEL 5
REMARK VINA RESULT:    -2.746     10.873     12.197
REMARK INTER + INTRA:          -2.826
REMARK INTER:                  -2.826
REMARK INTRA:                   0.000
REMARK UNBOUND:                 0.000
REMARK SMILES CC1(C)[C@@H]2CC[C@@]1(C)[C@@H](O)C2
REMARK SMILES IDX 1 1 2 2 4 3 5 4 6 5 7 6 9 7 11 8 8 9 3 10 10 11
REMARK H PARENT 10 12
REMARK Flexibility Score: inf
ROOT
ATOM      1  C   UNL     1     145.074 145.122 139.581  1.00  0.00     0.012 C 
ATOM      2  C   UNL     1     143.868 146.095 139.767  1.00  0.00    -0.025 C 
ATOM      3  C   UNL     1     142.642 145.441 140.426  1.00  0.00    -0.002 C 
ATOM      4  C   UNL     1     142.214 144.366 139.397  1.00  0.00     0.005 C 
ATOM      5  C   UNL     1     142.525 145.042 138.047  1.00  0.00     0.010 C 
ATOM      6  C   UNL     1     143.075 146.429 138.482  1.00  0.00    -0.001 C 
ATOM      7  C   UNL     1     141.872 147.261 139.027  1.00  0.00     0.121 C 
ATOM      8  C   UNL     1     141.563 146.553 140.364  1.00  0.00     0.036 C 
ATOM      9  C   UNL     1     143.869 147.143 137.380  1.00  0.00     0.015 C 
ATOM     10  C   UNL     1     144.428 147.319 140.555  1.00  0.00     0.012 C 
ENDROOT
BRANCH   7  11
ATOM     11  O   UNL     1     140.753 147.228 138.177  1.00  0.00    -0.393 OA
ATOM     12  H   UNL     1     141.034 147.651 137.324  1.00  0.00     0.210 HD
ENDBRANCH   7  11
TORSDOF 1
ENDMDL
MODEL 6
REMARK VINA RESULT:    -2.680      1.358      2.341
REMARK INTER + INTRA:          -2.758
REMARK INTER:                  -2.758
REMARK INTRA:                   0.000
REMARK UNBOUND:                 0.000
REMARK SMILES CC1(C)[C@@H]2CC[C@@]1(C)[C@@H](O)C2
REMARK SMILES IDX 1 1 2 2 4 3 5 4 6 5 7 6 9 7 11 8 8 9 3 10 10 11
REMARK H PARENT 10 12
REMARK Flexibility Score: inf
ROOT
ATOM      1  C   UNL     1     130.097 143.427 138.968  1.00  0.00     0.012 C 
ATOM      2  C   UNL     1     130.573 144.679 139.771  1.00  0.00    -0.025 C 
ATOM      3  C   UNL     1     129.623 145.883 139.658  1.00  0.00    -0.002 C 
ATOM      4  C   UNL     1     129.684 146.248 138.155  1.00  0.00     0.005 C 
ATOM      5  C   UNL     1     131.152 145.949 137.790  1.00  0.00     0.010 C 
ATOM      6  C   UNL     1     131.746 145.468 139.143  1.00  0.00    -0.001 C 
ATOM      7  C   UNL     1     131.858 146.716 140.076  1.00  0.00     0.121 C 
ATOM      8  C   UNL     1     130.379 147.011 140.407  1.00  0.00     0.036 C 
ATOM      9  C   UNL     1     133.061 144.692 138.991  1.00  0.00     0.015 C 
ATOM     10  C   UNL     1     130.793 144.186 141.234  1.00  0.00     0.012 C 
ENDROOT
BRANCH   7  11
ATOM     11  O   UNL     1     132.456 147.820 139.444  1.00  0.00    -0.393 OA
ATOM     12  H   UNL     1     131.913 148.613 139.690  1.00  0.00     0.210 HD
ENDBRANCH   7  11
TORSDOF 1
ENDMDL
MODEL 7
REMARK VINA RESULT:    -2.646      1.487      2.875
REMARK INTER + INTRA:          -2.724
REMARK INTER:                  -2.724
REMARK INTRA:                   0.000
REMARK UNBOUND:                 0.000
REMARK SMILES CC1(C)[C@@H]2CC[C@@]1(C)[C@@H](O)C2
REMARK SMILES IDX 1 1 2 2 4 3 5 4 6 5 7 6 9 7 11 8 8 9 3 10 10 11
REMARK H PARENT 10 12
REMARK Flexibility Score: inf
ROOT
ATOM      1  C   UNL     1     131.690 147.315 140.052  1.00  0.00     0.012 C 
ATOM      2  C   UNL     1     131.460 145.804 139.730  1.00  0.00    -0.025 C 
ATOM      3  C   UNL     1     131.873 145.406 138.303  1.00  0.00    -0.002 C 
ATOM      4  C   UNL     1     130.906 146.221 137.411  1.00  0.00     0.005 C 
ATOM      5  C   UNL     1     129.602 146.224 138.232  1.00  0.00     0.010 C 
ATOM      6  C   UNL     1     129.990 145.391 139.485  1.00  0.00    -0.001 C 
ATOM      7  C   UNL     1     130.123 143.901 139.035  1.00  0.00     0.121 C 
ATOM      8  C   UNL     1     131.419 143.928 138.195  1.00  0.00     0.036 C 
ATOM      9  C   UNL     1     129.038 145.592 140.671  1.00  0.00     0.015 C 
ATOM     10  C   UNL     1     132.210 145.014 140.846  1.00  0.00     0.012 C 
ENDROOT
BRANCH   7  11
ATOM     11  O   UNL     1     129.036 143.465 138.258  1.00  0.00    -0.393 OA
ATOM     12  H   UNL     1     128.220 143.840 138.679  1.00  0.00     0.210 HD
ENDBRANCH   7  11
TORSDOF 1
ENDMDL
MODEL 8
REMARK VINA RESULT:    -2.612     10.575     12.194
REMARK INTER + INTRA:          -2.688
REMARK INTER:                  -2.688
REMARK INTRA:                   0.000
REMARK UNBOUND:                 0.000
REMARK SMILES CC1(C)[C@@H]2CC[C@@]1(C)[C@@H](O)C2
REMARK SMILES IDX 1 1 2 2 4 3 5 4 6 5 7 6 9 7 11 8 8 9 3 10 10 11
REMARK H PARENT 10 12
REMARK Flexibility Score: inf
ROOT
ATOM      1  C   UNL     1     145.010 146.552 140.115  1.00  0.00     0.012 C 
ATOM      2  C   UNL     1     143.563 146.134 139.706  1.00  0.00    -0.025 C 
ATOM      3  C   UNL     1     143.431 145.724 138.230  1.00  0.00    -0.002 C 
ATOM      4  C   UNL     1     143.768 147.027 137.466  1.00  0.00     0.005 C 
ATOM      5  C   UNL     1     143.173 148.121 138.376  1.00  0.00     0.010 C 
ATOM      6  C   UNL     1     142.555 147.294 139.537  1.00  0.00    -0.001 C 
ATOM      7  C   UNL     1     141.289 146.572 138.977  1.00  0.00     0.121 C 
ATOM      8  C   UNL     1     141.907 145.500 138.052  1.00  0.00     0.036 C 
ATOM      9  C   UNL     1     142.281 148.125 140.798  1.00  0.00     0.015 C 
ATOM     10  C   UNL     1     143.146 145.015 140.711  1.00  0.00     0.012 C 
ENDROOT
BRANCH   7  11
ATOM     11  O   UNL     1     140.445 147.428 138.250  1.00  0.00    -0.393 OA
ATOM     12  H   UNL     1     139.546 147.355 138.662  1.00  0.00     0.210 HD
ENDBRANCH   7  11
TORSDOF 1
ENDMDL
MODEL 9
REMARK VINA RESULT:    -2.604      1.141      2.513
REMARK INTER + INTRA:          -2.680
REMARK INTER:                  -2.680
REMARK INTRA:                   0.000
REMARK UNBOUND:                 0.000
REMARK SMILES CC1(C)[C@@H]2CC[C@@]1(C)[C@@H](O)C2
REMARK SMILES IDX 1 1 2 2 4 3 5 4 6 5 7 6 9 7 11 8 8 9 3 10 10 11
REMARK H PARENT 10 12
REMARK Flexibility Score: inf
ROOT
ATOM      1  C   UNL     1     131.754 145.487 142.023  1.00  0.00     0.012 C 
ATOM      2  C   UNL     1     131.471 145.165 140.522  1.00  0.00    -0.025 C 
ATOM      3  C   UNL     1     132.730 145.169 139.640  1.00  0.00    -0.002 C 
ATOM      4  C   UNL     1     133.213 146.638 139.713  1.00  0.00     0.005 C 
ATOM      5  C   UNL     1     131.891 147.430 139.771  1.00  0.00     0.010 C 
ATOM      6  C   UNL     1     130.820 146.305 139.705  1.00  0.00    -0.001 C 
ATOM      7  C   UNL     1     130.828 145.735 138.251  1.00  0.00     0.121 C 
ATOM      8  C   UNL     1     132.169 144.969 138.208  1.00  0.00     0.036 C 
ATOM      9  C   UNL     1     129.433 146.755 140.182  1.00  0.00     0.015 C 
ATOM     10  C   UNL     1     130.704 143.806 140.518  1.00  0.00     0.012 C 
ENDROOT
BRANCH   7  11
ATOM     11  O   UNL     1     130.798 146.739 137.269  1.00  0.00    -0.393 OA
ATOM     12  H   UNL     1     131.634 147.263 137.375  1.00  0.00     0.210 HD
ENDBRANCH   7  11
TORSDOF 1
ENDMDL
