MODEL 1
REMARK VINA RESULT:    -7.455      0.000      0.000
REMARK INTER + INTRA:          -7.455
REMARK INTER:                  -7.455
REMARK INTRA:                   0.000
REMARK UNBOUND:                 0.000
REMARK SMILES CC1=CC[C@@]2(C)CCCC(C)(C)[C@]23C[C@H]13
REMARK SMILES IDX 1 1 2 2 3 3 4 4 5 5 7 6 8 7 9 8 10 9 13 10 15 11 14 12 11 13
REMARK SMILES IDX 12 14 6 15
REMARK H PARENT
REMARK Flexibility Score: inf
ROOT
ATOM      1  C   UNL     1     112.765 111.133 113.318  1.00  0.00     0.039 C 
ATOM      2  C   UNL     1     111.995 111.352 112.047  1.00  0.00    -0.074 C 
ATOM      3  C   UNL     1     110.893 112.115 112.054  1.00  0.00    -0.027 C 
ATOM      4  C   UNL     1     110.088 112.305 110.801  1.00  0.00     0.034 C 
ATOM      5  C   UNL     1     109.947 110.977 110.009  1.00  0.00    -0.022 C 
ATOM      6  C   UNL     1     109.179 111.289 108.694  1.00  0.00     0.008 C 
ATOM      7  C   UNL     1     109.377 110.191 107.658  1.00  0.00     0.001 C 
ATOM      8  C   UNL     1     110.822 110.137 107.148  1.00  0.00     0.007 C 
ATOM      9  C   UNL     1     111.937 110.496 108.195  1.00  0.00    -0.029 C 
ATOM     10  C   UNL     1     111.392 110.386 109.687  1.00  0.00    -0.012 C 
ATOM     11  C   UNL     1     112.460 110.689 110.772  1.00  0.00     0.022 C 
ATOM     12  C   UNL     1     111.949 109.268 110.608  1.00  0.00     0.017 C 
ATOM     13  C   UNL     1     113.145 109.565 107.894  1.00  0.00     0.012 C 
ATOM     14  C   UNL     1     112.429 111.946 107.938  1.00  0.00     0.012 C 
ATOM     15  C   UNL     1     109.071 109.989 110.837  1.00  0.00     0.012 C 
ENDROOT
TORSDOF 0
ENDMDL
MODEL 2
REMARK VINA RESULT:    -7.438      3.224      4.866
REMARK INTER + INTRA:          -7.438
REMARK INTER:                  -7.438
REMARK INTRA:                   0.000
REMARK UNBOUND:                 0.000
REMARK SMILES CC1=CC[C@@]2(C)CCCC(C)(C)[C@]23C[C@H]13
REMARK SMILES IDX 1 1 2 2 3 3 4 4 5 5 7 6 8 7 9 8 10 9 13 10 15 11 14 12 11 13
REMARK SMILES IDX 12 14 6 15
REMARK H PARENT
REMARK Flexibility Score: inf
ROOT
ATOM      1  C   UNL     1     112.768 111.104 118.185  1.00  0.00     0.039 C 
ATOM      2  C   UNL     1     112.005 111.335 116.912  1.00  0.00    -0.074 C 
ATOM      3  C   UNL     1     110.919 112.121 116.915  1.00  0.00    -0.027 C 
ATOM      4  C   UNL     1     110.119 112.323 115.660  1.00  0.00     0.034 C 
ATOM      5  C   UNL     1     109.951 110.995 114.873  1.00  0.00    -0.022 C 
ATOM      6  C   UNL     1     109.191 111.318 113.556  1.00  0.00     0.008 C 
ATOM      7  C   UNL     1     109.367 110.211 112.525  1.00  0.00     0.001 C 
ATOM      8  C   UNL     1     110.811 110.125 112.017  1.00  0.00     0.007 C 
ATOM      9  C   UNL     1     111.933 110.464 113.063  1.00  0.00    -0.029 C 
ATOM     10  C   UNL     1     111.384 110.372 114.555  1.00  0.00    -0.012 C 
ATOM     11  C   UNL     1     112.457 110.657 115.640  1.00  0.00     0.022 C 
ATOM     12  C   UNL     1     111.916 109.246 115.481  1.00  0.00     0.017 C 
ATOM     13  C   UNL     1     113.120 109.507 112.767  1.00  0.00     0.012 C 
ATOM     14  C   UNL     1     112.456 111.903 112.802  1.00  0.00     0.012 C 
ATOM     15  C   UNL     1     109.054 110.029 115.704  1.00  0.00     0.012 C 
ENDROOT
TORSDOF 0
ENDMDL
MODEL 3
REMARK VINA RESULT:    -7.417      3.311      5.722
REMARK INTER + INTRA:          -7.417
REMARK INTER:                  -7.417
REMARK INTRA:                   0.000
REMARK UNBOUND:                 0.000
REMARK SMILES CC1=CC[C@@]2(C)CCCC(C)(C)[C@]23C[C@H]13
REMARK SMILES IDX 1 1 2 2 3 3 4 4 5 5 7 6 8 7 9 8 10 9 13 10 15 11 14 12 11 13
REMARK SMILES IDX 12 14 6 15
REMARK H PARENT
REMARK Flexibility Score: inf
ROOT
ATOM      1  C   UNL     1     109.560 110.978 118.027  1.00  0.00     0.039 C 
ATOM      2  C   UNL     1     110.318 110.789 116.745  1.00  0.00    -0.074 C 
ATOM      3  C   UNL     1     111.403 110.003 116.717  1.00  0.00    -0.027 C 
ATOM      4  C   UNL     1     112.197 109.842 115.452  1.00  0.00     0.034 C 
ATOM      5  C   UNL     1     112.362 111.195 114.709  1.00  0.00    -0.022 C 
ATOM      6  C   UNL     1     113.117 110.915 113.379  1.00  0.00     0.008 C 
ATOM      7  C   UNL     1     112.937 112.055 112.385  1.00  0.00     0.001 C 
ATOM      8  C   UNL     1     111.491 112.158 111.886  1.00  0.00     0.007 C 
ATOM      9  C   UNL     1     110.373 111.785 112.926  1.00  0.00    -0.029 C 
ATOM     10  C   UNL     1     110.929 111.828 114.417  1.00  0.00    -0.012 C 
ATOM     11  C   UNL     1     109.860 111.508 115.497  1.00  0.00     0.022 C 
ATOM     12  C   UNL     1     110.401 112.923 115.383  1.00  0.00     0.017 C 
ATOM     13  C   UNL     1     109.185 112.752 112.667  1.00  0.00     0.012 C 
ATOM     14  C   UNL     1     109.849 110.357 112.619  1.00  0.00     0.012 C 
ATOM     15  C   UNL     1     113.264 112.133 115.567  1.00  0.00     0.012 C 
ENDROOT
TORSDOF 0
ENDMDL
MODEL 4
REMARK VINA RESULT:    -7.403      1.287      3.238
REMARK INTER + INTRA:          -7.403
REMARK INTER:                  -7.403
REMARK INTRA:                   0.000
REMARK UNBOUND:                 0.000
REMARK SMILES CC1=CC[C@@]2(C)CCCC(C)(C)[C@]23C[C@H]13
REMARK SMILES IDX 1 1 2 2 3 3 4 4 5 5 7 6 8 7 9 8 10 9 13 10 15 11 14 12 11 13
REMARK SMILES IDX 12 14 6 15
REMARK H PARENT
REMARK Flexibility Score: inf
ROOT
ATOM      1  C   UNL     1     109.602 110.917 113.160  1.00  0.00     0.039 C 
ATOM      2  C   UNL     1     110.344 110.740 111.866  1.00  0.00    -0.074 C 
ATOM      3  C   UNL     1     111.440 109.969 111.821  1.00  0.00    -0.027 C 
ATOM      4  C   UNL     1     112.217 109.821 110.545  1.00  0.00     0.034 C 
ATOM      5  C   UNL     1     112.353 111.177 109.802  1.00  0.00    -0.022 C 
ATOM      6  C   UNL     1     113.091 110.909 108.460  1.00  0.00     0.008 C 
ATOM      7  C   UNL     1     112.881 112.048 107.471  1.00  0.00     0.001 C 
ATOM      8  C   UNL     1     111.427 112.132 106.994  1.00  0.00     0.007 C 
ATOM      9  C   UNL     1     110.330 111.743 108.049  1.00  0.00    -0.029 C 
ATOM     10  C   UNL     1     110.906 111.791 109.532  1.00  0.00    -0.012 C 
ATOM     11  C   UNL     1     109.859 111.455 110.627  1.00  0.00     0.022 C 
ATOM     12  C   UNL     1     110.379 112.877 110.507  1.00  0.00     0.017 C 
ATOM     13  C   UNL     1     109.124 112.694 107.809  1.00  0.00     0.012 C 
ATOM     14  C   UNL     1     109.820 110.307 107.748  1.00  0.00     0.012 C 
ATOM     15  C   UNL     1     113.254 112.126 110.647  1.00  0.00     0.012 C 
ENDROOT
TORSDOF 0
ENDMDL
MODEL 5
REMARK VINA RESULT:    -7.133      3.183      5.608
REMARK INTER + INTRA:          -7.133
REMARK INTER:                  -7.133
REMARK INTRA:                   0.000
REMARK UNBOUND:                 0.000
REMARK SMILES CC1=CC[C@@]2(C)CCCC(C)(C)[C@]23C[C@H]13
REMARK SMILES IDX 1 1 2 2 3 3 4 4 5 5 7 6 8 7 9 8 10 9 13 10 15 11 14 12 11 13
REMARK SMILES IDX 12 14 6 15
REMARK H PARENT
REMARK Flexibility Score: inf
ROOT
ATOM      1  C   UNL     1     108.965 111.731 108.624  1.00  0.00     0.039 C 
ATOM      2  C   UNL     1     109.806 111.307 107.454  1.00  0.00    -0.074 C 
ATOM      3  C   UNL     1     110.837 110.471 107.637  1.00  0.00    -0.027 C 
ATOM      4  C   UNL     1     111.715 110.076 106.484  1.00  0.00     0.034 C 
ATOM      5  C   UNL     1     112.023 111.287 105.564  1.00  0.00    -0.022 C 
ATOM      6  C   UNL     1     112.859 110.767 104.360  1.00  0.00     0.008 C 
ATOM      7  C   UNL     1     112.830 111.748 103.196  1.00  0.00     0.001 C 
ATOM      8  C   UNL     1     111.437 111.848 102.565  1.00  0.00     0.007 C 
ATOM      9  C   UNL     1     110.221 111.699 103.548  1.00  0.00    -0.029 C 
ATOM     10  C   UNL     1     110.661 111.942 105.059  1.00  0.00    -0.012 C 
ATOM     11  C   UNL     1     109.494 111.848 106.078  1.00  0.00     0.022 C 
ATOM     12  C   UNL     1     110.132 113.198 105.800  1.00  0.00     0.017 C 
ATOM     13  C   UNL     1     109.120 112.675 103.046  1.00  0.00     0.012 C 
ATOM     14  C   UNL     1     109.630 110.269 103.415  1.00  0.00     0.012 C 
ATOM     15  C   UNL     1     112.915 112.298 106.346  1.00  0.00     0.012 C 
ENDROOT
TORSDOF 0
ENDMDL
MODEL 6
REMARK VINA RESULT:    -7.112      2.156      5.320
REMARK INTER + INTRA:          -7.112
REMARK INTER:                  -7.112
REMARK INTRA:                   0.000
REMARK UNBOUND:                 0.000
REMARK SMILES CC1=CC[C@@]2(C)CCCC(C)(C)[C@]23C[C@H]13
REMARK SMILES IDX 1 1 2 2 3 3 4 4 5 5 7 6 8 7 9 8 10 9 13 10 15 11 14 12 11 13
REMARK SMILES IDX 12 14 6 15
REMARK H PARENT
REMARK Flexibility Score: inf
ROOT
ATOM      1  C   UNL     1     109.677 112.512 109.511  1.00  0.00     0.039 C 
ATOM      2  C   UNL     1     110.534 112.211 110.706  1.00  0.00    -0.074 C 
ATOM      3  C   UNL     1     111.863 112.374 110.638  1.00  0.00    -0.027 C 
ATOM      4  C   UNL     1     112.736 112.031 111.811  1.00  0.00     0.034 C 
ATOM      5  C   UNL     1     112.283 110.710 112.489  1.00  0.00    -0.022 C 
ATOM      6  C   UNL     1     113.185 110.485 113.736  1.00  0.00     0.008 C 
ATOM      7  C   UNL     1     112.557 109.496 114.708  1.00  0.00     0.001 C 
ATOM      8  C   UNL     1     111.289 110.060 115.361  1.00  0.00     0.007 C 
ATOM      9  C   UNL     1     110.413 111.006 114.463  1.00  0.00    -0.029 C 
ATOM     10  C   UNL     1     110.752 110.822 112.919  1.00  0.00    -0.012 C 
ATOM     11  C   UNL     1     109.889 111.701 111.975  1.00  0.00     0.022 C 
ATOM     12  C   UNL     1     109.682 110.197 111.985  1.00  0.00     0.017 C 
ATOM     13  C   UNL     1     108.930 110.711 114.823  1.00  0.00     0.012 C 
ATOM     14  C   UNL     1     110.675 112.481 114.870  1.00  0.00     0.012 C 
ATOM     15  C   UNL     1     112.542 109.527 111.509  1.00  0.00     0.012 C 
ENDROOT
TORSDOF 0
ENDMDL
MODEL 7
REMARK VINA RESULT:    -7.091      1.900      5.026
REMARK INTER + INTRA:          -7.091
REMARK INTER:                  -7.091
REMARK INTRA:                   0.000
REMARK UNBOUND:                 0.000
REMARK SMILES CC1=CC[C@@]2(C)CCCC(C)(C)[C@]23C[C@H]13
REMARK SMILES IDX 1 1 2 2 3 3 4 4 5 5 7 6 8 7 9 8 10 9 13 10 15 11 14 12 11 13
REMARK SMILES IDX 12 14 6 15
REMARK H PARENT
REMARK Flexibility Score: inf
ROOT
ATOM      1  C   UNL     1     112.500 109.648 109.626  1.00  0.00     0.039 C 
ATOM      2  C   UNL     1     111.660 109.986 110.825  1.00  0.00    -0.074 C 
ATOM      3  C   UNL     1     110.329 109.840 110.774  1.00  0.00    -0.027 C 
ATOM      4  C   UNL     1     109.473 110.218 111.949  1.00  0.00     0.034 C 
ATOM      5  C   UNL     1     109.952 111.546 112.595  1.00  0.00    -0.022 C 
ATOM      6  C   UNL     1     109.067 111.809 113.847  1.00  0.00     0.008 C 
ATOM      7  C   UNL     1     109.720 112.810 114.791  1.00  0.00     0.001 C 
ATOM      8  C   UNL     1     110.986 112.241 115.442  1.00  0.00     0.007 C 
ATOM      9  C   UNL     1     111.840 111.265 114.554  1.00  0.00    -0.029 C 
ATOM     10  C   UNL     1     111.486 111.423 113.010  1.00  0.00    -0.012 C 
ATOM     11  C   UNL     1     112.326 110.512 112.075  1.00  0.00     0.022 C 
ATOM     12  C   UNL     1     112.554 112.014 112.052  1.00  0.00     0.017 C 
ATOM     13  C   UNL     1     113.331 111.547 114.892  1.00  0.00     0.012 C 
ATOM     14  C   UNL     1     111.562 109.802 114.994  1.00  0.00     0.012 C 
ATOM     15  C   UNL     1     109.698 112.713 111.593  1.00  0.00     0.012 C 
ENDROOT
TORSDOF 0
ENDMDL
MODEL 8
REMARK VINA RESULT:    -7.065      1.674      4.911
REMARK INTER + INTRA:          -7.065
REMARK INTER:                  -7.065
REMARK INTRA:                   0.000
REMARK UNBOUND:                 0.000
REMARK SMILES CC1=CC[C@@]2(C)CCCC(C)(C)[C@]23C[C@H]13
REMARK SMILES IDX 1 1 2 2 3 3 4 4 5 5 7 6 8 7 9 8 10 9 13 10 15 11 14 12 11 13
REMARK SMILES IDX 12 14 6 15
REMARK H PARENT
REMARK Flexibility Score: inf
ROOT
ATOM      1  C   UNL     1     109.650 112.518 104.502  1.00  0.00     0.039 C 
ATOM      2  C   UNL     1     110.507 112.245 105.705  1.00  0.00    -0.074 C 
ATOM      3  C   UNL     1     111.829 112.459 105.650  1.00  0.00    -0.027 C 
ATOM      4  C   UNL     1     112.703 112.145 106.830  1.00  0.00     0.034 C 
ATOM      5  C   UNL     1     112.295 110.805 107.499  1.00  0.00    -0.022 C 
ATOM      6  C   UNL     1     113.193 110.609 108.753  1.00  0.00     0.008 C 
ATOM      7  C   UNL     1     112.594 109.592 109.715  1.00  0.00     0.001 C 
ATOM      8  C   UNL     1     111.299 110.103 110.357  1.00  0.00     0.007 C 
ATOM      9  C   UNL     1     110.395 111.019 109.455  1.00  0.00    -0.029 C 
ATOM     10  C   UNL     1     110.757 110.855 107.914  1.00  0.00    -0.012 C 
ATOM     11  C   UNL     1     109.870 111.705 106.965  1.00  0.00     0.022 C 
ATOM     12  C   UNL     1     109.721 110.193 106.967  1.00  0.00     0.017 C 
ATOM     13  C   UNL     1     108.922 110.665 109.799  1.00  0.00     0.012 C 
ATOM     14  C   UNL     1     110.597 112.501 109.871  1.00  0.00     0.012 C 
ATOM     15  C   UNL     1     112.609 109.637 106.516  1.00  0.00     0.012 C 
ENDROOT
TORSDOF 0
ENDMDL
MODEL 9
REMARK VINA RESULT:    -6.999      2.896      4.397
REMARK INTER + INTRA:          -6.999
REMARK INTER:                  -6.999
REMARK INTRA:                   0.000
REMARK UNBOUND:                 0.000
REMARK SMILES CC1=CC[C@@]2(C)CCCC(C)(C)[C@]23C[C@H]13
REMARK SMILES IDX 1 1 2 2 3 3 4 4 5 5 7 6 8 7 9 8 10 9 13 10 15 11 14 12 11 13
REMARK SMILES IDX 12 14 6 15
REMARK H PARENT
REMARK Flexibility Score: inf
ROOT
ATOM      1  C   UNL     1     112.841 110.546 108.953  1.00  0.00     0.039 C 
ATOM      2  C   UNL     1     112.088 110.973 107.725  1.00  0.00    -0.074 C 
ATOM      3  C   UNL     1     111.006 111.756 107.841  1.00  0.00    -0.027 C 
ATOM      4  C   UNL     1     110.217 112.151 106.626  1.00  0.00     0.034 C 
ATOM      5  C   UNL     1     110.049 110.960 105.645  1.00  0.00    -0.022 C 
ATOM      6  C   UNL     1     109.300 111.484 104.387  1.00  0.00     0.008 C 
ATOM      7  C   UNL     1     109.478 110.547 103.200  1.00  0.00     0.001 C 
ATOM      8  C   UNL     1     110.926 110.531 102.695  1.00  0.00     0.007 C 
ATOM      9  C   UNL     1     112.041 110.699 103.788  1.00  0.00    -0.029 C 
ATOM     10  C   UNL     1     111.481 110.384 105.245  1.00  0.00    -0.012 C 
ATOM     11  C   UNL     1     112.547 110.494 106.367  1.00  0.00     0.022 C 
ATOM     12  C   UNL     1     112.000 109.127 105.992  1.00  0.00     0.017 C 
ATOM     13  C   UNL     1     113.227 109.791 103.358  1.00  0.00     0.012 C 
ATOM     14  C   UNL     1     112.574 112.157 103.752  1.00  0.00     0.012 C 
ATOM     15  C   UNL     1     109.140 109.884 106.312  1.00  0.00     0.012 C 
ENDROOT
TORSDOF 0
ENDMDL
