MODEL 1
REMARK VINA RESULT:    -2.189      0.000      0.000
REMARK INTER + INTRA:          -5.225
REMARK INTER:                  -3.981
REMARK INTRA:                  -1.244
REMARK UNBOUND:                -1.244
REMARK SMILES CCCCCCCCCCCCCC[C@@H](C)C(=O)[O-]
REMARK SMILES IDX 9 1 10 2 11 3 12 4 13 5 14 6 15 7 16 8 17 9 18 10 19 11 8 12
REMARK SMILES IDX 7 13 6 14 5 15 4 16 3 17 2 18 1 19
REMARK H PARENT
REMARK Flexibility Score: inf
ROOT
ATOM      1  C   UNL     1      11.628  11.476  14.533  1.00  0.00     0.000 C 
ENDROOT
BRANCH   1   2
ATOM      2  C   UNL     1      12.872  10.571  14.424  1.00  0.00     0.000 C 
BRANCH   2   3
ATOM      3  C   UNL     1      12.889   9.364  15.380  1.00  0.00     0.000 C 
BRANCH   3   4
ATOM      4  C   UNL     1      14.019   8.373  15.069  1.00  0.00     0.000 C 
BRANCH   4   5
ATOM      5  C   UNL     1      13.575   6.928  15.348  1.00  0.00     0.001 C 
BRANCH   5   6
ATOM      6  C   UNL     1      12.605   6.835  16.545  1.00  0.00     0.009 C 
BRANCH   6   7
ATOM      7  C   UNL     1      12.518   5.421  17.164  1.00  0.00     0.032 C 
ATOM      8  C   UNL     1      13.498   4.435  16.516  1.00  0.00     0.014 C 
BRANCH   7   9
ATOM      9  C   UNL     1      12.781   5.497  18.642  1.00  0.00     0.044 C 
ATOM     10  O   UNL     1      13.501   6.418  19.110  1.00  0.00    -0.550 OA
ATOM     11  O   UNL     1      12.238   4.550  19.502  1.00  0.00    -0.550 OA
ENDBRANCH   7   9
ENDBRANCH   6   7
ENDBRANCH   5   6
ENDBRANCH   4   5
ENDBRANCH   3   4
ENDBRANCH   2   3
ENDBRANCH   1   2
BRANCH   1  12
ATOM     12  C   UNL     1      11.812  12.738  15.394  1.00  0.00     0.000 C 
BRANCH  12  13
ATOM     13  C   UNL     1      13.277  12.983  15.787  1.00  0.00    -0.000 C 
BRANCH  13  14
ATOM     14  C   UNL     1      13.676  14.443  15.538  1.00  0.00    -0.000 C 
BRANCH  14  15
ATOM     15  C   UNL     1      12.683  15.130  14.588  1.00  0.00    -0.000 C 
BRANCH  15  16
ATOM     16  C   UNL     1      13.372  15.760  13.367  1.00  0.00    -0.000 C 
BRANCH  16  17
ATOM     17  C   UNL     1      12.945  15.105  12.043  1.00  0.00    -0.000 C 
BRANCH  17  18
ATOM     18  C   UNL     1      12.928  13.570  12.124  1.00  0.00    -0.003 C 
ATOM     19  C   UNL     1      11.785  12.950  11.321  1.00  0.00     0.004 C 
ENDBRANCH  17  18
ENDBRANCH  16  17
ENDBRANCH  15  16
ENDBRANCH  14  15
ENDBRANCH  13  14
ENDBRANCH  12  13
ENDBRANCH   1  12
TORSDOF 14
ENDMDL
MODEL 2
REMARK VINA RESULT:    -2.088      4.133      9.576
REMARK INTER + INTRA:          -5.041
REMARK INTER:                  -4.294
REMARK INTRA:                  -0.748
REMARK UNBOUND:                -1.244
REMARK SMILES CCCCCCCCCCCCCC[C@@H](C)C(=O)[O-]
REMARK SMILES IDX 9 1 10 2 11 3 12 4 13 5 14 6 15 7 16 8 17 9 18 10 19 11 8 12
REMARK SMILES IDX 7 13 6 14 5 15 4 16 3 17 2 18 1 19
REMARK H PARENT
REMARK Flexibility Score: inf
ROOT
ATOM      1  C   UNL     1      14.223   8.271  15.099  1.00  0.00     0.000 C 
ENDROOT
BRANCH   1   2
ATOM      2  C   UNL     1      12.897   8.945  15.507  1.00  0.00     0.000 C 
BRANCH   2   3
ATOM      3  C   UNL     1      12.553  10.232  14.734  1.00  0.00     0.000 C 
BRANCH   3   4
ATOM      4  C   UNL     1      13.010  11.504  15.461  1.00  0.00     0.000 C 
BRANCH   4   5
ATOM      5  C   UNL     1      12.108  12.696  15.103  1.00  0.00     0.001 C 
BRANCH   5   6
ATOM      6  C   UNL     1      12.921  13.960  14.749  1.00  0.00     0.009 C 
BRANCH   6   7
ATOM      7  C   UNL     1      13.338  14.032  13.263  1.00  0.00     0.032 C 
ATOM      8  C   UNL     1      12.419  13.206  12.354  1.00  0.00     0.014 C 
BRANCH   7   9
ATOM      9  C   UNL     1      13.344  15.465  12.807  1.00  0.00     0.044 C 
ATOM     10  O   UNL     1      12.937  15.764  11.654  1.00  0.00    -0.550 OA
ATOM     11  O   UNL     1      13.805  16.468  13.652  1.00  0.00    -0.550 OA
ENDBRANCH   7   9
ENDBRANCH   6   7
ENDBRANCH   5   6
ENDBRANCH   4   5
ENDBRANCH   3   4
ENDBRANCH   2   3
ENDBRANCH   1   2
BRANCH   1  12
ATOM     12  C   UNL     1      14.152   6.743  14.924  1.00  0.00     0.000 C 
BRANCH  12  13
ATOM     13  C   UNL     1      13.179   6.076  15.906  1.00  0.00    -0.000 C 
BRANCH  13  14
ATOM     14  C   UNL     1      13.578   4.619  16.171  1.00  0.00    -0.000 C 
BRANCH  14  15
ATOM     15  C   UNL     1      13.020   4.131  17.516  1.00  0.00    -0.000 C 
BRANCH  15  16
ATOM     16  C   UNL     1      12.893   5.262  18.549  1.00  0.00    -0.000 C 
BRANCH  16  17
ATOM     17  C   UNL     1      11.841   4.961  19.630  1.00  0.00    -0.000 C 
BRANCH  17  18
ATOM     18  C   UNL     1      11.771   3.468  19.985  1.00  0.00    -0.003 C 
ATOM     19  C   UNL     1      11.815   3.216  21.491  1.00  0.00     0.004 C 
ENDBRANCH  17  18
ENDBRANCH  16  17
ENDBRANCH  15  16
ENDBRANCH  14  15
ENDBRANCH  13  14
ENDBRANCH  12  13
ENDBRANCH   1  12
TORSDOF 14
ENDMDL
MODEL 3
REMARK VINA RESULT:    -2.049      4.262      9.627
REMARK INTER + INTRA:          -4.970
REMARK INTER:                  -4.338
REMARK INTRA:                  -0.633
REMARK UNBOUND:                -1.244
REMARK SMILES CCCCCCCCCCCCCC[C@@H](C)C(=O)[O-]
REMARK SMILES IDX 9 1 10 2 11 3 12 4 13 5 14 6 15 7 16 8 17 9 18 10 19 11 8 12
REMARK SMILES IDX 7 13 6 14 5 15 4 16 3 17 2 18 1 19
REMARK H PARENT
REMARK Flexibility Score: inf
ROOT
ATOM      1  C   UNL     1      13.585   8.723  15.475  1.00  0.00     0.000 C 
ENDROOT
BRANCH   1   2
ATOM      2  C   UNL     1      12.595   9.644  14.732  1.00  0.00     0.000 C 
BRANCH   2   3
ATOM      3  C   UNL     1      12.555  11.099  15.231  1.00  0.00     0.000 C 
BRANCH   3   4
ATOM      4  C   UNL     1      11.485  11.943  14.525  1.00  0.00     0.000 C 
BRANCH   4   5
ATOM      5  C   UNL     1      11.892  12.249  13.076  1.00  0.00     0.001 C 
BRANCH   5   6
ATOM      6  C   UNL     1      13.095  13.214  12.997  1.00  0.00     0.009 C 
BRANCH   6   7
ATOM      7  C   UNL     1      12.880  14.537  13.766  1.00  0.00     0.032 C 
ATOM      8  C   UNL     1      13.622  14.565  15.108  1.00  0.00     0.014 C 
BRANCH   7   9
ATOM      9  C   UNL     1      13.327  15.695  12.917  1.00  0.00     0.044 C 
ATOM     10  O   UNL     1      13.071  15.712  11.685  1.00  0.00    -0.550 OA
ATOM     11  O   UNL     1      14.034  16.749  13.484  1.00  0.00    -0.550 OA
ENDBRANCH   7   9
ENDBRANCH   6   7
ENDBRANCH   5   6
ENDBRANCH   4   5
ENDBRANCH   3   4
ENDBRANCH   2   3
ENDBRANCH   1   2
BRANCH   1  12
ATOM     12  C   UNL     1      13.613   7.264  14.985  1.00  0.00     0.000 C 
BRANCH  12  13
ATOM     13  C   UNL     1      13.557   6.248  16.136  1.00  0.00    -0.000 C 
BRANCH  13  14
ATOM     14  C   UNL     1      12.498   6.648  17.171  1.00  0.00    -0.000 C 
BRANCH  14  15
ATOM     15  C   UNL     1      12.805   6.024  18.541  1.00  0.00    -0.000 C 
BRANCH  15  16
ATOM     16  C   UNL     1      12.373   4.552  18.630  1.00  0.00    -0.000 C 
BRANCH  16  17
ATOM     17  C   UNL     1      11.378   4.295  19.775  1.00  0.00    -0.000 C 
BRANCH  17  18
ATOM     18  C   UNL     1      11.654   2.975  20.510  1.00  0.00    -0.003 C 
ATOM     19  C   UNL     1      12.039   3.184  21.974  1.00  0.00     0.004 C 
ENDBRANCH  17  18
ENDBRANCH  16  17
ENDBRANCH  15  16
ENDBRANCH  14  15
ENDBRANCH  13  14
ENDBRANCH  12  13
ENDBRANCH   1  12
TORSDOF 14
ENDMDL
MODEL 4
REMARK VINA RESULT:    -1.972      3.720      9.722
REMARK INTER + INTRA:          -4.830
REMARK INTER:                  -4.530
REMARK INTRA:                  -0.301
REMARK UNBOUND:                -1.244
REMARK SMILES CCCCCCCCCCCCCC[C@@H](C)C(=O)[O-]
REMARK SMILES IDX 9 1 10 2 11 3 12 4 13 5 14 6 15 7 16 8 17 9 18 10 19 11 8 12
REMARK SMILES IDX 7 13 6 14 5 15 4 16 3 17 2 18 1 19
REMARK H PARENT
REMARK Flexibility Score: inf
ROOT
ATOM      1  C   UNL     1      12.610   7.164  16.619  1.00  0.00     0.000 C 
ENDROOT
BRANCH   1   2
ATOM      2  C   UNL     1      13.424   7.504  15.354  1.00  0.00     0.000 C 
BRANCH   2   3
ATOM      3  C   UNL     1      13.775   8.993  15.184  1.00  0.00     0.000 C 
BRANCH   3   4
ATOM      4  C   UNL     1      12.535   9.895  15.125  1.00  0.00     0.000 C 
BRANCH   4   5
ATOM      5  C   UNL     1      12.921  11.373  15.292  1.00  0.00     0.001 C 
BRANCH   5   6
ATOM      6  C   UNL     1      12.087  12.303  14.385  1.00  0.00     0.009 C 
BRANCH   6   7
ATOM      7  C   UNL     1      12.922  13.028  13.305  1.00  0.00     0.032 C 
ATOM      8  C   UNL     1      12.270  12.965  11.918  1.00  0.00     0.014 C 
BRANCH   7   9
ATOM      9  C   UNL     1      13.127  14.463  13.702  1.00  0.00     0.044 C 
ATOM     10  O   UNL     1      12.968  14.818  14.900  1.00  0.00    -0.550 OA
ATOM     11  O   UNL     1      13.487  15.411  12.750  1.00  0.00    -0.550 OA
ENDBRANCH   7   9
ENDBRANCH   6   7
ENDBRANCH   5   6
ENDBRANCH   4   5
ENDBRANCH   3   4
ENDBRANCH   2   3
ENDBRANCH   1   2
BRANCH   1  12
ATOM     12  C   UNL     1      12.541   5.666  16.968  1.00  0.00     0.000 C 
BRANCH  12  13
ATOM     13  C   UNL     1      13.561   4.825  16.188  1.00  0.00    -0.000 C 
BRANCH  13  14
ATOM     14  C   UNL     1      14.018   3.613  17.010  1.00  0.00    -0.000 C 
BRANCH  14  15
ATOM     15  C   UNL     1      12.864   2.619  17.210  1.00  0.00    -0.000 C 
BRANCH  15  16
ATOM     16  C   UNL     1      12.473   2.456  18.688  1.00  0.00    -0.000 C 
BRANCH  16  17
ATOM     17  C   UNL     1      12.087   3.790  19.349  1.00  0.00    -0.000 C 
BRANCH  17  18
ATOM     18  C   UNL     1      11.208   3.598  20.594  1.00  0.00    -0.003 C 
ATOM     19  C   UNL     1      11.962   2.954  21.755  1.00  0.00     0.004 C 
ENDBRANCH  17  18
ENDBRANCH  16  17
ENDBRANCH  15  16
ENDBRANCH  14  15
ENDBRANCH  13  14
ENDBRANCH  12  13
ENDBRANCH   1  12
TORSDOF 14
ENDMDL
MODEL 5
REMARK VINA RESULT:    -1.351      0.638      2.042
REMARK INTER + INTRA:          -3.701
REMARK INTER:                  -2.579
REMARK INTRA:                  -1.122
REMARK UNBOUND:                -1.244
REMARK SMILES CCCCCCCCCCCCCC[C@@H](C)C(=O)[O-]
REMARK SMILES IDX 9 1 10 2 11 3 12 4 13 5 14 6 15 7 16 8 17 9 18 10 19 11 8 12
REMARK SMILES IDX 7 13 6 14 5 15 4 16 3 17 2 18 1 19
REMARK H PARENT
REMARK Flexibility Score: inf
ROOT
ATOM      1  C   UNL     1      11.783  11.798  14.992  1.00  0.00     0.000 C 
ENDROOT
BRANCH   1   2
ATOM      2  C   UNL     1      13.023  10.887  15.110  1.00  0.00     0.000 C 
BRANCH   2   3
ATOM      3  C   UNL     1      12.734   9.377  15.029  1.00  0.00     0.000 C 
BRANCH   3   4
ATOM      4  C   UNL     1      14.010   8.523  15.065  1.00  0.00     0.000 C 
BRANCH   4   5
ATOM      5  C   UNL     1      13.687   7.067  15.434  1.00  0.00     0.001 C 
BRANCH   5   6
ATOM      6  C   UNL     1      12.612   6.967  16.537  1.00  0.00     0.009 C 
BRANCH   6   7
ATOM      7  C   UNL     1      12.469   5.549  17.136  1.00  0.00     0.032 C 
ATOM      8  C   UNL     1      13.393   4.529  16.460  1.00  0.00     0.014 C 
BRANCH   7   9
ATOM      9  C   UNL     1      12.757   5.591  18.611  1.00  0.00     0.044 C 
ATOM     10  O   UNL     1      13.479   6.505  19.090  1.00  0.00    -0.550 OA
ATOM     11  O   UNL     1      12.235   4.619  19.457  1.00  0.00    -0.550 OA
ENDBRANCH   7   9
ENDBRANCH   6   7
ENDBRANCH   5   6
ENDBRANCH   4   5
ENDBRANCH   3   4
ENDBRANCH   2   3
ENDBRANCH   1   2
BRANCH   1  12
ATOM     12  C   UNL     1      11.415  12.215  13.557  1.00  0.00     0.000 C 
BRANCH  12  13
ATOM     13  C   UNL     1      12.593  12.091  12.579  1.00  0.00    -0.000 C 
BRANCH  13  14
ATOM     14  C   UNL     1      12.517  13.167  11.489  1.00  0.00    -0.000 C 
BRANCH  14  15
ATOM     15  C   UNL     1      12.097  14.521  12.080  1.00  0.00    -0.000 C 
BRANCH  15  16
ATOM     16  C   UNL     1      13.200  15.585  11.962  1.00  0.00    -0.000 C 
BRANCH  16  17
ATOM     17  C   UNL     1      13.647  16.129  13.329  1.00  0.00    -0.000 C 
BRANCH  17  18
ATOM     18  C   UNL     1      12.822  15.552  14.491  1.00  0.00    -0.003 C 
ATOM     19  C   UNL     1      13.589  14.505  15.296  1.00  0.00     0.004 C 
ENDBRANCH  17  18
ENDBRANCH  16  17
ENDBRANCH  15  16
ENDBRANCH  14  15
ENDBRANCH  13  14
ENDBRANCH  12  13
ENDBRANCH   1  12
TORSDOF 14
ENDMDL
MODEL 6
REMARK VINA RESULT:    -1.315      3.997      8.619
REMARK INTER + INTRA:          -3.635
REMARK INTER:                  -3.187
REMARK INTRA:                  -0.448
REMARK UNBOUND:                -1.244
REMARK SMILES CCCCCCCCCCCCCC[C@@H](C)C(=O)[O-]
REMARK SMILES IDX 9 1 10 2 11 3 12 4 13 5 14 6 15 7 16 8 17 9 18 10 19 11 8 12
REMARK SMILES IDX 7 13 6 14 5 15 4 16 3 17 2 18 1 19
REMARK H PARENT
REMARK Flexibility Score: inf
ROOT
ATOM      1  C   UNL     1      12.497   7.199  16.702  1.00  0.00     0.000 C 
ENDROOT
BRANCH   1   2
ATOM      2  C   UNL     1      13.248   7.640  15.429  1.00  0.00     0.000 C 
BRANCH   2   3
ATOM      3  C   UNL     1      13.622   9.132  15.374  1.00  0.00     0.000 C 
BRANCH   3   4
ATOM      4  C   UNL     1      12.429  10.034  15.024  1.00  0.00     0.000 C 
BRANCH   4   5
ATOM      5  C   UNL     1      12.838  11.515  15.031  1.00  0.00     0.001 C 
BRANCH   5   6
ATOM      6  C   UNL     1      11.988  12.362  14.060  1.00  0.00     0.009 C 
BRANCH   6   7
ATOM      7  C   UNL     1      12.783  12.902  12.850  1.00  0.00     0.032 C 
ATOM      8  C   UNL     1      12.061  12.664  11.518  1.00  0.00     0.014 C 
BRANCH   7   9
ATOM      9  C   UNL     1      13.041  14.373  13.029  1.00  0.00     0.044 C 
ATOM     10  O   UNL     1      12.845  15.171  12.075  1.00  0.00    -0.550 OA
ATOM     11  O   UNL     1      13.503  14.862  14.246  1.00  0.00    -0.550 OA
ENDBRANCH   7   9
ENDBRANCH   6   7
ENDBRANCH   5   6
ENDBRANCH   4   5
ENDBRANCH   3   4
ENDBRANCH   2   3
ENDBRANCH   1   2
BRANCH   1  12
ATOM     12  C   UNL     1      12.967   5.866  17.309  1.00  0.00     0.000 C 
BRANCH  12  13
ATOM     13  C   UNL     1      12.868   4.694  16.322  1.00  0.00    -0.000 C 
BRANCH  13  14
ATOM     14  C   UNL     1      14.063   3.745  16.474  1.00  0.00    -0.000 C 
BRANCH  14  15
ATOM     15  C   UNL     1      15.104   3.990  15.371  1.00  0.00    -0.000 C 
BRANCH  15  16
ATOM     16  C   UNL     1      14.701   5.128  14.419  1.00  0.00    -0.000 C 
BRANCH  16  17
ATOM     17  C   UNL     1      15.501   5.112  13.106  1.00  0.00    -0.000 C 
BRANCH  17  18
ATOM     18  C   UNL     1      14.681   4.576  11.923  1.00  0.00    -0.003 C 
ATOM     19  C   UNL     1      15.545   3.875  10.875  1.00  0.00     0.004 C 
ENDBRANCH  17  18
ENDBRANCH  16  17
ENDBRANCH  15  16
ENDBRANCH  14  15
ENDBRANCH  13  14
ENDBRANCH  12  13
ENDBRANCH   1  12
TORSDOF 14
ENDMDL
MODEL 7
REMARK VINA RESULT:    -1.142      3.378      4.946
REMARK INTER + INTRA:          -3.320
REMARK INTER:                  -2.411
REMARK INTRA:                  -0.910
REMARK UNBOUND:                -1.244
REMARK SMILES CCCCCCCCCCCCCC[C@@H](C)C(=O)[O-]
REMARK SMILES IDX 9 1 10 2 11 3 12 4 13 5 14 6 15 7 16 8 17 9 18 10 19 11 8 12
REMARK SMILES IDX 7 13 6 14 5 15 4 16 3 17 2 18 1 19
REMARK H PARENT
REMARK Flexibility Score: inf
ROOT
ATOM      1  C   UNL     1      12.760   7.771  16.705  1.00  0.00     0.000 C 
ENDROOT
BRANCH   1   2
ATOM      2  C   UNL     1      12.242   6.321  16.787  1.00  0.00     0.000 C 
BRANCH   2   3
ATOM      3  C   UNL     1      13.281   5.281  17.244  1.00  0.00     0.000 C 
BRANCH   3   4
ATOM      4  C   UNL     1      13.582   4.226  16.170  1.00  0.00     0.000 C 
BRANCH   4   5
ATOM      5  C   UNL     1      14.902   4.538  15.447  1.00  0.00     0.001 C 
BRANCH   5   6
ATOM      6  C   UNL     1      14.673   5.167  14.056  1.00  0.00     0.009 C 
BRANCH   6   7
ATOM      7  C   UNL     1      15.898   5.062  13.120  1.00  0.00     0.032 C 
ATOM      8  C   UNL     1      17.052   4.271  13.748  1.00  0.00     0.014 C 
BRANCH   7   9
ATOM      9  C   UNL     1      15.491   4.417  11.824  1.00  0.00     0.044 C 
ATOM     10  O   UNL     1      14.365   4.669  11.318  1.00  0.00    -0.550 OA
ATOM     11  O   UNL     1      16.349   3.535  11.178  1.00  0.00    -0.550 OA
ENDBRANCH   7   9
ENDBRANCH   6   7
ENDBRANCH   5   6
ENDBRANCH   4   5
ENDBRANCH   3   4
ENDBRANCH   2   3
ENDBRANCH   1   2
BRANCH   1  12
ATOM     12  C   UNL     1      13.265   8.206  15.318  1.00  0.00     0.000 C 
BRANCH  12  13
ATOM     13  C   UNL     1      13.518   9.718  15.223  1.00  0.00    -0.000 C 
BRANCH  13  14
ATOM     14  C   UNL     1      12.202  10.485  15.045  1.00  0.00    -0.000 C 
BRANCH  14  15
ATOM     15  C   UNL     1      12.456  11.887  14.470  1.00  0.00    -0.000 C 
BRANCH  15  16
ATOM     16  C   UNL     1      13.144  12.823  15.477  1.00  0.00    -0.000 C 
BRANCH  16  17
ATOM     17  C   UNL     1      12.892  14.310  15.171  1.00  0.00    -0.000 C 
BRANCH  17  18
ATOM     18  C   UNL     1      12.998  14.628  13.671  1.00  0.00    -0.003 C 
ATOM     19  C   UNL     1      13.578  16.016  13.403  1.00  0.00     0.004 C 
ENDBRANCH  17  18
ENDBRANCH  16  17
ENDBRANCH  15  16
ENDBRANCH  14  15
ENDBRANCH  13  14
ENDBRANCH  12  13
ENDBRANCH   1  12
TORSDOF 14
ENDMDL
MODEL 8
REMARK VINA RESULT:    -1.051      1.557      2.920
REMARK INTER + INTRA:          -3.156
REMARK INTER:                  -2.323
REMARK INTRA:                  -0.833
REMARK UNBOUND:                -1.244
REMARK SMILES CCCCCCCCCCCCCC[C@@H](C)C(=O)[O-]
REMARK SMILES IDX 9 1 10 2 11 3 12 4 13 5 14 6 15 7 16 8 17 9 18 10 19 11 8 12
REMARK SMILES IDX 7 13 6 14 5 15 4 16 3 17 2 18 1 19
REMARK H PARENT
REMARK Flexibility Score: inf
ROOT
ATOM      1  C   UNL     1      13.562   8.782  15.447  1.00  0.00     0.000 C 
ENDROOT
BRANCH   1   2
ATOM      2  C   UNL     1      13.660   7.317  14.974  1.00  0.00     0.000 C 
BRANCH   2   3
ATOM      3  C   UNL     1      13.387   6.260  16.059  1.00  0.00     0.000 C 
BRANCH   3   4
ATOM      4  C   UNL     1      12.220   6.638  16.981  1.00  0.00     0.000 C 
BRANCH   4   5
ATOM      5  C   UNL     1      12.644   6.586  18.457  1.00  0.00     0.001 C 
BRANCH   5   6
ATOM      6  C   UNL     1      13.152   5.187  18.870  1.00  0.00     0.009 C 
BRANCH   6   7
ATOM      7  C   UNL     1      12.117   4.061  18.650  1.00  0.00     0.032 C 
ATOM      8  C   UNL     1      12.742   2.797  18.048  1.00  0.00     0.014 C 
BRANCH   7   9
ATOM      9  C   UNL     1      11.451   3.724  19.955  1.00  0.00     0.044 C 
ATOM     10  O   UNL     1      12.030   2.977  20.787  1.00  0.00    -0.550 OA
ATOM     11  O   UNL     1      10.189   4.227  20.251  1.00  0.00    -0.550 OA
ENDBRANCH   7   9
ENDBRANCH   6   7
ENDBRANCH   5   6
ENDBRANCH   4   5
ENDBRANCH   3   4
ENDBRANCH   2   3
ENDBRANCH   1   2
BRANCH   1  12
ATOM     12  C   UNL     1      12.523   9.640  14.703  1.00  0.00     0.000 C 
BRANCH  12  13
ATOM     13  C   UNL     1      12.516  11.103  15.169  1.00  0.00    -0.000 C 
BRANCH  13  14
ATOM     14  C   UNL     1      11.819  12.003  14.141  1.00  0.00    -0.000 C 
BRANCH  14  15
ATOM     15  C   UNL     1      12.791  13.052  13.580  1.00  0.00    -0.000 C 
BRANCH  15  16
ATOM     16  C   UNL     1      13.250  14.063  14.643  1.00  0.00    -0.000 C 
BRANCH  16  17
ATOM     17  C   UNL     1      12.973  15.520  14.234  1.00  0.00    -0.000 C 
BRANCH  17  18
ATOM     18  C   UNL     1      13.820  15.964  13.032  1.00  0.00    -0.003 C 
ATOM     19  C   UNL     1      12.976  16.257  11.792  1.00  0.00     0.004 C 
ENDBRANCH  17  18
ENDBRANCH  16  17
ENDBRANCH  15  16
ENDBRANCH  14  15
ENDBRANCH  13  14
ENDBRANCH  12  13
ENDBRANCH   1  12
TORSDOF 14
ENDMDL
MODEL 9
REMARK VINA RESULT:    -0.956      4.083      9.377
REMARK INTER + INTRA:          -2.983
REMARK INTER:                  -2.141
REMARK INTRA:                  -0.842
REMARK UNBOUND:                -1.244
REMARK SMILES CCCCCCCCCCCCCC[C@@H](C)C(=O)[O-]
REMARK SMILES IDX 9 1 10 2 11 3 12 4 13 5 14 6 15 7 16 8 17 9 18 10 19 11 8 12
REMARK SMILES IDX 7 13 6 14 5 15 4 16 3 17 2 18 1 19
REMARK H PARENT
REMARK Flexibility Score: inf
ROOT
ATOM      1  C   UNL     1      13.605   7.551  15.263  1.00  0.00     0.000 C 
ENDROOT
BRANCH   1   2
ATOM      2  C   UNL     1      13.931   9.000  14.845  1.00  0.00     0.000 C 
BRANCH   2   3
ATOM      3  C   UNL     1      12.750   9.984  14.921  1.00  0.00     0.000 C 
BRANCH   3   4
ATOM      4  C   UNL     1      13.194  11.429  15.190  1.00  0.00     0.000 C 
BRANCH   4   5
ATOM      5  C   UNL     1      12.004  12.396  15.097  1.00  0.00     0.001 C 
BRANCH   5   6
ATOM      6  C   UNL     1      12.442  13.830  14.727  1.00  0.00     0.009 C 
BRANCH   6   7
ATOM      7  C   UNL     1      13.202  13.918  13.384  1.00  0.00     0.032 C 
ATOM      8  C   UNL     1      12.524  13.112  12.270  1.00  0.00     0.014 C 
BRANCH   7   9
ATOM      9  C   UNL     1      13.323  15.357  12.965  1.00  0.00     0.044 C 
ATOM     10  O   UNL     1      13.324  15.662  11.743  1.00  0.00    -0.550 OA
ATOM     11  O   UNL     1      13.441  16.360  13.920  1.00  0.00    -0.550 OA
ENDBRANCH   7   9
ENDBRANCH   6   7
ENDBRANCH   5   6
ENDBRANCH   4   5
ENDBRANCH   3   4
ENDBRANCH   2   3
ENDBRANCH   1   2
BRANCH   1  12
ATOM     12  C   UNL     1      12.467   7.409  16.289  1.00  0.00     0.000 C 
BRANCH  12  13
ATOM     13  C   UNL     1      12.568   6.118  17.115  1.00  0.00    -0.000 C 
BRANCH  13  14
ATOM     14  C   UNL     1      12.983   6.421  18.560  1.00  0.00    -0.000 C 
BRANCH  14  15
ATOM     15  C   UNL     1      12.899   5.159  19.432  1.00  0.00    -0.000 C 
BRANCH  15  16
ATOM     16  C   UNL     1      11.869   4.146  18.909  1.00  0.00    -0.000 C 
BRANCH  16  17
ATOM     17  C   UNL     1      12.481   2.758  18.652  1.00  0.00    -0.000 C 
BRANCH  17  18
ATOM     18  C   UNL     1      12.813   2.527  17.170  1.00  0.00    -0.003 C 
ATOM     19  C   UNL     1      14.293   2.740  16.857  1.00  0.00     0.004 C 
ENDBRANCH  17  18
ENDBRANCH  16  17
ENDBRANCH  15  16
ENDBRANCH  14  15
ENDBRANCH  13  14
ENDBRANCH  12  13
ENDBRANCH   1  12
TORSDOF 14
ENDMDL
