MODEL 1
REMARK VINA RESULT:    -2.996      0.000      0.000
REMARK INTER + INTRA:          -6.102
REMARK INTER:                  -4.747
REMARK INTRA:                  -1.356
REMARK UNBOUND:                -1.356
REMARK SMILES CCCCCCCCCCCC(=O)[O-]
REMARK SMILES IDX 7 1 8 2 9 3 10 4 11 5 12 6 13 7 14 8 6 9 5 10 4 11 3 12 2 13
REMARK SMILES IDX 1 14
REMARK H PARENT
REMARK Flexibility Score: inf
ROOT
ATOM      1  C   UNL     1    -115.130  33.886  -8.591  1.00  0.00     0.000 C 
ENDROOT
BRANCH   1   2
ATOM      2  C   UNL     1    -116.553  33.556  -9.067  1.00  0.00     0.000 C 
BRANCH   2   3
ATOM      3  C   UNL     1    -116.660  33.663 -10.593  1.00  0.00     0.000 C 
BRANCH   3   4
ATOM      4  C   UNL     1    -115.300  34.012 -11.217  1.00  0.00     0.006 C 
BRANCH   4   5
ATOM      5  C   UNL     1    -115.441  34.585 -12.634  1.00  0.00     0.053 C 
BRANCH   5   6
ATOM      6  C   UNL     1    -114.865  33.665 -13.667  1.00  0.00     0.041 C 
ATOM      7  O   UNL     1    -114.477  34.122 -14.775  1.00  0.00    -0.550 OA
ATOM      8  O   UNL     1    -114.725  32.311 -13.394  1.00  0.00    -0.550 OA
ENDBRANCH   5   6
ENDBRANCH   4   5
ENDBRANCH   3   4
ENDBRANCH   2   3
ENDBRANCH   1   2
BRANCH   1   9
ATOM      9  C   UNL     1    -115.111  34.919  -7.453  1.00  0.00     0.000 C 
BRANCH   9  10
ATOM     10  C   UNL     1    -116.499  35.511  -7.168  1.00  0.00    -0.000 C 
BRANCH  10  11
ATOM     11  C   UNL     1    -116.562  36.986  -7.583  1.00  0.00    -0.000 C 
BRANCH  11  12
ATOM     12  C   UNL     1    -116.946  37.125  -9.064  1.00  0.00    -0.000 C 
BRANCH  12  13
ATOM     13  C   UNL     1    -115.782  37.625  -9.932  1.00  0.00    -0.003 C 
ATOM     14  C   UNL     1    -114.684  38.305  -9.114  1.00  0.00     0.004 C 
ENDBRANCH  12  13
ENDBRANCH  11  12
ENDBRANCH  10  11
ENDBRANCH   9  10
ENDBRANCH   1   9
TORSDOF 10
ENDMDL
MODEL 2
REMARK VINA RESULT:    -2.873      0.673      1.504
REMARK INTER + INTRA:          -5.908
REMARK INTER:                  -4.634
REMARK INTRA:                  -1.274
REMARK UNBOUND:                -1.356
REMARK SMILES CCCCCCCCCCCC(=O)[O-]
REMARK SMILES IDX 7 1 8 2 9 3 10 4 11 5 12 6 13 7 14 8 6 9 5 10 4 11 3 12 2 13
REMARK SMILES IDX 1 14
REMARK H PARENT
REMARK Flexibility Score: inf
ROOT
ATOM      1  C   UNL     1    -115.044  34.645  -7.735  1.00  0.00     0.000 C 
ENDROOT
BRANCH   1   2
ATOM      2  C   UNL     1    -115.053  33.774  -9.000  1.00  0.00     0.000 C 
BRANCH   2   3
ATOM      3  C   UNL     1    -116.488  33.422  -9.414  1.00  0.00     0.000 C 
BRANCH   3   4
ATOM      4  C   UNL     1    -116.659  33.510 -10.938  1.00  0.00     0.006 C 
BRANCH   4   5
ATOM      5  C   UNL     1    -115.578  34.381 -11.594  1.00  0.00     0.053 C 
BRANCH   5   6
ATOM      6  C   UNL     1    -115.128  33.816 -12.906  1.00  0.00     0.041 C 
ATOM      7  O   UNL     1    -114.455  32.752 -12.939  1.00  0.00    -0.550 OA
ATOM      8  O   UNL     1    -115.480  34.444 -14.094  1.00  0.00    -0.550 OA
ENDBRANCH   5   6
ENDBRANCH   4   5
ENDBRANCH   3   4
ENDBRANCH   2   3
ENDBRANCH   1   2
BRANCH   1   9
ATOM      9  C   UNL     1    -116.439  35.183  -7.376  1.00  0.00     0.000 C 
BRANCH   9  10
ATOM     10  C   UNL     1    -116.536  36.709  -7.505  1.00  0.00    -0.000 C 
BRANCH  10  11
ATOM     11  C   UNL     1    -117.054  37.111  -8.891  1.00  0.00    -0.000 C 
BRANCH  11  12
ATOM     12  C   UNL     1    -115.901  37.567  -9.799  1.00  0.00    -0.000 C 
BRANCH  12  13
ATOM     13  C   UNL     1    -114.823  38.351  -9.035  1.00  0.00    -0.003 C 
ATOM     14  C   UNL     1    -114.500  39.697  -9.682  1.00  0.00     0.004 C 
ENDBRANCH  12  13
ENDBRANCH  11  12
ENDBRANCH  10  11
ENDBRANCH   9  10
ENDBRANCH   1   9
TORSDOF 10
ENDMDL
MODEL 3
REMARK VINA RESULT:    -2.814      2.430      4.924
REMARK INTER + INTRA:          -5.814
REMARK INTER:                  -4.661
REMARK INTRA:                  -1.154
REMARK UNBOUND:                -1.356
REMARK SMILES CCCCCCCCCCCC(=O)[O-]
REMARK SMILES IDX 7 1 8 2 9 3 10 4 11 5 12 6 13 7 14 8 6 9 5 10 4 11 3 12 2 13
REMARK SMILES IDX 1 14
REMARK H PARENT
REMARK Flexibility Score: inf
ROOT
ATOM      1  C   UNL     1    -115.113  33.898  -8.724  1.00  0.00     0.000 C 
ENDROOT
BRANCH   1   2
ATOM      2  C   UNL     1    -115.091  34.830  -7.502  1.00  0.00     0.000 C 
BRANCH   2   3
ATOM      3  C   UNL     1    -116.480  35.428  -7.244  1.00  0.00     0.000 C 
BRANCH   3   4
ATOM      4  C   UNL     1    -116.484  36.942  -7.505  1.00  0.00     0.006 C 
BRANCH   4   5
ATOM      5  C   UNL     1    -116.721  37.276  -8.984  1.00  0.00     0.053 C 
BRANCH   5   6
ATOM      6  C   UNL     1    -115.491  37.831  -9.634  1.00  0.00     0.041 C 
ATOM      7  O   UNL     1    -114.535  38.249  -8.927  1.00  0.00    -0.550 OA
ATOM      8  O   UNL     1    -115.385  37.857 -11.019  1.00  0.00    -0.550 OA
ENDBRANCH   5   6
ENDBRANCH   4   5
ENDBRANCH   3   4
ENDBRANCH   2   3
ENDBRANCH   1   2
BRANCH   1   9
ATOM      9  C   UNL     1    -116.540  33.560  -9.185  1.00  0.00     0.000 C 
BRANCH   9  10
ATOM     10  C   UNL     1    -116.787  33.921 -10.657  1.00  0.00    -0.000 C 
BRANCH  10  11
ATOM     11  C   UNL     1    -115.475  34.294 -11.359  1.00  0.00    -0.000 C 
BRANCH  11  12
ATOM     12  C   UNL     1    -115.726  34.688 -12.822  1.00  0.00    -0.000 C 
BRANCH  12  13
ATOM     13  C   UNL     1    -114.902  33.847 -13.809  1.00  0.00    -0.003 C 
ATOM     14  C   UNL     1    -114.953  32.352 -13.499  1.00  0.00     0.004 C 
ENDBRANCH  12  13
ENDBRANCH  11  12
ENDBRANCH  10  11
ENDBRANCH   9  10
ENDBRANCH   1   9
TORSDOF 10
ENDMDL
MODEL 4
REMARK VINA RESULT:    -2.774      3.730      5.291
REMARK INTER + INTRA:          -5.752
REMARK INTER:                  -4.247
REMARK INTRA:                  -1.505
REMARK UNBOUND:                -1.356
REMARK SMILES CCCCCCCCCCCC(=O)[O-]
REMARK SMILES IDX 7 1 8 2 9 3 10 4 11 5 12 6 13 7 14 8 6 9 5 10 4 11 3 12 2 13
REMARK SMILES IDX 1 14
REMARK H PARENT
REMARK Flexibility Score: inf
ROOT
ATOM      1  C   UNL     1    -115.058  34.973  -7.683  1.00  0.00     0.000 C 
ENDROOT
BRANCH   1   2
ATOM      2  C   UNL     1    -116.394  35.660  -7.360  1.00  0.00     0.000 C 
BRANCH   2   3
ATOM      3  C   UNL     1    -116.425  37.088  -7.919  1.00  0.00     0.000 C 
BRANCH   3   4
ATOM      4  C   UNL     1    -115.131  37.409  -8.682  1.00  0.00     0.006 C 
BRANCH   4   5
ATOM      5  C   UNL     1    -115.211  38.752  -9.422  1.00  0.00     0.053 C 
BRANCH   5   6
ATOM      6  C   UNL     1    -115.416  39.897  -8.478  1.00  0.00     0.041 C 
ATOM      7  O   UNL     1    -114.495  40.240  -7.690  1.00  0.00    -0.550 OA
ATOM      8  O   UNL     1    -116.610  40.607  -8.491  1.00  0.00    -0.550 OA
ENDBRANCH   5   6
ENDBRANCH   4   5
ENDBRANCH   3   4
ENDBRANCH   2   3
ENDBRANCH   1   2
BRANCH   1   9
ATOM      9  C   UNL     1    -115.210  33.835  -8.705  1.00  0.00     0.000 C 
BRANCH   9  10
ATOM     10  C   UNL     1    -116.674  33.566  -9.079  1.00  0.00    -0.000 C 
BRANCH  10  11
ATOM     11  C   UNL     1    -116.919  33.834 -10.569  1.00  0.00    -0.000 C 
BRANCH  11  12
ATOM     12  C   UNL     1    -115.627  34.289 -11.266  1.00  0.00    -0.000 C 
BRANCH  12  13
ATOM     13  C   UNL     1    -115.752  35.690 -11.884  1.00  0.00    -0.003 C 
ATOM     14  C   UNL     1    -117.125  36.319 -11.650  1.00  0.00     0.004 C 
ENDBRANCH  12  13
ENDBRANCH  11  12
ENDBRANCH  10  11
ENDBRANCH   9  10
ENDBRANCH   1   9
TORSDOF 10
ENDMDL
MODEL 5
REMARK VINA RESULT:    -2.766      3.148      4.936
REMARK INTER + INTRA:          -5.739
REMARK INTER:                  -4.576
REMARK INTRA:                  -1.163
REMARK UNBOUND:                -1.356
REMARK SMILES CCCCCCCCCCCC(=O)[O-]
REMARK SMILES IDX 7 1 8 2 9 3 10 4 11 5 12 6 13 7 14 8 6 9 5 10 4 11 3 12 2 13
REMARK SMILES IDX 1 14
REMARK H PARENT
REMARK Flexibility Score: inf
ROOT
ATOM      1  C   UNL     1    -115.127  33.854  -8.613  1.00  0.00     0.000 C 
ENDROOT
BRANCH   1   2
ATOM      2  C   UNL     1    -114.993  34.986  -7.584  1.00  0.00     0.000 C 
BRANCH   2   3
ATOM      3  C   UNL     1    -116.349  35.653  -7.320  1.00  0.00     0.000 C 
BRANCH   3   4
ATOM      4  C   UNL     1    -116.339  37.120  -7.775  1.00  0.00     0.006 C 
BRANCH   4   5
ATOM      5  C   UNL     1    -115.276  37.387  -8.851  1.00  0.00     0.053 C 
BRANCH   5   6
ATOM      6  C   UNL     1    -114.920  38.839  -8.933  1.00  0.00     0.041 C 
ATOM      7  O   UNL     1    -115.231  39.621  -7.996  1.00  0.00    -0.550 OA
ATOM      8  O   UNL     1    -114.215  39.323 -10.027  1.00  0.00    -0.550 OA
ENDBRANCH   5   6
ENDBRANCH   4   5
ENDBRANCH   3   4
ENDBRANCH   2   3
ENDBRANCH   1   2
BRANCH   1   9
ATOM      9  C   UNL     1    -116.578  33.641  -9.073  1.00  0.00     0.000 C 
BRANCH   9  10
ATOM     10  C   UNL     1    -116.758  33.849 -10.583  1.00  0.00    -0.000 C 
BRANCH  10  11
ATOM     11  C   UNL     1    -115.412  33.767 -11.313  1.00  0.00    -0.000 C 
BRANCH  11  12
ATOM     12  C   UNL     1    -115.359  34.758 -12.485  1.00  0.00    -0.000 C 
BRANCH  12  13
ATOM     13  C   UNL     1    -116.090  36.074 -12.179  1.00  0.00    -0.003 C 
ATOM     14  C   UNL     1    -115.343  37.301 -12.702  1.00  0.00     0.004 C 
ENDBRANCH  12  13
ENDBRANCH  11  12
ENDBRANCH  10  11
ENDBRANCH   9  10
ENDBRANCH   1   9
TORSDOF 10
ENDMDL
MODEL 6
REMARK VINA RESULT:    -2.701      2.258      2.909
REMARK INTER + INTRA:          -5.636
REMARK INTER:                  -4.461
REMARK INTRA:                  -1.175
REMARK UNBOUND:                -1.356
REMARK SMILES CCCCCCCCCCCC(=O)[O-]
REMARK SMILES IDX 7 1 8 2 9 3 10 4 11 5 12 6 13 7 14 8 6 9 5 10 4 11 3 12 2 13
REMARK SMILES IDX 1 14
REMARK H PARENT
REMARK Flexibility Score: inf
ROOT
ATOM      1  C   UNL     1    -116.140  33.806  -9.580  1.00  0.00     0.000 C 
ENDROOT
BRANCH   1   2
ATOM      2  C   UNL     1    -115.724  34.010 -11.045  1.00  0.00     0.000 C 
BRANCH   2   3
ATOM      3  C   UNL     1    -116.301  35.318 -11.601  1.00  0.00     0.000 C 
BRANCH   3   4
ATOM      4  C   UNL     1    -115.385  35.905 -12.686  1.00  0.00     0.006 C 
BRANCH   4   5
ATOM      5  C   UNL     1    -115.408  37.441 -12.697  1.00  0.00     0.053 C 
BRANCH   5   6
ATOM      6  C   UNL     1    -114.061  38.016 -13.011  1.00  0.00     0.041 C 
ATOM      7  O   UNL     1    -113.476  37.708 -14.083  1.00  0.00    -0.550 OA
ATOM      8  O   UNL     1    -113.468  38.918 -12.138  1.00  0.00    -0.550 OA
ENDBRANCH   5   6
ENDBRANCH   4   5
ENDBRANCH   3   4
ENDBRANCH   2   3
ENDBRANCH   1   2
BRANCH   1   9
ATOM      9  C   UNL     1    -114.940  33.799  -8.619  1.00  0.00     0.000 C 
BRANCH   9  10
ATOM     10  C   UNL     1    -115.070  34.843  -7.501  1.00  0.00    -0.000 C 
BRANCH  10  11
ATOM     11  C   UNL     1    -116.510  35.361  -7.399  1.00  0.00    -0.000 C 
BRANCH  11  12
ATOM     12  C   UNL     1    -116.543  36.897  -7.397  1.00  0.00    -0.000 C 
BRANCH  12  13
ATOM     13  C   UNL     1    -116.372  37.493  -8.802  1.00  0.00    -0.003 C 
ATOM     14  C   UNL     1    -115.008  38.155  -9.002  1.00  0.00     0.004 C 
ENDBRANCH  12  13
ENDBRANCH  11  12
ENDBRANCH  10  11
ENDBRANCH   9  10
ENDBRANCH   1   9
TORSDOF 10
ENDMDL
MODEL 7
REMARK VINA RESULT:    -2.650      3.139      4.709
REMARK INTER + INTRA:          -5.554
REMARK INTER:                  -4.712
REMARK INTRA:                  -0.843
REMARK UNBOUND:                -1.356
REMARK SMILES CCCCCCCCCCCC(=O)[O-]
REMARK SMILES IDX 7 1 8 2 9 3 10 4 11 5 12 6 13 7 14 8 6 9 5 10 4 11 3 12 2 13
REMARK SMILES IDX 1 14
REMARK H PARENT
REMARK Flexibility Score: inf
ROOT
ATOM      1  C   UNL     1    -115.572  35.178 -12.579  1.00  0.00     0.000 C 
ENDROOT
BRANCH   1   2
ATOM      2  C   UNL     1    -115.682  36.499 -11.804  1.00  0.00     0.000 C 
BRANCH   2   3
ATOM      3  C   UNL     1    -115.492  37.701 -12.738  1.00  0.00     0.000 C 
BRANCH   3   4
ATOM      4  C   UNL     1    -114.097  37.681 -13.382  1.00  0.00     0.006 C 
BRANCH   4   5
ATOM      5  C   UNL     1    -113.159  38.730 -12.767  1.00  0.00     0.053 C 
BRANCH   5   6
ATOM      6  C   UNL     1    -111.765  38.611 -13.302  1.00  0.00     0.041 C 
ATOM      7  O   UNL     1    -111.471  37.684 -14.103  1.00  0.00    -0.550 OA
ATOM      8  O   UNL     1    -110.799  39.543 -12.943  1.00  0.00    -0.550 OA
ENDBRANCH   5   6
ENDBRANCH   4   5
ENDBRANCH   3   4
ENDBRANCH   2   3
ENDBRANCH   1   2
BRANCH   1   9
ATOM      9  C   UNL     1    -115.533  33.950 -11.655  1.00  0.00     0.000 C 
BRANCH   9  10
ATOM     10  C   UNL     1    -116.848  33.745 -10.889  1.00  0.00    -0.000 C 
BRANCH  10  11
ATOM     11  C   UNL     1    -116.579  33.400  -9.419  1.00  0.00    -0.000 C 
BRANCH  11  12
ATOM     12  C   UNL     1    -115.139  33.760  -9.023  1.00  0.00    -0.000 C 
BRANCH  12  13
ATOM     13  C   UNL     1    -115.077  34.697  -7.807  1.00  0.00    -0.003 C 
ATOM     14  C   UNL     1    -115.672  36.075  -8.092  1.00  0.00     0.004 C 
ENDBRANCH  12  13
ENDBRANCH  11  12
ENDBRANCH  10  11
ENDBRANCH   9  10
ENDBRANCH   1   9
TORSDOF 10
ENDMDL
MODEL 8
REMARK VINA RESULT:    -2.569      1.957      3.437
REMARK INTER + INTRA:          -5.427
REMARK INTER:                  -4.407
REMARK INTRA:                  -1.020
REMARK UNBOUND:                -1.356
REMARK SMILES CCCCCCCCCCCC(=O)[O-]
REMARK SMILES IDX 7 1 8 2 9 3 10 4 11 5 12 6 13 7 14 8 6 9 5 10 4 11 3 12 2 13
REMARK SMILES IDX 1 14
REMARK H PARENT
REMARK Flexibility Score: inf
ROOT
ATOM      1  C   UNL     1    -116.467  36.856  -7.464  1.00  0.00     0.000 C 
ENDROOT
BRANCH   1   2
ATOM      2  C   UNL     1    -116.522  35.321  -7.481  1.00  0.00     0.000 C 
BRANCH   2   3
ATOM      3  C   UNL     1    -115.110  34.722  -7.490  1.00  0.00     0.000 C 
BRANCH   3   4
ATOM      4  C   UNL     1    -114.882  33.870  -8.747  1.00  0.00     0.006 C 
BRANCH   4   5
ATOM      5  C   UNL     1    -116.193  33.552  -9.479  1.00  0.00     0.053 C 
BRANCH   5   6
ATOM      6  C   UNL     1    -116.101  33.855 -10.943  1.00  0.00     0.041 C 
ATOM      7  O   UNL     1    -115.636  34.959 -11.333  1.00  0.00    -0.550 OA
ATOM      8  O   UNL     1    -116.496  32.907 -11.878  1.00  0.00    -0.550 OA
ENDBRANCH   5   6
ENDBRANCH   4   5
ENDBRANCH   3   4
ENDBRANCH   2   3
ENDBRANCH   1   2
BRANCH   1   9
ATOM      9  C   UNL     1    -116.240  37.456  -8.861  1.00  0.00     0.000 C 
BRANCH   9  10
ATOM     10  C   UNL     1    -114.869  38.133  -8.998  1.00  0.00    -0.000 C 
BRANCH  10  11
ATOM     11  C   UNL     1    -115.018  39.654  -9.133  1.00  0.00    -0.000 C 
BRANCH  11  12
ATOM     12  C   UNL     1    -114.555  40.368  -7.855  1.00  0.00    -0.000 C 
BRANCH  12  13
ATOM     13  C   UNL     1    -115.662  41.227  -7.224  1.00  0.00    -0.003 C 
ATOM     14  C   UNL     1    -116.651  40.404  -6.399  1.00  0.00     0.004 C 
ENDBRANCH  12  13
ENDBRANCH  11  12
ENDBRANCH  10  11
ENDBRANCH   9  10
ENDBRANCH   1   9
TORSDOF 10
ENDMDL
MODEL 9
REMARK VINA RESULT:    -2.553      1.464      3.045
REMARK INTER + INTRA:          -5.401
REMARK INTER:                  -4.217
REMARK INTRA:                  -1.184
REMARK UNBOUND:                -1.356
REMARK SMILES CCCCCCCCCCCC(=O)[O-]
REMARK SMILES IDX 7 1 8 2 9 3 10 4 11 5 12 6 13 7 14 8 6 9 5 10 4 11 3 12 2 13
REMARK SMILES IDX 1 14
REMARK H PARENT
REMARK Flexibility Score: inf
ROOT
ATOM      1  C   UNL     1    -115.626  36.871 -12.056  1.00  0.00     0.000 C 
ENDROOT
BRANCH   1   2
ATOM      2  C   UNL     1    -115.881  35.426 -12.511  1.00  0.00     0.000 C 
BRANCH   2   3
ATOM      3  C   UNL     1    -115.537  34.431 -11.395  1.00  0.00     0.000 C 
BRANCH   3   4
ATOM      4  C   UNL     1    -116.532  33.261 -11.375  1.00  0.00     0.006 C 
BRANCH   4   5
ATOM      5  C   UNL     1    -116.953  32.832 -12.788  1.00  0.00     0.053 C 
BRANCH   5   6
ATOM      6  C   UNL     1    -116.075  31.743 -13.324  1.00  0.00     0.041 C 
ATOM      7  O   UNL     1    -114.972  32.026 -13.862  1.00  0.00    -0.550 OA
ATOM      8  O   UNL     1    -116.458  30.414 -13.198  1.00  0.00    -0.550 OA
ENDBRANCH   5   6
ENDBRANCH   4   5
ENDBRANCH   3   4
ENDBRANCH   2   3
ENDBRANCH   1   2
BRANCH   1   9
ATOM      9  C   UNL     1    -116.520  37.288 -10.877  1.00  0.00     0.000 C 
BRANCH   9  10
ATOM     10  C   UNL     1    -115.756  38.082  -9.808  1.00  0.00    -0.000 C 
BRANCH  10  11
ATOM     11  C   UNL     1    -115.327  37.173  -8.650  1.00  0.00    -0.000 C 
BRANCH  11  12
ATOM     12  C   UNL     1    -116.533  36.427  -8.059  1.00  0.00    -0.000 C 
BRANCH  12  13
ATOM     13  C   UNL     1    -116.254  34.932  -7.844  1.00  0.00    -0.003 C 
ATOM     14  C   UNL     1    -114.780  34.638  -7.569  1.00  0.00     0.004 C 
ENDBRANCH  12  13
ENDBRANCH  11  12
ENDBRANCH  10  11
ENDBRANCH   9  10
ENDBRANCH   1   9
TORSDOF 10
ENDMDL
