MODEL 1
REMARK VINA RESULT:    -3.837      0.000      0.000
REMARK INTER + INTRA:          -4.570
REMARK INTER:                  -4.397
REMARK INTRA:                  -0.173
REMARK UNBOUND:                -0.173
REMARK SMILES CC=Cc1ccc(O)c(OC)c1
REMARK SMILES IDX 4 1 12 2 9 3 7 4 6 5 5 6 3 7 1 8 2 9 10 10 11 11 8 12
REMARK H PARENT 8 13
REMARK Flexibility Score: inf
ROOT
ATOM      1  C   UNL     1      27.139  42.225  21.660  1.00  0.00    -0.022 A 
ATOM      2  C   UNL     1      27.326  40.833  21.677  1.00  0.00     0.058 A 
ATOM      3  C   UNL     1      27.321  40.087  20.481  1.00  0.00     0.161 A 
ATOM      4  C   UNL     1      27.137  40.755  19.257  1.00  0.00     0.157 A 
ATOM      5  C   UNL     1      26.966  42.141  19.236  1.00  0.00     0.051 A 
ATOM      6  C   UNL     1      26.971  42.875  20.423  1.00  0.00     0.012 A 
ENDROOT
BRANCH   1   7
ATOM      7  C   UNL     1      27.163  42.960  22.949  1.00  0.00     0.003 C 
ATOM      8  C   UNL     1      27.943  43.452  25.234  1.00  0.00     0.035 C 
ATOM      9  C   UNL     1      27.969  42.652  23.972  1.00  0.00    -0.030 C 
ENDBRANCH   1   7
BRANCH   3  10
ATOM     10  O   UNL     1      27.496  38.694  20.472  1.00  0.00    -0.493 OA
ATOM     11  C   UNL     1      26.468  37.749  20.746  1.00  0.00     0.278 C 
ENDBRANCH   3  10
BRANCH   4  12
ATOM     12  O   UNL     1      27.124  40.056  18.049  1.00  0.00    -0.504 OA
ATOM     13  H   UNL     1      26.419  39.361  17.835  1.00  0.00     0.293 HD
ENDBRANCH   4  12
TORSDOF 3
ENDMDL
MODEL 2
REMARK VINA RESULT:    -3.404      1.742      2.131
REMARK INTER + INTRA:          -4.074
REMARK INTER:                  -3.915
REMARK INTRA:                  -0.159
REMARK UNBOUND:                -0.173
REMARK SMILES CC=Cc1ccc(O)c(OC)c1
REMARK SMILES IDX 4 1 12 2 9 3 7 4 6 5 5 6 3 7 1 8 2 9 10 10 11 11 8 12
REMARK H PARENT 8 13
REMARK Flexibility Score: inf
ROOT
ATOM      1  C   UNL     1      27.818  41.541  21.047  1.00  0.00    -0.022 A 
ATOM      2  C   UNL     1      28.522  40.649  20.221  1.00  0.00     0.058 A 
ATOM      3  C   UNL     1      27.851  39.621  19.529  1.00  0.00     0.161 A 
ATOM      4  C   UNL     1      26.456  39.501  19.663  1.00  0.00     0.157 A 
ATOM      5  C   UNL     1      25.752  40.396  20.471  1.00  0.00     0.051 A 
ATOM      6  C   UNL     1      26.421  41.412  21.156  1.00  0.00     0.012 A 
ENDROOT
BRANCH   1   7
ATOM      7  C   UNL     1      28.575  42.610  21.745  1.00  0.00     0.003 C 
ATOM      8  C   UNL     1      29.125  44.105  23.625  1.00  0.00     0.035 C 
ATOM      9  C   UNL     1      28.304  43.032  22.986  1.00  0.00    -0.030 C 
ENDBRANCH   1   7
BRANCH   3  10
ATOM     10  O   UNL     1      28.532  38.711  18.705  1.00  0.00    -0.493 OA
ATOM     11  C   UNL     1      28.760  38.896  17.312  1.00  0.00     0.278 C 
ENDBRANCH   3  10
BRANCH   4  12
ATOM     12  O   UNL     1      25.751  38.497  18.997  1.00  0.00    -0.504 OA
ATOM     13  H   UNL     1      25.249  38.672  18.134  1.00  0.00     0.293 HD
ENDBRANCH   4  12
TORSDOF 3
ENDMDL
MODEL 3
REMARK VINA RESULT:    -3.370     15.178     15.870
REMARK INTER + INTRA:          -4.036
REMARK INTER:                  -3.881
REMARK INTRA:                  -0.154
REMARK UNBOUND:                -0.173
REMARK SMILES CC=Cc1ccc(O)c(OC)c1
REMARK SMILES IDX 4 1 12 2 9 3 7 4 6 5 5 6 3 7 1 8 2 9 10 10 11 11 8 12
REMARK H PARENT 8 13
REMARK Flexibility Score: inf
ROOT
ATOM      1  C   UNL     1      26.265  27.621  28.443  1.00  0.00    -0.022 A 
ATOM      2  C   UNL     1      24.922  27.513  28.049  1.00  0.00     0.058 A 
ATOM      3  C   UNL     1      23.917  28.264  28.690  1.00  0.00     0.161 A 
ATOM      4  C   UNL     1      24.273  29.140  29.731  1.00  0.00     0.157 A 
ATOM      5  C   UNL     1      25.610  29.260  30.115  1.00  0.00     0.051 A 
ATOM      6  C   UNL     1      26.602  28.513  29.478  1.00  0.00     0.012 A 
ENDROOT
BRANCH   1   7
ATOM      7  C   UNL     1      27.283  26.813  27.726  1.00  0.00     0.003 C 
ATOM      8  C   UNL     1      28.686  26.169  25.805  1.00  0.00     0.035 C 
ATOM      9  C   UNL     1      27.639  27.018  26.452  1.00  0.00    -0.030 C 
ENDBRANCH   1   7
BRANCH   3  10
ATOM     10  O   UNL     1      22.565  28.167  28.321  1.00  0.00    -0.493 OA
ATOM     11  C   UNL     1      21.879  26.943  28.082  1.00  0.00     0.278 C 
ENDBRANCH   3  10
BRANCH   4  12
ATOM     12  O   UNL     1      23.310  29.901  30.394  1.00  0.00    -0.504 OA
ATOM     13  H   UNL     1      23.382  30.908  30.478  1.00  0.00     0.293 HD
ENDBRANCH   4  12
TORSDOF 3
ENDMDL
MODEL 4
REMARK VINA RESULT:    -3.304     11.957     14.697
REMARK INTER + INTRA:          -3.960
REMARK INTER:                  -3.805
REMARK INTRA:                  -0.155
REMARK UNBOUND:                -0.173
REMARK SMILES CC=Cc1ccc(O)c(OC)c1
REMARK SMILES IDX 4 1 12 2 9 3 7 4 6 5 5 6 3 7 1 8 2 9 10 10 11 11 8 12
REMARK H PARENT 8 13
REMARK Flexibility Score: inf
ROOT
ATOM      1  C   UNL     1      28.145  27.469  27.582  1.00  0.00    -0.022 A 
ATOM      2  C   UNL     1      27.922  27.735  26.221  1.00  0.00     0.058 A 
ATOM      3  C   UNL     1      28.238  28.991  25.668  1.00  0.00     0.161 A 
ATOM      4  C   UNL     1      28.793  29.985  26.494  1.00  0.00     0.157 A 
ATOM      5  C   UNL     1      29.029  29.719  27.844  1.00  0.00     0.051 A 
ATOM      6  C   UNL     1      28.714  28.473  28.388  1.00  0.00     0.012 A 
ENDROOT
BRANCH   1   7
ATOM      7  C   UNL     1      27.802  26.125  28.109  1.00  0.00     0.003 C 
ATOM      8  C   UNL     1      26.665  24.525  29.599  1.00  0.00     0.035 C 
ATOM      9  C   UNL     1      26.971  25.913  29.137  1.00  0.00    -0.030 C 
ENDBRANCH   1   7
BRANCH   3  10
ATOM     10  O   UNL     1      28.017  29.285  24.312  1.00  0.00    -0.493 OA
ATOM     11  C   UNL     1      26.823  29.864  23.796  1.00  0.00     0.278 C 
ENDBRANCH   3  10
BRANCH   4  12
ATOM     12  O   UNL     1      29.119  31.244  25.988  1.00  0.00    -0.504 OA
ATOM     13  H   UNL     1      28.948  31.499  25.022  1.00  0.00     0.293 HD
ENDBRANCH   4  12
TORSDOF 3
ENDMDL
MODEL 5
REMARK VINA RESULT:    -3.249     13.128     16.097
REMARK INTER + INTRA:          -3.897
REMARK INTER:                  -3.745
REMARK INTRA:                  -0.152
REMARK UNBOUND:                -0.173
REMARK SMILES CC=Cc1ccc(O)c(OC)c1
REMARK SMILES IDX 4 1 12 2 9 3 7 4 6 5 5 6 3 7 1 8 2 9 10 10 11 11 8 12
REMARK H PARENT 8 13
REMARK Flexibility Score: inf
ROOT
ATOM      1  C   UNL     1      27.570  27.167  26.891  1.00  0.00    -0.022 A 
ATOM      2  C   UNL     1      26.805  27.764  27.906  1.00  0.00     0.058 A 
ATOM      3  C   UNL     1      26.518  27.071  29.099  1.00  0.00     0.161 A 
ATOM      4  C   UNL     1      27.017  25.768  29.273  1.00  0.00     0.157 A 
ATOM      5  C   UNL     1      27.791  25.177  28.271  1.00  0.00     0.051 A 
ATOM      6  C   UNL     1      28.071  25.867  27.091  1.00  0.00     0.012 A 
ENDROOT
BRANCH   1   7
ATOM      7  C   UNL     1      27.849  27.947  25.660  1.00  0.00     0.003 C 
ATOM      8  C   UNL     1      27.578  29.825  24.087  1.00  0.00     0.035 C 
ATOM      9  C   UNL     1      27.228  29.090  25.340  1.00  0.00    -0.030 C 
ENDBRANCH   1   7
BRANCH   3  10
ATOM     10  O   UNL     1      25.747  27.642  30.125  1.00  0.00    -0.493 OA
ATOM     11  C   UNL     1      25.437  29.028  30.226  1.00  0.00     0.278 C 
ENDBRANCH   3  10
BRANCH   4  12
ATOM     12  O   UNL     1      26.756  25.045  30.437  1.00  0.00    -0.504 OA
ATOM     13  H   UNL     1      25.926  25.202  30.996  1.00  0.00     0.293 HD
ENDBRANCH   4  12
TORSDOF 3
ENDMDL
MODEL 6
REMARK VINA RESULT:    -3.213     13.814     16.610
REMARK INTER + INTRA:          -3.855
REMARK INTER:                  -3.705
REMARK INTRA:                  -0.150
REMARK UNBOUND:                -0.173
REMARK SMILES CC=Cc1ccc(O)c(OC)c1
REMARK SMILES IDX 4 1 12 2 9 3 7 4 6 5 5 6 3 7 1 8 2 9 10 10 11 11 8 12
REMARK H PARENT 8 13
REMARK Flexibility Score: inf
ROOT
ATOM      1  C   UNL     1      26.929  25.714  27.363  1.00  0.00    -0.022 A 
ATOM      2  C   UNL     1      27.637  26.896  27.637  1.00  0.00     0.058 A 
ATOM      3  C   UNL     1      27.081  27.900  28.455  1.00  0.00     0.161 A 
ATOM      4  C   UNL     1      25.803  27.704  29.009  1.00  0.00     0.157 A 
ATOM      5  C   UNL     1      25.103  26.523  28.751  1.00  0.00     0.051 A 
ATOM      6  C   UNL     1      25.658  25.532  27.939  1.00  0.00     0.012 A 
ENDROOT
BRANCH   1   7
ATOM      7  C   UNL     1      27.568  24.687  26.503  1.00  0.00     0.003 C 
ATOM      8  C   UNL     1      28.950  23.876  24.631  1.00  0.00     0.035 C 
ATOM      9  C   UNL     1      28.329  24.969  25.438  1.00  0.00    -0.030 C 
ENDBRANCH   1   7
BRANCH   3  10
ATOM     10  O   UNL     1      27.763  29.094  28.736  1.00  0.00    -0.493 OA
ATOM     11  C   UNL     1      28.723  29.698  27.875  1.00  0.00     0.278 C 
ENDBRANCH   3  10
BRANCH   4  12
ATOM     12  O   UNL     1      25.214  28.672  29.823  1.00  0.00    -0.504 OA
ATOM     13  H   UNL     1      25.328  29.664  29.652  1.00  0.00     0.293 HD
ENDBRANCH   4  12
TORSDOF 3
ENDMDL
MODEL 7
REMARK VINA RESULT:    -3.189     14.031     16.642
REMARK INTER + INTRA:          -3.827
REMARK INTER:                  -3.701
REMARK INTRA:                  -0.127
REMARK UNBOUND:                -0.173
REMARK SMILES CC=Cc1ccc(O)c(OC)c1
REMARK SMILES IDX 4 1 12 2 9 3 7 4 6 5 5 6 3 7 1 8 2 9 10 10 11 11 8 12
REMARK H PARENT 8 13
REMARK Flexibility Score: inf
ROOT
ATOM      1  C   UNL     1      27.905  27.678  28.166  1.00  0.00    -0.022 A 
ATOM      2  C   UNL     1      28.699  26.676  28.748  1.00  0.00     0.058 A 
ATOM      3  C   UNL     1      28.113  25.521  29.305  1.00  0.00     0.161 A 
ATOM      4  C   UNL     1      26.716  25.372  29.264  1.00  0.00     0.157 A 
ATOM      5  C   UNL     1      25.925  26.360  28.671  1.00  0.00     0.051 A 
ATOM      6  C   UNL     1      26.509  27.502  28.122  1.00  0.00     0.012 A 
ENDROOT
BRANCH   1   7
ATOM      7  C   UNL     1      28.576  28.868  27.585  1.00  0.00     0.003 C 
ATOM      8  C   UNL     1      29.113  30.497  25.817  1.00  0.00     0.035 C 
ATOM      9  C   UNL     1      28.412  29.278  26.322  1.00  0.00    -0.030 C 
ENDBRANCH   1   7
BRANCH   3  10
ATOM     10  O   UNL     1      28.884  24.510  29.902  1.00  0.00    -0.493 OA
ATOM     11  C   UNL     1      29.125  24.397  31.300  1.00  0.00     0.278 C 
ENDBRANCH   3  10
BRANCH   4  12
ATOM     12  O   UNL     1      26.094  24.246  29.804  1.00  0.00    -0.504 OA
ATOM     13  H   UNL     1      26.314  23.900  30.731  1.00  0.00     0.293 HD
ENDBRANCH   4  12
TORSDOF 3
ENDMDL
MODEL 8
REMARK VINA RESULT:    -3.134     13.747     16.562
REMARK INTER + INTRA:          -3.764
REMARK INTER:                  -3.593
REMARK INTRA:                  -0.171
REMARK UNBOUND:                -0.173
REMARK SMILES CC=Cc1ccc(O)c(OC)c1
REMARK SMILES IDX 4 1 12 2 9 3 7 4 6 5 5 6 3 7 1 8 2 9 10 10 11 11 8 12
REMARK H PARENT 8 13
REMARK Flexibility Score: inf
ROOT
ATOM      1  C   UNL     1      28.027  27.427  27.506  1.00  0.00    -0.022 A 
ATOM      2  C   UNL     1      26.814  26.726  27.613  1.00  0.00     0.058 A 
ATOM      3  C   UNL     1      26.697  25.608  28.462  1.00  0.00     0.161 A 
ATOM      4  C   UNL     1      27.810  25.201  29.218  1.00  0.00     0.157 A 
ATOM      5  C   UNL     1      29.013  25.905  29.125  1.00  0.00     0.051 A 
ATOM      6  C   UNL     1      29.125  27.011  28.282  1.00  0.00     0.012 A 
ENDROOT
BRANCH   1   7
ATOM      7  C   UNL     1      28.091  28.603  26.603  1.00  0.00     0.003 C 
ATOM      8  C   UNL     1      27.629  29.875  24.543  1.00  0.00     0.035 C 
ATOM      9  C   UNL     1      27.533  28.644  25.386  1.00  0.00    -0.030 C 
ENDBRANCH   1   7
BRANCH   3  10
ATOM     10  O   UNL     1      25.498  24.886  28.579  1.00  0.00    -0.493 OA
ATOM     11  C   UNL     1      25.038  23.925  27.635  1.00  0.00     0.278 C 
ENDBRANCH   3  10
BRANCH   4  12
ATOM     12  O   UNL     1      27.739  24.098  30.070  1.00  0.00    -0.504 OA
ATOM     13  H   UNL     1      28.549  23.529  30.286  1.00  0.00     0.293 HD
ENDBRANCH   4  12
TORSDOF 3
ENDMDL
MODEL 9
REMARK VINA RESULT:    -3.130     13.361     16.099
REMARK INTER + INTRA:          -3.760
REMARK INTER:                  -3.592
REMARK INTRA:                  -0.168
REMARK UNBOUND:                -0.173
REMARK SMILES CC=Cc1ccc(O)c(OC)c1
REMARK SMILES IDX 4 1 12 2 9 3 7 4 6 5 5 6 3 7 1 8 2 9 10 10 11 11 8 12
REMARK H PARENT 8 13
REMARK Flexibility Score: inf
ROOT
ATOM      1  C   UNL     1      27.266  27.495  27.586  1.00  0.00    -0.022 A 
ATOM      2  C   UNL     1      27.561  26.380  26.786  1.00  0.00     0.058 A 
ATOM      3  C   UNL     1      26.824  25.185  26.908  1.00  0.00     0.161 A 
ATOM      4  C   UNL     1      25.772  25.120  27.840  1.00  0.00     0.157 A 
ATOM      5  C   UNL     1      25.466  26.233  28.626  1.00  0.00     0.051 A 
ATOM      6  C   UNL     1      26.200  27.414  28.502  1.00  0.00     0.012 A 
ENDROOT
BRANCH   1   7
ATOM      7  C   UNL     1      28.069  28.731  27.407  1.00  0.00     0.003 C 
ATOM      8  C   UNL     1      29.125  30.550  26.125  1.00  0.00     0.035 C 
ATOM      9  C   UNL     1      28.319  29.296  26.219  1.00  0.00    -0.030 C 
ENDBRANCH   1   7
BRANCH   3  10
ATOM     10  O   UNL     1      27.106  24.053  26.127  1.00  0.00    -0.493 OA
ATOM     11  C   UNL     1      26.852  23.952  24.730  1.00  0.00     0.278 C 
ENDBRANCH   3  10
BRANCH   4  12
ATOM     12  O   UNL     1      25.017  23.957  27.995  1.00  0.00    -0.504 OA
ATOM     13  H   UNL     1      24.939  23.262  27.262  1.00  0.00     0.293 HD
ENDBRANCH   4  12
TORSDOF 3
ENDMDL
