MODEL 1
REMARK VINA RESULT:    -4.685      0.000      0.000
REMARK INTER + INTRA:          -6.911
REMARK INTER:                  -6.328
REMARK INTRA:                  -0.582
REMARK UNBOUND:                -0.582
REMARK SMILES C=C[C@@](C)(CCC=C(C)C)OC(C)=O
REMARK SMILES IDX 3 1 4 2 5 3 6 4 7 5 9 6 8 7 10 8 2 9 1 10 11 11 12 12 14 13
REMARK SMILES IDX 13 14
REMARK H PARENT
REMARK Flexibility Score: inf
ROOT
ATOM      1  C   UNL     1      68.013  52.262  19.183  1.00  0.00     0.127 C 
ATOM      2  C   UNL     1      68.840  52.021  20.463  1.00  0.00     0.061 C 
ENDROOT
BRANCH   1   3
ATOM      3  C   UNL     1      68.904  51.969  17.949  1.00  0.00     0.057 C 
BRANCH   3   4
ATOM      4  C   UNL     1      69.502  53.241  17.320  1.00  0.00     0.032 C 
BRANCH   4   5
ATOM      5  C   UNL     1      70.950  53.399  17.711  1.00  0.00    -0.028 C 
ATOM      6  C   UNL     1      71.536  54.669  15.633  1.00  0.00     0.039 C 
ATOM      7  C   UNL     1      71.871  54.061  16.975  1.00  0.00    -0.080 C 
ATOM      8  C   UNL     1      73.274  54.173  17.512  1.00  0.00     0.039 C 
ENDBRANCH   4   5
ENDBRANCH   3   4
ENDBRANCH   1   3
BRANCH   1   9
ATOM      9  C   UNL     1      66.773  51.376  19.168  1.00  0.00     0.013 C 
ATOM     10  C   UNL     1      65.633  51.727  18.562  1.00  0.00     0.008 C 
ENDBRANCH   1   9
BRANCH   1  11
ATOM     11  O   UNL     1      67.631  53.645  19.122  1.00  0.00    -0.455 OA
BRANCH  11  12
ATOM     12  C   UNL     1      67.567  54.527  20.211  1.00  0.00     0.303 C 
ATOM     13  O   UNL     1      68.571  55.201  20.567  1.00  0.00    -0.253 OA
ATOM     14  C   UNL     1      66.276  54.695  20.939  1.00  0.00     0.139 C 
ENDBRANCH  11  12
ENDBRANCH   1  11
TORSDOF 6
ENDMDL
MODEL 2
REMARK VINA RESULT:    -4.554      3.263      5.490
REMARK INTER + INTRA:          -6.733
REMARK INTER:                  -6.188
REMARK INTRA:                  -0.545
REMARK UNBOUND:                -0.582
REMARK SMILES C=C[C@@](C)(CCC=C(C)C)OC(C)=O
REMARK SMILES IDX 3 1 4 2 5 3 6 4 7 5 9 6 8 7 10 8 2 9 1 10 11 11 12 12 14 13
REMARK SMILES IDX 13 14
REMARK H PARENT
REMARK Flexibility Score: inf
ROOT
ATOM      1  C   UNL     1      69.879  52.059  22.695  1.00  0.00     0.127 C 
ATOM      2  C   UNL     1      69.072  53.353  22.933  1.00  0.00     0.061 C 
ENDROOT
BRANCH   1   3
ATOM      3  C   UNL     1      70.078  51.866  21.170  1.00  0.00     0.057 C 
BRANCH   3   4
ATOM      4  C   UNL     1      69.170  52.776  20.324  1.00  0.00     0.032 C 
BRANCH   4   5
ATOM      5  C   UNL     1      67.882  52.071  19.978  1.00  0.00    -0.028 C 
ATOM      6  C   UNL     1      68.142  52.467  17.519  1.00  0.00     0.039 C 
ATOM      7  C   UNL     1      67.420  51.902  18.719  1.00  0.00    -0.080 C 
ATOM      8  C   UNL     1      66.135  51.139  18.523  1.00  0.00     0.039 C 
ENDBRANCH   4   5
ENDBRANCH   3   4
ENDBRANCH   1   3
BRANCH   1   9
ATOM      9  C   UNL     1      71.226  52.126  23.404  1.00  0.00     0.013 C 
ATOM     10  C   UNL     1      72.317  52.668  22.849  1.00  0.00     0.008 C 
ENDBRANCH   1   9
BRANCH   1  11
ATOM     11  O   UNL     1      69.124  50.937  23.178  1.00  0.00    -0.455 OA
BRANCH  11  12
ATOM     12  C   UNL     1      69.365  49.591  22.868  1.00  0.00     0.303 C 
ATOM     13  O   UNL     1      70.380  48.989  23.311  1.00  0.00    -0.253 OA
ATOM     14  C   UNL     1      68.382  48.848  22.027  1.00  0.00     0.139 C 
ENDBRANCH  11  12
ENDBRANCH   1  11
TORSDOF 6
ENDMDL
MODEL 3
REMARK VINA RESULT:    -4.425      1.445      2.816
REMARK INTER + INTRA:          -6.559
REMARK INTER:                  -5.903
REMARK INTRA:                  -0.656
REMARK UNBOUND:                -0.582
REMARK SMILES C=C[C@@](C)(CCC=C(C)C)OC(C)=O
REMARK SMILES IDX 3 1 4 2 5 3 6 4 7 5 9 6 8 7 10 8 2 9 1 10 11 11 12 12 14 13
REMARK SMILES IDX 13 14
REMARK H PARENT
REMARK Flexibility Score: inf
ROOT
ATOM      1  C   UNL     1      68.954  52.898  20.363  1.00  0.00     0.127 C 
ATOM      2  C   UNL     1      68.717  53.401  21.803  1.00  0.00     0.061 C 
ENDROOT
BRANCH   1   3
ATOM      3  C   UNL     1      69.951  53.852  19.658  1.00  0.00     0.057 C 
BRANCH   3   4
ATOM      4  C   UNL     1      70.900  53.125  18.689  1.00  0.00     0.032 C 
BRANCH   4   5
ATOM      5  C   UNL     1      70.781  53.695  17.298  1.00  0.00    -0.028 C 
ATOM      6  C   UNL     1      73.148  54.513  17.260  1.00  0.00     0.039 C 
ATOM      7  C   UNL     1      71.791  54.300  16.632  1.00  0.00    -0.080 C 
ATOM      8  C   UNL     1      71.537  54.785  15.229  1.00  0.00     0.039 C 
ENDBRANCH   4   5
ENDBRANCH   3   4
ENDBRANCH   1   3
BRANCH   1   9
ATOM      9  C   UNL     1      69.495  51.473  20.372  1.00  0.00     0.013 C 
ATOM     10  C   UNL     1      69.384  50.658  21.427  1.00  0.00     0.008 C 
ENDBRANCH   1   9
BRANCH   1  11
ATOM     11  O   UNL     1      67.717  52.951  19.637  1.00  0.00    -0.455 OA
BRANCH  11  12
ATOM     12  C   UNL     1      67.293  52.028  18.669  1.00  0.00     0.303 C 
ATOM     13  O   UNL     1      67.811  52.002  17.519  1.00  0.00    -0.253 OA
ATOM     14  C   UNL     1      66.236  51.037  19.019  1.00  0.00     0.139 C 
ENDBRANCH  11  12
ENDBRANCH   1  11
TORSDOF 6
ENDMDL
MODEL 4
REMARK VINA RESULT:    -4.409      1.537      2.544
REMARK INTER + INTRA:          -6.538
REMARK INTER:                  -5.855
REMARK INTRA:                  -0.683
REMARK UNBOUND:                -0.582
REMARK SMILES C=C[C@@](C)(CCC=C(C)C)OC(C)=O
REMARK SMILES IDX 3 1 4 2 5 3 6 4 7 5 9 6 8 7 10 8 2 9 1 10 11 11 12 12 14 13
REMARK SMILES IDX 13 14
REMARK H PARENT
REMARK Flexibility Score: inf
ROOT
ATOM      1  C   UNL     1      68.216  52.697  18.870  1.00  0.00     0.127 C 
ATOM      2  C   UNL     1      68.382  52.172  17.428  1.00  0.00     0.061 C 
ENDROOT
BRANCH   1   3
ATOM      3  C   UNL     1      68.311  54.244  18.852  1.00  0.00     0.057 C 
BRANCH   3   4
ATOM      4  C   UNL     1      69.762  54.760  18.863  1.00  0.00     0.032 C 
BRANCH   4   5
ATOM      5  C   UNL     1      70.229  55.064  17.461  1.00  0.00    -0.028 C 
ATOM      6  C   UNL     1      72.086  53.384  17.547  1.00  0.00     0.039 C 
ATOM      7  C   UNL     1      71.257  54.435  16.847  1.00  0.00    -0.080 C 
ATOM      8  C   UNL     1      71.585  54.816  15.427  1.00  0.00     0.039 C 
ENDBRANCH   4   5
ENDBRANCH   3   4
ENDBRANCH   1   3
BRANCH   1   9
ATOM      9  C   UNL     1      66.882  52.251  19.455  1.00  0.00     0.013 C 
ATOM     10  C   UNL     1      66.152  51.259  18.934  1.00  0.00     0.008 C 
ENDBRANCH   1   9
BRANCH   1  11
ATOM     11  O   UNL     1      69.298  52.206  19.677  1.00  0.00    -0.455 OA
BRANCH  11  12
ATOM     12  C   UNL     1      69.221  51.873  21.038  1.00  0.00     0.303 C 
ATOM     13  O   UNL     1      69.062  52.760  21.920  1.00  0.00    -0.253 OA
ATOM     14  C   UNL     1      69.291  50.440  21.443  1.00  0.00     0.139 C 
ENDBRANCH  11  12
ENDBRANCH   1  11
TORSDOF 6
ENDMDL
MODEL 5
REMARK VINA RESULT:    -4.351      2.259      4.897
REMARK INTER + INTRA:          -6.459
REMARK INTER:                  -5.817
REMARK INTRA:                  -0.643
REMARK UNBOUND:                -0.582
REMARK SMILES C=C[C@@](C)(CCC=C(C)C)OC(C)=O
REMARK SMILES IDX 3 1 4 2 5 3 6 4 7 5 9 6 8 7 10 8 2 9 1 10 11 11 12 12 14 13
REMARK SMILES IDX 13 14
REMARK H PARENT
REMARK Flexibility Score: inf
ROOT
ATOM      1  C   UNL     1      68.827  53.268  18.702  1.00  0.00     0.127 C 
ATOM      2  C   UNL     1      69.680  52.359  17.791  1.00  0.00     0.061 C 
ENDROOT
BRANCH   1   3
ATOM      3  C   UNL     1      69.011  52.816  20.173  1.00  0.00     0.057 C 
BRANCH   3   4
ATOM      4  C   UNL     1      69.952  51.607  20.320  1.00  0.00     0.032 C 
BRANCH   4   5
ATOM      5  C   UNL     1      69.265  50.482  21.051  1.00  0.00    -0.028 C 
ATOM      6  C   UNL     1      70.319  51.055  23.250  1.00  0.00     0.039 C 
ATOM      7  C   UNL     1      69.400  50.237  22.374  1.00  0.00    -0.080 C 
ATOM      8  C   UNL     1      68.617  49.100  22.977  1.00  0.00     0.039 C 
ENDBRANCH   4   5
ENDBRANCH   3   4
ENDBRANCH   1   3
BRANCH   1   9
ATOM      9  C   UNL     1      69.233  54.727  18.538  1.00  0.00     0.013 C 
ATOM     10  C   UNL     1      69.222  55.606  19.547  1.00  0.00     0.008 C 
ENDBRANCH   1   9
BRANCH   1  11
ATOM     11  O   UNL     1      67.441  53.101  18.368  1.00  0.00    -0.455 OA
BRANCH  11  12
ATOM     12  C   UNL     1      66.496  52.384  19.118  1.00  0.00     0.303 C 
ATOM     13  O   UNL     1      65.791  52.952  19.995  1.00  0.00    -0.253 OA
ATOM     14  C   UNL     1      66.300  50.931  18.846  1.00  0.00     0.139 C 
ENDBRANCH  11  12
ENDBRANCH   1  11
TORSDOF 6
ENDMDL
MODEL 6
REMARK VINA RESULT:    -4.323      2.542      4.896
REMARK INTER + INTRA:          -6.422
REMARK INTER:                  -5.881
REMARK INTRA:                  -0.541
REMARK UNBOUND:                -0.582
REMARK SMILES C=C[C@@](C)(CCC=C(C)C)OC(C)=O
REMARK SMILES IDX 3 1 4 2 5 3 6 4 7 5 9 6 8 7 10 8 2 9 1 10 11 11 12 12 14 13
REMARK SMILES IDX 13 14
REMARK H PARENT
REMARK Flexibility Score: inf
ROOT
ATOM      1  C   UNL     1      68.042  52.524  19.202  1.00  0.00     0.127 C 
ATOM      2  C   UNL     1      68.358  52.539  17.691  1.00  0.00     0.061 C 
ENDROOT
BRANCH   1   3
ATOM      3  C   UNL     1      67.812  53.981  19.679  1.00  0.00     0.057 C 
BRANCH   3   4
ATOM      4  C   UNL     1      66.455  54.181  20.377  1.00  0.00     0.032 C 
BRANCH   4   5
ATOM      5  C   UNL     1      66.596  55.103  21.562  1.00  0.00    -0.028 C 
ATOM      6  C   UNL     1      65.782  57.107  20.299  1.00  0.00     0.039 C 
ATOM      7  C   UNL     1      66.273  56.416  21.549  1.00  0.00    -0.080 C 
ATOM      8  C   UNL     1      66.428  57.205  22.823  1.00  0.00     0.039 C 
ENDBRANCH   4   5
ENDBRANCH   3   4
ENDBRANCH   1   3
BRANCH   1   9
ATOM      9  C   UNL     1      66.813  51.670  19.487  1.00  0.00     0.013 C 
ATOM     10  C   UNL     1      66.071  51.114  18.522  1.00  0.00     0.008 C 
ENDBRANCH   1   9
BRANCH   1  11
ATOM     11  O   UNL     1      69.177  52.009  19.915  1.00  0.00    -0.455 OA
BRANCH  11  12
ATOM     12  C   UNL     1      69.180  51.576  21.250  1.00  0.00     0.303 C 
ATOM     13  O   UNL     1      69.061  52.393  22.203  1.00  0.00    -0.253 OA
ATOM     14  C   UNL     1      69.291  50.118  21.543  1.00  0.00     0.139 C 
ENDBRANCH  11  12
ENDBRANCH   1  11
TORSDOF 6
ENDMDL
MODEL 7
REMARK VINA RESULT:    -4.314      1.704      2.897
REMARK INTER + INTRA:          -6.410
REMARK INTER:                  -5.438
REMARK INTRA:                  -0.971
REMARK UNBOUND:                -0.582
REMARK SMILES C=C[C@@](C)(CCC=C(C)C)OC(C)=O
REMARK SMILES IDX 3 1 4 2 5 3 6 4 7 5 9 6 8 7 10 8 2 9 1 10 11 11 12 12 14 13
REMARK SMILES IDX 13 14
REMARK H PARENT
REMARK Flexibility Score: inf
ROOT
ATOM      1  C   UNL     1      67.551  52.259  19.216  1.00  0.00     0.127 C 
ATOM      2  C   UNL     1      66.428  51.200  19.166  1.00  0.00     0.061 C 
ENDROOT
BRANCH   1   3
ATOM      3  C   UNL     1      67.905  52.681  17.768  1.00  0.00     0.057 C 
BRANCH   3   4
ATOM      4  C   UNL     1      69.398  52.510  17.437  1.00  0.00     0.032 C 
BRANCH   4   5
ATOM      5  C   UNL     1      70.028  53.842  17.114  1.00  0.00    -0.028 C 
ATOM      6  C   UNL     1      71.341  53.917  19.246  1.00  0.00     0.039 C 
ATOM      7  C   UNL     1      70.923  54.475  17.906  1.00  0.00    -0.080 C 
ATOM      8  C   UNL     1      71.501  55.783  17.433  1.00  0.00     0.039 C 
ENDBRANCH   4   5
ENDBRANCH   3   4
ENDBRANCH   1   3
BRANCH   1   9
ATOM      9  C   UNL     1      67.113  53.469  20.033  1.00  0.00     0.013 C 
ATOM     10  C   UNL     1      67.722  54.658  19.959  1.00  0.00     0.008 C 
ENDBRANCH   1   9
BRANCH   1  11
ATOM     11  O   UNL     1      68.726  51.672  19.796  1.00  0.00    -0.455 OA
BRANCH  11  12
ATOM     12  C   UNL     1      68.855  51.232  21.122  1.00  0.00     0.303 C 
ATOM     13  O   UNL     1      68.489  50.076  21.466  1.00  0.00    -0.253 OA
ATOM     14  C   UNL     1      69.471  52.138  22.134  1.00  0.00     0.139 C 
ENDBRANCH  11  12
ENDBRANCH   1  11
TORSDOF 6
ENDMDL
MODEL 8
REMARK VINA RESULT:    -4.304      2.886      4.980
REMARK INTER + INTRA:          -6.396
REMARK INTER:                  -5.479
REMARK INTRA:                  -0.918
REMARK UNBOUND:                -0.582
REMARK SMILES C=C[C@@](C)(CCC=C(C)C)OC(C)=O
REMARK SMILES IDX 3 1 4 2 5 3 6 4 7 5 9 6 8 7 10 8 2 9 1 10 11 11 12 12 14 13
REMARK SMILES IDX 13 14
REMARK H PARENT
REMARK Flexibility Score: inf
ROOT
ATOM      1  C   UNL     1      70.097  52.359  21.565  1.00  0.00     0.127 C 
ATOM      2  C   UNL     1      71.001  53.035  20.511  1.00  0.00     0.061 C 
ENDROOT
BRANCH   1   3
ATOM      3  C   UNL     1      68.821  53.218  21.753  1.00  0.00     0.057 C 
BRANCH   3   4
ATOM      4  C   UNL     1      68.273  53.784  20.431  1.00  0.00     0.032 C 
BRANCH   4   5
ATOM      5  C   UNL     1      67.103  52.965  19.945  1.00  0.00    -0.028 C 
ATOM      6  C   UNL     1      68.292  52.205  17.875  1.00  0.00     0.039 C 
ATOM      7  C   UNL     1      67.106  52.229  18.811  1.00  0.00    -0.080 C 
ATOM      8  C   UNL     1      65.877  51.426  18.472  1.00  0.00     0.039 C 
ENDBRANCH   4   5
ENDBRANCH   3   4
ENDBRANCH   1   3
BRANCH   1   9
ATOM      9  C   UNL     1      69.729  50.945  21.132  1.00  0.00     0.013 C 
ATOM     10  C   UNL     1      68.948  50.139  21.860  1.00  0.00     0.008 C 
ENDBRANCH   1   9
BRANCH   1  11
ATOM     11  O   UNL     1      70.786  52.325  22.824  1.00  0.00    -0.455 OA
BRANCH  11  12
ATOM     12  C   UNL     1      71.878  53.129  23.183  1.00  0.00     0.303 C 
ATOM     13  O   UNL     1      71.716  54.318  23.571  1.00  0.00    -0.253 OA
ATOM     14  C   UNL     1      73.253  52.553  23.140  1.00  0.00     0.139 C 
ENDBRANCH  11  12
ENDBRANCH   1  11
TORSDOF 6
ENDMDL
MODEL 9
REMARK VINA RESULT:    -4.240      2.363      5.697
REMARK INTER + INTRA:          -6.310
REMARK INTER:                  -5.737
REMARK INTRA:                  -0.573
REMARK UNBOUND:                -0.582
REMARK SMILES C=C[C@@](C)(CCC=C(C)C)OC(C)=O
REMARK SMILES IDX 3 1 4 2 5 3 6 4 7 5 9 6 8 7 10 8 2 9 1 10 11 11 12 12 14 13
REMARK SMILES IDX 13 14
REMARK H PARENT
REMARK Flexibility Score: inf
ROOT
ATOM      1  C   UNL     1      71.361  54.161  17.773  1.00  0.00     0.127 C 
ATOM      2  C   UNL     1      71.197  55.045  19.027  1.00  0.00     0.061 C 
ENDROOT
BRANCH   1   3
ATOM      3  C   UNL     1      70.437  52.924  17.910  1.00  0.00     0.057 C 
BRANCH   3   4
ATOM      4  C   UNL     1      69.019  53.165  17.361  1.00  0.00     0.032 C 
BRANCH   4   5
ATOM      5  C   UNL     1      68.100  52.033  17.745  1.00  0.00    -0.028 C 
ATOM      6  C   UNL     1      67.175  53.248  19.731  1.00  0.00     0.039 C 
ATOM      7  C   UNL     1      67.246  52.066  18.793  1.00  0.00    -0.080 C 
ATOM      8  C   UNL     1      66.356  50.874  19.031  1.00  0.00     0.039 C 
ENDBRANCH   4   5
ENDBRANCH   3   4
ENDBRANCH   1   3
BRANCH   1   9
ATOM      9  C   UNL     1      71.018  54.945  16.512  1.00  0.00     0.013 C 
ATOM     10  C   UNL     1      71.620  54.734  15.335  1.00  0.00     0.008 C 
ENDBRANCH   1   9
BRANCH   1  11
ATOM     11  O   UNL     1      72.714  53.685  17.705  1.00  0.00    -0.455 OA
BRANCH  11  12
ATOM     12  C   UNL     1      73.833  54.310  18.275  1.00  0.00     0.303 C 
ATOM     13  O   UNL     1      74.274  53.960  19.403  1.00  0.00    -0.253 OA
ATOM     14  C   UNL     1      74.534  55.386  17.516  1.00  0.00     0.139 C 
ENDBRANCH  11  12
ENDBRANCH   1  11
TORSDOF 6
ENDMDL
