MODEL 1
REMARK VINA RESULT:    -3.872      0.000      0.000
REMARK INTER + INTRA:          -7.570
REMARK INTER:                  -6.135
REMARK INTRA:                  -1.434
REMARK UNBOUND:                -1.434
REMARK SMILES CCCCCCCCCCCC(=O)[O-]
REMARK SMILES IDX 7 1 8 2 9 3 10 4 11 5 12 6 13 7 14 8 6 9 5 10 4 11 3 12 2 13
REMARK SMILES IDX 1 14
REMARK H PARENT
REMARK Flexibility Score: inf
ROOT
ATOM      1  C   UNL     1       3.964  35.572  71.173  1.00  0.00     0.000 C 
ENDROOT
BRANCH   1   2
ATOM      2  C   UNL     1       5.383  35.459  70.588  1.00  0.00     0.000 C 
BRANCH   2   3
ATOM      3  C   UNL     1       6.075  34.098  70.806  1.00  0.00     0.000 C 
BRANCH   3   4
ATOM      4  C   UNL     1       7.178  33.758  69.789  1.00  0.00     0.006 C 
BRANCH   4   5
ATOM      5  C   UNL     1       7.384  34.860  68.742  1.00  0.00     0.053 C 
BRANCH   5   6
ATOM      6  C   UNL     1       7.370  34.280  67.364  1.00  0.00     0.041 C 
ATOM      7  O   UNL     1       6.685  34.822  66.456  1.00  0.00    -0.550 OA
ATOM      8  O   UNL     1       8.072  33.112  67.092  1.00  0.00    -0.550 OA
ENDBRANCH   5   6
ENDBRANCH   4   5
ENDBRANCH   3   4
ENDBRANCH   2   3
ENDBRANCH   1   2
BRANCH   1   9
ATOM      9  C   UNL     1       2.881  35.704  70.091  1.00  0.00     0.000 C 
BRANCH   9  10
ATOM     10  C   UNL     1       1.860  34.565  70.193  1.00  0.00    -0.000 C 
BRANCH  10  11
ATOM     11  C   UNL     1       1.954  33.632  68.975  1.00  0.00    -0.000 C 
BRANCH  11  12
ATOM     12  C   UNL     1       3.078  34.034  68.008  1.00  0.00    -0.000 C 
BRANCH  12  13
ATOM     13  C   UNL     1       4.001  32.859  67.652  1.00  0.00    -0.003 C 
ATOM     14  C   UNL     1       3.976  31.792  68.742  1.00  0.00     0.004 C 
ENDBRANCH  12  13
ENDBRANCH  11  12
ENDBRANCH  10  11
ENDBRANCH   9  10
ENDBRANCH   1   9
TORSDOF 10
ENDMDL
MODEL 2
REMARK VINA RESULT:    -3.864      1.113      3.175
REMARK INTER + INTRA:          -7.557
REMARK INTER:                  -5.950
REMARK INTRA:                  -1.607
REMARK UNBOUND:                -1.434
REMARK SMILES CCCCCCCCCCCC(=O)[O-]
REMARK SMILES IDX 7 1 8 2 9 3 10 4 11 5 12 6 13 7 14 8 6 9 5 10 4 11 3 12 2 13
REMARK SMILES IDX 1 14
REMARK H PARENT
REMARK Flexibility Score: inf
ROOT
ATOM      1  C   UNL     1       2.295  34.456  69.105  1.00  0.00     0.000 C 
ENDROOT
BRANCH   1   2
ATOM      2  C   UNL     1       3.221  34.014  67.958  1.00  0.00     0.000 C 
BRANCH   2   3
ATOM      3  C   UNL     1       3.879  32.631  68.143  1.00  0.00     0.000 C 
BRANCH   3   4
ATOM      4  C   UNL     1       5.314  32.515  67.602  1.00  0.00     0.006 C 
BRANCH   4   5
ATOM      5  C   UNL     1       5.908  33.869  67.192  1.00  0.00     0.053 C 
BRANCH   5   6
ATOM      6  C   UNL     1       7.382  33.891  67.443  1.00  0.00     0.041 C 
ATOM      7  O   UNL     1       8.113  32.961  67.011  1.00  0.00    -0.550 OA
ATOM      8  O   UNL     1       7.944  34.913  68.199  1.00  0.00    -0.550 OA
ENDBRANCH   5   6
ENDBRANCH   4   5
ENDBRANCH   3   4
ENDBRANCH   2   3
ENDBRANCH   1   2
BRANCH   1   9
ATOM      9  C   UNL     1       3.005  34.487  70.468  1.00  0.00     0.000 C 
BRANCH   9  10
ATOM     10  C   UNL     1       3.924  35.708  70.581  1.00  0.00    -0.000 C 
BRANCH  10  11
ATOM     11  C   UNL     1       5.401  35.286  70.586  1.00  0.00    -0.000 C 
BRANCH  11  12
ATOM     12  C   UNL     1       5.609  33.866  71.134  1.00  0.00    -0.000 C 
BRANCH  12  13
ATOM     13  C   UNL     1       7.093  33.495  71.272  1.00  0.00    -0.003 C 
ATOM     14  C   UNL     1       7.369  32.110  70.695  1.00  0.00     0.004 C 
ENDBRANCH  12  13
ENDBRANCH  11  12
ENDBRANCH  10  11
ENDBRANCH   9  10
ENDBRANCH   1   9
TORSDOF 10
ENDMDL
MODEL 3
REMARK VINA RESULT:    -3.857      2.713      4.854
REMARK INTER + INTRA:          -7.546
REMARK INTER:                  -6.456
REMARK INTRA:                  -1.090
REMARK UNBOUND:                -1.434
REMARK SMILES CCCCCCCCCCCC(=O)[O-]
REMARK SMILES IDX 7 1 8 2 9 3 10 4 11 5 12 6 13 7 14 8 6 9 5 10 4 11 3 12 2 13
REMARK SMILES IDX 1 14
REMARK H PARENT
REMARK Flexibility Score: inf
ROOT
ATOM      1  C   UNL     1       7.593  34.811  68.381  1.00  0.00     0.000 C 
ENDROOT
BRANCH   1   2
ATOM      2  C   UNL     1       6.935  34.402  69.710  1.00  0.00     0.000 C 
BRANCH   2   3
ATOM      3  C   UNL     1       5.944  35.429  70.294  1.00  0.00     0.000 C 
BRANCH   3   4
ATOM      4  C   UNL     1       4.633  34.834  70.835  1.00  0.00     0.006 C 
BRANCH   4   5
ATOM      5  C   UNL     1       3.459  35.821  70.773  1.00  0.00     0.053 C 
BRANCH   5   6
ATOM      6  C   UNL     1       2.564  35.497  69.620  1.00  0.00     0.041 C 
ATOM      7  O   UNL     1       2.812  34.506  68.883  1.00  0.00    -0.550 OA
ATOM      8  O   UNL     1       1.483  36.319  69.326  1.00  0.00    -0.550 OA
ENDBRANCH   5   6
ENDBRANCH   4   5
ENDBRANCH   3   4
ENDBRANCH   2   3
ENDBRANCH   1   2
BRANCH   1   9
ATOM      9  C   UNL     1       6.723  34.484  67.158  1.00  0.00     0.000 C 
BRANCH   9  10
ATOM     10  C   UNL     1       5.941  33.183  67.371  1.00  0.00    -0.000 C 
BRANCH  10  11
ATOM     11  C   UNL     1       6.700  31.983  66.784  1.00  0.00    -0.000 C 
BRANCH  11  12
ATOM     12  C   UNL     1       7.144  30.981  67.861  1.00  0.00    -0.000 C 
BRANCH  12  13
ATOM     13  C   UNL     1       8.570  31.248  68.366  1.00  0.00    -0.003 C 
ATOM     14  C   UNL     1       9.443  31.831  67.259  1.00  0.00     0.004 C 
ENDBRANCH  12  13
ENDBRANCH  11  12
ENDBRANCH  10  11
ENDBRANCH   9  10
ENDBRANCH   1   9
TORSDOF 10
ENDMDL
MODEL 4
REMARK VINA RESULT:    -3.824      2.719      4.720
REMARK INTER + INTRA:          -7.494
REMARK INTER:                  -6.233
REMARK INTRA:                  -1.261
REMARK UNBOUND:                -1.434
REMARK SMILES CCCCCCCCCCCC(=O)[O-]
REMARK SMILES IDX 7 1 8 2 9 3 10 4 11 5 12 6 13 7 14 8 6 9 5 10 4 11 3 12 2 13
REMARK SMILES IDX 1 14
REMARK H PARENT
REMARK Flexibility Score: inf
ROOT
ATOM      1  C   UNL     1       7.069  34.769  69.194  1.00  0.00     0.000 C 
ENDROOT
BRANCH   1   2
ATOM      2  C   UNL     1       6.748  34.103  70.544  1.00  0.00     0.000 C 
BRANCH   2   3
ATOM      3  C   UNL     1       5.276  34.210  70.993  1.00  0.00     0.000 C 
BRANCH   3   4
ATOM      4  C   UNL     1       4.573  35.525  70.615  1.00  0.00     0.006 C 
BRANCH   4   5
ATOM      5  C   UNL     1       3.208  35.689  71.295  1.00  0.00     0.053 C 
BRANCH   5   6
ATOM      6  C   UNL     1       2.110  35.652  70.280  1.00  0.00     0.041 C 
ATOM      7  O   UNL     1       1.347  34.654  70.208  1.00  0.00    -0.550 OA
ATOM      8  O   UNL     1       1.961  36.700  69.379  1.00  0.00    -0.550 OA
ENDBRANCH   5   6
ENDBRANCH   4   5
ENDBRANCH   3   4
ENDBRANCH   2   3
ENDBRANCH   1   2
BRANCH   1   9
ATOM      9  C   UNL     1       8.125  34.000  68.385  1.00  0.00     0.000 C 
BRANCH   9  10
ATOM     10  C   UNL     1       7.490  33.302  67.176  1.00  0.00    -0.000 C 
BRANCH  10  11
ATOM     11  C   UNL     1       7.065  31.869  67.529  1.00  0.00    -0.000 C 
BRANCH  11  12
ATOM     12  C   UNL     1       5.554  31.744  67.776  1.00  0.00    -0.000 C 
BRANCH  12  13
ATOM     13  C   UNL     1       4.757  32.910  67.173  1.00  0.00    -0.003 C 
ATOM     14  C   UNL     1       3.422  33.091  67.889  1.00  0.00     0.004 C 
ENDBRANCH  12  13
ENDBRANCH  11  12
ENDBRANCH  10  11
ENDBRANCH   9  10
ENDBRANCH   1   9
TORSDOF 10
ENDMDL
MODEL 5
REMARK VINA RESULT:    -3.812     10.817     12.074
REMARK INTER + INTRA:          -7.475
REMARK INTER:                  -7.020
REMARK INTRA:                  -0.455
REMARK UNBOUND:                -1.434
REMARK SMILES CCCCCCCCCCCC(=O)[O-]
REMARK SMILES IDX 7 1 8 2 9 3 10 4 11 5 12 6 13 7 14 8 6 9 5 10 4 11 3 12 2 13
REMARK SMILES IDX 1 14
REMARK H PARENT
REMARK Flexibility Score: inf
ROOT
ATOM      1  C   UNL     1       3.384  45.455  66.190  1.00  0.00     0.000 C 
ENDROOT
BRANCH   1   2
ATOM      2  C   UNL     1       4.366  46.387  65.458  1.00  0.00     0.000 C 
BRANCH   2   3
ATOM      3  C   UNL     1       4.793  47.640  66.249  1.00  0.00     0.000 C 
BRANCH   3   4
ATOM      4  C   UNL     1       6.305  47.927  66.249  1.00  0.00     0.006 C 
BRANCH   4   5
ATOM      5  C   UNL     1       6.790  48.570  67.554  1.00  0.00     0.053 C 
BRANCH   5   6
ATOM      6  C   UNL     1       7.551  47.578  68.375  1.00  0.00     0.041 C 
ATOM      7  O   UNL     1       8.644  47.114  67.957  1.00  0.00    -0.550 OA
ATOM      8  O   UNL     1       7.027  47.126  69.581  1.00  0.00    -0.550 OA
ENDBRANCH   5   6
ENDBRANCH   4   5
ENDBRANCH   3   4
ENDBRANCH   2   3
ENDBRANCH   1   2
BRANCH   1   9
ATOM      9  C   UNL     1       3.353  44.037  65.599  1.00  0.00     0.000 C 
BRANCH   9  10
ATOM     10  C   UNL     1       3.158  42.987  66.699  1.00  0.00    -0.000 C 
BRANCH  10  11
ATOM     11  C   UNL     1       2.898  43.656  68.058  1.00  0.00    -0.000 C 
BRANCH  11  12
ATOM     12  C   UNL     1       3.248  42.743  69.243  1.00  0.00    -0.000 C 
BRANCH  12  13
ATOM     13  C   UNL     1       2.456  43.091  70.512  1.00  0.00    -0.003 C 
ATOM     14  C   UNL     1       3.326  43.848  71.511  1.00  0.00     0.004 C 
ENDBRANCH  12  13
ENDBRANCH  11  12
ENDBRANCH  10  11
ENDBRANCH   9  10
ENDBRANCH   1   9
TORSDOF 10
ENDMDL
MODEL 6
REMARK VINA RESULT:    -3.810      1.608      3.270
REMARK INTER + INTRA:          -7.471
REMARK INTER:                  -6.002
REMARK INTRA:                  -1.469
REMARK UNBOUND:                -1.434
REMARK SMILES CCCCCCCCCCCC(=O)[O-]
REMARK SMILES IDX 7 1 8 2 9 3 10 4 11 5 12 6 13 7 14 8 6 9 5 10 4 11 3 12 2 13
REMARK SMILES IDX 1 14
REMARK H PARENT
REMARK Flexibility Score: inf
ROOT
ATOM      1  C   UNL     1       2.936  34.205  68.181  1.00  0.00     0.000 C 
ENDROOT
BRANCH   1   2
ATOM      2  C   UNL     1       3.941  33.082  67.874  1.00  0.00     0.000 C 
BRANCH   2   3
ATOM      3  C   UNL     1       5.227  33.534  67.152  1.00  0.00     0.000 C 
BRANCH   3   4
ATOM      4  C   UNL     1       6.357  32.489  67.118  1.00  0.00     0.006 C 
BRANCH   4   5
ATOM      5  C   UNL     1       7.750  33.113  67.268  1.00  0.00     0.053 C 
BRANCH   5   6
ATOM      6  C   UNL     1       8.752  32.070  67.651  1.00  0.00     0.041 C 
ATOM      7  O   UNL     1       9.870  32.023  67.074  1.00  0.00    -0.550 OA
ATOM      8  O   UNL     1       8.431  31.117  68.611  1.00  0.00    -0.550 OA
ENDBRANCH   5   6
ENDBRANCH   4   5
ENDBRANCH   3   4
ENDBRANCH   2   3
ENDBRANCH   1   2
BRANCH   1   9
ATOM      9  C   UNL     1       2.643  34.350  69.683  1.00  0.00     0.000 C 
BRANCH   9  10
ATOM     10  C   UNL     1       3.276  35.628  70.245  1.00  0.00    -0.000 C 
BRANCH  10  11
ATOM     11  C   UNL     1       4.503  35.299  71.110  1.00  0.00    -0.000 C 
BRANCH  11  12
ATOM     12  C   UNL     1       5.818  35.363  70.319  1.00  0.00    -0.000 C 
BRANCH  12  13
ATOM     13  C   UNL     1       6.762  34.195  70.644  1.00  0.00    -0.003 C 
ATOM     14  C   UNL     1       5.979  32.909  70.891  1.00  0.00     0.004 C 
ENDBRANCH  12  13
ENDBRANCH  11  12
ENDBRANCH  10  11
ENDBRANCH   9  10
ENDBRANCH   1   9
TORSDOF 10
ENDMDL
MODEL 7
REMARK VINA RESULT:    -3.805      2.725      5.385
REMARK INTER + INTRA:          -7.464
REMARK INTER:                  -6.152
REMARK INTRA:                  -1.312
REMARK UNBOUND:                -1.434
REMARK SMILES CCCCCCCCCCCC(=O)[O-]
REMARK SMILES IDX 7 1 8 2 9 3 10 4 11 5 12 6 13 7 14 8 6 9 5 10 4 11 3 12 2 13
REMARK SMILES IDX 1 14
REMARK H PARENT
REMARK Flexibility Score: inf
ROOT
ATOM      1  C   UNL     1       5.943  33.237  67.127  1.00  0.00     0.000 C 
ENDROOT
BRANCH   1   2
ATOM      2  C   UNL     1       4.480  33.714  67.110  1.00  0.00     0.000 C 
BRANCH   2   3
ATOM      3  C   UNL     1       3.538  32.974  68.081  1.00  0.00     0.000 C 
BRANCH   3   4
ATOM      4  C   UNL     1       2.391  33.825  68.652  1.00  0.00     0.006 C 
BRANCH   4   5
ATOM      5  C   UNL     1       1.476  34.401  67.564  1.00  0.00     0.053 C 
BRANCH   5   6
ATOM      6  C   UNL     1       1.408  35.892  67.673  1.00  0.00     0.041 C 
ATOM      7  O   UNL     1       1.690  36.462  68.760  1.00  0.00    -0.550 OA
ATOM      8  O   UNL     1       0.984  36.649  66.588  1.00  0.00    -0.550 OA
ENDBRANCH   5   6
ENDBRANCH   4   5
ENDBRANCH   3   4
ENDBRANCH   2   3
ENDBRANCH   1   2
BRANCH   1   9
ATOM      9  C   UNL     1       6.950  34.396  67.163  1.00  0.00     0.000 C 
BRANCH   9  10
ATOM     10  C   UNL     1       7.956  34.216  68.306  1.00  0.00    -0.000 C 
BRANCH  10  11
ATOM     11  C   UNL     1       7.430  33.217  69.348  1.00  0.00    -0.000 C 
BRANCH  11  12
ATOM     12  C   UNL     1       7.114  33.881  70.697  1.00  0.00    -0.000 C 
BRANCH  12  13
ATOM     13  C   UNL     1       5.607  34.079  70.920  1.00  0.00    -0.003 C 
ATOM     14  C   UNL     1       5.167  35.473  70.486  1.00  0.00     0.004 C 
ENDBRANCH  12  13
ENDBRANCH  11  12
ENDBRANCH  10  11
ENDBRANCH   9  10
ENDBRANCH   1   9
TORSDOF 10
ENDMDL
MODEL 8
REMARK VINA RESULT:    -3.788      2.782      4.927
REMARK INTER + INTRA:          -7.436
REMARK INTER:                  -6.116
REMARK INTRA:                  -1.320
REMARK UNBOUND:                -1.434
REMARK SMILES CCCCCCCCCCCC(=O)[O-]
REMARK SMILES IDX 7 1 8 2 9 3 10 4 11 5 12 6 13 7 14 8 6 9 5 10 4 11 3 12 2 13
REMARK SMILES IDX 1 14
REMARK H PARENT
REMARK Flexibility Score: inf
ROOT
ATOM      1  C   UNL     1       4.408  33.693  67.825  1.00  0.00     0.000 C 
ENDROOT
BRANCH   1   2
ATOM      2  C   UNL     1       4.430  32.858  69.117  1.00  0.00     0.000 C 
BRANCH   2   3
ATOM      3  C   UNL     1       4.900  33.613  70.377  1.00  0.00     0.000 C 
BRANCH   3   4
ATOM      4  C   UNL     1       4.783  35.145  70.299  1.00  0.00     0.006 C 
BRANCH   4   5
ATOM      5  C   UNL     1       3.570  35.690  71.065  1.00  0.00     0.053 C 
BRANCH   5   6
ATOM      6  C   UNL     1       2.354  35.678  70.194  1.00  0.00     0.041 C 
ATOM      7  O   UNL     1       2.081  36.673  69.472  1.00  0.00    -0.550 OA
ATOM      8  O   UNL     1       1.492  34.587  70.218  1.00  0.00    -0.550 OA
ENDBRANCH   5   6
ENDBRANCH   4   5
ENDBRANCH   3   4
ENDBRANCH   2   3
ENDBRANCH   1   2
BRANCH   1   9
ATOM      9  C   UNL     1       5.609  33.410  66.910  1.00  0.00     0.000 C 
BRANCH   9  10
ATOM     10  C   UNL     1       6.742  34.411  67.165  1.00  0.00    -0.000 C 
BRANCH  10  11
ATOM     11  C   UNL     1       7.857  33.776  68.010  1.00  0.00    -0.000 C 
BRANCH  11  12
ATOM     12  C   UNL     1       8.528  32.587  67.306  1.00  0.00    -0.000 C 
BRANCH  12  13
ATOM     13  C   UNL     1       8.327  31.263  68.058  1.00  0.00    -0.003 C 
ATOM     14  C   UNL     1       7.812  31.508  69.473  1.00  0.00     0.004 C 
ENDBRANCH  12  13
ENDBRANCH  11  12
ENDBRANCH  10  11
ENDBRANCH   9  10
ENDBRANCH   1   9
TORSDOF 10
ENDMDL
MODEL 9
REMARK VINA RESULT:    -3.764      2.491      4.765
REMARK INTER + INTRA:          -7.399
REMARK INTER:                  -6.359
REMARK INTRA:                  -1.041
REMARK UNBOUND:                -1.434
REMARK SMILES CCCCCCCCCCCC(=O)[O-]
REMARK SMILES IDX 7 1 8 2 9 3 10 4 11 5 12 6 13 7 14 8 6 9 5 10 4 11 3 12 2 13
REMARK SMILES IDX 1 14
REMARK H PARENT
REMARK Flexibility Score: inf
ROOT
ATOM      1  C   UNL     1       5.496  33.834  70.854  1.00  0.00     0.000 C 
ENDROOT
BRANCH   1   2
ATOM      2  C   UNL     1       5.153  35.284  70.472  1.00  0.00     0.000 C 
BRANCH   2   3
ATOM      3  C   UNL     1       3.872  35.847  71.121  1.00  0.00     0.000 C 
BRANCH   3   4
ATOM      4  C   UNL     1       2.569  35.139  70.712  1.00  0.00     0.006 C 
BRANCH   4   5
ATOM      5  C   UNL     1       1.612  36.053  69.936  1.00  0.00     0.053 C 
BRANCH   5   6
ATOM      6  C   UNL     1       1.700  35.777  68.469  1.00  0.00     0.041 C 
ATOM      7  O   UNL     1       1.043  36.475  67.652  1.00  0.00    -0.550 OA
ATOM      8  O   UNL     1       2.468  34.715  68.006  1.00  0.00    -0.550 OA
ENDBRANCH   5   6
ENDBRANCH   4   5
ENDBRANCH   3   4
ENDBRANCH   2   3
ENDBRANCH   1   2
BRANCH   1   9
ATOM      9  C   UNL     1       7.008  33.590  70.979  1.00  0.00     0.000 C 
BRANCH   9  10
ATOM     10  C   UNL     1       7.407  32.266  70.317  1.00  0.00    -0.000 C 
BRANCH  10  11
ATOM     11  C   UNL     1       7.262  32.348  68.790  1.00  0.00    -0.000 C 
BRANCH  11  12
ATOM     12  C   UNL     1       8.098  33.482  68.176  1.00  0.00    -0.000 C 
BRANCH  12  13
ATOM     13  C   UNL     1       7.251  34.467  67.357  1.00  0.00    -0.003 C 
ATOM     14  C   UNL     1       5.867  33.892  67.069  1.00  0.00     0.004 C 
ENDBRANCH  12  13
ENDBRANCH  11  12
ENDBRANCH  10  11
ENDBRANCH   9  10
ENDBRANCH   1   9
TORSDOF 10
ENDMDL
