MODEL 1
REMARK VINA RESULT:    -2.648      0.000      0.000
REMARK INTER + INTRA:          -2.648
REMARK INTER:                  -2.648
REMARK INTRA:                   0.000
REMARK UNBOUND:                 0.000
REMARK SMILES CC(=O)[O-]
REMARK SMILES IDX 1 1 2 2 3 3 4 4
REMARK H PARENT
REMARK Flexibility Score: inf
ROOT
ATOM      1  C   UNL     1     -13.657   4.213  -8.204  1.00  0.00     0.063 C 
ATOM      2  C   UNL     1     -12.487   3.376  -8.599  1.00  0.00     0.038 C 
ATOM      3  O   UNL     1     -11.332   3.679  -8.202  1.00  0.00    -0.550 OA
ATOM      4  O   UNL     1     -12.662   2.293  -9.452  1.00  0.00    -0.550 OA
ENDROOT
TORSDOF 0
ENDMDL
MODEL 2
REMARK VINA RESULT:    -2.637      1.383      1.763
REMARK INTER + INTRA:          -2.637
REMARK INTER:                  -2.637
REMARK INTRA:                   0.000
REMARK UNBOUND:                 0.000
REMARK SMILES CC(=O)[O-]
REMARK SMILES IDX 1 1 2 2 3 3 4 4
REMARK H PARENT
REMARK Flexibility Score: inf
ROOT
ATOM      1  C   UNL     1     -12.908   2.311  -9.364  1.00  0.00     0.063 C 
ATOM      2  C   UNL     1     -12.576   3.561  -8.621  1.00  0.00     0.038 C 
ATOM      3  O   UNL     1     -11.448   3.689  -8.075  1.00  0.00    -0.550 OA
ATOM      4  O   UNL     1     -13.528   4.562  -8.481  1.00  0.00    -0.550 OA
ENDROOT
TORSDOF 0
ENDMDL
MODEL 3
REMARK VINA RESULT:    -2.498      1.486      2.123
REMARK INTER + INTRA:          -2.498
REMARK INTER:                  -2.498
REMARK INTRA:                   0.000
REMARK UNBOUND:                 0.000
REMARK SMILES CC(=O)[O-]
REMARK SMILES IDX 1 1 2 2 3 3 4 4
REMARK H PARENT
REMARK Flexibility Score: inf
ROOT
ATOM      1  C   UNL     1     -11.523   3.748  -8.136  1.00  0.00     0.063 C 
ATOM      2  C   UNL     1     -12.878   3.530  -8.721  1.00  0.00     0.038 C 
ATOM      3  O   UNL     1     -13.060   2.616  -9.567  1.00  0.00    -0.550 OA
ATOM      4  O   UNL     1     -13.929   4.370  -8.375  1.00  0.00    -0.550 OA
ENDROOT
TORSDOF 0
ENDMDL
MODEL 4
REMARK VINA RESULT:    -2.485      1.465      1.738
REMARK INTER + INTRA:          -2.485
REMARK INTER:                  -2.485
REMARK INTRA:                   0.000
REMARK UNBOUND:                 0.000
REMARK SMILES CC(=O)[O-]
REMARK SMILES IDX 1 1 2 2 3 3 4 4
REMARK H PARENT
REMARK Flexibility Score: inf
ROOT
ATOM      1  C   UNL     1     -11.565   3.750  -8.152  1.00  0.00     0.063 C 
ATOM      2  C   UNL     1     -12.942   3.550  -8.691  1.00  0.00     0.038 C 
ATOM      3  O   UNL     1     -13.878   4.309  -8.328  1.00  0.00    -0.550 OA
ATOM      4  O   UNL     1     -13.206   2.492  -9.551  1.00  0.00    -0.550 OA
ENDROOT
TORSDOF 0
ENDMDL
MODEL 5
REMARK VINA RESULT:    -2.392      2.107      2.643
REMARK INTER + INTRA:          -2.392
REMARK INTER:                  -2.392
REMARK INTRA:                   0.000
REMARK UNBOUND:                 0.000
REMARK SMILES CC(=O)[O-]
REMARK SMILES IDX 1 1 2 2 3 3 4 4
REMARK H PARENT
REMARK Flexibility Score: inf
ROOT
ATOM      1  C   UNL     1     -14.669   1.262  -9.704  1.00  0.00     0.063 C 
ATOM      2  C   UNL     1     -13.245   1.655  -9.492  1.00  0.00     0.038 C 
ATOM      3  O   UNL     1     -12.346   0.775  -9.462  1.00  0.00    -0.550 OA
ATOM      4  O   UNL     1     -12.916   2.986  -9.272  1.00  0.00    -0.550 OA
ENDROOT
TORSDOF 0
ENDMDL
MODEL 6
REMARK VINA RESULT:    -2.331      3.272      3.834
REMARK INTER + INTRA:          -2.331
REMARK INTER:                  -2.331
REMARK INTRA:                   0.000
REMARK UNBOUND:                 0.000
REMARK SMILES CC(=O)[O-]
REMARK SMILES IDX 1 1 2 2 3 3 4 4
REMARK H PARENT
REMARK Flexibility Score: inf
ROOT
ATOM      1  C   UNL     1     -13.163  -0.624 -10.516  1.00  0.00     0.063 C 
ATOM      2  C   UNL     1     -12.183   0.166  -9.715  1.00  0.00     0.038 C 
ATOM      3  O   UNL     1     -12.421   1.370  -9.436  1.00  0.00    -0.550 OA
ATOM      4  O   UNL     1     -10.981  -0.408  -9.323  1.00  0.00    -0.550 OA
ENDROOT
TORSDOF 0
ENDMDL
MODEL 7
REMARK VINA RESULT:    -2.249      2.042      2.158
REMARK INTER + INTRA:          -2.249
REMARK INTER:                  -2.249
REMARK INTRA:                   0.000
REMARK UNBOUND:                 0.000
REMARK SMILES CC(=O)[O-]
REMARK SMILES IDX 1 1 2 2 3 3 4 4
REMARK H PARENT
REMARK Flexibility Score: inf
ROOT
ATOM      1  C   UNL     1     -14.891   1.860  -9.425  1.00  0.00     0.063 C 
ATOM      2  C   UNL     1     -13.820   2.803  -8.990  1.00  0.00     0.038 C 
ATOM      3  O   UNL     1     -14.100   3.771  -8.235  1.00  0.00    -0.550 OA
ATOM      4  O   UNL     1     -12.522   2.648  -9.460  1.00  0.00    -0.550 OA
ENDROOT
TORSDOF 0
ENDMDL
MODEL 8
REMARK VINA RESULT:    -2.242      5.490      5.963
REMARK INTER + INTRA:          -2.242
REMARK INTER:                  -2.242
REMARK INTRA:                   0.000
REMARK UNBOUND:                 0.000
REMARK SMILES CC(=O)[O-]
REMARK SMILES IDX 1 1 2 2 3 3 4 4
REMARK H PARENT
REMARK Flexibility Score: inf
ROOT
ATOM      1  C   UNL     1     -11.095  -0.926 -10.038  1.00  0.00     0.063 C 
ATOM      2  C   UNL     1     -10.621  -2.151  -9.330  1.00  0.00     0.038 C 
ATOM      3  O   UNL     1     -10.314  -2.097  -8.111  1.00  0.00    -0.550 OA
ATOM      4  O   UNL     1     -10.464  -3.342 -10.028  1.00  0.00    -0.550 OA
ENDROOT
TORSDOF 0
ENDMDL
MODEL 9
REMARK VINA RESULT:    -2.235      7.076      7.647
REMARK INTER + INTRA:          -2.235
REMARK INTER:                  -2.235
REMARK INTRA:                   0.000
REMARK UNBOUND:                 0.000
REMARK SMILES CC(=O)[O-]
REMARK SMILES IDX 1 1 2 2 3 3 4 4
REMARK H PARENT
REMARK Flexibility Score: inf
ROOT
ATOM      1  C   UNL     1     -10.293  -2.476  -8.222  1.00  0.00     0.063 C 
ATOM      2  C   UNL     1      -9.782  -3.605  -9.053  1.00  0.00     0.038 C 
ATOM      3  O   UNL     1     -10.028  -3.642 -10.287  1.00  0.00    -0.550 OA
ATOM      4  O   UNL     1      -9.081  -4.645  -8.457  1.00  0.00    -0.550 OA
ENDROOT
TORSDOF 0
ENDMDL
