MODEL 1
REMARK VINA RESULT:    -4.078      0.000      0.000
REMARK INTER + INTRA:          -9.652
REMARK INTER:                  -7.655
REMARK INTRA:                  -1.997
REMARK UNBOUND:                -1.997
REMARK SMILES CCCCCCCCC=CCCCCCCCC(=O)[O-]
REMARK SMILES IDX 10 1 9 2 11 3 12 4 13 5 14 6 15 7 16 8 17 9 18 10 19 11
REMARK SMILES IDX 20 12 8 13 7 14 6 15 5 16 4 17 3 18 2 19 1 20
REMARK H PARENT
REMARK Flexibility Score: inf
ROOT
ATOM      1  C   UNL     1     -11.007  -7.908  15.874  1.00  0.00    -0.031 C 
ATOM      2  C   UNL     1     -10.795  -7.720  17.191  1.00  0.00    -0.031 C 
ENDROOT
BRANCH   1   3
ATOM      3  C   UNL     1     -12.271  -8.452  15.253  1.00  0.00     0.027 C 
BRANCH   3   4
ATOM      4  C   UNL     1     -12.182  -8.479  13.721  1.00  0.00     0.004 C 
BRANCH   4   5
ATOM      5  C   UNL     1     -10.741  -8.293  13.217  1.00  0.00     0.000 C 
BRANCH   5   6
ATOM      6  C   UNL     1     -10.686  -7.818  11.756  1.00  0.00     0.000 C 
BRANCH   6   7
ATOM      7  C   UNL     1     -11.988  -7.131  11.310  1.00  0.00     0.000 C 
BRANCH   7   8
ATOM      8  C   UNL     1     -11.955  -5.602  11.497  1.00  0.00     0.006 C 
BRANCH   8   9
ATOM      9  C   UNL     1     -12.971  -5.079  12.527  1.00  0.00     0.053 C 
BRANCH   9  10
ATOM     10  C   UNL     1     -12.317  -4.508  13.747  1.00  0.00     0.041 C 
ATOM     11  O   UNL     1     -11.187  -4.925  14.117  1.00  0.00    -0.550 OA
ATOM     12  O   UNL     1     -12.945  -3.497  14.464  1.00  0.00    -0.550 OA
ENDBRANCH   9  10
ENDBRANCH   8   9
ENDBRANCH   7   8
ENDBRANCH   6   7
ENDBRANCH   5   6
ENDBRANCH   4   5
ENDBRANCH   3   4
ENDBRANCH   1   3
BRANCH   2  13
ATOM     13  C   UNL     1     -11.768  -8.055  18.297  1.00  0.00     0.027 C 
BRANCH  13  14
ATOM     14  C   UNL     1     -11.166  -9.052  19.300  1.00  0.00     0.004 C 
BRANCH  14  15
ATOM     15  C   UNL     1      -9.627  -9.125  19.256  1.00  0.00     0.000 C 
BRANCH  15  16
ATOM     16  C   UNL     1      -8.940  -8.447  20.457  1.00  0.00     0.000 C 
BRANCH  16  17
ATOM     17  C   UNL     1      -9.926  -7.630  21.313  1.00  0.00    -0.000 C 
BRANCH  17  18
ATOM     18  C   UNL     1      -9.685  -6.116  21.207  1.00  0.00    -0.000 C 
BRANCH  18  19
ATOM     19  C   UNL     1      -9.066  -5.711  19.859  1.00  0.00    -0.003 C 
ATOM     20  C   UNL     1      -9.895  -4.624  19.179  1.00  0.00     0.004 C 
ENDBRANCH  18  19
ENDBRANCH  17  18
ENDBRANCH  16  17
ENDBRANCH  15  16
ENDBRANCH  14  15
ENDBRANCH  13  14
ENDBRANCH   2  13
TORSDOF 15
ENDMDL
MODEL 2
REMARK VINA RESULT:    -3.970      1.047      2.363
REMARK INTER + INTRA:          -9.448
REMARK INTER:                  -7.035
REMARK INTRA:                  -2.413
REMARK UNBOUND:                -1.997
REMARK SMILES CCCCCCCCC=CCCCCCCCC(=O)[O-]
REMARK SMILES IDX 10 1 9 2 11 3 12 4 13 5 14 6 15 7 16 8 17 9 18 10 19 11
REMARK SMILES IDX 20 12 8 13 7 14 6 15 5 16 4 17 3 18 2 19 1 20
REMARK H PARENT
REMARK Flexibility Score: inf
ROOT
ATOM      1  C   UNL     1     -11.447  -8.562  18.263  1.00  0.00    -0.031 C 
ATOM      2  C   UNL     1     -10.886  -8.576  19.488  1.00  0.00    -0.031 C 
ENDROOT
BRANCH   1   3
ATOM      3  C   UNL     1     -10.722  -8.783  16.958  1.00  0.00     0.027 C 
BRANCH   3   4
ATOM      4  C   UNL     1     -11.211  -7.819  15.869  1.00  0.00     0.004 C 
BRANCH   4   5
ATOM      5  C   UNL     1     -12.268  -8.460  14.954  1.00  0.00     0.000 C 
BRANCH   5   6
ATOM      6  C   UNL     1     -11.870  -8.409  13.469  1.00  0.00     0.000 C 
BRANCH   6   7
ATOM      7  C   UNL     1     -12.878  -7.619  12.617  1.00  0.00     0.000 C 
BRANCH   7   8
ATOM      8  C   UNL     1     -12.372  -6.214  12.238  1.00  0.00     0.006 C 
BRANCH   8   9
ATOM      9  C   UNL     1     -12.846  -5.103  13.192  1.00  0.00     0.053 C 
BRANCH   9  10
ATOM     10  C   UNL     1     -11.741  -4.565  14.048  1.00  0.00     0.041 C 
ATOM     11  O   UNL     1     -10.566  -5.001  13.917  1.00  0.00    -0.550 OA
ATOM     12  O   UNL     1     -12.004  -3.566  14.977  1.00  0.00    -0.550 OA
ENDBRANCH   9  10
ENDBRANCH   8   9
ENDBRANCH   7   8
ENDBRANCH   6   7
ENDBRANCH   5   6
ENDBRANCH   4   5
ENDBRANCH   3   4
ENDBRANCH   1   3
BRANCH   2  13
ATOM     13  C   UNL     1      -9.418  -8.776  19.782  1.00  0.00     0.027 C 
BRANCH  13  14
ATOM     14  C   UNL     1      -8.942  -7.876  20.934  1.00  0.00     0.004 C 
BRANCH  14  15
ATOM     15  C   UNL     1      -9.783  -6.596  21.110  1.00  0.00     0.000 C 
BRANCH  15  16
ATOM     16  C   UNL     1      -8.965  -5.296  20.988  1.00  0.00     0.000 C 
BRANCH  16  17
ATOM     17  C   UNL     1      -9.545  -4.335  19.934  1.00  0.00    -0.000 C 
BRANCH  17  18
ATOM     18  C   UNL     1     -10.231  -5.074  18.775  1.00  0.00    -0.000 C 
BRANCH  18  19
ATOM     19  C   UNL     1      -9.450  -4.957  17.457  1.00  0.00    -0.003 C 
ATOM     20  C   UNL     1      -8.322  -5.983  17.394  1.00  0.00     0.004 C 
ENDBRANCH  18  19
ENDBRANCH  17  18
ENDBRANCH  16  17
ENDBRANCH  15  16
ENDBRANCH  14  15
ENDBRANCH  13  14
ENDBRANCH   2  13
TORSDOF 15
ENDMDL
MODEL 3
REMARK VINA RESULT:    -3.965      3.515      7.709
REMARK INTER + INTRA:          -9.439
REMARK INTER:                  -7.697
REMARK INTRA:                  -1.742
REMARK UNBOUND:                -1.997
REMARK SMILES CCCCCCCCC=CCCCCCCCC(=O)[O-]
REMARK SMILES IDX 10 1 9 2 11 3 12 4 13 5 14 6 15 7 16 8 17 9 18 10 19 11
REMARK SMILES IDX 20 12 8 13 7 14 6 15 5 16 4 17 3 18 2 19 1 20
REMARK H PARENT
REMARK Flexibility Score: inf
ROOT
ATOM      1  C   UNL     1     -12.169  -8.365  14.852  1.00  0.00    -0.031 C 
ATOM      2  C   UNL     1     -12.702  -8.616  13.641  1.00  0.00    -0.031 C 
ENDROOT
BRANCH   1   3
ATOM      3  C   UNL     1     -10.696  -8.345  15.180  1.00  0.00     0.027 C 
BRANCH   3   4
ATOM      4  C   UNL     1     -10.445  -7.919  16.633  1.00  0.00     0.004 C 
BRANCH   4   5
ATOM      5  C   UNL     1     -10.454  -9.114  17.601  1.00  0.00     0.000 C 
BRANCH   5   6
ATOM      6  C   UNL     1     -11.185  -8.800  18.917  1.00  0.00     0.000 C 
BRANCH   6   7
ATOM      7  C   UNL     1     -10.749  -7.457  19.526  1.00  0.00     0.000 C 
BRANCH   7   8
ATOM      8  C   UNL     1      -9.508  -7.581  20.430  1.00  0.00     0.006 C 
BRANCH   8   9
ATOM      9  C   UNL     1      -9.728  -7.071  21.865  1.00  0.00     0.053 C 
BRANCH   9  10
ATOM     10  C   UNL     1      -9.551  -8.145  22.894  1.00  0.00     0.041 C 
ATOM     11  O   UNL     1      -8.397  -8.555  23.192  1.00  0.00    -0.550 OA
ATOM     12  O   UNL     1     -10.658  -8.677  23.542  1.00  0.00    -0.550 OA
ENDBRANCH   9  10
ENDBRANCH   8   9
ENDBRANCH   7   8
ENDBRANCH   6   7
ENDBRANCH   5   6
ENDBRANCH   4   5
ENDBRANCH   3   4
ENDBRANCH   1   3
BRANCH   2  13
ATOM     13  C   UNL     1     -11.927  -8.963  12.392  1.00  0.00     0.027 C 
BRANCH  13  14
ATOM     14  C   UNL     1     -12.419  -8.161  11.177  1.00  0.00     0.004 C 
BRANCH  14  15
ATOM     15  C   UNL     1     -11.411  -7.107  10.679  1.00  0.00     0.000 C 
BRANCH  15  16
ATOM     16  C   UNL     1     -11.473  -5.775  11.452  1.00  0.00     0.000 C 
BRANCH  16  17
ATOM     17  C   UNL     1     -10.440  -5.710  12.592  1.00  0.00    -0.000 C 
BRANCH  17  18
ATOM     18  C   UNL     1     -10.966  -4.957  13.824  1.00  0.00    -0.000 C 
BRANCH  18  19
ATOM     19  C   UNL     1     -12.470  -4.652  13.729  1.00  0.00    -0.003 C 
ATOM     20  C   UNL     1     -12.825  -3.393  14.515  1.00  0.00     0.004 C 
ENDBRANCH  18  19
ENDBRANCH  17  18
ENDBRANCH  16  17
ENDBRANCH  15  16
ENDBRANCH  14  15
ENDBRANCH  13  14
ENDBRANCH   2  13
TORSDOF 15
ENDMDL
MODEL 4
REMARK VINA RESULT:    -3.957      1.599      7.272
REMARK INTER + INTRA:          -9.425
REMARK INTER:                  -7.580
REMARK INTRA:                  -1.844
REMARK UNBOUND:                -1.997
REMARK SMILES CCCCCCCCC=CCCCCCCCC(=O)[O-]
REMARK SMILES IDX 10 1 9 2 11 3 12 4 13 5 14 6 15 7 16 8 17 9 18 10 19 11
REMARK SMILES IDX 20 12 8 13 7 14 6 15 5 16 4 17 3 18 2 19 1 20
REMARK H PARENT
REMARK Flexibility Score: inf
ROOT
ATOM      1  C   UNL     1     -10.538  -7.677  16.162  1.00  0.00    -0.031 C 
ATOM      2  C   UNL     1     -11.287  -7.593  15.046  1.00  0.00    -0.031 C 
ENDROOT
BRANCH   1   3
ATOM      3  C   UNL     1     -10.663  -8.735  17.231  1.00  0.00     0.027 C 
BRANCH   3   4
ATOM      4  C   UNL     1     -11.647  -8.315  18.332  1.00  0.00     0.004 C 
BRANCH   4   5
ATOM      5  C   UNL     1     -11.256  -8.878  19.709  1.00  0.00     0.000 C 
BRANCH   5   6
ATOM      6  C   UNL     1      -9.820  -8.504  20.111  1.00  0.00     0.000 C 
BRANCH   6   7
ATOM      7  C   UNL     1      -9.775  -7.357  21.134  1.00  0.00     0.000 C 
BRANCH   7   8
ATOM      8  C   UNL     1      -9.009  -6.124  20.621  1.00  0.00     0.006 C 
BRANCH   8   9
ATOM      9  C   UNL     1      -9.850  -5.194  19.729  1.00  0.00     0.053 C 
BRANCH   9  10
ATOM     10  C   UNL     1      -9.282  -5.042  18.352  1.00  0.00     0.041 C 
ATOM     11  O   UNL     1      -9.826  -4.265  17.522  1.00  0.00    -0.550 OA
ATOM     12  O   UNL     1      -8.137  -5.741  17.991  1.00  0.00    -0.550 OA
ENDBRANCH   9  10
ENDBRANCH   8   9
ENDBRANCH   7   8
ENDBRANCH   6   7
ENDBRANCH   5   6
ENDBRANCH   4   5
ENDBRANCH   3   4
ENDBRANCH   1   3
BRANCH   2  13
ATOM     13  C   UNL     1     -12.421  -8.520  14.673  1.00  0.00     0.027 C 
BRANCH  13  14
ATOM     14  C   UNL     1     -12.697  -8.500  13.162  1.00  0.00     0.004 C 
BRANCH  14  15
ATOM     15  C   UNL     1     -11.437  -8.272  12.303  1.00  0.00     0.000 C 
BRANCH  15  16
ATOM     16  C   UNL     1     -11.722  -8.203  10.790  1.00  0.00     0.000 C 
BRANCH  16  17
ATOM     17  C   UNL     1     -12.622  -7.011  10.417  1.00  0.00    -0.000 C 
BRANCH  17  18
ATOM     18  C   UNL     1     -12.084  -5.675  10.954  1.00  0.00    -0.000 C 
BRANCH  18  19
ATOM     19  C   UNL     1     -13.120  -4.922  11.803  1.00  0.00    -0.003 C 
ATOM     20  C   UNL     1     -12.662  -4.809  13.255  1.00  0.00     0.004 C 
ENDBRANCH  18  19
ENDBRANCH  17  18
ENDBRANCH  16  17
ENDBRANCH  15  16
ENDBRANCH  14  15
ENDBRANCH  13  14
ENDBRANCH   2  13
TORSDOF 15
ENDMDL
MODEL 5
REMARK VINA RESULT:    -3.954      2.200      5.492
REMARK INTER + INTRA:          -9.419
REMARK INTER:                  -7.074
REMARK INTRA:                  -2.345
REMARK UNBOUND:                -1.997
REMARK SMILES CCCCCCCCC=CCCCCCCCC(=O)[O-]
REMARK SMILES IDX 10 1 9 2 11 3 12 4 13 5 14 6 15 7 16 8 17 9 18 10 19 11
REMARK SMILES IDX 20 12 8 13 7 14 6 15 5 16 4 17 3 18 2 19 1 20
REMARK H PARENT
REMARK Flexibility Score: inf
ROOT
ATOM      1  C   UNL     1     -10.878  -5.710  10.970  1.00  0.00    -0.031 C 
ATOM      2  C   UNL     1     -10.083  -6.790  11.105  1.00  0.00    -0.031 C 
ENDROOT
BRANCH   1   3
ATOM      3  C   UNL     1     -12.377  -5.734  10.799  1.00  0.00     0.027 C 
BRANCH   3   4
ATOM      4  C   UNL     1     -13.080  -4.855  11.842  1.00  0.00     0.004 C 
BRANCH   4   5
ATOM      5  C   UNL     1     -12.506  -5.054  13.255  1.00  0.00     0.000 C 
BRANCH   5   6
ATOM      6  C   UNL     1     -12.748  -3.839  14.165  1.00  0.00     0.000 C 
BRANCH   6   7
ATOM      7  C   UNL     1     -11.511  -3.477  15.004  1.00  0.00     0.000 C 
BRANCH   7   8
ATOM      8  C   UNL     1     -10.688  -4.709  15.425  1.00  0.00     0.006 C 
BRANCH   8   9
ATOM      9  C   UNL     1     -10.221  -4.675  16.891  1.00  0.00     0.053 C 
BRANCH   9  10
ATOM     10  C   UNL     1      -8.729  -4.682  17.023  1.00  0.00     0.041 C 
ATOM     11  O   UNL     1      -8.057  -3.668  16.695  1.00  0.00    -0.550 OA
ATOM     12  O   UNL     1      -8.081  -5.802  17.529  1.00  0.00    -0.550 OA
ENDBRANCH   9  10
ENDBRANCH   8   9
ENDBRANCH   7   8
ENDBRANCH   6   7
ENDBRANCH   5   6
ENDBRANCH   4   5
ENDBRANCH   3   4
ENDBRANCH   1   3
BRANCH   2  13
ATOM     13  C   UNL     1     -10.539  -8.229  11.068  1.00  0.00     0.027 C 
BRANCH  13  14
ATOM     14  C   UNL     1     -10.845  -8.764  12.476  1.00  0.00     0.004 C 
BRANCH  14  15
ATOM     15  C   UNL     1     -12.349  -8.799  12.815  1.00  0.00     0.000 C 
BRANCH  15  16
ATOM     16  C   UNL     1     -12.665  -8.415  14.273  1.00  0.00     0.000 C 
BRANCH  16  17
ATOM     17  C   UNL     1     -11.394  -8.135  15.095  1.00  0.00    -0.000 C 
BRANCH  17  18
ATOM     18  C   UNL     1     -11.604  -8.355  16.602  1.00  0.00    -0.000 C 
BRANCH  18  19
ATOM     19  C   UNL     1     -10.279  -8.455  17.373  1.00  0.00    -0.003 C 
ATOM     20  C   UNL     1     -10.457  -8.030  18.828  1.00  0.00     0.004 C 
ENDBRANCH  18  19
ENDBRANCH  17  18
ENDBRANCH  16  17
ENDBRANCH  15  16
ENDBRANCH  14  15
ENDBRANCH  13  14
ENDBRANCH   2  13
TORSDOF 15
ENDMDL
MODEL 6
REMARK VINA RESULT:    -3.945      2.830      7.274
REMARK INTER + INTRA:          -9.401
REMARK INTER:                  -6.893
REMARK INTRA:                  -2.508
REMARK UNBOUND:                -1.997
REMARK SMILES CCCCCCCCC=CCCCCCCCC(=O)[O-]
REMARK SMILES IDX 10 1 9 2 11 3 12 4 13 5 14 6 15 7 16 8 17 9 18 10 19 11
REMARK SMILES IDX 20 12 8 13 7 14 6 15 5 16 4 17 3 18 2 19 1 20
REMARK H PARENT
REMARK Flexibility Score: inf
ROOT
ATOM      1  C   UNL     1      -8.958  -5.998  14.132  1.00  0.00    -0.031 C 
ATOM      2  C   UNL     1      -9.991  -5.142  14.017  1.00  0.00    -0.031 C 
ENDROOT
BRANCH   1   3
ATOM      3  C   UNL     1      -9.063  -7.466  14.467  1.00  0.00     0.027 C 
BRANCH   3   4
ATOM      4  C   UNL     1      -8.918  -7.715  15.975  1.00  0.00     0.004 C 
BRANCH   4   5
ATOM      5  C   UNL     1      -9.899  -8.784  16.485  1.00  0.00     0.000 C 
BRANCH   5   6
ATOM      6  C   UNL     1     -11.292  -8.209  16.786  1.00  0.00     0.000 C 
BRANCH   6   7
ATOM      7  C   UNL     1     -11.488  -7.891  18.279  1.00  0.00     0.000 C 
BRANCH   7   8
ATOM      8  C   UNL     1     -11.215  -9.101  19.192  1.00  0.00     0.006 C 
BRANCH   8   9
ATOM      9  C   UNL     1     -10.859  -8.722  20.639  1.00  0.00     0.053 C 
BRANCH   9  10
ATOM     10  C   UNL     1      -9.617  -7.890  20.731  1.00  0.00     0.041 C 
ATOM     11  O   UNL     1      -8.495  -8.390  20.450  1.00  0.00    -0.550 OA
ATOM     12  O   UNL     1      -9.700  -6.554  21.105  1.00  0.00    -0.550 OA
ENDBRANCH   9  10
ENDBRANCH   8   9
ENDBRANCH   7   8
ENDBRANCH   6   7
ENDBRANCH   5   6
ENDBRANCH   4   5
ENDBRANCH   3   4
ENDBRANCH   1   3
BRANCH   2  13
ATOM     13  C   UNL     1     -11.446  -5.481  14.240  1.00  0.00     0.027 C 
BRANCH  13  14
ATOM     14  C   UNL     1     -12.234  -5.499  12.920  1.00  0.00     0.004 C 
BRANCH  14  15
ATOM     15  C   UNL     1     -13.011  -6.808  12.679  1.00  0.00     0.000 C 
BRANCH  15  16
ATOM     16  C   UNL     1     -12.372  -8.041  13.347  1.00  0.00     0.000 C 
BRANCH  16  17
ATOM     17  C   UNL     1     -11.954  -9.112  12.323  1.00  0.00    -0.000 C 
BRANCH  17  18
ATOM     18  C   UNL     1     -11.528  -8.506  10.976  1.00  0.00    -0.000 C 
BRANCH  18  19
ATOM     19  C   UNL     1     -10.046  -8.100  10.955  1.00  0.00    -0.003 C 
ATOM     20  C   UNL     1      -9.871  -6.692  10.392  1.00  0.00     0.004 C 
ENDBRANCH  18  19
ENDBRANCH  17  18
ENDBRANCH  16  17
ENDBRANCH  15  16
ENDBRANCH  14  15
ENDBRANCH  13  14
ENDBRANCH   2  13
TORSDOF 15
ENDMDL
MODEL 7
REMARK VINA RESULT:    -3.930      2.569      5.760
REMARK INTER + INTRA:          -9.373
REMARK INTER:                  -6.620
REMARK INTRA:                  -2.753
REMARK UNBOUND:                -1.997
REMARK SMILES CCCCCCCCC=CCCCCCCCC(=O)[O-]
REMARK SMILES IDX 10 1 9 2 11 3 12 4 13 5 14 6 15 7 16 8 17 9 18 10 19 11
REMARK SMILES IDX 20 12 8 13 7 14 6 15 5 16 4 17 3 18 2 19 1 20
REMARK H PARENT
REMARK Flexibility Score: inf
ROOT
ATOM      1  C   UNL     1     -12.041  -5.769  11.134  1.00  0.00    -0.031 C 
ATOM      2  C   UNL     1     -12.740  -4.986  11.978  1.00  0.00    -0.031 C 
ENDROOT
BRANCH   1   3
ATOM      3  C   UNL     1     -11.166  -6.932  11.532  1.00  0.00     0.027 C 
BRANCH   3   4
ATOM      4  C   UNL     1     -11.912  -8.269  11.413  1.00  0.00     0.004 C 
BRANCH   4   5
ATOM      5  C   UNL     1     -12.267  -8.862  12.787  1.00  0.00     0.000 C 
BRANCH   5   6
ATOM      6  C   UNL     1     -11.324  -8.375  13.900  1.00  0.00     0.000 C 
BRANCH   6   7
ATOM      7  C   UNL     1     -11.998  -8.374  15.282  1.00  0.00     0.000 C 
BRANCH   7   8
ATOM      8  C   UNL     1     -10.987  -8.357  16.444  1.00  0.00     0.006 C 
BRANCH   8   9
ATOM      9  C   UNL     1     -11.626  -8.119  17.823  1.00  0.00     0.053 C 
BRANCH   9  10
ATOM     10  C   UNL     1     -10.658  -7.563  18.822  1.00  0.00     0.041 C 
ATOM     11  O   UNL     1     -10.499  -6.318  18.928  1.00  0.00    -0.550 OA
ATOM     12  O   UNL     1      -9.946  -8.420  19.652  1.00  0.00    -0.550 OA
ENDBRANCH   9  10
ENDBRANCH   8   9
ENDBRANCH   7   8
ENDBRANCH   6   7
ENDBRANCH   5   6
ENDBRANCH   4   5
ENDBRANCH   3   4
ENDBRANCH   1   3
BRANCH   2  13
ATOM     13  C   UNL     1     -12.749  -5.100  13.484  1.00  0.00     0.027 C 
BRANCH  13  14
ATOM     14  C   UNL     1     -12.682  -3.721  14.159  1.00  0.00     0.004 C 
BRANCH  14  15
ATOM     15  C   UNL     1     -11.409  -3.502  15.001  1.00  0.00     0.000 C 
BRANCH  15  16
ATOM     16  C   UNL     1     -10.941  -4.761  15.755  1.00  0.00     0.000 C 
BRANCH  16  17
ATOM     17  C   UNL     1      -9.421  -4.981  15.642  1.00  0.00    -0.000 C 
BRANCH  17  18
ATOM     18  C   UNL     1      -8.998  -5.475  14.250  1.00  0.00    -0.000 C 
BRANCH  18  19
ATOM     19  C   UNL     1      -7.901  -6.550  14.314  1.00  0.00    -0.003 C 
ATOM     20  C   UNL     1      -7.939  -7.447  13.080  1.00  0.00     0.004 C 
ENDBRANCH  18  19
ENDBRANCH  17  18
ENDBRANCH  16  17
ENDBRANCH  15  16
ENDBRANCH  14  15
ENDBRANCH  13  14
ENDBRANCH   2  13
TORSDOF 15
ENDMDL
MODEL 8
REMARK VINA RESULT:    -3.905      1.831      2.685
REMARK INTER + INTRA:          -9.326
REMARK INTER:                  -6.765
REMARK INTRA:                  -2.560
REMARK UNBOUND:                -1.997
REMARK SMILES CCCCCCCCC=CCCCCCCCC(=O)[O-]
REMARK SMILES IDX 10 1 9 2 11 3 12 4 13 5 14 6 15 7 16 8 17 9 18 10 19 11
REMARK SMILES IDX 20 12 8 13 7 14 6 15 5 16 4 17 3 18 2 19 1 20
REMARK H PARENT
REMARK Flexibility Score: inf
ROOT
ATOM      1  C   UNL     1     -11.348  -8.038  17.199  1.00  0.00    -0.031 C 
ATOM      2  C   UNL     1     -11.727  -8.187  18.483  1.00  0.00    -0.031 C 
ENDROOT
BRANCH   1   3
ATOM      3  C   UNL     1     -10.231  -8.789  16.516  1.00  0.00     0.027 C 
BRANCH   3   4
ATOM      4  C   UNL     1      -9.953  -8.236  15.111  1.00  0.00     0.004 C 
BRANCH   4   5
ATOM      5  C   UNL     1     -11.183  -7.542  14.504  1.00  0.00     0.000 C 
BRANCH   5   6
ATOM      6  C   UNL     1     -11.964  -8.460  13.549  1.00  0.00     0.000 C 
BRANCH   6   7
ATOM      7  C   UNL     1     -12.949  -7.682  12.660  1.00  0.00     0.000 C 
BRANCH   7   8
ATOM      8  C   UNL     1     -12.759  -6.155  12.745  1.00  0.00     0.006 C 
BRANCH   8   9
ATOM      9  C   UNL     1     -12.344  -5.504  11.415  1.00  0.00     0.053 C 
BRANCH   9  10
ATOM     10  C   UNL     1     -10.994  -5.952  10.947  1.00  0.00     0.041 C 
ATOM     11  O   UNL     1      -9.965  -5.676  11.619  1.00  0.00    -0.550 OA
ATOM     12  O   UNL     1     -10.873  -6.694   9.779  1.00  0.00    -0.550 OA
ENDBRANCH   9  10
ENDBRANCH   8   9
ENDBRANCH   7   8
ENDBRANCH   6   7
ENDBRANCH   5   6
ENDBRANCH   4   5
ENDBRANCH   3   4
ENDBRANCH   1   3
BRANCH   2  13
ATOM     13  C   UNL     1     -11.079  -9.106  19.492  1.00  0.00     0.027 C 
BRANCH  13  14
ATOM     14  C   UNL     1     -10.151  -8.337  20.445  1.00  0.00     0.004 C 
BRANCH  14  15
ATOM     15  C   UNL     1      -8.678  -8.308  19.990  1.00  0.00     0.000 C 
BRANCH  15  16
ATOM     16  C   UNL     1      -8.180  -6.906  19.590  1.00  0.00     0.000 C 
BRANCH  16  17
ATOM     17  C   UNL     1      -7.589  -6.876  18.169  1.00  0.00    -0.000 C 
BRANCH  17  18
ATOM     18  C   UNL     1      -8.142  -5.719  17.323  1.00  0.00    -0.000 C 
BRANCH  18  19
ATOM     19  C   UNL     1      -9.421  -5.111  17.922  1.00  0.00    -0.003 C 
ATOM     20  C   UNL     1     -10.347  -4.591  16.826  1.00  0.00     0.004 C 
ENDBRANCH  18  19
ENDBRANCH  17  18
ENDBRANCH  16  17
ENDBRANCH  15  16
ENDBRANCH  14  15
ENDBRANCH  13  14
ENDBRANCH   2  13
TORSDOF 15
ENDMDL
MODEL 9
REMARK VINA RESULT:    -3.903     12.228     14.514
REMARK INTER + INTRA:          -9.323
REMARK INTER:                  -6.878
REMARK INTRA:                  -2.445
REMARK UNBOUND:                -1.997
REMARK SMILES CCCCCCCCC=CCCCCCCCC(=O)[O-]
REMARK SMILES IDX 10 1 9 2 11 3 12 4 13 5 14 6 15 7 16 8 17 9 18 10 19 11
REMARK SMILES IDX 20 12 8 13 7 14 6 15 5 16 4 17 3 18 2 19 1 20
REMARK H PARENT
REMARK Flexibility Score: inf
ROOT
ATOM      1  C   UNL     1      -0.891   0.315  15.980  1.00  0.00    -0.031 C 
ATOM      2  C   UNL     1      -0.013   0.869  15.122  1.00  0.00    -0.031 C 
ENDROOT
BRANCH   1   3
ATOM      3  C   UNL     1      -0.573  -0.177  17.371  1.00  0.00     0.027 C 
BRANCH   3   4
ATOM      4  C   UNL     1      -1.216   0.709  18.447  1.00  0.00     0.004 C 
BRANCH   4   5
ATOM      5  C   UNL     1      -2.723   0.910  18.212  1.00  0.00     0.000 C 
BRANCH   5   6
ATOM      6  C   UNL     1      -3.308   2.036  19.080  1.00  0.00     0.000 C 
BRANCH   6   7
ATOM      7  C   UNL     1      -4.768   2.359  18.718  1.00  0.00     0.000 C 
BRANCH   7   8
ATOM      8  C   UNL     1      -5.614   2.764  19.940  1.00  0.00     0.006 C 
BRANCH   8   9
ATOM      9  C   UNL     1      -5.184   2.080  21.250  1.00  0.00     0.053 C 
BRANCH   9  10
ATOM     10  C   UNL     1      -4.803   3.060  22.316  1.00  0.00     0.041 C 
ATOM     11  O   UNL     1      -3.645   3.557  22.339  1.00  0.00    -0.550 OA
ATOM     12  O   UNL     1      -5.734   3.443  23.274  1.00  0.00    -0.550 OA
ENDBRANCH   9  10
ENDBRANCH   8   9
ENDBRANCH   7   8
ENDBRANCH   6   7
ENDBRANCH   5   6
ENDBRANCH   4   5
ENDBRANCH   3   4
ENDBRANCH   1   3
BRANCH   2  13
ATOM     13  C   UNL     1       1.464   1.065  15.375  1.00  0.00     0.027 C 
BRANCH  13  14
ATOM     14  C   UNL     1       1.836   2.554  15.442  1.00  0.00     0.004 C 
BRANCH  14  15
ATOM     15  C   UNL     1       1.290   3.276  16.691  1.00  0.00     0.000 C 
BRANCH  15  16
ATOM     16  C   UNL     1       0.262   4.378  16.370  1.00  0.00     0.000 C 
BRANCH  16  17
ATOM     17  C   UNL     1      -1.101   4.121  17.038  1.00  0.00    -0.000 C 
BRANCH  17  18
ATOM     18  C   UNL     1      -2.221   3.873  16.015  1.00  0.00    -0.000 C 
BRANCH  18  19
ATOM     19  C   UNL     1      -1.815   4.274  14.588  1.00  0.00    -0.003 C 
ATOM     20  C   UNL     1      -2.727   5.372  14.046  1.00  0.00     0.004 C 
ENDBRANCH  18  19
ENDBRANCH  17  18
ENDBRANCH  16  17
ENDBRANCH  15  16
ENDBRANCH  14  15
ENDBRANCH  13  14
ENDBRANCH   2  13
TORSDOF 15
ENDMDL
