MODEL 1
REMARK VINA RESULT:    -4.027      0.000      0.000
REMARK INTER + INTRA:          -4.145
REMARK INTER:                  -4.145
REMARK INTRA:                   0.000
REMARK UNBOUND:                 0.000
REMARK SMILES Nc1ncnc2nc[nH]c12
REMARK SMILES IDX 8 1 7 2 6 3 5 4 4 5 3 6 2 7 10 8 9 9 1 11
REMARK H PARENT 9 10 1 12 1 13
REMARK Flexibility Score: inf
ROOT
ATOM      1  C   UNL     1      16.625  35.125  27.060  1.00  0.00     0.199 A 
ATOM      2  N   UNL     1      17.147  34.042  27.699  1.00  0.00    -0.217 NA
ATOM      3  C   UNL     1      16.520  33.022  27.091  1.00  0.00     0.182 A 
ATOM      4  N   UNL     1      16.680  31.703  27.355  1.00  0.00    -0.215 NA
ATOM      5  C   UNL     1      15.949  30.806  26.627  1.00  0.00     0.226 A 
ATOM      6  N   UNL     1      15.080  31.240  25.657  1.00  0.00    -0.217 NA
ATOM      7  C   UNL     1      14.918  32.570  25.390  1.00  0.00     0.152 A 
ATOM      8  C   UNL     1      15.668  33.471  26.140  1.00  0.00     0.127 A 
ATOM      9  N   UNL     1      15.717  34.808  26.102  1.00  0.00    -0.340 N 
ATOM     10  H   UNL     1      15.189  35.463  25.485  1.00  0.00     0.168 HD
ENDROOT
BRANCH   7  11
ATOM     11  N   UNL     1      14.007  32.999  24.376  1.00  0.00    -0.382 N 
ATOM     12  H   UNL     1      13.852  32.436  23.512  1.00  0.00     0.158 HD
ATOM     13  H   UNL     1      13.480  33.892  24.492  1.00  0.00     0.158 HD
ENDBRANCH   7  11
TORSDOF 1
ENDMDL
MODEL 2
REMARK VINA RESULT:    -3.983      4.725      6.402
REMARK INTER + INTRA:          -4.099
REMARK INTER:                  -4.099
REMARK INTRA:                   0.000
REMARK UNBOUND:                 0.000
REMARK SMILES Nc1ncnc2nc[nH]c12
REMARK SMILES IDX 8 1 7 2 6 3 5 4 4 5 3 6 2 7 10 8 9 9 1 11
REMARK H PARENT 9 10 1 12 1 13
REMARK Flexibility Score: inf
ROOT
ATOM      1  C   UNL     1      17.357  29.711  27.887  1.00  0.00     0.199 A 
ATOM      2  N   UNL     1      17.868  29.860  29.140  1.00  0.00    -0.217 NA
ATOM      3  C   UNL     1      19.060  29.249  29.037  1.00  0.00     0.182 A 
ATOM      4  N   UNL     1      19.984  29.112  30.017  1.00  0.00    -0.215 NA
ATOM      5  C   UNL     1      21.146  28.455  29.720  1.00  0.00     0.226 A 
ATOM      6  N   UNL     1      21.360  27.953  28.461  1.00  0.00    -0.217 NA
ATOM      7  C   UNL     1      20.428  28.091  27.471  1.00  0.00     0.152 A 
ATOM      8  C   UNL     1      19.251  28.762  27.789  1.00  0.00     0.127 A 
ATOM      9  N   UNL     1      18.179  29.043  27.038  1.00  0.00    -0.340 N 
ATOM     10  H   UNL     1      18.005  28.810  26.036  1.00  0.00     0.168 HD
ENDROOT
BRANCH   7  11
ATOM     11  N   UNL     1      20.673  27.560  26.168  1.00  0.00    -0.382 N 
ATOM     12  H   UNL     1      21.615  27.205  25.894  1.00  0.00     0.158 HD
ATOM     13  H   UNL     1      19.901  27.521  25.467  1.00  0.00     0.158 HD
ENDBRANCH   7  11
TORSDOF 1
ENDMDL
MODEL 3
REMARK VINA RESULT:    -3.975      8.583      9.917
REMARK INTER + INTRA:          -4.091
REMARK INTER:                  -4.091
REMARK INTRA:                   0.000
REMARK UNBOUND:                 0.000
REMARK SMILES Nc1ncnc2nc[nH]c12
REMARK SMILES IDX 8 1 7 2 6 3 5 4 4 5 3 6 2 7 10 8 9 9 1 11
REMARK H PARENT 9 10 1 12 1 13
REMARK Flexibility Score: inf
ROOT
ATOM      1  C   UNL     1      14.263  29.491  17.700  1.00  0.00     0.199 A 
ATOM      2  N   UNL     1      14.995  29.756  16.584  1.00  0.00    -0.217 NA
ATOM      3  C   UNL     1      16.241  29.447  16.979  1.00  0.00     0.182 A 
ATOM      4  N   UNL     1      17.369  29.532  16.235  1.00  0.00    -0.215 NA
ATOM      5  C   UNL     1      18.553  29.172  16.815  1.00  0.00     0.226 A 
ATOM      6  N   UNL     1      18.588  28.737  18.117  1.00  0.00    -0.217 NA
ATOM      7  C   UNL     1      17.450  28.651  18.868  1.00  0.00     0.152 A 
ATOM      8  C   UNL     1      16.252  29.022  18.264  1.00  0.00     0.127 A 
ATOM      9  N   UNL     1      15.003  29.041  18.745  1.00  0.00    -0.340 N 
ATOM     10  H   UNL     1      14.666  28.775  19.695  1.00  0.00     0.168 HD
ENDROOT
BRANCH   7  11
ATOM     11  N   UNL     1      17.510  28.196  20.221  1.00  0.00    -0.382 N 
ATOM     12  H   UNL     1      16.761  28.432  20.907  1.00  0.00     0.158 HD
ATOM     13  H   UNL     1      18.315  27.614  20.541  1.00  0.00     0.158 HD
ENDBRANCH   7  11
TORSDOF 1
ENDMDL
MODEL 4
REMARK VINA RESULT:    -3.938      5.693      7.073
REMARK INTER + INTRA:          -4.053
REMARK INTER:                  -4.053
REMARK INTRA:                   0.000
REMARK UNBOUND:                 0.000
REMARK SMILES Nc1ncnc2nc[nH]c12
REMARK SMILES IDX 8 1 7 2 6 3 5 4 4 5 3 6 2 7 10 8 9 9 1 11
REMARK H PARENT 9 10 1 12 1 13
REMARK Flexibility Score: inf
ROOT
ATOM      1  C   UNL     1      20.939  28.714  30.236  1.00  0.00     0.199 A 
ATOM      2  N   UNL     1      19.646  29.108  30.076  1.00  0.00    -0.217 NA
ATOM      3  C   UNL     1      19.327  28.567  28.888  1.00  0.00     0.182 A 
ATOM      4  N   UNL     1      18.135  28.660  28.253  1.00  0.00    -0.215 NA
ATOM      5  C   UNL     1      17.999  28.038  27.043  1.00  0.00     0.226 A 
ATOM      6  N   UNL     1      19.047  27.341  26.497  1.00  0.00    -0.217 NA
ATOM      7  C   UNL     1      20.251  27.247  27.137  1.00  0.00     0.152 A 
ATOM      8  C   UNL     1      20.374  27.886  28.367  1.00  0.00     0.127 A 
ATOM      9  N   UNL     1      21.413  27.965  29.208  1.00  0.00    -0.340 N 
ATOM     10  H   UNL     1      22.366  27.553  29.108  1.00  0.00     0.168 HD
ENDROOT
BRANCH   7  11
ATOM     11  N   UNL     1      21.328  26.516  26.549  1.00  0.00    -0.382 N 
ATOM     12  H   UNL     1      22.322  26.758  26.750  1.00  0.00     0.158 HD
ATOM     13  H   UNL     1      21.128  25.722  25.902  1.00  0.00     0.158 HD
ENDBRANCH   7  11
TORSDOF 1
ENDMDL
MODEL 5
REMARK VINA RESULT:    -3.853      9.012     10.538
REMARK INTER + INTRA:          -3.965
REMARK INTER:                  -3.965
REMARK INTRA:                   0.000
REMARK UNBOUND:                 0.000
REMARK SMILES Nc1ncnc2nc[nH]c12
REMARK SMILES IDX 8 1 7 2 6 3 5 4 4 5 3 6 2 7 10 8 9 9 1 11
REMARK H PARENT 9 10 1 12 1 13
REMARK Flexibility Score: inf
ROOT
ATOM      1  C   UNL     1      14.785  26.555  17.615  1.00  0.00     0.199 A 
ATOM      2  N   UNL     1      15.456  26.927  16.491  1.00  0.00    -0.217 NA
ATOM      3  C   UNL     1      16.504  27.600  16.993  1.00  0.00     0.182 A 
ATOM      4  N   UNL     1      17.498  28.189  16.287  1.00  0.00    -0.215 NA
ATOM      5  C   UNL     1      18.487  28.832  16.980  1.00  0.00     0.226 A 
ATOM      6  N   UNL     1      18.464  28.872  18.352  1.00  0.00    -0.217 NA
ATOM      7  C   UNL     1      17.461  28.277  19.064  1.00  0.00     0.152 A 
ATOM      8  C   UNL     1      16.462  27.628  18.345  1.00  0.00     0.127 A 
ATOM      9  N   UNL     1      15.374  26.969  18.765  1.00  0.00    -0.340 N 
ATOM     10  H   UNL     1      15.048  26.805  19.742  1.00  0.00     0.168 HD
ENDROOT
BRANCH   7  11
ATOM     11  N   UNL     1      17.457  28.332  20.492  1.00  0.00    -0.382 N 
ATOM     12  H   UNL     1      17.563  29.236  21.001  1.00  0.00     0.158 HD
ATOM     13  H   UNL     1      17.347  27.456  21.048  1.00  0.00     0.158 HD
ENDBRANCH   7  11
TORSDOF 1
ENDMDL
MODEL 6
REMARK VINA RESULT:    -3.824      7.357      7.913
REMARK INTER + INTRA:          -3.936
REMARK INTER:                  -3.936
REMARK INTRA:                   0.000
REMARK UNBOUND:                 0.000
REMARK SMILES Nc1ncnc2nc[nH]c12
REMARK SMILES IDX 8 1 7 2 6 3 5 4 4 5 3 6 2 7 10 8 9 9 1 11
REMARK H PARENT 9 10 1 12 1 13
REMARK Flexibility Score: inf
ROOT
ATOM      1  C   UNL     1      17.268  25.521  27.598  1.00  0.00     0.199 A 
ATOM      2  N   UNL     1      17.478  25.752  28.923  1.00  0.00    -0.217 NA
ATOM      3  C   UNL     1      18.621  26.457  28.913  1.00  0.00     0.182 A 
ATOM      4  N   UNL     1      19.277  26.946  29.992  1.00  0.00    -0.215 NA
ATOM      5  C   UNL     1      20.434  27.644  29.781  1.00  0.00     0.226 A 
ATOM      6  N   UNL     1      20.908  27.839  28.507  1.00  0.00    -0.217 NA
ATOM      7  C   UNL     1      20.245  27.346  27.418  1.00  0.00     0.152 A 
ATOM      8  C   UNL     1      19.070  26.637  27.650  1.00  0.00     0.127 A 
ATOM      9  N   UNL     1      18.225  26.049  26.794  1.00  0.00    -0.340 N 
ATOM     10  H   UNL     1      18.278  26.002  25.753  1.00  0.00     0.168 HD
ENDROOT
BRANCH   7  11
ATOM     11  N   UNL     1      20.758  27.561  26.102  1.00  0.00    -0.382 N 
ATOM     12  H   UNL     1      20.148  27.472  25.261  1.00  0.00     0.158 HD
ATOM     13  H   UNL     1      21.762  27.812  25.968  1.00  0.00     0.158 HD
ENDBRANCH   7  11
TORSDOF 1
ENDMDL
MODEL 7
REMARK VINA RESULT:    -3.824     15.967     16.757
REMARK INTER + INTRA:          -3.935
REMARK INTER:                  -3.935
REMARK INTRA:                   0.000
REMARK UNBOUND:                 0.000
REMARK SMILES Nc1ncnc2nc[nH]c12
REMARK SMILES IDX 8 1 7 2 6 3 5 4 4 5 3 6 2 7 10 8 9 9 1 11
REMARK H PARENT 9 10 1 12 1 13
REMARK Flexibility Score: inf
ROOT
ATOM      1  C   UNL     1      25.189  25.991  13.618  1.00  0.00     0.199 A 
ATOM      2  N   UNL     1      25.260  27.349  13.556  1.00  0.00    -0.217 NA
ATOM      3  C   UNL     1      25.995  27.646  14.641  1.00  0.00     0.182 A 
ATOM      4  N   UNL     1      26.366  28.882  15.051  1.00  0.00    -0.215 NA
ATOM      5  C   UNL     1      27.119  28.985  16.188  1.00  0.00     0.226 A 
ATOM      6  N   UNL     1      27.485  27.861  16.886  1.00  0.00    -0.217 NA
ATOM      7  C   UNL     1      27.111  26.614  16.472  1.00  0.00     0.152 A 
ATOM      8  C   UNL     1      26.344  26.525  15.314  1.00  0.00     0.127 A 
ATOM      9  N   UNL     1      25.842  25.458  14.681  1.00  0.00    -0.340 N 
ATOM     10  H   UNL     1      25.926  24.449  14.935  1.00  0.00     0.168 HD
ENDROOT
BRANCH   7  11
ATOM     11  N   UNL     1      27.503  25.458  17.214  1.00  0.00    -0.382 N 
ATOM     12  H   UNL     1      28.257  24.823  16.874  1.00  0.00     0.158 HD
ATOM     13  H   UNL     1      27.032  25.234  18.119  1.00  0.00     0.158 HD
ENDBRANCH   7  11
TORSDOF 1
ENDMDL
MODEL 8
REMARK VINA RESULT:    -3.818      9.327     10.625
REMARK INTER + INTRA:          -3.930
REMARK INTER:                  -3.930
REMARK INTRA:                   0.000
REMARK UNBOUND:                 0.000
REMARK SMILES Nc1ncnc2nc[nH]c12
REMARK SMILES IDX 8 1 7 2 6 3 5 4 4 5 3 6 2 7 10 8 9 9 1 11
REMARK H PARENT 9 10 1 12 1 13
REMARK Flexibility Score: inf
ROOT
ATOM      1  C   UNL     1      15.064  28.227  18.861  1.00  0.00     0.199 A 
ATOM      2  N   UNL     1      14.967  27.480  17.728  1.00  0.00    -0.217 NA
ATOM      3  C   UNL     1      16.216  27.540  17.238  1.00  0.00     0.182 A 
ATOM      4  N   UNL     1      16.667  26.954  16.103  1.00  0.00    -0.215 NA
ATOM      5  C   UNL     1      17.980  27.131  15.765  1.00  0.00     0.226 A 
ATOM      6  N   UNL     1      18.810  27.882  16.560  1.00  0.00    -0.217 NA
ATOM      7  C   UNL     1      18.355  28.472  17.705  1.00  0.00     0.152 A 
ATOM      8  C   UNL     1      17.017  28.285  18.035  1.00  0.00     0.127 A 
ATOM      9  N   UNL     1      16.305  28.734  19.077  1.00  0.00    -0.340 N 
ATOM     10  H   UNL     1      16.619  29.331  19.872  1.00  0.00     0.168 HD
ENDROOT
BRANCH   7  11
ATOM     11  N   UNL     1      19.237  29.250  18.517  1.00  0.00    -0.382 N 
ATOM     12  H   UNL     1      19.205  29.198  19.558  1.00  0.00     0.158 HD
ATOM     13  H   UNL     1      19.932  29.887  18.069  1.00  0.00     0.158 HD
ENDBRANCH   7  11
TORSDOF 1
ENDMDL
MODEL 9
REMARK VINA RESULT:    -3.743      1.258      3.125
REMARK INTER + INTRA:          -3.852
REMARK INTER:                  -3.852
REMARK INTRA:                   0.000
REMARK UNBOUND:                 0.000
REMARK SMILES Nc1ncnc2nc[nH]c12
REMARK SMILES IDX 8 1 7 2 6 3 5 4 4 5 3 6 2 7 10 8 9 9 1 11
REMARK H PARENT 9 10 1 12 1 13
REMARK Flexibility Score: inf
ROOT
ATOM      1  C   UNL     1      13.287  31.745  24.423  1.00  0.00     0.199 A 
ATOM      2  N   UNL     1      13.841  30.781  25.209  1.00  0.00    -0.217 NA
ATOM      3  C   UNL     1      14.910  31.411  25.723  1.00  0.00     0.182 A 
ATOM      4  N   UNL     1      15.816  30.890  26.584  1.00  0.00    -0.215 NA
ATOM      5  C   UNL     1      16.844  31.691  26.999  1.00  0.00     0.226 A 
ATOM      6  N   UNL     1      16.946  32.984  26.551  1.00  0.00    -0.217 NA
ATOM      7  C   UNL     1      16.031  33.510  25.682  1.00  0.00     0.152 A 
ATOM      8  C   UNL     1      14.991  32.682  25.268  1.00  0.00     0.127 A 
ATOM      9  N   UNL     1      13.968  32.919  24.438  1.00  0.00    -0.340 N 
ATOM     10  H   UNL     1      13.737  33.794  23.919  1.00  0.00     0.168 HD
ENDROOT
BRANCH   7  11
ATOM     11  N   UNL     1      16.157  34.858  25.229  1.00  0.00    -0.382 N 
ATOM     12  H   UNL     1      16.109  35.097  24.214  1.00  0.00     0.158 HD
ATOM     13  H   UNL     1      16.300  35.630  25.917  1.00  0.00     0.158 HD
ENDBRANCH   7  11
TORSDOF 1
ENDMDL
