MODEL 1
REMARK VINA RESULT:    -4.715      0.000      0.000
REMARK INTER + INTRA:          -4.715
REMARK INTER:                  -4.715
REMARK INTRA:                   0.000
REMARK UNBOUND:                 0.000
REMARK SMILES CC1=CC[C@@]23C[C@@H]1C(C)(C)[C@H]2CC[C@@H]3C
REMARK SMILES IDX 15 1 14 2 13 3 12 4 11 5 5 6 4 7 3 8 2 9 7 10 6 11 8 12 9 13
REMARK SMILES IDX 10 14 1 15
REMARK H PARENT
REMARK Flexibility Score: inf
ROOT
ATOM      1  C   UNL     1      23.883  64.623  13.138  1.00  0.00     0.008 C 
ATOM      2  C   UNL     1      22.982  63.461  13.587  1.00  0.00    -0.007 C 
ATOM      3  C   UNL     1      23.649  62.580  14.694  1.00  0.00     0.004 C 
ATOM      4  C   UNL     1      22.872  62.813  16.015  1.00  0.00     0.005 C 
ATOM      5  C   UNL     1      22.080  64.062  15.693  1.00  0.00     0.002 C 
ATOM      6  C   UNL     1      21.653  63.902  14.242  1.00  0.00    -0.020 C 
ATOM      7  C   UNL     1      20.563  62.782  13.969  1.00  0.00     0.035 C 
ATOM      8  C   UNL     1      19.137  63.176  14.313  1.00  0.00    -0.027 C 
ATOM      9  C   UNL     1      18.864  64.361  14.889  1.00  0.00    -0.074 C 
ATOM     10  C   UNL     1      20.027  65.263  15.253  1.00  0.00     0.021 C 
ATOM     11  C   UNL     1      20.992  65.263  14.031  1.00  0.00     0.016 C 
ATOM     12  C   UNL     1      20.869  64.656  16.449  1.00  0.00    -0.025 C 
ATOM     13  C   UNL     1      21.313  65.804  17.388  1.00  0.00     0.012 C 
ATOM     14  C   UNL     1      20.148  63.596  17.321  1.00  0.00     0.012 C 
ATOM     15  C   UNL     1      17.445  64.757  15.182  1.00  0.00     0.039 C 
ENDROOT
TORSDOF 0
ENDMDL
MODEL 2
REMARK VINA RESULT:    -4.532      1.251      3.150
REMARK INTER + INTRA:          -4.532
REMARK INTER:                  -4.532
REMARK INTRA:                   0.000
REMARK UNBOUND:                 0.000
REMARK SMILES CC1=CC[C@@]23C[C@@H]1C(C)(C)[C@H]2CC[C@@H]3C
REMARK SMILES IDX 15 1 14 2 13 3 12 4 11 5 5 6 4 7 3 8 2 9 7 10 6 11 8 12 9 13
REMARK SMILES IDX 10 14 1 15
REMARK H PARENT
REMARK Flexibility Score: inf
ROOT
ATOM      1  C   UNL     1      23.623  61.645  17.209  1.00  0.00     0.008 C 
ATOM      2  C   UNL     1      23.631  63.049  16.584  1.00  0.00    -0.007 C 
ATOM      3  C   UNL     1      24.208  63.054  15.130  1.00  0.00     0.004 C 
ATOM      4  C   UNL     1      23.038  63.357  14.160  1.00  0.00     0.005 C 
ATOM      5  C   UNL     1      21.832  63.131  15.046  1.00  0.00     0.002 C 
ATOM      6  C   UNL     1      22.229  63.676  16.409  1.00  0.00    -0.020 C 
ATOM      7  C   UNL     1      22.371  65.254  16.499  1.00  0.00     0.035 C 
ATOM      8  C   UNL     1      21.059  66.012  16.613  1.00  0.00    -0.027 C 
ATOM      9  C   UNL     1      19.879  65.369  16.547  1.00  0.00    -0.074 C 
ATOM     10  C   UNL     1      19.891  63.876  16.284  1.00  0.00     0.021 C 
ATOM     11  C   UNL     1      20.991  63.269  17.205  1.00  0.00     0.016 C 
ATOM     12  C   UNL     1      20.366  63.560  14.806  1.00  0.00    -0.025 C 
ATOM     13  C   UNL     1      19.530  62.383  14.248  1.00  0.00     0.012 C 
ATOM     14  C   UNL     1      20.258  64.728  13.792  1.00  0.00     0.012 C 
ATOM     15  C   UNL     1      18.590  66.124  16.707  1.00  0.00     0.039 C 
ENDROOT
TORSDOF 0
ENDMDL
MODEL 3
REMARK VINA RESULT:    -4.455      1.591      3.840
REMARK INTER + INTRA:          -4.455
REMARK INTER:                  -4.455
REMARK INTRA:                   0.000
REMARK UNBOUND:                 0.000
REMARK SMILES CC1=CC[C@@]23C[C@@H]1C(C)(C)[C@H]2CC[C@@H]3C
REMARK SMILES IDX 15 1 14 2 13 3 12 4 11 5 5 6 4 7 3 8 2 9 7 10 6 11 8 12 9 13
REMARK SMILES IDX 10 14 1 15
REMARK H PARENT
REMARK Flexibility Score: inf
ROOT
ATOM      1  C   UNL     1      19.554  62.849  14.250  1.00  0.00     0.008 C 
ATOM      2  C   UNL     1      20.982  63.243  14.660  1.00  0.00    -0.007 C 
ATOM      3  C   UNL     1      21.433  64.600  14.026  1.00  0.00     0.004 C 
ATOM      4  C   UNL     1      21.534  65.644  15.167  1.00  0.00     0.005 C 
ATOM      5  C   UNL     1      20.786  64.953  16.287  1.00  0.00     0.002 C 
ATOM      6  C   UNL     1      21.165  63.485  16.175  1.00  0.00    -0.020 C 
ATOM      7  C   UNL     1      22.665  63.135  16.561  1.00  0.00     0.035 C 
ATOM      8  C   UNL     1      22.945  63.062  18.052  1.00  0.00    -0.027 C 
ATOM      9  C   UNL     1      21.992  63.366  18.952  1.00  0.00    -0.074 C 
ATOM     10  C   UNL     1      20.652  63.855  18.438  1.00  0.00     0.021 C 
ATOM     11  C   UNL     1      20.255  62.914  17.262  1.00  0.00     0.016 C 
ATOM     12  C   UNL     1      20.777  65.296  17.794  1.00  0.00    -0.025 C 
ATOM     13  C   UNL     1      19.524  66.125  18.165  1.00  0.00     0.012 C 
ATOM     14  C   UNL     1      22.021  66.123  18.213  1.00  0.00     0.012 C 
ATOM     15  C   UNL     1      22.268  63.246  20.424  1.00  0.00     0.039 C 
ENDROOT
TORSDOF 0
ENDMDL
MODEL 4
REMARK VINA RESULT:    -4.439      1.425      3.995
REMARK INTER + INTRA:          -4.439
REMARK INTER:                  -4.439
REMARK INTRA:                   0.000
REMARK UNBOUND:                 0.000
REMARK SMILES CC1=CC[C@@]23C[C@@H]1C(C)(C)[C@H]2CC[C@@H]3C
REMARK SMILES IDX 15 1 14 2 13 3 12 4 11 5 5 6 4 7 3 8 2 9 7 10 6 11 8 12 9 13
REMARK SMILES IDX 10 14 1 15
REMARK H PARENT
REMARK Flexibility Score: inf
ROOT
ATOM      1  C   UNL     1      18.833  65.652  14.693  1.00  0.00     0.008 C 
ATOM      2  C   UNL     1      19.133  64.272  15.301  1.00  0.00    -0.007 C 
ATOM      3  C   UNL     1      19.347  63.171  14.212  1.00  0.00     0.004 C 
ATOM      4  C   UNL     1      20.843  62.766  14.239  1.00  0.00     0.005 C 
ATOM      5  C   UNL     1      21.456  63.892  15.043  1.00  0.00     0.002 C 
ATOM      6  C   UNL     1      20.438  64.210  16.127  1.00  0.00    -0.020 C 
ATOM      7  C   UNL     1      20.269  63.103  17.251  1.00  0.00     0.035 C 
ATOM      8  C   UNL     1      21.353  63.096  18.315  1.00  0.00    -0.027 C 
ATOM      9  C   UNL     1      22.413  63.920  18.230  1.00  0.00    -0.074 C 
ATOM     10  C   UNL     1      22.534  64.807  17.006  1.00  0.00     0.021 C 
ATOM     11  C   UNL     1      21.124  65.421  16.758  1.00  0.00     0.016 C 
ATOM     12  C   UNL     1      22.849  63.952  15.710  1.00  0.00    -0.025 C 
ATOM     13  C   UNL     1      23.853  64.729  14.825  1.00  0.00     0.012 C 
ATOM     14  C   UNL     1      23.442  62.540  15.953  1.00  0.00     0.012 C 
ATOM     15  C   UNL     1      23.455  63.935  19.312  1.00  0.00     0.039 C 
ENDROOT
TORSDOF 0
ENDMDL
MODEL 5
REMARK VINA RESULT:    -4.285      1.508      4.001
REMARK INTER + INTRA:          -4.285
REMARK INTER:                  -4.285
REMARK INTRA:                   0.000
REMARK UNBOUND:                 0.000
REMARK SMILES CC1=CC[C@@]23C[C@@H]1C(C)(C)[C@H]2CC[C@@H]3C
REMARK SMILES IDX 15 1 14 2 13 3 12 4 11 5 5 6 4 7 3 8 2 9 7 10 6 11 8 12 9 13
REMARK SMILES IDX 10 14 1 15
REMARK H PARENT
REMARK Flexibility Score: inf
ROOT
ATOM      1  C   UNL     1      19.421  62.345  13.902  1.00  0.00     0.008 C 
ATOM      2  C   UNL     1      19.700  63.819  14.241  1.00  0.00    -0.007 C 
ATOM      3  C   UNL     1      18.592  64.444  15.150  1.00  0.00     0.004 C 
ATOM      4  C   UNL     1      19.216  64.699  16.546  1.00  0.00     0.005 C 
ATOM      5  C   UNL     1      20.485  63.877  16.475  1.00  0.00     0.002 C 
ATOM      6  C   UNL     1      20.995  64.051  15.052  1.00  0.00    -0.020 C 
ATOM      7  C   UNL     1      21.556  65.493  14.699  1.00  0.00     0.035 C 
ATOM      8  C   UNL     1      22.960  65.778  15.203  1.00  0.00    -0.027 C 
ATOM      9  C   UNL     1      23.616  64.886  15.969  1.00  0.00    -0.074 C 
ATOM     10  C   UNL     1      22.888  63.619  16.375  1.00  0.00     0.021 C 
ATOM     11  C   UNL     1      22.177  63.084  15.097  1.00  0.00     0.016 C 
ATOM     12  C   UNL     1      21.722  63.934  17.399  1.00  0.00    -0.025 C 
ATOM     13  C   UNL     1      21.668  62.810  18.462  1.00  0.00     0.012 C 
ATOM     14  C   UNL     1      21.825  65.283  18.156  1.00  0.00     0.012 C 
ATOM     15  C   UNL     1      25.021  65.161  16.424  1.00  0.00     0.039 C 
ENDROOT
TORSDOF 0
ENDMDL
MODEL 6
REMARK VINA RESULT:    -4.218      1.508      4.136
REMARK INTER + INTRA:          -4.218
REMARK INTER:                  -4.218
REMARK INTRA:                   0.000
REMARK UNBOUND:                 0.000
REMARK SMILES CC1=CC[C@@]23C[C@@H]1C(C)(C)[C@H]2CC[C@@H]3C
REMARK SMILES IDX 15 1 14 2 13 3 12 4 11 5 5 6 4 7 3 8 2 9 7 10 6 11 8 12 9 13
REMARK SMILES IDX 10 14 1 15
REMARK H PARENT
REMARK Flexibility Score: inf
ROOT
ATOM      1  C   UNL     1      18.150  65.828  17.552  1.00  0.00     0.008 C 
ATOM      2  C   UNL     1      19.676  65.672  17.445  1.00  0.00    -0.007 C 
ATOM      3  C   UNL     1      20.206  64.430  18.233  1.00  0.00     0.004 C 
ATOM      4  C   UNL     1      20.697  63.387  17.196  1.00  0.00     0.005 C 
ATOM      5  C   UNL     1      20.083  63.910  15.915  1.00  0.00     0.002 C 
ATOM      6  C   UNL     1      20.190  65.424  16.008  1.00  0.00    -0.020 C 
ATOM      7  C   UNL     1      21.660  66.013  15.894  1.00  0.00     0.035 C 
ATOM      8  C   UNL     1      22.212  66.092  14.481  1.00  0.00    -0.027 C 
ATOM      9  C   UNL     1      21.517  65.606  13.437  1.00  0.00    -0.074 C 
ATOM     10  C   UNL     1      20.199  64.910  13.716  1.00  0.00     0.021 C 
ATOM     11  C   UNL     1      19.432  65.802  14.737  1.00  0.00     0.016 C 
ATOM     12  C   UNL     1      20.427  63.529  14.457  1.00  0.00    -0.025 C 
ATOM     13  C   UNL     1      19.422  62.489  13.906  1.00  0.00     0.012 C 
ATOM     14  C   UNL     1      21.845  62.915  14.332  1.00  0.00     0.012 C 
ATOM     15  C   UNL     1      22.055  65.730  12.039  1.00  0.00     0.039 C 
ENDROOT
TORSDOF 0
ENDMDL
MODEL 7
REMARK VINA RESULT:    -4.125      2.159      4.608
REMARK INTER + INTRA:          -4.125
REMARK INTER:                  -4.125
REMARK INTRA:                   0.000
REMARK UNBOUND:                 0.000
REMARK SMILES CC1=CC[C@@]23C[C@@H]1C(C)(C)[C@H]2CC[C@@H]3C
REMARK SMILES IDX 15 1 14 2 13 3 12 4 11 5 5 6 4 7 3 8 2 9 7 10 6 11 8 12 9 13
REMARK SMILES IDX 10 14 1 15
REMARK H PARENT
REMARK Flexibility Score: inf
ROOT
ATOM      1  C   UNL     1      22.500  63.142  20.976  1.00  0.00     0.008 C 
ATOM      2  C   UNL     1      21.369  63.809  20.176  1.00  0.00    -0.007 C 
ATOM      3  C   UNL     1      21.226  65.332  20.499  1.00  0.00     0.004 C 
ATOM      4  C   UNL     1      21.676  66.125  19.245  1.00  0.00     0.005 C 
ATOM      5  C   UNL     1      22.394  65.059  18.444  1.00  0.00     0.002 C 
ATOM      6  C   UNL     1      21.578  63.792  18.644  1.00  0.00    -0.020 C 
ATOM      7  C   UNL     1      20.153  63.778  17.944  1.00  0.00     0.035 C 
ATOM      8  C   UNL     1      20.173  63.493  16.453  1.00  0.00    -0.027 C 
ATOM      9  C   UNL     1      21.335  63.358  15.787  1.00  0.00    -0.074 C 
ATOM     10  C   UNL     1      22.626  63.569  16.553  1.00  0.00     0.021 C 
ATOM     11  C   UNL     1      22.476  62.804  17.901  1.00  0.00     0.016 C 
ATOM     12  C   UNL     1      22.810  65.090  16.956  1.00  0.00    -0.025 C 
ATOM     13  C   UNL     1      24.302  65.474  16.808  1.00  0.00     0.012 C 
ATOM     14  C   UNL     1      21.983  66.116  16.139  1.00  0.00     0.012 C 
ATOM     15  C   UNL     1      21.340  63.032  14.321  1.00  0.00     0.039 C 
ENDROOT
TORSDOF 0
ENDMDL
MODEL 8
REMARK VINA RESULT:    -4.090      1.086      3.196
REMARK INTER + INTRA:          -4.090
REMARK INTER:                  -4.090
REMARK INTRA:                   0.000
REMARK UNBOUND:                 0.000
REMARK SMILES CC1=CC[C@@]23C[C@@H]1C(C)(C)[C@H]2CC[C@@H]3C
REMARK SMILES IDX 15 1 14 2 13 3 12 4 11 5 5 6 4 7 3 8 2 9 7 10 6 11 8 12 9 13
REMARK SMILES IDX 10 14 1 15
REMARK H PARENT
REMARK Flexibility Score: inf
ROOT
ATOM      1  C   UNL     1      24.362  63.633  13.073  1.00  0.00     0.008 C 
ATOM      2  C   UNL     1      23.579  64.855  13.582  1.00  0.00    -0.007 C 
ATOM      3  C   UNL     1      22.814  65.595  12.437  1.00  0.00     0.004 C 
ATOM      4  C   UNL     1      21.297  65.367  12.659  1.00  0.00     0.005 C 
ATOM      5  C   UNL     1      21.296  64.228  13.656  1.00  0.00     0.002 C 
ATOM      6  C   UNL     1      22.459  64.516  14.593  1.00  0.00    -0.020 C 
ATOM      7  C   UNL     1      22.266  65.758  15.562  1.00  0.00     0.035 C 
ATOM      8  C   UNL     1      21.394  65.496  16.777  1.00  0.00    -0.027 C 
ATOM      9  C   UNL     1      20.771  64.314  16.942  1.00  0.00    -0.074 C 
ATOM     10  C   UNL     1      20.906  63.275  15.845  1.00  0.00     0.021 C 
ATOM     11  C   UNL     1      22.410  63.246  15.441  1.00  0.00     0.016 C 
ATOM     12  C   UNL     1      20.132  63.721  14.538  1.00  0.00    -0.025 C 
ATOM     13  C   UNL     1      19.459  62.480  13.903  1.00  0.00     0.012 C 
ATOM     14  C   UNL     1      19.032  64.797  14.730  1.00  0.00     0.012 C 
ATOM     15  C   UNL     1      19.948  64.052  18.170  1.00  0.00     0.039 C 
ENDROOT
TORSDOF 0
ENDMDL
MODEL 9
REMARK VINA RESULT:    -2.993      1.363      3.146
REMARK INTER + INTRA:          -2.993
REMARK INTER:                  -2.993
REMARK INTRA:                   0.000
REMARK UNBOUND:                 0.000
REMARK SMILES CC1=CC[C@@]23C[C@@H]1C(C)(C)[C@H]2CC[C@@H]3C
REMARK SMILES IDX 15 1 14 2 13 3 12 4 11 5 5 6 4 7 3 8 2 9 7 10 6 11 8 12 9 13
REMARK SMILES IDX 10 14 1 15
REMARK H PARENT
REMARK Flexibility Score: inf
ROOT
ATOM      1  C   UNL     1      23.305  64.959  18.674  1.00  0.00     0.008 C 
ATOM      2  C   UNL     1      22.828  63.800  17.783  1.00  0.00    -0.007 C 
ATOM      3  C   UNL     1      21.756  62.905  18.487  1.00  0.00     0.004 C 
ATOM      4  C   UNL     1      20.403  63.134  17.765  1.00  0.00     0.005 C 
ATOM      5  C   UNL     1      20.683  64.391  16.970  1.00  0.00     0.002 C 
ATOM      6  C   UNL     1      22.118  64.246  16.485  1.00  0.00    -0.020 C 
ATOM      7  C   UNL     1      22.355  63.136  15.376  1.00  0.00     0.035 C 
ATOM      8  C   UNL     1      21.952  63.538  13.967  1.00  0.00    -0.027 C 
ATOM      9  C   UNL     1      21.356  64.720  13.727  1.00  0.00    -0.074 C 
ATOM     10  C   UNL     1      21.032  65.611  14.910  1.00  0.00     0.021 C 
ATOM     11  C   UNL     1      22.292  65.614  15.826  1.00  0.00     0.016 C 
ATOM     12  C   UNL     1      19.875  64.988  15.795  1.00  0.00    -0.025 C 
ATOM     13  C   UNL     1      18.947  66.125  16.285  1.00  0.00     0.012 C 
ATOM     14  C   UNL     1      18.983  63.927  15.101  1.00  0.00     0.012 C 
ATOM     15  C   UNL     1      21.003  65.124  12.324  1.00  0.00     0.039 C 
ENDROOT
TORSDOF 0
ENDMDL
