MODEL 1
REMARK VINA RESULT:    -4.506      0.000      0.000
REMARK INTER + INTRA:          -6.748
REMARK INTER:                  -6.350
REMARK INTRA:                  -0.397
REMARK UNBOUND:                -0.397
REMARK SMILES C=CCCCCCCC(=O)[O-]
REMARK SMILES IDX 6 1 7 2 8 3 9 4 10 5 11 6 5 7 4 8 3 9 2 10 1 11
REMARK H PARENT
REMARK Flexibility Score: inf
ROOT
ATOM      1  C   UNL     1      13.355  12.614   5.204  1.00  0.00     0.000 C 
ENDROOT
BRANCH   1   2
ATOM      2  C   UNL     1      14.853  12.948   5.242  1.00  0.00     0.006 C 
BRANCH   2   3
ATOM      3  C   UNL     1      15.214  13.970   4.160  1.00  0.00     0.053 C 
BRANCH   3   4
ATOM      4  C   UNL     1      16.305  13.442   3.283  1.00  0.00     0.041 C 
ATOM      5  O   UNL     1      16.027  12.901   2.180  1.00  0.00    -0.550 OA
ATOM      6  O   UNL     1      17.633  13.590   3.661  1.00  0.00    -0.550 OA
ENDBRANCH   3   4
ENDBRANCH   2   3
ENDBRANCH   1   2
BRANCH   1   7
ATOM      7  C   UNL     1      12.872  12.183   3.808  1.00  0.00     0.000 C 
BRANCH   7   8
ATOM      8  C   UNL     1      11.439  11.616   3.760  1.00  0.00     0.004 C 
BRANCH   8   9
ATOM      9  C   UNL     1      10.562  11.994   4.967  1.00  0.00     0.027 C 
BRANCH   9  10
ATOM     10  C   UNL     1      10.160  10.799   5.788  1.00  0.00    -0.035 C 
ATOM     11  C   UNL     1      10.092   9.573   5.262  1.00  0.00     0.004 C 
ENDBRANCH   9  10
ENDBRANCH   8   9
ENDBRANCH   7   8
ENDBRANCH   1   7
TORSDOF 7
ENDMDL
MODEL 2
REMARK VINA RESULT:    -4.387      1.737      3.259
REMARK INTER + INTRA:          -6.579
REMARK INTER:                  -5.865
REMARK INTRA:                  -0.714
REMARK UNBOUND:                -0.397
REMARK SMILES C=CCCCCCCC(=O)[O-]
REMARK SMILES IDX 6 1 7 2 8 3 9 4 10 5 11 6 5 7 4 8 3 9 2 10 1 11
REMARK H PARENT
REMARK Flexibility Score: inf
ROOT
ATOM      1  C   UNL     1      13.487  12.765   5.202  1.00  0.00     0.000 C 
ENDROOT
BRANCH   1   2
ATOM      2  C   UNL     1      15.006  12.985   5.175  1.00  0.00     0.006 C 
BRANCH   2   3
ATOM      3  C   UNL     1      15.382  14.095   4.190  1.00  0.00     0.053 C 
BRANCH   3   4
ATOM      4  C   UNL     1      16.425  13.614   3.231  1.00  0.00     0.041 C 
ATOM      5  O   UNL     1      17.621  13.985   3.356  1.00  0.00    -0.550 OA
ATOM      6  O   UNL     1      16.085  12.717   2.227  1.00  0.00    -0.550 OA
ENDBRANCH   3   4
ENDBRANCH   2   3
ENDBRANCH   1   2
BRANCH   1   7
ATOM      7  C   UNL     1      13.005  11.782   4.120  1.00  0.00     0.000 C 
BRANCH   7   8
ATOM      8  C   UNL     1      11.885  12.317   3.205  1.00  0.00     0.004 C 
BRANCH   8   9
ATOM      9  C   UNL     1      12.179  13.688   2.572  1.00  0.00     0.027 C 
BRANCH   9  10
ATOM     10  C   UNL     1      12.947  13.579   1.283  1.00  0.00    -0.035 C 
ATOM     11  C   UNL     1      13.570  14.630   0.742  1.00  0.00     0.004 C 
ENDBRANCH   9  10
ENDBRANCH   8   9
ENDBRANCH   7   8
ENDBRANCH   1   7
TORSDOF 7
ENDMDL
MODEL 3
REMARK VINA RESULT:    -4.367      1.252      1.755
REMARK INTER + INTRA:          -6.552
REMARK INTER:                  -6.277
REMARK INTRA:                  -0.274
REMARK UNBOUND:                -0.397
REMARK SMILES C=CCCCCCCC(=O)[O-]
REMARK SMILES IDX 6 1 7 2 8 3 9 4 10 5 11 6 5 7 4 8 3 9 2 10 1 11
REMARK H PARENT
REMARK Flexibility Score: inf
ROOT
ATOM      1  C   UNL     1      12.887  12.727   2.612  1.00  0.00     0.000 C 
ENDROOT
BRANCH   1   2
ATOM      2  C   UNL     1      13.964  13.809   2.770  1.00  0.00     0.006 C 
BRANCH   2   3
ATOM      3  C   UNL     1      15.353  13.251   2.449  1.00  0.00     0.053 C 
BRANCH   3   4
ATOM      4  C   UNL     1      16.281  13.457   3.605  1.00  0.00     0.041 C 
ATOM      5  O   UNL     1      15.894  13.221   4.779  1.00  0.00    -0.550 OA
ATOM      6  O   UNL     1      17.590  13.864   3.381  1.00  0.00    -0.550 OA
ENDBRANCH   3   4
ENDBRANCH   2   3
ENDBRANCH   1   2
BRANCH   1   7
ATOM      7  C   UNL     1      12.498  12.069   3.949  1.00  0.00     0.000 C 
BRANCH   7   8
ATOM      8  C   UNL     1      11.042  11.568   4.030  1.00  0.00     0.004 C 
BRANCH   8   9
ATOM      9  C   UNL     1      10.888  10.145   4.595  1.00  0.00     0.027 C 
BRANCH   9  10
ATOM     10  C   UNL     1       9.798  10.046   5.628  1.00  0.00    -0.035 C 
ATOM     11  C   UNL     1       9.647  10.968   6.583  1.00  0.00     0.004 C 
ENDBRANCH   9  10
ENDBRANCH   8   9
ENDBRANCH   7   8
ENDBRANCH   1   7
TORSDOF 7
ENDMDL
MODEL 4
REMARK VINA RESULT:    -4.362      5.120      6.858
REMARK INTER + INTRA:          -6.545
REMARK INTER:                  -5.866
REMARK INTRA:                  -0.679
REMARK UNBOUND:                -0.397
REMARK SMILES C=CCCCCCCC(=O)[O-]
REMARK SMILES IDX 6 1 7 2 8 3 9 4 10 5 11 6 5 7 4 8 3 9 2 10 1 11
REMARK H PARENT
REMARK Flexibility Score: inf
ROOT
ATOM      1  C   UNL     1       9.214  10.500   5.560  1.00  0.00     0.000 C 
ENDROOT
BRANCH   1   2
ATOM      2  C   UNL     1       9.531  11.003   6.975  1.00  0.00     0.006 C 
BRANCH   2   3
ATOM      3  C   UNL     1       8.737  12.272   7.296  1.00  0.00     0.053 C 
BRANCH   3   4
ATOM      4  C   UNL     1       7.286  11.951   7.475  1.00  0.00     0.041 C 
ATOM      5  O   UNL     1       6.441  12.342   6.627  1.00  0.00    -0.550 OA
ATOM      6  O   UNL     1       6.873  11.178   8.552  1.00  0.00    -0.550 OA
ENDBRANCH   3   4
ENDBRANCH   2   3
ENDBRANCH   1   2
BRANCH   1   7
ATOM      7  C   UNL     1      10.477  10.233   4.721  1.00  0.00     0.000 C 
BRANCH   7   8
ATOM      8  C   UNL     1      11.046  11.466   3.990  1.00  0.00     0.004 C 
BRANCH   8   9
ATOM      9  C   UNL     1      12.415  11.940   4.509  1.00  0.00     0.027 C 
BRANCH   9  10
ATOM     10  C   UNL     1      12.348  13.292   5.166  1.00  0.00    -0.035 C 
ATOM     11  C   UNL     1      12.366  13.432   6.495  1.00  0.00     0.004 C 
ENDBRANCH   9  10
ENDBRANCH   8   9
ENDBRANCH   7   8
ENDBRANCH   1   7
TORSDOF 7
ENDMDL
MODEL 5
REMARK VINA RESULT:    -4.253      3.263      5.655
REMARK INTER + INTRA:          -6.391
REMARK INTER:                  -5.913
REMARK INTRA:                  -0.479
REMARK UNBOUND:                -0.397
REMARK SMILES C=CCCCCCCC(=O)[O-]
REMARK SMILES IDX 6 1 7 2 8 3 9 4 10 5 11 6 5 7 4 8 3 9 2 10 1 11
REMARK H PARENT
REMARK Flexibility Score: inf
ROOT
ATOM      1  C   UNL     1      13.057  13.513   1.825  1.00  0.00     0.000 C 
ENDROOT
BRANCH   1   2
ATOM      2  C   UNL     1      14.033  12.995   2.892  1.00  0.00     0.006 C 
BRANCH   2   3
ATOM      3  C   UNL     1      15.483  13.119   2.415  1.00  0.00     0.053 C 
BRANCH   3   4
ATOM      4  C   UNL     1      16.373  13.529   3.545  1.00  0.00     0.041 C 
ATOM      5  O   UNL     1      16.048  13.272   4.734  1.00  0.00    -0.550 OA
ATOM      6  O   UNL     1      17.586  14.153   3.283  1.00  0.00    -0.550 OA
ENDBRANCH   3   4
ENDBRANCH   2   3
ENDBRANCH   1   2
BRANCH   1   7
ATOM      7  C   UNL     1      13.771  14.046   0.570  1.00  0.00     0.000 C 
BRANCH   7   8
ATOM      8  C   UNL     1      13.589  15.554   0.307  1.00  0.00     0.004 C 
BRANCH   8   9
ATOM      9  C   UNL     1      14.544  16.138  -0.749  1.00  0.00     0.027 C 
BRANCH   9  10
ATOM     10  C   UNL     1      15.585  17.045  -0.151  1.00  0.00    -0.035 C 
ATOM     11  C   UNL     1      16.037  16.873   1.095  1.00  0.00     0.004 C 
ENDBRANCH   9  10
ENDBRANCH   8   9
ENDBRANCH   7   8
ENDBRANCH   1   7
TORSDOF 7
ENDMDL
MODEL 6
REMARK VINA RESULT:    -4.179      4.634      6.708
REMARK INTER + INTRA:          -6.287
REMARK INTER:                  -5.920
REMARK INTRA:                  -0.367
REMARK UNBOUND:                -0.397
REMARK SMILES C=CCCCCCCC(=O)[O-]
REMARK SMILES IDX 6 1 7 2 8 3 9 4 10 5 11 6 5 7 4 8 3 9 2 10 1 11
REMARK H PARENT
REMARK Flexibility Score: inf
ROOT
ATOM      1  C   UNL     1      10.486  10.229   4.788  1.00  0.00     0.000 C 
ENDROOT
BRANCH   1   2
ATOM      2  C   UNL     1       9.683  10.403   6.085  1.00  0.00     0.006 C 
BRANCH   2   3
ATOM      3  C   UNL     1       8.959  11.752   6.104  1.00  0.00     0.053 C 
BRANCH   3   4
ATOM      4  C   UNL     1       7.812  11.717   7.065  1.00  0.00     0.041 C 
ATOM      5  O   UNL     1       8.007  11.427   8.274  1.00  0.00    -0.550 OA
ATOM      6  O   UNL     1       6.535  12.052   6.635  1.00  0.00    -0.550 OA
ENDBRANCH   3   4
ENDBRANCH   2   3
ENDBRANCH   1   2
BRANCH   1   7
ATOM      7  C   UNL     1      10.400  11.455   3.861  1.00  0.00     0.000 C 
BRANCH   7   8
ATOM      8  C   UNL     1      11.757  12.003   3.376  1.00  0.00     0.004 C 
BRANCH   8   9
ATOM      9  C   UNL     1      12.902  11.862   4.394  1.00  0.00     0.027 C 
BRANCH   9  10
ATOM     10  C   UNL     1      14.066  12.764   4.086  1.00  0.00    -0.035 C 
ATOM     11  C   UNL     1      14.358  13.136   2.836  1.00  0.00     0.004 C 
ENDBRANCH   9  10
ENDBRANCH   8   9
ENDBRANCH   7   8
ENDBRANCH   1   7
TORSDOF 7
ENDMDL
MODEL 7
REMARK VINA RESULT:    -4.148      1.723      2.633
REMARK INTER + INTRA:          -6.242
REMARK INTER:                  -5.522
REMARK INTRA:                  -0.720
REMARK UNBOUND:                -0.397
REMARK SMILES C=CCCCCCCC(=O)[O-]
REMARK SMILES IDX 6 1 7 2 8 3 9 4 10 5 11 6 5 7 4 8 3 9 2 10 1 11
REMARK H PARENT
REMARK Flexibility Score: inf
ROOT
ATOM      1  C   UNL     1      10.895  13.516   3.749  1.00  0.00     0.000 C 
ENDROOT
BRANCH   1   2
ATOM      2  C   UNL     1      11.730  12.302   3.320  1.00  0.00     0.006 C 
BRANCH   2   3
ATOM      3  C   UNL     1      12.816  11.991   4.354  1.00  0.00     0.053 C 
BRANCH   3   4
ATOM      4  C   UNL     1      14.090  12.694   4.003  1.00  0.00     0.041 C 
ATOM      5  O   UNL     1      14.335  13.003   2.808  1.00  0.00    -0.550 OA
ATOM      6  O   UNL     1      14.985  13.051   5.003  1.00  0.00    -0.550 OA
ENDBRANCH   3   4
ENDBRANCH   2   3
ENDBRANCH   1   2
BRANCH   1   7
ATOM      7  C   UNL     1       9.381  13.293   3.579  1.00  0.00     0.000 C 
BRANCH   7   8
ATOM      8  C   UNL     1       8.906  11.845   3.810  1.00  0.00     0.004 C 
BRANCH   8   9
ATOM      9  C   UNL     1       8.449  11.545   5.249  1.00  0.00     0.027 C 
BRANCH   9  10
ATOM     10  C   UNL     1       9.393  10.628   5.978  1.00  0.00    -0.035 C 
ATOM     11  C   UNL     1      10.084   9.677   5.342  1.00  0.00     0.004 C 
ENDBRANCH   9  10
ENDBRANCH   8   9
ENDBRANCH   7   8
ENDBRANCH   1   7
TORSDOF 7
ENDMDL
MODEL 8
REMARK VINA RESULT:    -4.139      2.299      3.335
REMARK INTER + INTRA:          -6.230
REMARK INTER:                  -5.661
REMARK INTRA:                  -0.569
REMARK UNBOUND:                -0.397
REMARK SMILES C=CCCCCCCC(=O)[O-]
REMARK SMILES IDX 6 1 7 2 8 3 9 4 10 5 11 6 5 7 4 8 3 9 2 10 1 11
REMARK H PARENT
REMARK Flexibility Score: inf
ROOT
ATOM      1  C   UNL     1      10.596  11.584   3.792  1.00  0.00     0.000 C 
ENDROOT
BRANCH   1   2
ATOM      2  C   UNL     1      11.697  12.653   3.767  1.00  0.00     0.006 C 
BRANCH   2   3
ATOM      3  C   UNL     1      13.058  12.047   4.121  1.00  0.00     0.053 C 
BRANCH   3   4
ATOM      4  C   UNL     1      13.657  12.754   5.296  1.00  0.00     0.041 C 
ATOM      5  O   UNL     1      12.916  13.224   6.198  1.00  0.00    -0.550 OA
ATOM      6  O   UNL     1      15.037  12.850   5.420  1.00  0.00    -0.550 OA
ENDBRANCH   3   4
ENDBRANCH   2   3
ENDBRANCH   1   2
BRANCH   1   7
ATOM      7  C   UNL     1      10.949  10.383   4.688  1.00  0.00     0.000 C 
BRANCH   7   8
ATOM      8  C   UNL     1       9.911  10.058   5.781  1.00  0.00     0.004 C 
BRANCH   8   9
ATOM      9  C   UNL     1       9.476  11.267   6.627  1.00  0.00     0.027 C 
BRANCH   9  10
ATOM     10  C   UNL     1       8.006  11.562   6.505  1.00  0.00    -0.035 C 
ATOM     11  C   UNL     1       7.556  12.673   5.914  1.00  0.00     0.004 C 
ENDBRANCH   9  10
ENDBRANCH   8   9
ENDBRANCH   7   8
ENDBRANCH   1   7
TORSDOF 7
ENDMDL
MODEL 9
REMARK VINA RESULT:    -4.041      5.633      6.724
REMARK INTER + INTRA:          -6.092
REMARK INTER:                  -5.281
REMARK INTRA:                  -0.811
REMARK UNBOUND:                -0.397
REMARK SMILES C=CCCCCCCC(=O)[O-]
REMARK SMILES IDX 6 1 7 2 8 3 9 4 10 5 11 6 5 7 4 8 3 9 2 10 1 11
REMARK H PARENT
REMARK Flexibility Score: inf
ROOT
ATOM      1  C   UNL     1      10.172  13.952   6.286  1.00  0.00     0.000 C 
ENDROOT
BRANCH   1   2
ATOM      2  C   UNL     1       8.720  13.834   6.772  1.00  0.00     0.006 C 
BRANCH   2   3
ATOM      3  C   UNL     1       8.553  12.637   7.713  1.00  0.00     0.053 C 
BRANCH   3   4
ATOM      4  C   UNL     1       7.208  12.008   7.525  1.00  0.00     0.041 C 
ATOM      5  O   UNL     1       6.573  12.178   6.452  1.00  0.00    -0.550 OA
ATOM      6  O   UNL     1       6.678  11.192   8.516  1.00  0.00    -0.550 OA
ENDBRANCH   3   4
ENDBRANCH   2   3
ENDBRANCH   1   2
BRANCH   1   7
ATOM      7  C   UNL     1      10.327  13.648   4.785  1.00  0.00     0.000 C 
BRANCH   7   8
ATOM      8  C   UNL     1       9.037  13.191   4.075  1.00  0.00     0.004 C 
BRANCH   8   9
ATOM      9  C   UNL     1       9.012  11.699   3.696  1.00  0.00     0.027 C 
BRANCH   9  10
ATOM     10  C   UNL     1      10.124  10.918   4.340  1.00  0.00    -0.035 C 
ATOM     11  C   UNL     1       9.899  10.071   5.349  1.00  0.00     0.004 C 
ENDBRANCH   9  10
ENDBRANCH   8   9
ENDBRANCH   7   8
ENDBRANCH   1   7
TORSDOF 7
ENDMDL
