MODEL 1
REMARK VINA RESULT:    -6.815      0.000      0.000
REMARK INTER + INTRA:          -8.549
REMARK INTER:                  -8.209
REMARK INTRA:                  -0.339
REMARK UNBOUND:                -0.339
REMARK SMILES Oc1cc(O)c2c(c1)O[C@@H](c1ccc(O)c(O)c1)[C@H](O)C2
REMARK SMILES IDX 21 1 19 2 10 3 9 4 7 5 8 6 2 7 3 8 4 9 6 10 20 11 11 13
REMARK SMILES IDX 18 14 12 15 16 16 13 17 14 18 17 19 15 21 5 23 1 25
REMARK H PARENT 20 12 17 20 15 22 5 24 1 26
REMARK Flexibility Score: inf
ROOT
ATOM      1  C   UNL     1      25.869  42.049   4.289  1.00  0.00     0.079 C 
ATOM      2  C   UNL     1      26.121  40.592   4.721  1.00  0.00     0.164 C 
ATOM      3  C   UNL     1      25.736  39.624   3.584  1.00  0.00     0.232 C 
ATOM      4  O   UNL     1      26.460  39.961   2.400  1.00  0.00    -0.482 OA
ATOM      5  C   UNL     1      26.711  41.286   2.029  1.00  0.00     0.131 A 
ATOM      6  C   UNL     1      27.256  41.544   0.769  1.00  0.00     0.093 A 
ATOM      7  C   UNL     1      27.506  42.858   0.362  1.00  0.00     0.122 A 
ATOM      8  C   UNL     1      27.198  43.919   1.218  1.00  0.00     0.092 A 
ATOM      9  C   UNL     1      26.652  43.680   2.484  1.00  0.00     0.126 A 
ATOM     10  C   UNL     1      26.438  42.349   2.917  1.00  0.00     0.039 A 
ENDROOT
BRANCH   2  11
ATOM     11  O   UNL     1      25.421  40.298   5.904  1.00  0.00    -0.389 OA
ATOM     12  H   UNL     1      26.065  40.350   6.658  1.00  0.00     0.211 HD
ENDBRANCH   2  11
BRANCH   3  13
ATOM     13  C   UNL     1      26.023  38.190   3.966  1.00  0.00    -0.001 A 
ATOM     14  C   UNL     1      25.010  37.222   3.890  1.00  0.00     0.057 A 
ATOM     15  C   UNL     1      27.288  37.820   4.448  1.00  0.00     0.012 A 
ATOM     16  C   UNL     1      25.253  35.895   4.268  1.00  0.00     0.157 A 
ATOM     17  C   UNL     1      27.540  36.501   4.825  1.00  0.00     0.050 A 
ATOM     18  C   UNL     1      26.537  35.529   4.740  1.00  0.00     0.157 A 
BRANCH  16  19
ATOM     19  O   UNL     1      24.201  34.984   4.164  1.00  0.00    -0.504 OA
ATOM     20  H   UNL     1      23.226  35.246   4.148  1.00  0.00     0.293 HD
ENDBRANCH  16  19
BRANCH  18  21
ATOM     21  O   UNL     1      26.854  34.226   5.131  1.00  0.00    -0.504 OA
ATOM     22  H   UNL     1      26.191  33.465   5.151  1.00  0.00     0.293 HD
ENDBRANCH  18  21
ENDBRANCH   3  13
BRANCH   9  23
ATOM     23  O   UNL     1      26.325  44.783   3.276  1.00  0.00    -0.507 OA
ATOM     24  H   UNL     1      26.823  45.662   3.239  1.00  0.00     0.293 HD
ENDBRANCH   9  23
BRANCH   7  25
ATOM     25  O   UNL     1      28.051  43.123  -0.891  1.00  0.00    -0.508 OA
ATOM     26  H   UNL     1      27.832  43.975  -1.394  1.00  0.00     0.293 HD
ENDBRANCH   7  25
TORSDOF 6
ENDMDL
MODEL 2
REMARK VINA RESULT:    -6.793      2.000      7.714
REMARK INTER + INTRA:          -8.522
REMARK INTER:                  -8.160
REMARK INTRA:                  -0.361
REMARK UNBOUND:                -0.339
REMARK SMILES Oc1cc(O)c2c(c1)O[C@@H](c1ccc(O)c(O)c1)[C@H](O)C2
REMARK SMILES IDX 21 1 19 2 10 3 9 4 7 5 8 6 2 7 3 8 4 9 6 10 20 11 11 13
REMARK SMILES IDX 18 14 12 15 16 16 13 17 14 18 17 19 15 21 5 23 1 25
REMARK H PARENT 20 12 17 20 15 22 5 24 1 26
REMARK Flexibility Score: inf
ROOT
ATOM      1  C   UNL     1      27.192  35.360   4.757  1.00  0.00     0.079 C 
ATOM      2  C   UNL     1      26.982  36.883   4.649  1.00  0.00     0.164 C 
ATOM      3  C   UNL     1      26.093  37.214   3.433  1.00  0.00     0.232 C 
ATOM      4  O   UNL     1      24.854  36.512   3.539  1.00  0.00    -0.482 OA
ATOM      5  C   UNL     1      24.775  35.204   4.029  1.00  0.00     0.131 A 
ATOM      6  C   UNL     1      23.563  34.516   3.926  1.00  0.00     0.093 A 
ATOM      7  C   UNL     1      23.456  33.202   4.393  1.00  0.00     0.122 A 
ATOM      8  C   UNL     1      24.569  32.572   4.954  1.00  0.00     0.092 A 
ATOM      9  C   UNL     1      25.791  33.245   5.064  1.00  0.00     0.126 A 
ATOM     10  C   UNL     1      25.893  34.590   4.634  1.00  0.00     0.039 A 
ENDROOT
BRANCH   2  11
ATOM     11  O   UNL     1      28.218  37.549   4.577  1.00  0.00    -0.389 OA
ATOM     12  H   UNL     1      28.818  37.011   3.997  1.00  0.00     0.211 HD
ENDBRANCH   2  11
BRANCH   3  13
ATOM     13  C   UNL     1      25.830  38.699   3.337  1.00  0.00    -0.001 A 
ATOM     14  C   UNL     1      26.229  39.415   2.197  1.00  0.00     0.057 A 
ATOM     15  C   UNL     1      25.232  39.388   4.403  1.00  0.00     0.012 A 
ATOM     16  C   UNL     1      26.018  40.797   2.105  1.00  0.00     0.157 A 
ATOM     17  C   UNL     1      25.017  40.765   4.320  1.00  0.00     0.050 A 
ATOM     18  C   UNL     1      25.402  41.481   3.181  1.00  0.00     0.157 A 
BRANCH  16  19
ATOM     19  O   UNL     1      26.436  41.444   0.941  1.00  0.00    -0.504 OA
ATOM     20  H   UNL     1      26.646  42.430   0.888  1.00  0.00     0.293 HD
ENDBRANCH  16  19
BRANCH  18  21
ATOM     21  O   UNL     1      25.156  42.855   3.160  1.00  0.00    -0.504 OA
ATOM     22  H   UNL     1      24.836  43.384   3.958  1.00  0.00     0.293 HD
ENDBRANCH  18  21
ENDBRANCH   3  13
BRANCH   9  23
ATOM     23  O   UNL     1      26.879  32.547   5.593  1.00  0.00    -0.507 OA
ATOM     24  H   UNL     1      27.072  32.487   6.584  1.00  0.00     0.293 HD
ENDBRANCH   9  23
BRANCH   7  25
ATOM     25  O   UNL     1      22.251  32.510   4.297  1.00  0.00    -0.508 OA
ATOM     26  H   UNL     1      21.683  32.550   3.458  1.00  0.00     0.293 HD
ENDBRANCH   7  25
TORSDOF 6
ENDMDL
MODEL 3
REMARK VINA RESULT:    -6.623      9.297     12.162
REMARK INTER + INTRA:          -8.317
REMARK INTER:                  -8.684
REMARK INTRA:                   0.367
REMARK UNBOUND:                -0.339
REMARK SMILES Oc1cc(O)c2c(c1)O[C@@H](c1ccc(O)c(O)c1)[C@H](O)C2
REMARK SMILES IDX 21 1 19 2 10 3 9 4 7 5 8 6 2 7 3 8 4 9 6 10 20 11 11 13
REMARK SMILES IDX 18 14 12 15 16 16 13 17 14 18 17 19 15 21 5 23 1 25
REMARK H PARENT 20 12 17 20 15 22 5 24 1 26
REMARK Flexibility Score: inf
ROOT
ATOM      1  C   UNL     1      24.358  44.576  10.413  1.00  0.00     0.079 C 
ATOM      2  C   UNL     1      23.420  45.510   9.625  1.00  0.00     0.164 C 
ATOM      3  C   UNL     1      21.950  45.095   9.838  1.00  0.00     0.232 C 
ATOM      4  O   UNL     1      21.650  45.093  11.234  1.00  0.00    -0.482 OA
ATOM      5  C   UNL     1      22.565  44.652  12.196  1.00  0.00     0.131 A 
ATOM      6  C   UNL     1      22.138  44.500  13.517  1.00  0.00     0.093 A 
ATOM      7  C   UNL     1      23.024  44.048  14.499  1.00  0.00     0.122 A 
ATOM      8  C   UNL     1      24.342  43.738  14.153  1.00  0.00     0.092 A 
ATOM      9  C   UNL     1      24.789  43.883  12.835  1.00  0.00     0.126 A 
ATOM     10  C   UNL     1      23.907  44.382  11.846  1.00  0.00     0.039 A 
ENDROOT
BRANCH   2  11
ATOM     11  O   UNL     1      23.759  45.515   8.260  1.00  0.00    -0.389 OA
ATOM     12  H   UNL     1      23.057  45.009   7.773  1.00  0.00     0.211 HD
ENDBRANCH   2  11
BRANCH   3  13
ATOM     13  C   UNL     1      21.008  46.029   9.115  1.00  0.00    -0.001 A 
ATOM     14  C   UNL     1      21.298  46.454   7.809  1.00  0.00     0.057 A 
ATOM     15  C   UNL     1      19.861  46.522   9.756  1.00  0.00     0.012 A 
ATOM     16  C   UNL     1      20.448  47.343   7.137  1.00  0.00     0.157 A 
ATOM     17  C   UNL     1      19.009  47.406   9.094  1.00  0.00     0.050 A 
ATOM     18  C   UNL     1      19.287  47.824   7.788  1.00  0.00     0.157 A 
BRANCH  16  19
ATOM     19  O   UNL     1      20.796  47.720   5.839  1.00  0.00    -0.504 OA
ATOM     20  H   UNL     1      21.580  48.316   5.615  1.00  0.00     0.293 HD
ENDBRANCH  16  19
BRANCH  18  21
ATOM     21  O   UNL     1      18.392  48.707   7.180  1.00  0.00    -0.504 OA
ATOM     22  H   UNL     1      17.408  48.519   7.056  1.00  0.00     0.293 HD
ENDBRANCH  18  21
ENDBRANCH   3  13
BRANCH   9  23
ATOM     23  O   UNL     1      26.104  43.515  12.543  1.00  0.00    -0.507 OA
ATOM     24  H   UNL     1      26.433  42.559  12.574  1.00  0.00     0.293 HD
ENDBRANCH   9  23
BRANCH   7  25
ATOM     25  O   UNL     1      22.607  43.896  15.818  1.00  0.00    -0.508 OA
ATOM     26  H   UNL     1      22.931  44.517  16.552  1.00  0.00     0.293 HD
ENDBRANCH   7  25
TORSDOF 6
ENDMDL
MODEL 4
REMARK VINA RESULT:    -6.487      8.595     10.628
REMARK INTER + INTRA:          -8.153
REMARK INTER:                  -7.874
REMARK INTRA:                  -0.278
REMARK UNBOUND:                -0.339
REMARK SMILES Oc1cc(O)c2c(c1)O[C@@H](c1ccc(O)c(O)c1)[C@H](O)C2
REMARK SMILES IDX 21 1 19 2 10 3 9 4 7 5 8 6 2 7 3 8 4 9 6 10 20 11 11 13
REMARK SMILES IDX 18 14 12 15 16 16 13 17 14 18 17 19 15 21 5 23 1 25
REMARK H PARENT 20 12 17 20 15 22 5 24 1 26
REMARK Flexibility Score: inf
ROOT
ATOM      1  C   UNL     1      22.457  44.715  10.323  1.00  0.00     0.079 C 
ATOM      2  C   UNL     1      23.912  45.217  10.388  1.00  0.00     0.164 C 
ATOM      3  C   UNL     1      24.440  45.510   8.969  1.00  0.00     0.232 C 
ATOM      4  O   UNL     1      23.582  46.451   8.323  1.00  0.00    -0.482 OA
ATOM      5  C   UNL     1      22.191  46.422   8.475  1.00  0.00     0.131 A 
ATOM      6  C   UNL     1      21.405  47.248   7.668  1.00  0.00     0.093 A 
ATOM      7  C   UNL     1      20.012  47.232   7.785  1.00  0.00     0.122 A 
ATOM      8  C   UNL     1      19.404  46.377   8.707  1.00  0.00     0.092 A 
ATOM      9  C   UNL     1      20.174  45.542   9.525  1.00  0.00     0.126 A 
ATOM     10  C   UNL     1      21.587  45.587   9.440  1.00  0.00     0.039 A 
ENDROOT
BRANCH   2  11
ATOM     11  O   UNL     1      24.727  44.285  11.056  1.00  0.00    -0.389 OA
ATOM     12  H   UNL     1      24.610  44.426  12.032  1.00  0.00     0.211 HD
ENDBRANCH   2  11
BRANCH   3  13
ATOM     13  C   UNL     1      25.849  46.053   9.012  1.00  0.00    -0.001 A 
ATOM     14  C   UNL     1      26.200  47.036   9.951  1.00  0.00     0.057 A 
ATOM     15  C   UNL     1      26.809  45.619   8.086  1.00  0.00     0.012 A 
ATOM     16  C   UNL     1      27.496  47.569   9.984  1.00  0.00     0.157 A 
ATOM     17  C   UNL     1      28.102  46.143   8.112  1.00  0.00     0.050 A 
ATOM     18  C   UNL     1      28.460  47.115   9.053  1.00  0.00     0.157 A 
BRANCH  16  19
ATOM     19  O   UNL     1      27.776  48.541  10.947  1.00  0.00    -0.504 OA
ATOM     20  H   UNL     1      27.391  48.539  11.880  1.00  0.00     0.293 HD
ENDBRANCH  16  19
BRANCH  18  21
ATOM     21  O   UNL     1      29.771  47.597   9.029  1.00  0.00    -0.504 OA
ATOM     22  H   UNL     1      30.268  47.922   9.845  1.00  0.00     0.293 HD
ENDBRANCH  18  21
ENDBRANCH   3  13
BRANCH   9  23
ATOM     23  O   UNL     1      19.506  44.678  10.395  1.00  0.00    -0.507 OA
ATOM     24  H   UNL     1      18.891  43.939  10.082  1.00  0.00     0.293 HD
ENDBRANCH   9  23
BRANCH   7  25
ATOM     25  O   UNL     1      19.222  48.054   6.986  1.00  0.00    -0.508 OA
ATOM     26  H   UNL     1      19.579  48.924   6.605  1.00  0.00     0.293 HD
ENDBRANCH   7  25
TORSDOF 6
ENDMDL
MODEL 5
REMARK VINA RESULT:    -6.441      9.051     10.450
REMARK INTER + INTRA:          -8.099
REMARK INTER:                  -7.881
REMARK INTRA:                  -0.218
REMARK UNBOUND:                -0.339
REMARK SMILES Oc1cc(O)c2c(c1)O[C@@H](c1ccc(O)c(O)c1)[C@H](O)C2
REMARK SMILES IDX 21 1 19 2 10 3 9 4 7 5 8 6 2 7 3 8 4 9 6 10 20 11 11 13
REMARK SMILES IDX 18 14 12 15 16 16 13 17 14 18 17 19 15 21 5 23 1 25
REMARK H PARENT 20 12 17 20 15 22 5 24 1 26
REMARK Flexibility Score: inf
ROOT
ATOM      1  C   UNL     1      20.578  45.360  11.200  1.00  0.00     0.079 C 
ATOM      2  C   UNL     1      22.005  45.113  11.728  1.00  0.00     0.164 C 
ATOM      3  C   UNL     1      22.864  44.433  10.643  1.00  0.00     0.232 C 
ATOM      4  O   UNL     1      22.866  45.232   9.460  1.00  0.00    -0.482 OA
ATOM      5  C   UNL     1      21.726  45.911   9.014  1.00  0.00     0.131 A 
ATOM      6  C   UNL     1      21.749  46.515   7.755  1.00  0.00     0.093 A 
ATOM      7  C   UNL     1      20.621  47.188   7.274  1.00  0.00     0.122 A 
ATOM      8  C   UNL     1      19.464  47.247   8.054  1.00  0.00     0.092 A 
ATOM      9  C   UNL     1      19.422  46.647   9.318  1.00  0.00     0.126 A 
ATOM     10  C   UNL     1      20.575  46.002   9.827  1.00  0.00     0.039 A 
ENDROOT
BRANCH   2  11
ATOM     11  O   UNL     1      21.970  44.350  12.908  1.00  0.00    -0.389 OA
ATOM     12  H   UNL     1      21.049  44.404  13.276  1.00  0.00     0.211 HD
ENDBRANCH   2  11
BRANCH   3  13
ATOM     13  C   UNL     1      24.283  44.227  11.121  1.00  0.00    -0.001 A 
ATOM     14  C   UNL     1      24.908  45.198  11.918  1.00  0.00     0.057 A 
ATOM     15  C   UNL     1      25.008  43.090  10.733  1.00  0.00     0.012 A 
ATOM     16  C   UNL     1      26.233  45.034  12.345  1.00  0.00     0.157 A 
ATOM     17  C   UNL     1      26.327  42.918  11.155  1.00  0.00     0.050 A 
ATOM     18  C   UNL     1      26.951  43.877  11.959  1.00  0.00     0.157 A 
BRANCH  16  19
ATOM     19  O   UNL     1      26.791  46.038  13.139  1.00  0.00    -0.504 OA
ATOM     20  H   UNL     1      26.413  46.330  14.028  1.00  0.00     0.293 HD
ENDBRANCH  16  19
BRANCH  18  21
ATOM     21  O   UNL     1      28.272  43.644  12.349  1.00  0.00    -0.504 OA
ATOM     22  H   UNL     1      28.964  44.370  12.462  1.00  0.00     0.293 HD
ENDBRANCH  18  21
ENDBRANCH   3  13
BRANCH   9  23
ATOM     23  O   UNL     1      18.223  46.701  10.031  1.00  0.00    -0.507 OA
ATOM     24  H   UNL     1      17.314  46.589   9.601  1.00  0.00     0.293 HD
ENDBRANCH   9  23
BRANCH   7  25
ATOM     25  O   UNL     1      20.636  47.795   6.021  1.00  0.00    -0.508 OA
ATOM     26  H   UNL     1      20.076  48.617   5.824  1.00  0.00     0.293 HD
ENDBRANCH   7  25
TORSDOF 6
ENDMDL
MODEL 6
REMARK VINA RESULT:    -6.291      1.764      7.079
REMARK INTER + INTRA:          -7.917
REMARK INTER:                  -7.548
REMARK INTRA:                  -0.369
REMARK UNBOUND:                -0.339
REMARK SMILES Oc1cc(O)c2c(c1)O[C@@H](c1ccc(O)c(O)c1)[C@H](O)C2
REMARK SMILES IDX 21 1 19 2 10 3 9 4 7 5 8 6 2 7 3 8 4 9 6 10 20 11 11 13
REMARK SMILES IDX 18 14 12 15 16 16 13 17 14 18 17 19 15 21 5 23 1 25
REMARK H PARENT 20 12 17 20 15 22 5 24 1 26
REMARK Flexibility Score: inf
ROOT
ATOM      1  C   UNL     1      27.085  36.690   4.894  1.00  0.00     0.079 C 
ATOM      2  C   UNL     1      26.830  38.203   4.752  1.00  0.00     0.164 C 
ATOM      3  C   UNL     1      26.916  38.622   3.270  1.00  0.00     0.232 C 
ATOM      4  O   UNL     1      25.992  37.852   2.500  1.00  0.00    -0.482 OA
ATOM      5  C   UNL     1      25.758  36.496   2.750  1.00  0.00     0.131 A 
ATOM      6  C   UNL     1      24.989  35.764   1.841  1.00  0.00     0.093 A 
ATOM      7  C   UNL     1      24.749  34.403   2.055  1.00  0.00     0.122 A 
ATOM      8  C   UNL     1      25.291  33.771   3.176  1.00  0.00     0.092 A 
ATOM      9  C   UNL     1      26.064  34.487   4.097  1.00  0.00     0.126 A 
ATOM     10  C   UNL     1      26.273  35.875   3.909  1.00  0.00     0.039 A 
ENDROOT
BRANCH   2  11
ATOM     11  O   UNL     1      27.734  38.934   5.544  1.00  0.00    -0.389 OA
ATOM     12  H   UNL     1      28.392  39.361   4.936  1.00  0.00     0.211 HD
ENDBRANCH   2  11
BRANCH   3  13
ATOM     13  C   UNL     1      26.618  40.094   3.101  1.00  0.00    -0.001 A 
ATOM     14  C   UNL     1      27.613  40.966   2.631  1.00  0.00     0.057 A 
ATOM     15  C   UNL     1      25.365  40.614   3.457  1.00  0.00     0.012 A 
ATOM     16  C   UNL     1      27.360  42.338   2.496  1.00  0.00     0.157 A 
ATOM     17  C   UNL     1      25.104  41.978   3.324  1.00  0.00     0.050 A 
ATOM     18  C   UNL     1      26.088  42.850   2.845  1.00  0.00     0.157 A 
BRANCH  16  19
ATOM     19  O   UNL     1      28.394  43.147   2.019  1.00  0.00    -0.504 OA
ATOM     20  H   UNL     1      29.368  42.882   2.029  1.00  0.00     0.293 HD
ENDBRANCH  16  19
BRANCH  18  21
ATOM     21  O   UNL     1      25.762  44.204   2.733  1.00  0.00    -0.504 OA
ATOM     22  H   UNL     1      25.037  44.656   3.270  1.00  0.00     0.293 HD
ENDBRANCH  18  21
ENDBRANCH   3  13
BRANCH   9  23
ATOM     23  O   UNL     1      26.615  33.790   5.175  1.00  0.00    -0.507 OA
ATOM     24  H   UNL     1      27.556  33.942   5.513  1.00  0.00     0.293 HD
ENDBRANCH   9  23
BRANCH   7  25
ATOM     25  O   UNL     1      23.982  33.667   1.155  1.00  0.00    -0.508 OA
ATOM     26  H   UNL     1      22.988  33.525   1.300  1.00  0.00     0.293 HD
ENDBRANCH   7  25
TORSDOF 6
ENDMDL
MODEL 7
REMARK VINA RESULT:    -6.258      1.832      3.682
REMARK INTER + INTRA:          -7.878
REMARK INTER:                  -7.604
REMARK INTRA:                  -0.274
REMARK UNBOUND:                -0.339
REMARK SMILES Oc1cc(O)c2c(c1)O[C@@H](c1ccc(O)c(O)c1)[C@H](O)C2
REMARK SMILES IDX 21 1 19 2 10 3 9 4 7 5 8 6 2 7 3 8 4 9 6 10 20 11 11 13
REMARK SMILES IDX 18 14 12 15 16 16 13 17 14 18 17 19 15 21 5 23 1 25
REMARK H PARENT 20 12 17 20 15 22 5 24 1 26
REMARK Flexibility Score: inf
ROOT
ATOM      1  C   UNL     1      26.613  39.204   1.791  1.00  0.00     0.079 C 
ATOM      2  C   UNL     1      25.985  37.853   2.187  1.00  0.00     0.164 C 
ATOM      3  C   UNL     1      26.474  37.428   3.586  1.00  0.00     0.232 C 
ATOM      4  O   UNL     1      26.171  38.453   4.533  1.00  0.00    -0.482 OA
ATOM      5  C   UNL     1      26.282  39.813   4.223  1.00  0.00     0.131 A 
ATOM      6  C   UNL     1      26.154  40.753   5.249  1.00  0.00     0.093 A 
ATOM      7  C   UNL     1      26.274  42.119   4.975  1.00  0.00     0.122 A 
ATOM      8  C   UNL     1      26.534  42.544   3.670  1.00  0.00     0.092 A 
ATOM      9  C   UNL     1      26.666  41.617   2.629  1.00  0.00     0.126 A 
ATOM     10  C   UNL     1      26.501  40.236   2.894  1.00  0.00     0.039 A 
ENDROOT
BRANCH   2  11
ATOM     11  O   UNL     1      26.274  36.872   1.223  1.00  0.00    -0.389 OA
ATOM     12  H   UNL     1      27.250  36.692   1.257  1.00  0.00     0.211 HD
ENDBRANCH   2  11
BRANCH   3  13
ATOM     13  C   UNL     1      25.831  36.130   4.018  1.00  0.00    -0.001 A 
ATOM     14  C   UNL     1      26.607  35.116   4.600  1.00  0.00     0.057 A 
ATOM     15  C   UNL     1      24.464  35.904   3.797  1.00  0.00     0.012 A 
ATOM     16  C   UNL     1      26.030  33.896   4.979  1.00  0.00     0.157 A 
ATOM     17  C   UNL     1      23.880  34.693   4.173  1.00  0.00     0.050 A 
ATOM     18  C   UNL     1      24.647  33.683   4.764  1.00  0.00     0.157 A 
BRANCH  16  19
ATOM     19  O   UNL     1      26.860  32.934   5.556  1.00  0.00    -0.504 OA
ATOM     20  H   UNL     1      26.673  31.942   5.536  1.00  0.00     0.293 HD
ENDBRANCH  16  19
BRANCH  18  21
ATOM     21  O   UNL     1      24.002  32.497   5.120  1.00  0.00    -0.504 OA
ATOM     22  H   UNL     1      23.556  32.341   6.012  1.00  0.00     0.293 HD
ENDBRANCH  18  21
ENDBRANCH   3  13
BRANCH   9  23
ATOM     23  O   UNL     1      26.969  42.101   1.355  1.00  0.00    -0.507 OA
ATOM     24  H   UNL     1      26.270  42.442   0.708  1.00  0.00     0.293 HD
ENDBRANCH   9  23
BRANCH   7  25
ATOM     25  O   UNL     1      26.146  43.062   5.992  1.00  0.00    -0.508 OA
ATOM     26  H   UNL     1      25.701  42.832   6.873  1.00  0.00     0.293 HD
ENDBRANCH   7  25
TORSDOF 6
ENDMDL
MODEL 8
REMARK VINA RESULT:    -6.109      2.268      7.899
REMARK INTER + INTRA:          -7.698
REMARK INTER:                  -7.359
REMARK INTRA:                  -0.339
REMARK UNBOUND:                -0.339
REMARK SMILES Oc1cc(O)c2c(c1)O[C@@H](c1ccc(O)c(O)c1)[C@H](O)C2
REMARK SMILES IDX 21 1 19 2 10 3 9 4 7 5 8 6 2 7 3 8 4 9 6 10 20 11 11 13
REMARK SMILES IDX 18 14 12 15 16 16 13 17 14 18 17 19 15 21 5 23 1 25
REMARK H PARENT 20 12 17 20 15 22 5 24 1 26
REMARK Flexibility Score: inf
ROOT
ATOM      1  C   UNL     1      26.173  40.837   1.460  1.00  0.00     0.079 C 
ATOM      2  C   UNL     1      26.728  42.205   1.019  1.00  0.00     0.164 C 
ATOM      3  C   UNL     1      26.512  43.252   2.130  1.00  0.00     0.232 C 
ATOM      4  O   UNL     1      27.116  42.799   3.341  1.00  0.00    -0.482 OA
ATOM      5  C   UNL     1      27.083  41.457   3.737  1.00  0.00     0.131 A 
ATOM      6  C   UNL     1      27.525  41.119   5.018  1.00  0.00     0.093 A 
ATOM      7  C   UNL     1      27.492  39.789   5.449  1.00  0.00     0.122 A 
ATOM      8  C   UNL     1      27.002  38.796   4.597  1.00  0.00     0.092 A 
ATOM      9  C   UNL     1      26.554  39.116   3.310  1.00  0.00     0.126 A 
ATOM     10  C   UNL     1      26.627  40.454   2.853  1.00  0.00     0.039 A 
ENDROOT
BRANCH   2  11
ATOM     11  O   UNL     1      26.138  42.611  -0.191  1.00  0.00    -0.389 OA
ATOM     12  H   UNL     1      25.454  41.935  -0.436  1.00  0.00     0.211 HD
ENDBRANCH   2  11
BRANCH   3  13
ATOM     13  C   UNL     1      27.094  44.591   1.740  1.00  0.00    -0.001 A 
ATOM     14  C   UNL     1      26.296  45.745   1.771  1.00  0.00     0.057 A 
ATOM     15  C   UNL     1      28.421  44.688   1.294  1.00  0.00     0.012 A 
ATOM     16  C   UNL     1      26.815  46.989   1.385  1.00  0.00     0.157 A 
ATOM     17  C   UNL     1      28.946  45.923   0.909  1.00  0.00     0.050 A 
ATOM     18  C   UNL     1      28.159  47.079   0.950  1.00  0.00     0.157 A 
BRANCH  16  19
ATOM     19  O   UNL     1      25.966  48.095   1.445  1.00  0.00    -0.504 OA
ATOM     20  H   UNL     1      25.131  48.136   2.011  1.00  0.00     0.293 HD
ENDBRANCH  16  19
BRANCH  18  21
ATOM     21  O   UNL     1      28.745  48.283   0.554  1.00  0.00    -0.504 OA
ATOM     22  H   UNL     1      28.536  48.754  -0.314  1.00  0.00     0.293 HD
ENDBRANCH  18  21
ENDBRANCH   3  13
BRANCH   9  23
ATOM     23  O   UNL     1      26.035  38.087   2.522  1.00  0.00    -0.507 OA
ATOM     24  H   UNL     1      26.140  37.106   2.747  1.00  0.00     0.293 HD
ENDBRANCH   9  23
BRANCH   7  25
ATOM     25  O   UNL     1      27.933  39.444   6.724  1.00  0.00    -0.508 OA
ATOM     26  H   UNL     1      28.073  40.144   7.444  1.00  0.00     0.293 HD
ENDBRANCH   7  25
TORSDOF 6
ENDMDL
MODEL 9
REMARK VINA RESULT:    -6.063      1.578      2.886
REMARK INTER + INTRA:          -7.642
REMARK INTER:                  -7.372
REMARK INTRA:                  -0.270
REMARK UNBOUND:                -0.339
REMARK SMILES Oc1cc(O)c2c(c1)O[C@@H](c1ccc(O)c(O)c1)[C@H](O)C2
REMARK SMILES IDX 21 1 19 2 10 3 9 4 7 5 8 6 2 7 3 8 4 9 6 10 20 11 11 13
REMARK SMILES IDX 18 14 12 15 16 16 13 17 14 18 17 19 15 21 5 23 1 25
REMARK H PARENT 20 12 17 20 15 22 5 24 1 26
REMARK Flexibility Score: inf
ROOT
ATOM      1  C   UNL     1      28.934  40.387   1.003  1.00  0.00     0.079 C 
ATOM      2  C   UNL     1      28.307  39.036   1.396  1.00  0.00     0.164 C 
ATOM      3  C   UNL     1      27.831  39.074   2.862  1.00  0.00     0.232 C 
ATOM      4  O   UNL     1      26.918  40.157   3.043  1.00  0.00    -0.482 OA
ATOM      5  C   UNL     1      27.092  41.395   2.413  1.00  0.00     0.131 A 
ATOM      6  C   UNL     1      26.270  42.463   2.783  1.00  0.00     0.093 A 
ATOM      7  C   UNL     1      26.428  43.716   2.183  1.00  0.00     0.122 A 
ATOM      8  C   UNL     1      27.420  43.902   1.217  1.00  0.00     0.092 A 
ATOM      9  C   UNL     1      28.253  42.845   0.835  1.00  0.00     0.126 A 
ATOM     10  C   UNL     1      28.068  41.563   1.407  1.00  0.00     0.039 A 
ENDROOT
BRANCH   2  11
ATOM     11  O   UNL     1      29.217  37.987   1.179  1.00  0.00    -0.389 OA
ATOM     12  H   UNL     1      29.681  37.807   2.039  1.00  0.00     0.211 HD
ENDBRANCH   2  11
BRANCH   3  13
ATOM     13  C   UNL     1      27.165  37.776   3.255  1.00  0.00    -0.001 A 
ATOM     14  C   UNL     1      26.263  37.152   2.379  1.00  0.00     0.057 A 
ATOM     15  C   UNL     1      27.400  37.206   4.515  1.00  0.00     0.012 A 
ATOM     16  C   UNL     1      25.616  35.962   2.741  1.00  0.00     0.157 A 
ATOM     17  C   UNL     1      26.762  36.021   4.883  1.00  0.00     0.050 A 
ATOM     18  C   UNL     1      25.871  35.388   4.009  1.00  0.00     0.157 A 
BRANCH  16  19
ATOM     19  O   UNL     1      24.735  35.394   1.819  1.00  0.00    -0.504 OA
ATOM     20  H   UNL     1      25.008  35.065   0.905  1.00  0.00     0.293 HD
ENDBRANCH  16  19
BRANCH  18  21
ATOM     21  O   UNL     1      25.267  34.204   4.437  1.00  0.00    -0.504 OA
ATOM     22  H   UNL     1      24.510  33.748   3.949  1.00  0.00     0.293 HD
ENDBRANCH  18  21
ENDBRANCH   3  13
BRANCH   9  23
ATOM     23  O   UNL     1      29.254  43.105  -0.103  1.00  0.00    -0.507 OA
ATOM     24  H   UNL     1      29.313  43.965  -0.631  1.00  0.00     0.293 HD
ENDBRANCH   9  23
BRANCH   7  25
ATOM     25  O   UNL     1      25.611  44.784   2.544  1.00  0.00    -0.508 OA
ATOM     26  H   UNL     1      25.506  45.596   1.946  1.00  0.00     0.293 HD
ENDBRANCH   7  25
TORSDOF 6
ENDMDL
