MODEL 1
REMARK VINA RESULT:    -5.737      0.000      0.000
REMARK INTER + INTRA:          -5.737
REMARK INTER:                  -5.737
REMARK INTRA:                   0.000
REMARK UNBOUND:                 0.000
REMARK SMILES C[C@H]1C(=O)CC[C@H]2[C@]1(C)CC[C@H]1[C@]2(C)CC[C@@]2(C)[C@@H]3CC(C)(C)CC[C@]3(C)CC[C@@]12C
REMARK SMILES IDX 1 1 2 2 3 3 4 4 5 5 6 6 7 7 8 8 10 9 11 10 12 11 13 12 15 13
REMARK SMILES IDX 16 14 17 15 30 16 29 17 28 18 26 19 19 20 20 21 21 22 24 23
REMARK SMILES IDX 25 24 22 25 23 26 27 27 31 28 18 29 14 30 9 31
REMARK H PARENT
REMARK Flexibility Score: inf
ROOT
ATOM      1  C   UNL     1       9.843  -3.363  -3.326  1.00  0.00     0.016 C 
ATOM      2  C   UNL     1       8.514  -3.067  -4.052  1.00  0.00     0.059 C 
ATOM      3  C   UNL     1       8.514  -1.627  -4.482  1.00  0.00     0.136 C 
ATOM      4  O   UNL     1       8.359  -0.741  -3.655  1.00  0.00    -0.299 OA
ATOM      5  C   UNL     1       8.747  -1.275  -5.910  1.00  0.00     0.076 C 
ATOM      6  C   UNL     1       7.768  -2.011  -6.835  1.00  0.00     0.012 C 
ATOM      7  C   UNL     1       7.200  -3.394  -6.327  1.00  0.00     0.002 C 
ATOM      8  C   UNL     1       8.152  -4.068  -5.232  1.00  0.00    -0.020 C 
ATOM      9  C   UNL     1       7.526  -5.352  -4.598  1.00  0.00     0.008 C 
ATOM     10  C   UNL     1       6.035  -5.259  -4.283  1.00  0.00     0.005 C 
ATOM     11  C   UNL     1       5.133  -4.792  -5.463  1.00  0.00     0.002 C 
ATOM     12  C   UNL     1       5.634  -3.386  -6.015  1.00  0.00    -0.026 C 
ATOM     13  C   UNL     1       4.799  -2.969  -7.280  1.00  0.00     0.008 C 
ATOM     14  C   UNL     1       4.473  -4.085  -8.268  1.00  0.00     0.008 C 
ATOM     15  C   UNL     1       3.732  -5.306  -7.641  1.00  0.00    -0.024 C 
ATOM     16  C   UNL     1       4.679  -5.932  -6.518  1.00  0.00    -0.024 C 
ATOM     17  C   UNL     1       5.912  -6.662  -7.158  1.00  0.00     0.008 C 
ATOM     18  C   UNL     1       5.919  -6.949  -8.664  1.00  0.00     0.007 C 
ATOM     19  C   UNL     1       4.561  -7.207  -9.377  1.00  0.00    -0.029 C 
ATOM     20  C   UNL     1       3.365  -6.317  -8.837  1.00  0.00     0.002 C 
ATOM     21  C   UNL     1       2.032  -7.130  -8.624  1.00  0.00     0.011 C 
ATOM     22  C   UNL     1       1.707  -8.229  -9.676  1.00  0.00    -0.035 C 
ATOM     23  C   UNL     1       2.947  -9.120 -10.006  1.00  0.00     0.007 C 
ATOM     24  C   UNL     1       4.228  -8.720  -9.260  1.00  0.00     0.007 C 
ATOM     25  C   UNL     1       1.141  -7.572 -10.960  1.00  0.00     0.011 C 
ATOM     26  C   UNL     1       0.587  -9.130  -9.100  1.00  0.00     0.011 C 
ATOM     27  C   UNL     1       4.832  -6.881 -10.878  1.00  0.00     0.011 C 
ATOM     28  C   UNL     1       3.909  -7.032  -5.716  1.00  0.00     0.012 C 
ATOM     29  C   UNL     1       2.394  -4.748  -7.031  1.00  0.00     0.012 C 
ATOM     30  C   UNL     1       5.315  -2.288  -4.951  1.00  0.00     0.012 C 
ATOM     31  C   UNL     1       9.443  -4.547  -5.967  1.00  0.00     0.012 C 
ENDROOT
TORSDOF 0
ENDMDL
MODEL 2
REMARK VINA RESULT:    -5.476      2.716      7.811
REMARK INTER + INTRA:          -5.476
REMARK INTER:                  -5.476
REMARK INTRA:                   0.000
REMARK UNBOUND:                 0.000
REMARK SMILES C[C@H]1C(=O)CC[C@H]2[C@]1(C)CC[C@H]1[C@]2(C)CC[C@@]2(C)[C@@H]3CC(C)(C)CC[C@]3(C)CC[C@@]12C
REMARK SMILES IDX 1 1 2 2 3 3 4 4 5 5 6 6 7 7 8 8 10 9 11 10 12 11 13 12 15 13
REMARK SMILES IDX 16 14 17 15 30 16 29 17 28 18 26 19 19 20 20 21 21 22 24 23
REMARK SMILES IDX 25 24 22 25 23 26 27 27 31 28 18 29 14 30 9 31
REMARK H PARENT
REMARK Flexibility Score: inf
ROOT
ATOM      1  C   UNL     1       0.746  -8.810  -9.007  1.00  0.00     0.016 C 
ATOM      2  C   UNL     1       2.278  -8.714  -8.852  1.00  0.00     0.059 C 
ATOM      3  C   UNL     1       2.912  -8.986 -10.187  1.00  0.00     0.136 C 
ATOM      4  O   UNL     1       2.942 -10.125 -10.630  1.00  0.00    -0.299 OA
ATOM      5  C   UNL     1       3.465  -7.863 -10.992  1.00  0.00     0.076 C 
ATOM      6  C   UNL     1       4.477  -7.040 -10.184  1.00  0.00     0.012 C 
ATOM      7  C   UNL     1       4.302  -7.025  -8.614  1.00  0.00     0.002 C 
ATOM      8  C   UNL     1       2.805  -7.377  -8.174  1.00  0.00    -0.020 C 
ATOM      9  C   UNL     1       2.652  -7.529  -6.626  1.00  0.00     0.008 C 
ATOM     10  C   UNL     1       3.790  -8.274  -5.933  1.00  0.00     0.005 C 
ATOM     11  C   UNL     1       5.221  -7.744  -6.245  1.00  0.00     0.002 C 
ATOM     12  C   UNL     1       5.479  -7.751  -7.815  1.00  0.00    -0.026 C 
ATOM     13  C   UNL     1       6.875  -7.106  -8.140  1.00  0.00     0.008 C 
ATOM     14  C   UNL     1       7.251  -5.871  -7.328  1.00  0.00     0.008 C 
ATOM     15  C   UNL     1       7.217  -6.079  -5.783  1.00  0.00    -0.024 C 
ATOM     16  C   UNL     1       5.726  -6.477  -5.373  1.00  0.00    -0.024 C 
ATOM     17  C   UNL     1       4.755  -5.251  -5.503  1.00  0.00     0.008 C 
ATOM     18  C   UNL     1       5.338  -3.845  -5.688  1.00  0.00     0.007 C 
ATOM     19  C   UNL     1       6.718  -3.523  -5.049  1.00  0.00    -0.029 C 
ATOM     20  C   UNL     1       7.753  -4.725  -5.098  1.00  0.00     0.002 C 
ATOM     21  C   UNL     1       8.526  -4.936  -3.742  1.00  0.00     0.011 C 
ATOM     22  C   UNL     1       8.935  -3.652  -2.964  1.00  0.00    -0.035 C 
ATOM     23  C   UNL     1       7.769  -2.616  -2.874  1.00  0.00     0.007 C 
ATOM     24  C   UNL     1       6.482  -3.051  -3.588  1.00  0.00     0.007 C 
ATOM     25  C   UNL     1      10.188  -3.020  -3.619  1.00  0.00     0.011 C 
ATOM     26  C   UNL     1       9.340  -4.070  -1.528  1.00  0.00     0.011 C 
ATOM     27  C   UNL     1       7.265  -2.316  -5.871  1.00  0.00     0.011 C 
ATOM     28  C   UNL     1       5.675  -6.896  -3.866  1.00  0.00     0.012 C 
ATOM     29  C   UNL     1       8.236  -7.234  -5.468  1.00  0.00     0.012 C 
ATOM     30  C   UNL     1       5.605  -9.232  -8.295  1.00  0.00     0.012 C 
ATOM     31  C   UNL     1       1.905  -6.164  -8.570  1.00  0.00     0.012 C 
ENDROOT
TORSDOF 0
ENDMDL
MODEL 3
REMARK VINA RESULT:    -5.309      1.473      2.697
REMARK INTER + INTRA:          -5.309
REMARK INTER:                  -5.309
REMARK INTRA:                   0.000
REMARK UNBOUND:                 0.000
REMARK SMILES C[C@H]1C(=O)CC[C@H]2[C@]1(C)CC[C@H]1[C@]2(C)CC[C@@]2(C)[C@@H]3CC(C)(C)CC[C@]3(C)CC[C@@]12C
REMARK SMILES IDX 1 1 2 2 3 3 4 4 5 5 6 6 7 7 8 8 10 9 11 10 12 11 13 12 15 13
REMARK SMILES IDX 16 14 17 15 30 16 29 17 28 18 26 19 19 20 20 21 21 22 24 23
REMARK SMILES IDX 25 24 22 25 23 26 27 27 31 28 18 29 14 30 9 31
REMARK H PARENT
REMARK Flexibility Score: inf
ROOT
ATOM      1  C   UNL     1       8.330  -0.756  -3.626  1.00  0.00     0.016 C 
ATOM      2  C   UNL     1       8.131  -1.518  -4.952  1.00  0.00     0.059 C 
ATOM      3  C   UNL     1       9.441  -1.552  -5.688  1.00  0.00     0.136 C 
ATOM      4  O   UNL     1       9.864  -0.543  -6.232  1.00  0.00    -0.299 OA
ATOM      5  C   UNL     1      10.247  -2.803  -5.717  1.00  0.00     0.076 C 
ATOM      6  C   UNL     1       9.422  -3.990  -6.233  1.00  0.00     0.012 C 
ATOM      7  C   UNL     1       7.859  -3.927  -6.015  1.00  0.00     0.002 C 
ATOM      8  C   UNL     1       7.459  -2.952  -4.812  1.00  0.00    -0.020 C 
ATOM      9  C   UNL     1       5.914  -2.749  -4.689  1.00  0.00     0.008 C 
ATOM     10  C   UNL     1       5.174  -2.584  -6.014  1.00  0.00     0.005 C 
ATOM     11  C   UNL     1       5.451  -3.691  -7.074  1.00  0.00     0.002 C 
ATOM     12  C   UNL     1       7.012  -3.796  -7.363  1.00  0.00    -0.026 C 
ATOM     13  C   UNL     1       7.305  -4.991  -8.342  1.00  0.00     0.008 C 
ATOM     14  C   UNL     1       6.503  -6.266  -8.106  1.00  0.00     0.008 C 
ATOM     15  C   UNL     1       4.956  -6.066  -8.115  1.00  0.00    -0.024 C 
ATOM     16  C   UNL     1       4.585  -5.051  -6.938  1.00  0.00    -0.024 C 
ATOM     17  C   UNL     1       4.765  -5.723  -5.532  1.00  0.00     0.008 C 
ATOM     18  C   UNL     1       4.955  -7.241  -5.441  1.00  0.00     0.007 C 
ATOM     19  C   UNL     1       4.279  -8.140  -6.515  1.00  0.00    -0.029 C 
ATOM     20  C   UNL     1       4.278  -7.518  -7.974  1.00  0.00     0.002 C 
ATOM     21  C   UNL     1       2.895  -7.672  -8.714  1.00  0.00     0.011 C 
ATOM     22  C   UNL     1       2.126  -9.005  -8.488  1.00  0.00    -0.035 C 
ATOM     23  C   UNL     1       2.088  -9.421  -6.982  1.00  0.00     0.007 C 
ATOM     24  C   UNL     1       2.834  -8.462  -6.044  1.00  0.00     0.007 C 
ATOM     25  C   UNL     1       2.753 -10.125  -9.355  1.00  0.00     0.011 C 
ATOM     26  C   UNL     1       0.671  -8.811  -8.986  1.00  0.00     0.011 C 
ATOM     27  C   UNL     1       5.104  -9.464  -6.501  1.00  0.00     0.011 C 
ATOM     28  C   UNL     1       3.074  -4.655  -7.025  1.00  0.00     0.012 C 
ATOM     29  C   UNL     1       4.591  -5.480  -9.527  1.00  0.00     0.012 C 
ATOM     30  C   UNL     1       7.464  -2.522  -8.145  1.00  0.00     0.012 C 
ATOM     31  C   UNL     1       7.901  -3.642  -3.484  1.00  0.00     0.012 C 
ENDROOT
TORSDOF 0
ENDMDL
MODEL 4
REMARK VINA RESULT:    -5.273      2.576      7.675
REMARK INTER + INTRA:          -5.273
REMARK INTER:                  -5.273
REMARK INTRA:                   0.000
REMARK UNBOUND:                 0.000
REMARK SMILES C[C@H]1C(=O)CC[C@H]2[C@]1(C)CC[C@H]1[C@]2(C)CC[C@@]2(C)[C@@H]3CC(C)(C)CC[C@]3(C)CC[C@@]12C
REMARK SMILES IDX 1 1 2 2 3 3 4 4 5 5 6 6 7 7 8 8 10 9 11 10 12 11 13 12 15 13
REMARK SMILES IDX 16 14 17 15 30 16 29 17 28 18 26 19 19 20 20 21 21 22 24 23
REMARK SMILES IDX 25 24 22 25 23 26 27 27 31 28 18 29 14 30 9 31
REMARK H PARENT
REMARK Flexibility Score: inf
ROOT
ATOM      1  C   UNL     1       2.551 -10.123  -8.489  1.00  0.00     0.016 C 
ATOM      2  C   UNL     1       2.979  -8.663  -8.739  1.00  0.00     0.059 C 
ATOM      3  C   UNL     1       1.837  -7.935  -9.392  1.00  0.00     0.136 C 
ATOM      4  O   UNL     1       1.567  -8.146 -10.565  1.00  0.00    -0.299 OA
ATOM      5  C   UNL     1       1.007  -6.988  -8.599  1.00  0.00     0.076 C 
ATOM      6  C   UNL     1       1.872  -5.922  -7.913  1.00  0.00     0.012 C 
ATOM      7  C   UNL     1       3.364  -6.317  -7.574  1.00  0.00     0.002 C 
ATOM      8  C   UNL     1       3.556  -7.901  -7.469  1.00  0.00    -0.020 C 
ATOM      9  C   UNL     1       5.053  -8.317  -7.299  1.00  0.00     0.008 C 
ATOM     10  C   UNL     1       6.044  -7.536  -8.158  1.00  0.00     0.005 C 
ATOM     11  C   UNL     1       5.939  -5.986  -8.054  1.00  0.00     0.002 C 
ATOM     12  C   UNL     1       4.462  -5.510  -8.405  1.00  0.00    -0.026 C 
ATOM     13  C   UNL     1       4.323  -3.959  -8.186  1.00  0.00     0.008 C 
ATOM     14  C   UNL     1       5.015  -3.390  -6.952  1.00  0.00     0.008 C 
ATOM     15  C   UNL     1       6.540  -3.706  -6.864  1.00  0.00    -0.024 C 
ATOM     16  C   UNL     1       6.711  -5.293  -6.810  1.00  0.00    -0.024 C 
ATOM     17  C   UNL     1       6.234  -5.869  -5.431  1.00  0.00     0.008 C 
ATOM     18  C   UNL     1       5.973  -4.909  -4.264  1.00  0.00     0.007 C 
ATOM     19  C   UNL     1       6.812  -3.603  -4.175  1.00  0.00    -0.029 C 
ATOM     20  C   UNL     1       7.123  -2.934  -5.579  1.00  0.00     0.002 C 
ATOM     21  C   UNL     1       8.617  -2.454  -5.722  1.00  0.00     0.011 C 
ATOM     22  C   UNL     1       9.277  -1.836  -4.457  1.00  0.00    -0.035 C 
ATOM     23  C   UNL     1       9.003  -2.680  -3.171  1.00  0.00     0.007 C 
ATOM     24  C   UNL     1       8.124  -3.917  -3.404  1.00  0.00     0.007 C 
ATOM     25  C   UNL     1       8.791  -0.377  -4.274  1.00  0.00     0.011 C 
ATOM     26  C   UNL     1      10.807  -1.774  -4.694  1.00  0.00     0.011 C 
ATOM     27  C   UNL     1       5.952  -2.637  -3.303  1.00  0.00     0.011 C 
ATOM     28  C   UNL     1       8.223  -5.677  -6.926  1.00  0.00     0.012 C 
ATOM     29  C   UNL     1       7.196  -3.093  -8.154  1.00  0.00     0.012 C 
ATOM     30  C   UNL     1       4.220  -5.717  -9.934  1.00  0.00     0.012 C 
ATOM     31  C   UNL     1       2.837  -8.374  -6.167  1.00  0.00     0.012 C 
ENDROOT
TORSDOF 0
ENDMDL
MODEL 5
REMARK VINA RESULT:    -5.265      1.594      2.904
REMARK INTER + INTRA:          -5.265
REMARK INTER:                  -5.265
REMARK INTRA:                   0.000
REMARK UNBOUND:                 0.000
REMARK SMILES C[C@H]1C(=O)CC[C@H]2[C@]1(C)CC[C@H]1[C@]2(C)CC[C@@]2(C)[C@@H]3CC(C)(C)CC[C@]3(C)CC[C@@]12C
REMARK SMILES IDX 1 1 2 2 3 3 4 4 5 5 6 6 7 7 8 8 10 9 11 10 12 11 13 12 15 13
REMARK SMILES IDX 16 14 17 15 30 16 29 17 28 18 26 19 19 20 20 21 21 22 24 23
REMARK SMILES IDX 25 24 22 25 23 26 27 27 31 28 18 29 14 30 9 31
REMARK H PARENT
REMARK Flexibility Score: inf
ROOT
ATOM      1  C   UNL     1       9.062  -3.761  -1.802  1.00  0.00     0.016 C 
ATOM      2  C   UNL     1       8.903  -3.914  -3.329  1.00  0.00     0.059 C 
ATOM      3  C   UNL     1      10.238  -4.280  -3.915  1.00  0.00     0.136 C 
ATOM      4  O   UNL     1      11.118  -3.438  -4.006  1.00  0.00    -0.299 OA
ATOM      5  C   UNL     1      10.504  -5.679  -4.347  1.00  0.00     0.076 C 
ATOM      6  C   UNL     1       9.439  -6.173  -5.336  1.00  0.00     0.012 C 
ATOM      7  C   UNL     1       8.006  -5.516  -5.237  1.00  0.00     0.002 C 
ATOM      8  C   UNL     1       7.734  -4.886  -3.792  1.00  0.00    -0.020 C 
ATOM      9  C   UNL     1       6.391  -4.088  -3.725  1.00  0.00     0.008 C 
ATOM     10  C   UNL     1       6.091  -3.222  -4.946  1.00  0.00     0.005 C 
ATOM     11  C   UNL     1       6.171  -3.955  -6.318  1.00  0.00     0.002 C 
ATOM     12  C   UNL     1       7.602  -4.626  -6.500  1.00  0.00    -0.026 C 
ATOM     13  C   UNL     1       7.646  -5.464  -7.829  1.00  0.00     0.008 C 
ATOM     14  C   UNL     1       6.396  -6.275  -8.154  1.00  0.00     0.008 C 
ATOM     15  C   UNL     1       5.080  -5.438  -8.211  1.00  0.00    -0.024 C 
ATOM     16  C   UNL     1       4.855  -4.779  -6.773  1.00  0.00    -0.024 C 
ATOM     17  C   UNL     1       4.444  -5.859  -5.712  1.00  0.00     0.008 C 
ATOM     18  C   UNL     1       4.029  -7.259  -6.183  1.00  0.00     0.007 C 
ATOM     19  C   UNL     1       3.334  -7.401  -7.566  1.00  0.00    -0.029 C 
ATOM     20  C   UNL     1       3.898  -6.423  -8.680  1.00  0.00     0.002 C 
ATOM     21  C   UNL     1       2.767  -5.732  -9.532  1.00  0.00     0.011 C 
ATOM     22  C   UNL     1       1.527  -6.602  -9.885  1.00  0.00    -0.035 C 
ATOM     23  C   UNL     1       0.994  -7.402  -8.654  1.00  0.00     0.007 C 
ATOM     24  C   UNL     1       1.806  -7.197  -7.368  1.00  0.00     0.007 C 
ATOM     25  C   UNL     1       1.874  -7.556 -11.056  1.00  0.00     0.011 C 
ATOM     26  C   UNL     1       0.406  -5.660 -10.389  1.00  0.00     0.011 C 
ATOM     27  C   UNL     1       3.580  -8.883  -7.984  1.00  0.00     0.011 C 
ATOM     28  C   UNL     1       3.663  -3.767  -6.826  1.00  0.00     0.012 C 
ATOM     29  C   UNL     1       5.294  -4.349  -9.324  1.00  0.00     0.012 C 
ATOM     30  C   UNL     1       8.662  -3.498  -6.708  1.00  0.00     0.012 C 
ATOM     31  C   UNL     1       7.570  -6.071  -2.789  1.00  0.00     0.012 C 
ENDROOT
TORSDOF 0
ENDMDL
MODEL 6
REMARK VINA RESULT:    -5.211      2.902      7.401
REMARK INTER + INTRA:          -5.211
REMARK INTER:                  -5.211
REMARK INTRA:                   0.000
REMARK UNBOUND:                 0.000
REMARK SMILES C[C@H]1C(=O)CC[C@H]2[C@]1(C)CC[C@H]1[C@]2(C)CC[C@@]2(C)[C@@H]3CC(C)(C)CC[C@]3(C)CC[C@@]12C
REMARK SMILES IDX 1 1 2 2 3 3 4 4 5 5 6 6 7 7 8 8 10 9 11 10 12 11 13 12 15 13
REMARK SMILES IDX 16 14 17 15 30 16 29 17 28 18 26 19 19 20 20 21 21 22 24 23
REMARK SMILES IDX 25 24 22 25 23 26 27 27 31 28 18 29 14 30 9 31
REMARK H PARENT
REMARK Flexibility Score: inf
ROOT
ATOM      1  C   UNL     1       1.031  -1.172 -10.460  1.00  0.00     0.016 C 
ATOM      2  C   UNL     1       1.583  -2.348  -9.628  1.00  0.00     0.059 C 
ATOM      3  C   UNL     1       1.148  -3.635 -10.270  1.00  0.00     0.136 C 
ATOM      4  O   UNL     1      -0.014  -4.003 -10.178  1.00  0.00    -0.299 OA
ATOM      5  C   UNL     1       2.121  -4.441 -11.056  1.00  0.00     0.076 C 
ATOM      6  C   UNL     1       3.377  -4.762 -10.235  1.00  0.00     0.012 C 
ATOM      7  C   UNL     1       3.764  -3.748  -9.087  1.00  0.00     0.002 C 
ATOM      8  C   UNL     1       3.144  -2.294  -9.337  1.00  0.00    -0.020 C 
ATOM      9  C   UNL     1       3.377  -1.325  -8.133  1.00  0.00     0.008 C 
ATOM     10  C   UNL     1       3.189  -1.949  -6.753  1.00  0.00     0.005 C 
ATOM     11  C   UNL     1       3.989  -3.262  -6.502  1.00  0.00     0.002 C 
ATOM     12  C   UNL     1       3.633  -4.344  -7.612  1.00  0.00    -0.026 C 
ATOM     13  C   UNL     1       4.525  -5.625  -7.430  1.00  0.00     0.008 C 
ATOM     14  C   UNL     1       5.987  -5.381  -7.070  1.00  0.00     0.008 C 
ATOM     15  C   UNL     1       6.200  -4.517  -5.789  1.00  0.00    -0.024 C 
ATOM     16  C   UNL     1       5.532  -3.088  -6.042  1.00  0.00    -0.024 C 
ATOM     17  C   UNL     1       6.361  -2.250  -7.077  1.00  0.00     0.008 C 
ATOM     18  C   UNL     1       7.769  -2.713  -7.467  1.00  0.00     0.007 C 
ATOM     19  C   UNL     1       8.619  -3.476  -6.411  1.00  0.00    -0.029 C 
ATOM     20  C   UNL     1       7.781  -4.465  -5.496  1.00  0.00     0.002 C 
ATOM     21  C   UNL     1       8.164  -4.375  -3.970  1.00  0.00     0.011 C 
ATOM     22  C   UNL     1       9.670  -4.172  -3.638  1.00  0.00    -0.035 C 
ATOM     23  C   UNL     1      10.330  -3.066  -4.523  1.00  0.00     0.007 C 
ATOM     24  C   UNL     1       9.382  -2.432  -5.550  1.00  0.00     0.007 C 
ATOM     25  C   UNL     1      10.423  -5.518  -3.782  1.00  0.00     0.011 C 
ATOM     26  C   UNL     1       9.782  -3.751  -2.151  1.00  0.00     0.011 C 
ATOM     27  C   UNL     1       9.663  -4.279  -7.246  1.00  0.00     0.011 C 
ATOM     28  C   UNL     1       5.536  -2.250  -4.722  1.00  0.00     0.012 C 
ATOM     29  C   UNL     1       5.500  -5.287  -4.611  1.00  0.00     0.012 C 
ATOM     30  C   UNL     1       2.171  -4.842  -7.374  1.00  0.00     0.012 C 
ATOM     31  C   UNL     1       3.910  -1.662 -10.542  1.00  0.00     0.012 C 
ENDROOT
TORSDOF 0
ENDMDL
MODEL 7
REMARK VINA RESULT:    -5.197      2.495      7.636
REMARK INTER + INTRA:          -5.197
REMARK INTER:                  -5.197
REMARK INTRA:                   0.000
REMARK UNBOUND:                 0.000
REMARK SMILES C[C@H]1C(=O)CC[C@H]2[C@]1(C)CC[C@H]1[C@]2(C)CC[C@@]2(C)[C@@H]3CC(C)(C)CC[C@]3(C)CC[C@@]12C
REMARK SMILES IDX 1 1 2 2 3 3 4 4 5 5 6 6 7 7 8 8 10 9 11 10 12 11 13 12 15 13
REMARK SMILES IDX 16 14 17 15 30 16 29 17 28 18 26 19 19 20 20 21 21 22 24 23
REMARK SMILES IDX 25 24 22 25 23 26 27 27 31 28 18 29 14 30 9 31
REMARK H PARENT
REMARK Flexibility Score: inf
ROOT
ATOM      1  C   UNL     1       1.002  -7.813  -9.672  1.00  0.00     0.016 C 
ATOM      2  C   UNL     1       2.030  -7.728  -8.525  1.00  0.00     0.059 C 
ATOM      3  C   UNL     1       2.423  -9.123  -8.129  1.00  0.00     0.136 C 
ATOM      4  O   UNL     1       1.647  -9.822  -7.496  1.00  0.00    -0.299 OA
ATOM      5  C   UNL     1       3.743  -9.671  -8.546  1.00  0.00     0.076 C 
ATOM      6  C   UNL     1       4.894  -8.751  -8.117  1.00  0.00     0.012 C 
ATOM      7  C   UNL     1       4.564  -7.215  -7.957  1.00  0.00     0.002 C 
ATOM      8  C   UNL     1       3.279  -6.785  -8.806  1.00  0.00    -0.020 C 
ATOM      9  C   UNL     1       2.840  -5.310  -8.532  1.00  0.00     0.008 C 
ATOM     10  C   UNL     1       2.902  -4.877  -7.069  1.00  0.00     0.005 C 
ATOM     11  C   UNL     1       4.262  -5.137  -6.356  1.00  0.00     0.002 C 
ATOM     12  C   UNL     1       4.650  -6.677  -6.456  1.00  0.00    -0.026 C 
ATOM     13  C   UNL     1       6.076  -6.920  -5.840  1.00  0.00     0.008 C 
ATOM     14  C   UNL     1       7.131  -5.863  -6.151  1.00  0.00     0.008 C 
ATOM     15  C   UNL     1       6.727  -4.411  -5.751  1.00  0.00    -0.024 C 
ATOM     16  C   UNL     1       5.415  -4.021  -6.573  1.00  0.00    -0.024 C 
ATOM     17  C   UNL     1       5.741  -3.804  -8.092  1.00  0.00     0.008 C 
ATOM     18  C   UNL     1       7.202  -3.687  -8.540  1.00  0.00     0.007 C 
ATOM     19  C   UNL     1       8.234  -3.069  -7.554  1.00  0.00    -0.029 C 
ATOM     20  C   UNL     1       7.993  -3.459  -6.035  1.00  0.00     0.002 C 
ATOM     21  C   UNL     1       8.130  -2.236  -5.050  1.00  0.00     0.011 C 
ATOM     22  C   UNL     1       9.247  -1.202  -5.371  1.00  0.00    -0.035 C 
ATOM     23  C   UNL     1       9.273  -0.805  -6.881  1.00  0.00     0.007 C 
ATOM     24  C   UNL     1       8.227  -1.527  -7.742  1.00  0.00     0.007 C 
ATOM     25  C   UNL     1      10.620  -1.761  -4.922  1.00  0.00     0.011 C 
ATOM     26  C   UNL     1       8.981   0.070  -4.527  1.00  0.00     0.011 C 
ATOM     27  C   UNL     1       9.615  -3.614  -8.031  1.00  0.00     0.011 C 
ATOM     28  C   UNL     1       4.846  -2.656  -6.066  1.00  0.00     0.012 C 
ATOM     29  C   UNL     1       6.459  -4.434  -4.202  1.00  0.00     0.012 C 
ATOM     30  C   UNL     1       3.681  -7.498  -5.547  1.00  0.00     0.012 C 
ATOM     31  C   UNL     1       3.678  -6.833 -10.314  1.00  0.00     0.012 C 
ENDROOT
TORSDOF 0
ENDMDL
MODEL 8
REMARK VINA RESULT:    -5.106     14.809     17.821
REMARK INTER + INTRA:          -5.106
REMARK INTER:                  -5.106
REMARK INTRA:                   0.000
REMARK UNBOUND:                 0.000
REMARK SMILES C[C@H]1C(=O)CC[C@H]2[C@]1(C)CC[C@H]1[C@]2(C)CC[C@@]2(C)[C@@H]3CC(C)(C)CC[C@]3(C)CC[C@@]12C
REMARK SMILES IDX 1 1 2 2 3 3 4 4 5 5 6 6 7 7 8 8 10 9 11 10 12 11 13 12 15 13
REMARK SMILES IDX 16 14 17 15 30 16 29 17 28 18 26 19 19 20 20 21 21 22 24 23
REMARK SMILES IDX 25 24 22 25 23 26 27 27 31 28 18 29 14 30 9 31
REMARK H PARENT
REMARK Flexibility Score: inf
ROOT
ATOM      1  C   UNL     1      -2.698   8.619  -8.993  1.00  0.00     0.016 C 
ATOM      2  C   UNL     1      -3.748   8.432  -7.879  1.00  0.00     0.059 C 
ATOM      3  C   UNL     1      -4.876   7.600  -8.419  1.00  0.00     0.136 C 
ATOM      4  O   UNL     1      -5.674   8.087  -9.207  1.00  0.00    -0.299 OA
ATOM      5  C   UNL     1      -5.000   6.169  -8.029  1.00  0.00     0.076 C 
ATOM      6  C   UNL     1      -5.022   6.003  -6.503  1.00  0.00     0.012 C 
ATOM      7  C   UNL     1      -4.290   7.112  -5.649  1.00  0.00     0.002 C 
ATOM      8  C   UNL     1      -3.178   7.887  -6.499  1.00  0.00    -0.020 C 
ATOM      9  C   UNL     1      -2.560   9.095  -5.723  1.00  0.00     0.008 C 
ATOM     10  C   UNL     1      -3.557   9.932  -4.926  1.00  0.00     0.005 C 
ATOM     11  C   UNL     1      -4.475   9.130  -3.957  1.00  0.00     0.002 C 
ATOM     12  C   UNL     1      -5.266   8.004  -4.754  1.00  0.00    -0.026 C 
ATOM     13  C   UNL     1      -6.102   7.118  -3.760  1.00  0.00     0.008 C 
ATOM     14  C   UNL     1      -5.421   6.760  -2.444  1.00  0.00     0.008 C 
ATOM     15  C   UNL     1      -4.924   7.987  -1.619  1.00  0.00    -0.024 C 
ATOM     16  C   UNL     1      -3.853   8.774  -2.506  1.00  0.00    -0.024 C 
ATOM     17  C   UNL     1      -2.513   7.966  -2.625  1.00  0.00     0.008 C 
ATOM     18  C   UNL     1      -2.274   6.763  -1.705  1.00  0.00     0.007 C 
ATOM     19  C   UNL     1      -2.906   6.778  -0.284  1.00  0.00    -0.029 C 
ATOM     20  C   UNL     1      -4.349   7.434  -0.223  1.00  0.00     0.002 C 
ATOM     21  C   UNL     1      -4.536   8.412   0.999  1.00  0.00     0.011 C 
ATOM     22  C   UNL     1      -3.867   7.992   2.339  1.00  0.00    -0.035 C 
ATOM     23  C   UNL     1      -2.397   7.500   2.140  1.00  0.00     0.007 C 
ATOM     24  C   UNL     1      -1.924   7.499   0.680  1.00  0.00     0.007 C 
ATOM     25  C   UNL     1      -4.725   6.906   3.034  1.00  0.00     0.011 C 
ATOM     26  C   UNL     1      -3.855   9.225   3.277  1.00  0.00     0.011 C 
ATOM     27  C   UNL     1      -2.985   5.277   0.131  1.00  0.00     0.011 C 
ATOM     28  C   UNL     1      -3.470  10.124  -1.816  1.00  0.00     0.012 C 
ATOM     29  C   UNL     1      -6.193   8.867  -1.323  1.00  0.00     0.012 C 
ATOM     30  C   UNL     1      -6.333   8.691  -5.665  1.00  0.00     0.012 C 
ATOM     31  C   UNL     1      -1.999   6.894  -6.742  1.00  0.00     0.012 C 
ENDROOT
TORSDOF 0
ENDMDL
