MODEL 1
REMARK VINA RESULT:    -3.813      0.000      0.000
REMARK INTER + INTRA:          -5.296
REMARK INTER:                  -5.151
REMARK INTRA:                  -0.145
REMARK UNBOUND:                -0.145
REMARK SMILES C=C1C(=O)O[C@@H]2[C@H]1CCC(C)=CCC[C@@]1(C)O[C@@H]21
REMARK SMILES IDX 6 1 7 2 2 3 1 4 3 5 4 6 5 7 8 8 9 9 10 10 11 11 12 12 18 14
REMARK SMILES IDX 15 15 17 16 16 17 14 18 13 19
REMARK H PARENT
REMARK Flexibility Score: 70.00
ROOT
ATOM      1  C   UNL     1      45.550 110.594  53.502  1.00  0.00     0.216 C 
ATOM      2  C   UNL     1      46.467 111.876  53.479  1.00  0.00     0.070 C 
ATOM      3  C   UNL     1      45.672 112.733  52.525  1.00  0.00     0.037 C 
ATOM      4  C   UNL     1      45.749 114.058  52.406  1.00  0.00     0.021 C 
ATOM      5  C   UNL     1      44.843 111.854  51.731  1.00  0.00     0.334 C 
ATOM      6  O   UNL     1      44.180 112.183  50.712  1.00  0.00    -0.247 OA
ATOM      7  O   UNL     1      44.882 110.575  52.244  1.00  0.00    -0.455 OA
ENDROOT
BRANCH   2   8
ATOM      8  C   UNL     1      47.892 111.731  52.874  1.00  0.00     0.017 C 
BRANCH   8   9
ATOM      9  C   UNL     1      49.102 111.859  53.840  1.00  0.00     0.031 C 
BRANCH   9  10
ATOM     10  C   UNL     1      50.355 111.081  53.474  1.00  0.00    -0.077 C 
ATOM     11  C   UNL     1      51.432 111.771  52.672  1.00  0.00     0.039 C 
ATOM     12  C   UNL     1      50.518 109.769  53.749  1.00  0.00    -0.028 CG0
ATOM     13  G   UNL     1      49.509 108.890  54.439  1.00  0.00     0.000 G0
ENDBRANCH   9  10
ENDBRANCH   8   9
ENDBRANCH   2   8
BRANCH   1  14
ATOM     14  C   UNL     1      45.840 109.148  53.998  1.00  0.00     0.192 C 
ATOM     15  C   UNL     1      47.016 108.247  54.282  1.00  0.00     0.096 C 
ATOM     16  O   UNL     1      46.661 109.285  55.148  1.00  0.00    -0.362 OA
ATOM     17  C   UNL     1      46.707 106.879  54.901  1.00  0.00     0.045 C 
BRANCH  15  18
ATOM     18  C   UNL     1      48.366 108.389  53.564  1.00  0.00     0.042 C 
BRANCH  18  19
ATOM     19  C   UNL     1      49.518 108.877  54.452  1.00  0.00     0.030 CG0
ATOM     20  G   UNL     1      50.509 109.766  53.747  1.00  0.00     0.000 G0
ENDBRANCH  18  19
ENDBRANCH  15  18
ENDBRANCH   1  14
TORSDOF 0
ENDMDL
MODEL 2
REMARK VINA RESULT:    -3.798      1.650      1.806
REMARK INTER + INTRA:          -5.275
REMARK INTER:                  -5.126
REMARK INTRA:                  -0.149
REMARK UNBOUND:                -0.145
REMARK SMILES C=C1C(=O)O[C@@H]2[C@H]1CCC(C)=CCC[C@@]1(C)O[C@@H]21
REMARK SMILES IDX 6 1 7 2 2 3 1 4 3 5 4 6 5 7 8 8 9 9 10 10 11 11 12 12 18 14
REMARK SMILES IDX 15 15 17 16 16 17 14 18 13 19
REMARK H PARENT
REMARK Flexibility Score: 70.00
ROOT
ATOM      1  C   UNL     1      45.862 109.671  53.702  1.00  0.00     0.216 C 
ATOM      2  C   UNL     1      46.184 110.803  54.751  1.00  0.00     0.070 C 
ATOM      3  C   UNL     1      45.325 111.910  54.192  1.00  0.00     0.037 C 
ATOM      4  C   UNL     1      44.896 112.984  54.854  1.00  0.00     0.021 C 
ATOM      5  C   UNL     1      45.087 111.620  52.796  1.00  0.00     0.334 C 
ATOM      6  O   UNL     1      44.567 112.401  51.955  1.00  0.00    -0.247 OA
ATOM      7  O   UNL     1      45.522 110.347  52.496  1.00  0.00    -0.455 OA
ENDROOT
BRANCH   2   8
ATOM      8  C   UNL     1      47.640 111.345  54.800  1.00  0.00     0.017 C 
BRANCH   8   9
ATOM      9  C   UNL     1      48.491 111.010  56.057  1.00  0.00     0.031 C 
BRANCH   9  10
ATOM     10  C   UNL     1      49.994 110.908  55.858  1.00  0.00    -0.077 C 
ATOM     11  C   UNL     1      50.842 112.139  56.069  1.00  0.00     0.039 C 
ATOM     12  C   UNL     1      50.607 109.792  55.408  1.00  0.00    -0.028 CG0
ATOM     13  G   UNL     1      49.916 108.506  55.037  1.00  0.00     0.000 G0
ENDBRANCH   9  10
ENDBRANCH   8   9
ENDBRANCH   2   8
BRANCH   1  14
ATOM     14  C   UNL     1      46.591 108.330  53.401  1.00  0.00     0.192 C 
ATOM     15  C   UNL     1      47.947 107.696  53.587  1.00  0.00     0.096 C 
ATOM     16  O   UNL     1      47.055 107.846  54.652  1.00  0.00    -0.362 OA
ATOM     17  C   UNL     1      48.083 106.223  53.183  1.00  0.00     0.045 C 
BRANCH  15  18
ATOM     18  C   UNL     1      49.245 108.512  53.663  1.00  0.00     0.042 C 
BRANCH  18  19
ATOM     19  C   UNL     1      49.934 108.498  55.034  1.00  0.00     0.030 CG0
ATOM     20  G   UNL     1      50.598 109.797  55.407  1.00  0.00     0.000 G0
ENDBRANCH  18  19
ENDBRANCH  15  18
ENDBRANCH   1  14
TORSDOF 0
ENDMDL
MODEL 3
REMARK VINA RESULT:    -3.684      3.430      4.907
REMARK INTER + INTRA:          -5.121
REMARK INTER:                  -4.979
REMARK INTRA:                  -0.142
REMARK UNBOUND:                -0.145
REMARK SMILES C=C1C(=O)O[C@@H]2[C@H]1CCC(C)=CCC[C@@]1(C)O[C@@H]21
REMARK SMILES IDX 6 1 7 2 2 3 1 4 3 5 4 6 5 7 8 8 9 9 10 10 11 11 12 12 18 14
REMARK SMILES IDX 15 15 17 16 16 17 14 18 13 19
REMARK H PARENT
REMARK Flexibility Score: 70.00
ROOT
ATOM      1  C   UNL     1      46.956 106.834  53.000  1.00  0.00     0.216 C 
ATOM      2  C   UNL     1      48.423 107.006  52.447  1.00  0.00     0.070 C 
ATOM      3  C   UNL     1      48.536 105.734  51.644  1.00  0.00     0.037 C 
ATOM      4  C   UNL     1      49.399 105.501  50.656  1.00  0.00     0.021 C 
ATOM      5  C   UNL     1      47.568 104.795  52.167  1.00  0.00     0.334 C 
ATOM      6  O   UNL     1      47.490 103.573  51.875  1.00  0.00    -0.247 OA
ATOM      7  O   UNL     1      46.728 105.429  53.057  1.00  0.00    -0.455 OA
ENDROOT
BRANCH   2   8
ATOM      8  C   UNL     1      49.586 106.992  53.478  1.00  0.00     0.017 C 
BRANCH   8   9
ATOM      9  C   UNL     1      50.285 108.343  53.794  1.00  0.00     0.031 C 
BRANCH   9  10
ATOM     10  C   UNL     1      50.915 108.482  55.169  1.00  0.00    -0.077 C 
ATOM     11  C   UNL     1      52.343 108.036  55.364  1.00  0.00     0.039 C 
ATOM     12  C   UNL     1      50.233 108.900  56.257  1.00  0.00    -0.028 CG0
ATOM     13  G   UNL     1      48.775 109.279  56.281  1.00  0.00     0.000 G0
ENDBRANCH   9  10
ENDBRANCH   8   9
ENDBRANCH   2   8
BRANCH   1  14
ATOM     14  C   UNL     1      46.217 107.564  54.157  1.00  0.00     0.192 C 
ATOM     15  C   UNL     1      46.533 108.326  55.420  1.00  0.00     0.096 C 
ATOM     16  O   UNL     1      46.705 108.897  54.155  1.00  0.00    -0.362 OA
ATOM     17  C   UNL     1      45.350 108.963  56.159  1.00  0.00     0.045 C 
BRANCH  15  18
ATOM     18  C   UNL     1      47.808 108.086  56.239  1.00  0.00     0.042 C 
BRANCH  18  19
ATOM     19  C   UNL     1      48.772 109.280  56.293  1.00  0.00     0.030 CG0
ATOM     20  G   UNL     1      50.229 108.900  56.260  1.00  0.00     0.000 G0
ENDBRANCH  18  19
ENDBRANCH  15  18
ENDBRANCH   1  14
TORSDOF 0
ENDMDL
MODEL 4
REMARK VINA RESULT:    -3.656      3.020      5.489
REMARK INTER + INTRA:          -5.083
REMARK INTER:                  -4.990
REMARK INTRA:                  -0.093
REMARK UNBOUND:                -0.145
REMARK SMILES C=C1C(=O)O[C@@H]2[C@H]1CCC(C)=CCC[C@@]1(C)O[C@@H]21
REMARK SMILES IDX 6 1 7 2 2 3 1 4 3 5 4 6 5 7 8 8 9 9 10 10 11 11 12 12 18 14
REMARK SMILES IDX 15 15 17 16 16 17 14 18 13 19
REMARK H PARENT
REMARK Flexibility Score: 70.00
ROOT
ATOM      1  C   UNL     1      49.497 107.079  53.390  1.00  0.00     0.216 C 
ATOM      2  C   UNL     1      47.985 106.669  53.570  1.00  0.00     0.070 C 
ATOM      3  C   UNL     1      47.855 105.692  52.428  1.00  0.00     0.037 C 
ATOM      4  C   UNL     1      46.924 104.747  52.303  1.00  0.00     0.021 C 
ATOM      5  C   UNL     1      48.896 105.992  51.471  1.00  0.00     0.334 C 
ATOM      6  O   UNL     1      48.996 105.512  50.311  1.00  0.00    -0.247 OA
ATOM      7  O   UNL     1      49.781 106.903  52.005  1.00  0.00    -0.455 OA
ENDROOT
BRANCH   2   8
ATOM      8  C   UNL     1      46.910 107.770  53.345  1.00  0.00     0.017 C 
BRANCH   8   9
ATOM      9  C   UNL     1      46.319 108.468  54.602  1.00  0.00     0.031 C 
BRANCH   9  10
ATOM     10  C   UNL     1      45.764 109.868  54.408  1.00  0.00    -0.077 C 
ATOM     11  C   UNL     1      44.364 110.029  53.868  1.00  0.00     0.039 C 
ATOM     12  C   UNL     1      46.493 110.987  54.607  1.00  0.00    -0.028 CG0
ATOM     13  G   UNL     1      47.937 111.023  55.035  1.00  0.00     0.000 G0
ENDBRANCH   9  10
ENDBRANCH   8   9
ENDBRANCH   2   8
BRANCH   1  14
ATOM     14  C   UNL     1      50.300 108.276  53.974  1.00  0.00     0.192 C 
ATOM     15  C   UNL     1      50.068 109.684  54.462  1.00  0.00     0.096 C 
ATOM     16  O   UNL     1      49.704 108.572  55.228  1.00  0.00    -0.362 OA
ATOM     17  C   UNL     1      51.269 110.411  55.077  1.00  0.00     0.045 C 
BRANCH  15  18
ATOM     18  C   UNL     1      48.919 110.563  53.949  1.00  0.00     0.042 C 
BRANCH  18  19
ATOM     19  C   UNL     1      47.938 111.037  55.030  1.00  0.00     0.030 CG0
ATOM     20  G   UNL     1      46.492 111.001  54.612  1.00  0.00     0.000 G0
ENDBRANCH  18  19
ENDBRANCH  15  18
ENDBRANCH   1  14
TORSDOF 0
ENDMDL
MODEL 5
REMARK VINA RESULT:    -3.469      2.373      4.656
REMARK INTER + INTRA:          -4.831
REMARK INTER:                  -4.607
REMARK INTRA:                  -0.223
REMARK UNBOUND:                -0.145
REMARK SMILES C=C1C(=O)O[C@@H]2[C@H]1CCC(C)=CCC[C@@]1(C)O[C@@H]21
REMARK SMILES IDX 6 1 7 2 2 3 1 4 3 5 4 6 5 7 8 8 9 9 10 10 11 11 12 12 18 14
REMARK SMILES IDX 15 15 17 16 16 17 14 18 13 19
REMARK H PARENT
REMARK Flexibility Score: 70.00
ROOT
ATOM      1  C   UNL     1      47.021 107.436  53.000  1.00  0.00     0.216 C 
ATOM      2  C   UNL     1      48.594 107.404  52.907  1.00  0.00     0.070 C 
ATOM      3  C   UNL     1      48.776 106.068  52.230  1.00  0.00     0.037 C 
ATOM      4  C   UNL     1      49.854 105.666  51.558  1.00  0.00     0.021 C 
ATOM      5  C   UNL     1      47.586 105.284  52.477  1.00  0.00     0.334 C 
ATOM      6  O   UNL     1      47.442 104.058  52.226  1.00  0.00    -0.247 OA
ATOM      7  O   UNL     1      46.609 106.073  53.044  1.00  0.00    -0.455 OA
ENDROOT
BRANCH   2   8
ATOM      8  C   UNL     1      49.392 107.344  54.240  1.00  0.00     0.017 C 
BRANCH   8   9
ATOM      9  C   UNL     1      49.621 108.678  55.004  1.00  0.00     0.031 C 
BRANCH   9  10
ATOM     10  C   UNL     1      49.990 109.891  54.167  1.00  0.00    -0.077 C 
ATOM     11  C   UNL     1      51.370 109.964  53.561  1.00  0.00     0.039 C 
ATOM     12  C   UNL     1      49.178 110.958  54.011  1.00  0.00    -0.028 CG0
ATOM     13  G   UNL     1      47.815 111.115  54.631  1.00  0.00     0.000 G0
ENDBRANCH   9  10
ENDBRANCH   8   9
ENDBRANCH   2   8
BRANCH   1  14
ATOM     14  C   UNL     1      46.073 108.330  53.849  1.00  0.00     0.192 C 
ATOM     15  C   UNL     1      45.689 109.782  53.993  1.00  0.00     0.096 C 
ATOM     16  O   UNL     1      45.236 109.006  52.922  1.00  0.00    -0.362 OA
ATOM     17  C   UNL     1      44.549 110.104  54.965  1.00  0.00     0.045 C 
BRANCH  15  18
ATOM     18  C   UNL     1      46.643 110.933  53.645  1.00  0.00     0.042 C 
BRANCH  18  19
ATOM     19  C   UNL     1      47.802 111.128  54.632  1.00  0.00     0.030 CG0
ATOM     20  G   UNL     1      49.170 110.964  54.022  1.00  0.00     0.000 G0
ENDBRANCH  18  19
ENDBRANCH  15  18
ENDBRANCH   1  14
TORSDOF 0
ENDMDL
MODEL 6
REMARK VINA RESULT:    -3.454      3.181      5.134
REMARK INTER + INTRA:          -4.810
REMARK INTER:                  -4.621
REMARK INTRA:                  -0.189
REMARK UNBOUND:                -0.145
REMARK SMILES C=C1C(=O)O[C@@H]2[C@H]1CCC(C)=CCC[C@@]1(C)O[C@@H]21
REMARK SMILES IDX 6 1 7 2 2 3 1 4 3 5 4 6 5 7 8 8 9 9 10 10 11 11 12 12 18 14
REMARK SMILES IDX 15 15 17 16 16 17 14 18 13 19
REMARK H PARENT
REMARK Flexibility Score: 70.00
ROOT
ATOM      1  C   UNL     1      49.188 108.324  54.262  1.00  0.00     0.216 C 
ATOM      2  C   UNL     1      48.066 108.523  55.352  1.00  0.00     0.070 C 
ATOM      3  C   UNL     1      47.273 107.260  55.125  1.00  0.00     0.037 C 
ATOM      4  C   UNL     1      46.432 106.692  55.989  1.00  0.00     0.021 C 
ATOM      5  C   UNL     1      47.554 106.798  53.784  1.00  0.00     0.334 C 
ATOM      6  O   UNL     1      46.944 105.881  53.173  1.00  0.00    -0.247 OA
ATOM      7  O   UNL     1      48.599 107.518  53.246  1.00  0.00    -0.455 OA
ENDROOT
BRANCH   2   8
ATOM      8  C   UNL     1      47.083 109.712  55.164  1.00  0.00     0.017 C 
BRANCH   8   9
ATOM      9  C   UNL     1      47.492 111.087  55.762  1.00  0.00     0.031 C 
BRANCH   9  10
ATOM     10  C   UNL     1      48.304 111.060  57.045  1.00  0.00    -0.077 C 
ATOM     11  C   UNL     1      47.596 110.782  58.349  1.00  0.00     0.039 C 
ATOM     12  C   UNL     1      49.618 111.366  57.097  1.00  0.00    -0.028 CG0
ATOM     13  G   UNL     1      50.465 111.777  55.920  1.00  0.00     0.000 G0
ENDBRANCH   9  10
ENDBRANCH   8   9
ENDBRANCH   2   8
BRANCH   1  14
ATOM     14  C   UNL     1      50.200 109.335  53.652  1.00  0.00     0.192 C 
ATOM     15  C   UNL     1      51.366 110.191  54.081  1.00  0.00     0.096 C 
ATOM     16  O   UNL     1      51.490 108.808  53.919  1.00  0.00    -0.362 OA
ATOM     17  C   UNL     1      52.113 110.947  52.976  1.00  0.00     0.045 C 
BRANCH  15  18
ATOM     18  C   UNL     1      51.523 110.727  55.510  1.00  0.00     0.042 C 
BRANCH  18  19
ATOM     19  C   UNL     1      50.477 111.770  55.924  1.00  0.00     0.030 CG0
ATOM     20  G   UNL     1      49.620 111.358  57.093  1.00  0.00     0.000 G0
ENDBRANCH  18  19
ENDBRANCH  15  18
ENDBRANCH   1  14
TORSDOF 0
ENDMDL
MODEL 7
REMARK VINA RESULT:    -3.446      2.023      2.309
REMARK INTER + INTRA:          -4.800
REMARK INTER:                  -4.752
REMARK INTRA:                  -0.048
REMARK UNBOUND:                -0.145
REMARK SMILES C=C1C(=O)O[C@@H]2[C@H]1CCC(C)=CCC[C@@]1(C)O[C@@H]21
REMARK SMILES IDX 6 1 7 2 2 3 1 4 3 5 4 6 5 7 8 8 9 9 10 10 11 11 12 12 18 14
REMARK SMILES IDX 15 15 17 16 16 17 14 18 13 19
REMARK H PARENT
REMARK Flexibility Score: 70.00
ROOT
ATOM      1  C   UNL     1      45.672 109.953  54.442  1.00  0.00     0.216 C 
ATOM      2  C   UNL     1      46.480 111.301  54.320  1.00  0.00     0.070 C 
ATOM      3  C   UNL     1      45.698 111.960  53.211  1.00  0.00     0.037 C 
ATOM      4  C   UNL     1      45.676 113.262  52.930  1.00  0.00     0.021 C 
ATOM      5  C   UNL     1      45.010 110.919  52.480  1.00  0.00     0.334 C 
ATOM      6  O   UNL     1      44.407 111.060  51.383  1.00  0.00    -0.247 OA
ATOM      7  O   UNL     1      45.112 109.721  53.154  1.00  0.00    -0.455 OA
ENDROOT
BRANCH   2   8
ATOM      8  C   UNL     1      47.956 111.214  53.840  1.00  0.00     0.017 C 
BRANCH   8   9
ATOM      9  C   UNL     1      48.920 110.292  54.636  1.00  0.00     0.031 C 
BRANCH   9  10
ATOM     10  C   UNL     1      49.502 110.856  55.921  1.00  0.00    -0.077 C 
ATOM     11  C   UNL     1      50.309 112.130  55.857  1.00  0.00     0.039 C 
ATOM     12  C   UNL     1      49.413 110.228  57.113  1.00  0.00    -0.028 CG0
ATOM     13  G   UNL     1      48.747 108.898  57.350  1.00  0.00     0.000 G0
ENDBRANCH   9  10
ENDBRANCH   8   9
ENDBRANCH   2   8
BRANCH   1  14
ATOM     14  C   UNL     1      46.038 108.611  55.138  1.00  0.00     0.192 C 
ATOM     15  C   UNL     1      46.464 108.099  56.492  1.00  0.00     0.096 C 
ATOM     16  O   UNL     1      45.144 108.480  56.233  1.00  0.00    -0.362 OA
ATOM     17  C   UNL     1      46.580 106.579  56.653  1.00  0.00     0.045 C 
BRANCH  15  18
ATOM     18  C   UNL     1      47.236 108.960  57.502  1.00  0.00     0.042 C 
BRANCH  18  19
ATOM     19  C   UNL     1      48.763 108.891  57.370  1.00  0.00     0.030 CG0
ATOM     20  G   UNL     1      49.423 110.219  57.107  1.00  0.00     0.000 G0
ENDBRANCH  18  19
ENDBRANCH  15  18
ENDBRANCH   1  14
TORSDOF 0
ENDMDL
MODEL 8
REMARK VINA RESULT:    -3.386      3.499      5.327
REMARK INTER + INTRA:          -4.719
REMARK INTER:                  -4.626
REMARK INTRA:                  -0.093
REMARK UNBOUND:                -0.145
REMARK SMILES C=C1C(=O)O[C@@H]2[C@H]1CCC(C)=CCC[C@@]1(C)O[C@@H]21
REMARK SMILES IDX 6 1 7 2 2 3 1 4 3 5 4 6 5 7 8 8 9 9 10 10 11 11 12 12 18 14
REMARK SMILES IDX 15 15 17 16 16 17 14 18 13 19
REMARK H PARENT
REMARK Flexibility Score: 70.00
ROOT
ATOM      1  C   UNL     1      49.212 108.983  53.774  1.00  0.00     0.216 C 
ATOM      2  C   UNL     1      48.993 110.049  54.915  1.00  0.00     0.070 C 
ATOM      3  C   UNL     1      50.379 110.642  54.971  1.00  0.00     0.037 C 
ATOM      4  C   UNL     1      50.707 111.829  55.477  1.00  0.00     0.021 C 
ATOM      5  C   UNL     1      51.296 109.671  54.415  1.00  0.00     0.334 C 
ATOM      6  O   UNL     1      52.553 109.731  54.457  1.00  0.00    -0.247 OA
ATOM      7  O   UNL     1      50.594 108.641  53.827  1.00  0.00    -0.455 OA
ENDROOT
BRANCH   2   8
ATOM      8  C   UNL     1      48.672 109.520  56.341  1.00  0.00     0.017 C 
BRANCH   8   9
ATOM      9  C   UNL     1      47.311 109.928  56.972  1.00  0.00     0.031 C 
BRANCH   9  10
ATOM     10  C   UNL     1      46.656 108.917  57.897  1.00  0.00    -0.077 C 
ATOM     11  C   UNL     1      46.818 109.083  59.388  1.00  0.00     0.039 C 
ATOM     12  C   UNL     1      46.010 107.817  57.454  1.00  0.00    -0.028 CG0
ATOM     13  G   UNL     1      45.846 107.424  56.009  1.00  0.00     0.000 G0
ENDBRANCH   9  10
ENDBRANCH   8   9
ENDBRANCH   2   8
BRANCH   1  14
ATOM     14  C   UNL     1      48.352 107.757  53.352  1.00  0.00     0.192 C 
ATOM     15  C   UNL     1      47.243 106.892  53.897  1.00  0.00     0.096 C 
ATOM     16  O   UNL     1      47.001 108.184  53.422  1.00  0.00    -0.362 OA
ATOM     17  C   UNL     1      46.661 105.836  52.952  1.00  0.00     0.045 C 
BRANCH  15  18
ATOM     18  C   UNL     1      47.026 106.666  55.400  1.00  0.00     0.042 C 
BRANCH  18  19
ATOM     19  C   UNL     1      45.832 107.423  55.998  1.00  0.00     0.030 CG0
ATOM     20  G   UNL     1      46.006 107.812  57.443  1.00  0.00     0.000 G0
ENDBRANCH  18  19
ENDBRANCH  15  18
ENDBRANCH   1  14
TORSDOF 0
ENDMDL
MODEL 9
REMARK VINA RESULT:    -3.306      2.181      3.865
REMARK INTER + INTRA:          -4.610
REMARK INTER:                  -4.406
REMARK INTRA:                  -0.204
REMARK UNBOUND:                -0.145
REMARK SMILES C=C1C(=O)O[C@@H]2[C@H]1CCC(C)=CCC[C@@]1(C)O[C@@H]21
REMARK SMILES IDX 6 1 7 2 2 3 1 4 3 5 4 6 5 7 8 8 9 9 10 10 11 11 12 12 18 14
REMARK SMILES IDX 15 15 17 16 16 17 14 18 13 19
REMARK H PARENT
REMARK Flexibility Score: 70.00
ROOT
ATOM      1  C   UNL     1      48.097 111.568  53.228  1.00  0.00     0.216 C 
ATOM      2  C   UNL     1      46.954 110.723  53.910  1.00  0.00     0.070 C 
ATOM      3  C   UNL     1      45.806 111.075  52.996  1.00  0.00     0.037 C 
ATOM      4  C   UNL     1      44.679 110.381  52.844  1.00  0.00     0.021 C 
ATOM      5  C   UNL     1      46.130 112.325  52.345  1.00  0.00     0.334 C 
ATOM      6  O   UNL     1      45.343 113.025  51.653  1.00  0.00    -0.247 OA
ATOM      7  O   UNL     1      47.442 112.663  52.595  1.00  0.00    -0.455 OA
ENDROOT
BRANCH   2   8
ATOM      8  C   UNL     1      46.523 111.125  55.348  1.00  0.00     0.017 C 
BRANCH   8   9
ATOM      9  C   UNL     1      47.474 110.747  56.518  1.00  0.00     0.031 C 
BRANCH   9  10
ATOM     10  C   UNL     1      47.932 109.300  56.586  1.00  0.00    -0.077 C 
ATOM     11  C   UNL     1      46.918 108.229  56.908  1.00  0.00     0.039 C 
ATOM     12  C   UNL     1      49.224 108.927  56.465  1.00  0.00    -0.028 CG0
ATOM     13  G   UNL     1      50.386 109.861  56.255  1.00  0.00     0.000 G0
ENDBRANCH   9  10
ENDBRANCH   8   9
ENDBRANCH   2   8
BRANCH   1  14
ATOM     14  C   UNL     1      49.499 111.988  53.755  1.00  0.00     0.192 C 
ATOM     15  C   UNL     1      50.794 111.356  54.199  1.00  0.00     0.096 C 
ATOM     16  O   UNL     1      50.441 111.433  52.849  1.00  0.00    -0.362 OA
ATOM     17  C   UNL     1      51.953 112.305  54.524  1.00  0.00     0.045 C 
BRANCH  15  18
ATOM     18  C   UNL     1      50.867 109.947  54.806  1.00  0.00     0.042 C 
BRANCH  18  19
ATOM     19  C   UNL     1      50.394 109.849  56.262  1.00  0.00     0.030 CG0
ATOM     20  G   UNL     1      49.213 108.937  56.470  1.00  0.00     0.000 G0
ENDBRANCH  18  19
ENDBRANCH  15  18
ENDBRANCH   1  14
TORSDOF 0
ENDMDL
