MODEL 1
REMARK VINA RESULT:    -3.346      0.000      0.000
REMARK INTER + INTRA:         -14.918
REMARK INTER:                  -8.823
REMARK INTRA:                  -6.095
REMARK UNBOUND:                -6.095
REMARK SMILES CCCCCCCCCCCCCCCCCCCCCCCCCCCCCC(=O)[O-]
REMARK SMILES IDX 16 1 17 2 18 3 19 4 20 5 21 6 22 7 23 8 24 9 25 10 26 11
REMARK SMILES IDX 27 12 28 13 29 14 30 15 31 16 32 17 15 18 14 19 13 20 12 21
REMARK SMILES IDX 11 22 10 23 9 24 8 25 7 26 6 27 5 28 4 29 3 30 2 31 1 32
REMARK H PARENT
REMARK Flexibility Score: inf
ROOT
ATOM      1  C   UNL     1      24.579   1.964  28.113  1.00  0.00     0.000 C 
ENDROOT
BRANCH   1   2
ATOM      2  C   UNL     1      25.452   0.997  28.929  1.00  0.00     0.000 C 
BRANCH   2   3
ATOM      3  C   UNL     1      26.890   1.503  29.122  1.00  0.00     0.000 C 
BRANCH   3   4
ATOM      4  C   UNL     1      27.110   2.901  28.518  1.00  0.00     0.000 C 
BRANCH   4   5
ATOM      5  C   UNL     1      27.629   3.928  29.543  1.00  0.00     0.000 C 
BRANCH   5   6
ATOM      6  C   UNL     1      26.560   4.865  30.138  1.00  0.00     0.000 C 
BRANCH   6   7
ATOM      7  C   UNL     1      26.338   4.645  31.643  1.00  0.00     0.000 C 
BRANCH   7   8
ATOM      8  C   UNL     1      25.139   3.729  31.941  1.00  0.00     0.000 C 
BRANCH   8   9
ATOM      9  C   UNL     1      25.536   2.336  32.475  1.00  0.00     0.000 C 
BRANCH   9  10
ATOM     10  C   UNL     1      24.364   1.338  32.435  1.00  0.00     0.000 C 
BRANCH  10  11
ATOM     11  C   UNL     1      23.490   1.417  33.706  1.00  0.00     0.000 C 
BRANCH  11  12
ATOM     12  C   UNL     1      21.990   1.589  33.408  1.00  0.00     0.000 C 
BRANCH  12  13
ATOM     13  C   UNL     1      21.540   3.059  33.441  1.00  0.00     0.006 C 
BRANCH  13  14
ATOM     14  C   UNL     1      21.378   3.648  32.034  1.00  0.00     0.053 C 
BRANCH  14  15
ATOM     15  C   UNL     1      20.203   4.574  31.948  1.00  0.00     0.041 C 
ATOM     16  O   UNL     1      19.782   4.962  30.825  1.00  0.00    -0.550 OA
ATOM     17  O   UNL     1      19.563   4.994  33.107  1.00  0.00    -0.550 OA
ENDBRANCH  14  15
ENDBRANCH  13  14
ENDBRANCH  12  13
ENDBRANCH  11  12
ENDBRANCH  10  11
ENDBRANCH   9  10
ENDBRANCH   8   9
ENDBRANCH   7   8
ENDBRANCH   6   7
ENDBRANCH   5   6
ENDBRANCH   4   5
ENDBRANCH   3   4
ENDBRANCH   2   3
ENDBRANCH   1   2
BRANCH   1  18
ATOM     18  C   UNL     1      23.365   2.475  28.904  1.00  0.00     0.000 C 
BRANCH  18  19
ATOM     19  C   UNL     1      23.240   4.009  28.867  1.00  0.00     0.000 C 
BRANCH  19  20
ATOM     20  C   UNL     1      23.911   4.628  27.630  1.00  0.00     0.000 C 
BRANCH  20  21
ATOM     21  C   UNL     1      23.067   5.750  26.997  1.00  0.00     0.000 C 
BRANCH  21  22
ATOM     22  C   UNL     1      23.929   6.860  26.376  1.00  0.00     0.000 C 
BRANCH  22  23
ATOM     23  C   UNL     1      24.748   7.636  27.424  1.00  0.00     0.000 C 
BRANCH  23  24
ATOM     24  C   UNL     1      23.857   8.275  28.508  1.00  0.00    -0.000 C 
BRANCH  24  25
ATOM     25  C   UNL     1      24.160   7.785  29.937  1.00  0.00    -0.000 C 
BRANCH  25  26
ATOM     26  C   UNL     1      22.965   7.102  30.635  1.00  0.00    -0.000 C 
BRANCH  26  27
ATOM     27  C   UNL     1      23.186   6.843  32.140  1.00  0.00    -0.000 C 
BRANCH  27  28
ATOM     28  C   UNL     1      22.212   7.595  33.069  1.00  0.00    -0.000 C 
BRANCH  28  29
ATOM     29  C   UNL     1      22.459   9.111  33.197  1.00  0.00    -0.000 C 
BRANCH  29  30
ATOM     30  C   UNL     1      21.430   9.980  32.442  1.00  0.00    -0.000 C 
BRANCH  30  31
ATOM     31  C   UNL     1      22.021  11.325  31.991  1.00  0.00    -0.003 C 
ATOM     32  C   UNL     1      22.849  11.164  30.719  1.00  0.00     0.004 C 
ENDBRANCH  30  31
ENDBRANCH  29  30
ENDBRANCH  28  29
ENDBRANCH  27  28
ENDBRANCH  26  27
ENDBRANCH  25  26
ENDBRANCH  24  25
ENDBRANCH  23  24
ENDBRANCH  22  23
ENDBRANCH  21  22
ENDBRANCH  20  21
ENDBRANCH  19  20
ENDBRANCH  18  19
ENDBRANCH   1  18
TORSDOF 28
ENDMDL
MODEL 2
REMARK VINA RESULT:    -3.228      1.580      3.833
REMARK INTER + INTRA:         -14.608
REMARK INTER:                  -8.180
REMARK INTRA:                  -6.428
REMARK UNBOUND:                -6.095
REMARK SMILES CCCCCCCCCCCCCCCCCCCCCCCCCCCCCC(=O)[O-]
REMARK SMILES IDX 16 1 17 2 18 3 19 4 20 5 21 6 22 7 23 8 24 9 25 10 26 11
REMARK SMILES IDX 27 12 28 13 29 14 30 15 31 16 32 17 15 18 14 19 13 20 12 21
REMARK SMILES IDX 11 22 10 23 9 24 8 25 7 26 6 27 5 28 4 29 3 30 2 31 1 32
REMARK H PARENT
REMARK Flexibility Score: inf
ROOT
ATOM      1  C   UNL     1      22.896   5.754  26.916  1.00  0.00     0.000 C 
ENDROOT
BRANCH   1   2
ATOM      2  C   UNL     1      23.802   4.685  27.549  1.00  0.00     0.000 C 
BRANCH   2   3
ATOM      3  C   UNL     1      23.376   4.305  28.976  1.00  0.00     0.000 C 
BRANCH   3   4
ATOM      4  C   UNL     1      23.343   2.783  29.196  1.00  0.00     0.000 C 
BRANCH   4   5
ATOM      5  C   UNL     1      22.130   2.318  30.027  1.00  0.00     0.000 C 
BRANCH   5   6
ATOM      6  C   UNL     1      22.451   1.864  31.464  1.00  0.00     0.000 C 
BRANCH   6   7
ATOM      7  C   UNL     1      23.865   1.279  31.608  1.00  0.00     0.000 C 
BRANCH   7   8
ATOM      8  C   UNL     1      24.746   2.084  32.578  1.00  0.00     0.000 C 
BRANCH   8   9
ATOM      9  C   UNL     1      25.952   2.770  31.902  1.00  0.00     0.000 C 
BRANCH   9  10
ATOM     10  C   UNL     1      25.787   4.298  31.821  1.00  0.00     0.000 C 
BRANCH  10  11
ATOM     11  C   UNL     1      24.979   4.859  33.012  1.00  0.00     0.000 C 
BRANCH  11  12
ATOM     12  C   UNL     1      23.848   5.813  32.590  1.00  0.00     0.000 C 
BRANCH  12  13
ATOM     13  C   UNL     1      22.449   5.240  32.867  1.00  0.00     0.006 C 
BRANCH  13  14
ATOM     14  C   UNL     1      21.449   5.589  31.758  1.00  0.00     0.053 C 
BRANCH  14  15
ATOM     15  C   UNL     1      20.161   4.838  31.912  1.00  0.00     0.041 C 
ATOM     16  O   UNL     1      19.824   4.381  33.037  1.00  0.00    -0.550 OA
ATOM     17  O   UNL     1      19.324   4.661  30.818  1.00  0.00    -0.550 OA
ENDBRANCH  14  15
ENDBRANCH  13  14
ENDBRANCH  12  13
ENDBRANCH  11  12
ENDBRANCH  10  11
ENDBRANCH   9  10
ENDBRANCH   8   9
ENDBRANCH   7   8
ENDBRANCH   6   7
ENDBRANCH   5   6
ENDBRANCH   4   5
ENDBRANCH   3   4
ENDBRANCH   2   3
ENDBRANCH   1   2
BRANCH   1  18
ATOM     18  C   UNL     1      23.690   6.823  26.148  1.00  0.00     0.000 C 
BRANCH  18  19
ATOM     19  C   UNL     1      24.642   7.618  27.060  1.00  0.00     0.000 C 
BRANCH  19  20
ATOM     20  C   UNL     1      23.903   8.356  28.188  1.00  0.00     0.000 C 
BRANCH  20  21
ATOM     21  C   UNL     1      24.269   7.823  29.585  1.00  0.00     0.000 C 
BRANCH  21  22
ATOM     22  C   UNL     1      25.694   7.252  29.647  1.00  0.00     0.000 C 
BRANCH  22  23
ATOM     23  C   UNL     1      26.568   7.946  30.707  1.00  0.00     0.000 C 
BRANCH  23  24
ATOM     24  C   UNL     1      25.743   8.841  31.653  1.00  0.00    -0.000 C 
BRANCH  24  25
ATOM     25  C   UNL     1      26.258  10.290  31.753  1.00  0.00    -0.000 C 
BRANCH  25  26
ATOM     26  C   UNL     1      26.305  11.035  30.402  1.00  0.00    -0.000 C 
BRANCH  26  27
ATOM     27  C   UNL     1      25.233  12.135  30.259  1.00  0.00    -0.000 C 
BRANCH  27  28
ATOM     28  C   UNL     1      23.989  11.714  29.450  1.00  0.00    -0.000 C 
BRANCH  28  29
ATOM     29  C   UNL     1      22.793  11.217  30.287  1.00  0.00    -0.000 C 
BRANCH  29  30
ATOM     30  C   UNL     1      22.823  11.677  31.760  1.00  0.00    -0.000 C 
BRANCH  30  31
ATOM     31  C   UNL     1      22.243  10.621  32.713  1.00  0.00    -0.003 C 
ATOM     32  C   UNL     1      22.017   9.294  31.995  1.00  0.00     0.004 C 
ENDBRANCH  30  31
ENDBRANCH  29  30
ENDBRANCH  28  29
ENDBRANCH  27  28
ENDBRANCH  26  27
ENDBRANCH  25  26
ENDBRANCH  24  25
ENDBRANCH  23  24
ENDBRANCH  22  23
ENDBRANCH  21  22
ENDBRANCH  20  21
ENDBRANCH  19  20
ENDBRANCH  18  19
ENDBRANCH   1  18
TORSDOF 28
ENDMDL
MODEL 3
REMARK VINA RESULT:    -3.125      2.979      7.520
REMARK INTER + INTRA:         -14.336
REMARK INTER:                  -8.795
REMARK INTRA:                  -5.541
REMARK UNBOUND:                -6.095
REMARK SMILES CCCCCCCCCCCCCCCCCCCCCCCCCCCCCC(=O)[O-]
REMARK SMILES IDX 16 1 17 2 18 3 19 4 20 5 21 6 22 7 23 8 24 9 25 10 26 11
REMARK SMILES IDX 27 12 28 13 29 14 30 15 31 16 32 17 15 18 14 19 13 20 12 21
REMARK SMILES IDX 11 22 10 23 9 24 8 25 7 26 6 27 5 28 4 29 3 30 2 31 1 32
REMARK H PARENT
REMARK Flexibility Score: inf
ROOT
ATOM      1  C   UNL     1      23.622   7.513  26.540  1.00  0.00     0.000 C 
ENDROOT
BRANCH   1   2
ATOM      2  C   UNL     1      24.730   7.693  27.591  1.00  0.00     0.000 C 
BRANCH   2   3
ATOM      3  C   UNL     1      24.315   8.615  28.749  1.00  0.00     0.000 C 
BRANCH   3   4
ATOM      4  C   UNL     1      25.101   8.332  30.040  1.00  0.00     0.000 C 
BRANCH   4   5
ATOM      5  C   UNL     1      24.213   7.807  31.186  1.00  0.00     0.000 C 
BRANCH   5   6
ATOM      6  C   UNL     1      22.741   7.548  30.812  1.00  0.00     0.000 C 
BRANCH   6   7
ATOM      7  C   UNL     1      21.749   8.208  31.783  1.00  0.00     0.000 C 
BRANCH   7   8
ATOM      8  C   UNL     1      22.352   9.417  32.519  1.00  0.00     0.000 C 
BRANCH   8   9
ATOM      9  C   UNL     1      21.483  10.691  32.441  1.00  0.00     0.000 C 
BRANCH   9  10
ATOM     10  C   UNL     1      22.247  11.884  31.839  1.00  0.00     0.000 C 
BRANCH  10  11
ATOM     11  C   UNL     1      23.068  11.479  30.595  1.00  0.00     0.000 C 
BRANCH  11  12
ATOM     12  C   UNL     1      24.498  12.047  30.594  1.00  0.00     0.000 C 
BRANCH  12  13
ATOM     13  C   UNL     1      25.152  12.016  29.203  1.00  0.00     0.006 C 
BRANCH  13  14
ATOM     14  C   UNL     1      25.194  13.403  28.550  1.00  0.00     0.053 C 
BRANCH  14  15
ATOM     15  C   UNL     1      23.824  13.889  28.185  1.00  0.00     0.041 C 
ATOM     16  O   UNL     1      23.447  15.041  28.530  1.00  0.00    -0.550 OA
ATOM     17  O   UNL     1      22.972  13.077  27.448  1.00  0.00    -0.550 OA
ENDBRANCH  14  15
ENDBRANCH  13  14
ENDBRANCH  12  13
ENDBRANCH  11  12
ENDBRANCH  10  11
ENDBRANCH   9  10
ENDBRANCH   8   9
ENDBRANCH   7   8
ENDBRANCH   6   7
ENDBRANCH   5   6
ENDBRANCH   4   5
ENDBRANCH   3   4
ENDBRANCH   2   3
ENDBRANCH   1   2
BRANCH   1  18
ATOM     18  C   UNL     1      23.007   6.105  26.566  1.00  0.00     0.000 C 
BRANCH  18  19
ATOM     19  C   UNL     1      23.394   5.316  27.831  1.00  0.00     0.000 C 
BRANCH  19  20
ATOM     20  C   UNL     1      24.080   3.979  27.508  1.00  0.00     0.000 C 
BRANCH  20  21
ATOM     21  C   UNL     1      25.211   3.639  28.497  1.00  0.00     0.000 C 
BRANCH  21  22
ATOM     22  C   UNL     1      25.233   4.576  29.715  1.00  0.00     0.000 C 
BRANCH  22  23
ATOM     23  C   UNL     1      26.612   4.630  30.398  1.00  0.00     0.000 C 
BRANCH  23  24
ATOM     24  C   UNL     1      26.519   5.072  31.873  1.00  0.00    -0.000 C 
BRANCH  24  25
ATOM     25  C   UNL     1      26.336   3.907  32.865  1.00  0.00    -0.000 C 
BRANCH  25  26
ATOM     26  C   UNL     1      24.876   3.684  33.311  1.00  0.00    -0.000 C 
BRANCH  26  27
ATOM     27  C   UNL     1      24.397   2.224  33.170  1.00  0.00    -0.000 C 
BRANCH  27  28
ATOM     28  C   UNL     1      24.950   1.485  31.935  1.00  0.00    -0.000 C 
BRANCH  28  29
ATOM     29  C   UNL     1      23.922   1.193  30.825  1.00  0.00    -0.000 C 
BRANCH  29  30
ATOM     30  C   UNL     1      22.486   1.648  31.163  1.00  0.00    -0.000 C 
BRANCH  30  31
ATOM     31  C   UNL     1      21.951   2.684  30.163  1.00  0.00    -0.003 C 
ATOM     32  C   UNL     1      21.593   3.992  30.863  1.00  0.00     0.004 C 
ENDBRANCH  30  31
ENDBRANCH  29  30
ENDBRANCH  28  29
ENDBRANCH  27  28
ENDBRANCH  26  27
ENDBRANCH  25  26
ENDBRANCH  24  25
ENDBRANCH  23  24
ENDBRANCH  22  23
ENDBRANCH  21  22
ENDBRANCH  20  21
ENDBRANCH  19  20
ENDBRANCH  18  19
ENDBRANCH   1  18
TORSDOF 28
ENDMDL
MODEL 4
REMARK VINA RESULT:    -3.092      2.462      6.034
REMARK INTER + INTRA:         -14.248
REMARK INTER:                  -8.236
REMARK INTRA:                  -6.012
REMARK UNBOUND:                -6.095
REMARK SMILES CCCCCCCCCCCCCCCCCCCCCCCCCCCCCC(=O)[O-]
REMARK SMILES IDX 16 1 17 2 18 3 19 4 20 5 21 6 22 7 23 8 24 9 25 10 26 11
REMARK SMILES IDX 27 12 28 13 29 14 30 15 31 16 32 17 15 18 14 19 13 20 12 21
REMARK SMILES IDX 11 22 10 23 9 24 8 25 7 26 6 27 5 28 4 29 3 30 2 31 1 32
REMARK H PARENT
REMARK Flexibility Score: inf
ROOT
ATOM      1  C   UNL     1      23.635   5.130  26.629  1.00  0.00     0.000 C 
ENDROOT
BRANCH   1   2
ATOM      2  C   UNL     1      22.996   6.515  26.830  1.00  0.00     0.000 C 
BRANCH   2   3
ATOM      3  C   UNL     1      24.032   7.622  27.082  1.00  0.00     0.000 C 
BRANCH   3   4
ATOM      4  C   UNL     1      23.853   8.297  28.454  1.00  0.00     0.000 C 
BRANCH   4   5
ATOM      5  C   UNL     1      24.312   7.410  29.628  1.00  0.00     0.000 C 
BRANCH   5   6
ATOM      6  C   UNL     1      25.656   7.807  30.267  1.00  0.00     0.000 C 
BRANCH   6   7
ATOM      7  C   UNL     1      25.725   7.488  31.770  1.00  0.00     0.000 C 
BRANCH   7   8
ATOM      8  C   UNL     1      24.603   6.542  32.230  1.00  0.00     0.000 C 
BRANCH   8   9
ATOM      9  C   UNL     1      23.960   6.943  33.574  1.00  0.00     0.000 C 
BRANCH   9  10
ATOM     10  C   UNL     1      23.363   8.362  33.537  1.00  0.00     0.000 C 
BRANCH  10  11
ATOM     11  C   UNL     1      22.164   8.461  32.569  1.00  0.00     0.000 C 
BRANCH  11  12
ATOM     12  C   UNL     1      22.197   9.718  31.681  1.00  0.00     0.000 C 
BRANCH  12  13
ATOM     13  C   UNL     1      23.348  10.672  32.039  1.00  0.00     0.006 C 
BRANCH  13  14
ATOM     14  C   UNL     1      24.150  11.102  30.804  1.00  0.00     0.053 C 
BRANCH  14  15
ATOM     15  C   UNL     1      23.404  12.103  29.975  1.00  0.00     0.041 C 
ATOM     16  O   UNL     1      22.838  11.745  28.908  1.00  0.00    -0.550 OA
ATOM     17  O   UNL     1      23.319  13.425  30.391  1.00  0.00    -0.550 OA
ENDBRANCH  14  15
ENDBRANCH  13  14
ENDBRANCH  12  13
ENDBRANCH  11  12
ENDBRANCH  10  11
ENDBRANCH   9  10
ENDBRANCH   8   9
ENDBRANCH   7   8
ENDBRANCH   6   7
ENDBRANCH   5   6
ENDBRANCH   4   5
ENDBRANCH   3   4
ENDBRANCH   2   3
ENDBRANCH   1   2
BRANCH   1  18
ATOM     18  C   UNL     1      23.679   4.307  27.926  1.00  0.00     0.000 C 
BRANCH  18  19
ATOM     19  C   UNL     1      24.457   2.988  27.760  1.00  0.00     0.000 C 
BRANCH  19  20
ATOM     20  C   UNL     1      25.830   3.020  28.450  1.00  0.00     0.000 C 
BRANCH  20  21
ATOM     21  C   UNL     1      25.911   4.084  29.560  1.00  0.00     0.000 C 
BRANCH  21  22
ATOM     22  C   UNL     1      25.939   3.470  30.969  1.00  0.00     0.000 C 
BRANCH  22  23
ATOM     23  C   UNL     1      26.104   1.940  30.948  1.00  0.00     0.000 C 
BRANCH  23  24
ATOM     24  C   UNL     1      24.930   1.214  31.635  1.00  0.00    -0.000 C 
BRANCH  24  25
ATOM     25  C   UNL     1      23.615   1.252  30.832  1.00  0.00    -0.000 C 
BRANCH  25  26
ATOM     26  C   UNL     1      22.437   1.905  31.585  1.00  0.00    -0.000 C 
BRANCH  26  27
ATOM     27  C   UNL     1      22.839   2.563  32.921  1.00  0.00    -0.000 C 
BRANCH  27  28
ATOM     28  C   UNL     1      21.661   3.141  33.731  1.00  0.00    -0.000 C 
BRANCH  28  29
ATOM     29  C   UNL     1      21.276   4.594  33.392  1.00  0.00    -0.000 C 
BRANCH  29  30
ATOM     30  C   UNL     1      19.918   4.732  32.671  1.00  0.00    -0.000 C 
BRANCH  30  31
ATOM     31  C   UNL     1      20.064   4.720  31.142  1.00  0.00    -0.003 C 
ATOM     32  C   UNL     1      21.354   5.409  30.705  1.00  0.00     0.004 C 
ENDBRANCH  30  31
ENDBRANCH  29  30
ENDBRANCH  28  29
ENDBRANCH  27  28
ENDBRANCH  26  27
ENDBRANCH  25  26
ENDBRANCH  24  25
ENDBRANCH  23  24
ENDBRANCH  22  23
ENDBRANCH  21  22
ENDBRANCH  20  21
ENDBRANCH  19  20
ENDBRANCH  18  19
ENDBRANCH   1  18
TORSDOF 28
ENDMDL
MODEL 5
REMARK VINA RESULT:    -3.091      1.659      4.034
REMARK INTER + INTRA:         -14.245
REMARK INTER:                  -8.527
REMARK INTRA:                  -5.718
REMARK UNBOUND:                -6.095
REMARK SMILES CCCCCCCCCCCCCCCCCCCCCCCCCCCCCC(=O)[O-]
REMARK SMILES IDX 16 1 17 2 18 3 19 4 20 5 21 6 22 7 23 8 24 9 25 10 26 11
REMARK SMILES IDX 27 12 28 13 29 14 30 15 31 16 32 17 15 18 14 19 13 20 12 21
REMARK SMILES IDX 11 22 10 23 9 24 8 25 7 26 6 27 5 28 4 29 3 30 2 31 1 32
REMARK H PARENT
REMARK Flexibility Score: inf
ROOT
ATOM      1  C   UNL     1      22.875   6.338  26.979  1.00  0.00     0.000 C 
ENDROOT
BRANCH   1   2
ATOM      2  C   UNL     1      23.732   5.087  27.236  1.00  0.00     0.000 C 
BRANCH   2   3
ATOM      3  C   UNL     1      23.627   4.575  28.681  1.00  0.00     0.000 C 
BRANCH   3   4
ATOM      4  C   UNL     1      25.002   4.400  29.348  1.00  0.00     0.000 C 
BRANCH   4   5
ATOM      5  C   UNL     1      25.505   2.943  29.323  1.00  0.00     0.000 C 
BRANCH   5   6
ATOM      6  C   UNL     1      25.609   2.259  30.700  1.00  0.00     0.000 C 
BRANCH   6   7
ATOM      7  C   UNL     1      24.244   1.831  31.264  1.00  0.00     0.000 C 
BRANCH   7   8
ATOM      8  C   UNL     1      23.788   2.704  32.446  1.00  0.00     0.000 C 
BRANCH   8   9
ATOM      9  C   UNL     1      24.946   3.203  33.335  1.00  0.00     0.000 C 
BRANCH   9  10
ATOM     10  C   UNL     1      24.910   4.728  33.541  1.00  0.00     0.000 C 
BRANCH  10  11
ATOM     11  C   UNL     1      23.761   5.394  32.752  1.00  0.00     0.000 C 
BRANCH  11  12
ATOM     12  C   UNL     1      22.585   5.838  33.639  1.00  0.00     0.000 C 
BRANCH  12  13
ATOM     13  C   UNL     1      21.238   5.821  32.897  1.00  0.00     0.006 C 
BRANCH  13  14
ATOM     14  C   UNL     1      21.399   5.486  31.409  1.00  0.00     0.053 C 
BRANCH  14  15
ATOM     15  C   UNL     1      20.436   4.427  30.968  1.00  0.00     0.041 C 
ATOM     16  O   UNL     1      19.194   4.623  31.055  1.00  0.00    -0.550 OA
ATOM     17  O   UNL     1      20.909   3.231  30.445  1.00  0.00    -0.550 OA
ENDBRANCH  14  15
ENDBRANCH  13  14
ENDBRANCH  12  13
ENDBRANCH  11  12
ENDBRANCH  10  11
ENDBRANCH   9  10
ENDBRANCH   8   9
ENDBRANCH   7   8
ENDBRANCH   6   7
ENDBRANCH   5   6
ENDBRANCH   4   5
ENDBRANCH   3   4
ENDBRANCH   2   3
ENDBRANCH   1   2
BRANCH   1  18
ATOM     18  C   UNL     1      23.721   7.568  26.612  1.00  0.00     0.000 C 
BRANCH  18  19
ATOM     19  C   UNL     1      25.073   7.593  27.347  1.00  0.00     0.000 C 
BRANCH  19  20
ATOM     20  C   UNL     1      25.110   8.627  28.484  1.00  0.00     0.000 C 
BRANCH  20  21
ATOM     21  C   UNL     1      24.815   8.004  29.861  1.00  0.00     0.000 C 
BRANCH  21  22
ATOM     22  C   UNL     1      23.351   8.187  30.292  1.00  0.00     0.000 C 
BRANCH  22  23
ATOM     23  C   UNL     1      23.217   8.821  31.689  1.00  0.00     0.000 C 
BRANCH  23  24
ATOM     24  C   UNL     1      21.826   9.447  31.917  1.00  0.00    -0.000 C 
BRANCH  24  25
ATOM     25  C   UNL     1      21.822  10.612  32.926  1.00  0.00    -0.000 C 
BRANCH  25  26
ATOM     26  C   UNL     1      22.990  11.604  32.746  1.00  0.00    -0.000 C 
BRANCH  26  27
ATOM     27  C   UNL     1      22.650  12.813  31.849  1.00  0.00    -0.000 C 
BRANCH  27  28
ATOM     28  C   UNL     1      23.697  13.115  30.758  1.00  0.00    -0.000 C 
BRANCH  28  29
ATOM     29  C   UNL     1      24.043  11.936  29.828  1.00  0.00    -0.000 C 
BRANCH  29  30
ATOM     30  C   UNL     1      23.500  12.089  28.391  1.00  0.00    -0.000 C 
BRANCH  30  31
ATOM     31  C   UNL     1      22.455  11.019  28.043  1.00  0.00    -0.003 C 
ATOM     32  C   UNL     1      21.966  11.172  26.605  1.00  0.00     0.004 C 
ENDBRANCH  30  31
ENDBRANCH  29  30
ENDBRANCH  28  29
ENDBRANCH  27  28
ENDBRANCH  26  27
ENDBRANCH  25  26
ENDBRANCH  24  25
ENDBRANCH  23  24
ENDBRANCH  22  23
ENDBRANCH  21  22
ENDBRANCH  20  21
ENDBRANCH  19  20
ENDBRANCH  18  19
ENDBRANCH   1  18
TORSDOF 28
ENDMDL
MODEL 6
REMARK VINA RESULT:    -3.076      2.065      4.135
REMARK INTER + INTRA:         -14.207
REMARK INTER:                  -8.058
REMARK INTRA:                  -6.149
REMARK UNBOUND:                -6.095
REMARK SMILES CCCCCCCCCCCCCCCCCCCCCCCCCCCCCC(=O)[O-]
REMARK SMILES IDX 16 1 17 2 18 3 19 4 20 5 21 6 22 7 23 8 24 9 25 10 26 11
REMARK SMILES IDX 27 12 28 13 29 14 30 15 31 16 32 17 15 18 14 19 13 20 12 21
REMARK SMILES IDX 11 22 10 23 9 24 8 25 7 26 6 27 5 28 4 29 3 30 2 31 1 32
REMARK H PARENT
REMARK Flexibility Score: inf
ROOT
ATOM      1  C   UNL     1      22.899   6.090  27.059  1.00  0.00     0.000 C 
ENDROOT
BRANCH   1   2
ATOM      2  C   UNL     1      23.809   4.853  27.149  1.00  0.00     0.000 C 
BRANCH   2   3
ATOM      3  C   UNL     1      24.136   4.453  28.597  1.00  0.00     0.000 C 
BRANCH   3   4
ATOM      4  C   UNL     1      22.883   4.384  29.487  1.00  0.00     0.000 C 
BRANCH   4   5
ATOM      5  C   UNL     1      22.477   2.942  29.848  1.00  0.00     0.000 C 
BRANCH   5   6
ATOM      6  C   UNL     1      23.647   1.965  30.074  1.00  0.00     0.000 C 
BRANCH   6   7
ATOM      7  C   UNL     1      23.711   1.426  31.513  1.00  0.00     0.000 C 
BRANCH   7   8
ATOM      8  C   UNL     1      24.945   1.929  32.282  1.00  0.00     0.000 C 
BRANCH   8   9
ATOM      9  C   UNL     1      25.772   2.982  31.514  1.00  0.00     0.000 C 
BRANCH   9  10
ATOM     10  C   UNL     1      25.590   4.400  32.084  1.00  0.00     0.000 C 
BRANCH  10  11
ATOM     11  C   UNL     1      24.739   4.403  33.373  1.00  0.00     0.000 C 
BRANCH  11  12
ATOM     12  C   UNL     1      23.299   4.897  33.155  1.00  0.00     0.000 C 
BRANCH  12  13
ATOM     13  C   UNL     1      22.269   4.131  34.002  1.00  0.00     0.006 C 
BRANCH  13  14
ATOM     14  C   UNL     1      21.113   3.584  33.156  1.00  0.00     0.053 C 
BRANCH  14  15
ATOM     15  C   UNL     1      20.086   4.637  32.869  1.00  0.00     0.041 C 
ATOM     16  O   UNL     1      19.856   5.545  33.713  1.00  0.00    -0.550 OA
ATOM     17  O   UNL     1      19.396   4.626  31.664  1.00  0.00    -0.550 OA
ENDBRANCH  14  15
ENDBRANCH  13  14
ENDBRANCH  12  13
ENDBRANCH  11  12
ENDBRANCH  10  11
ENDBRANCH   9  10
ENDBRANCH   8   9
ENDBRANCH   7   8
ENDBRANCH   6   7
ENDBRANCH   5   6
ENDBRANCH   4   5
ENDBRANCH   3   4
ENDBRANCH   2   3
ENDBRANCH   1   2
BRANCH   1  18
ATOM     18  C   UNL     1      23.658   7.349  26.610  1.00  0.00     0.000 C 
BRANCH  18  19
ATOM     19  C   UNL     1      24.463   7.991  27.755  1.00  0.00     0.000 C 
BRANCH  19  20
ATOM     20  C   UNL     1      23.655   9.046  28.527  1.00  0.00     0.000 C 
BRANCH  20  21
ATOM     21  C   UNL     1      23.360   8.621  29.978  1.00  0.00     0.000 C 
BRANCH  21  22
ATOM     22  C   UNL     1      24.403   7.637  30.531  1.00  0.00     0.000 C 
BRANCH  22  23
ATOM     23  C   UNL     1      24.945   8.056  31.909  1.00  0.00     0.000 C 
BRANCH  23  24
ATOM     24  C   UNL     1      26.486   8.064  31.955  1.00  0.00    -0.000 C 
BRANCH  24  25
ATOM     25  C   UNL     1      27.155   7.863  30.582  1.00  0.00    -0.000 C 
BRANCH  25  26
ATOM     26  C   UNL     1      27.961   9.083  30.089  1.00  0.00    -0.000 C 
BRANCH  26  27
ATOM     27  C   UNL     1      27.383   9.741  28.819  1.00  0.00    -0.000 C 
BRANCH  27  28
ATOM     28  C   UNL     1      26.852  11.174  29.025  1.00  0.00    -0.000 C 
BRANCH  28  29
ATOM     29  C   UNL     1      26.057  11.404  30.325  1.00  0.00    -0.000 C 
BRANCH  29  30
ATOM     30  C   UNL     1      24.807  12.292  30.149  1.00  0.00    -0.000 C 
BRANCH  30  31
ATOM     31  C   UNL     1      24.460  12.525  28.671  1.00  0.00    -0.003 C 
ATOM     32  C   UNL     1      24.398  14.016  28.347  1.00  0.00     0.004 C 
ENDBRANCH  30  31
ENDBRANCH  29  30
ENDBRANCH  28  29
ENDBRANCH  27  28
ENDBRANCH  26  27
ENDBRANCH  25  26
ENDBRANCH  24  25
ENDBRANCH  23  24
ENDBRANCH  22  23
ENDBRANCH  21  22
ENDBRANCH  20  21
ENDBRANCH  19  20
ENDBRANCH  18  19
ENDBRANCH   1  18
TORSDOF 28
ENDMDL
MODEL 7
REMARK VINA RESULT:    -3.069      1.352      3.560
REMARK INTER + INTRA:         -14.188
REMARK INTER:                  -8.360
REMARK INTRA:                  -5.828
REMARK UNBOUND:                -6.095
REMARK SMILES CCCCCCCCCCCCCCCCCCCCCCCCCCCCCC(=O)[O-]
REMARK SMILES IDX 16 1 17 2 18 3 19 4 20 5 21 6 22 7 23 8 24 9 25 10 26 11
REMARK SMILES IDX 27 12 28 13 29 14 30 15 31 16 32 17 15 18 14 19 13 20 12 21
REMARK SMILES IDX 11 22 10 23 9 24 8 25 7 26 6 27 5 28 4 29 3 30 2 31 1 32
REMARK H PARENT
REMARK Flexibility Score: inf
ROOT
ATOM      1  C   UNL     1      23.928   3.567  28.141  1.00  0.00     0.000 C 
ENDROOT
BRANCH   1   2
ATOM      2  C   UNL     1      23.591   2.103  28.471  1.00  0.00     0.000 C 
BRANCH   2   3
ATOM      3  C   UNL     1      24.089   1.117  27.402  1.00  0.00     0.000 C 
BRANCH   3   4
ATOM      4  C   UNL     1      25.463   1.509  26.832  1.00  0.00     0.000 C 
BRANCH   4   5
ATOM      5  C   UNL     1      26.639   1.031  27.707  1.00  0.00     0.000 C 
BRANCH   5   6
ATOM      6  C   UNL     1      27.414   2.146  28.435  1.00  0.00     0.000 C 
BRANCH   6   7
ATOM      7  C   UNL     1      27.570   1.884  29.942  1.00  0.00     0.000 C 
BRANCH   7   8
ATOM      8  C   UNL     1      26.387   1.100  30.535  1.00  0.00     0.000 C 
BRANCH   8   9
ATOM      9  C   UNL     1      25.686   1.820  31.707  1.00  0.00     0.000 C 
BRANCH   9  10
ATOM     10  C   UNL     1      24.208   1.412  31.845  1.00  0.00     0.000 C 
BRANCH  10  11
ATOM     11  C   UNL     1      23.708   1.530  33.302  1.00  0.00     0.000 C 
BRANCH  11  12
ATOM     12  C   UNL     1      22.178   1.653  33.415  1.00  0.00     0.000 C 
BRANCH  12  13
ATOM     13  C   UNL     1      21.709   3.104  33.612  1.00  0.00     0.006 C 
BRANCH  13  14
ATOM     14  C   UNL     1      21.373   3.790  32.282  1.00  0.00     0.053 C 
BRANCH  14  15
ATOM     15  C   UNL     1      20.118   4.604  32.376  1.00  0.00     0.041 C 
ATOM     16  O   UNL     1      19.880   5.285  33.409  1.00  0.00    -0.550 OA
ATOM     17  O   UNL     1      19.221   4.624  31.316  1.00  0.00    -0.550 OA
ENDBRANCH  14  15
ENDBRANCH  13  14
ENDBRANCH  12  13
ENDBRANCH  11  12
ENDBRANCH  10  11
ENDBRANCH   9  10
ENDBRANCH   8   9
ENDBRANCH   7   8
ENDBRANCH   6   7
ENDBRANCH   5   6
ENDBRANCH   4   5
ENDBRANCH   3   4
ENDBRANCH   2   3
ENDBRANCH   1   2
BRANCH   1  18
ATOM     18  C   UNL     1      24.273   4.390  29.392  1.00  0.00     0.000 C 
BRANCH  18  19
ATOM     19  C   UNL     1      25.545   5.238  29.207  1.00  0.00     0.000 C 
BRANCH  19  20
ATOM     20  C   UNL     1      26.467   5.198  30.436  1.00  0.00     0.000 C 
BRANCH  20  21
ATOM     21  C   UNL     1      26.617   6.574  31.110  1.00  0.00     0.000 C 
BRANCH  21  22
ATOM     22  C   UNL     1      26.165   6.567  32.579  1.00  0.00     0.000 C 
BRANCH  22  23
ATOM     23  C   UNL     1      25.029   5.563  32.847  1.00  0.00     0.000 C 
BRANCH  23  24
ATOM     24  C   UNL     1      23.863   6.194  33.634  1.00  0.00    -0.000 C 
BRANCH  24  25
ATOM     25  C   UNL     1      23.349   7.519  33.036  1.00  0.00    -0.000 C 
BRANCH  25  26
ATOM     26  C   UNL     1      22.381   7.338  31.847  1.00  0.00    -0.000 C 
BRANCH  26  27
ATOM     27  C   UNL     1      23.030   7.598  30.471  1.00  0.00    -0.000 C 
BRANCH  27  28
ATOM     28  C   UNL     1      23.814   8.922  30.373  1.00  0.00    -0.000 C 
BRANCH  28  29
ATOM     29  C   UNL     1      24.013   9.469  28.946  1.00  0.00    -0.000 C 
BRANCH  29  30
ATOM     30  C   UNL     1      23.310   8.638  27.852  1.00  0.00    -0.000 C 
BRANCH  30  31
ATOM     31  C   UNL     1      24.229   7.560  27.255  1.00  0.00    -0.003 C 
ATOM     32  C   UNL     1      23.564   6.864  26.071  1.00  0.00     0.004 C 
ENDBRANCH  30  31
ENDBRANCH  29  30
ENDBRANCH  28  29
ENDBRANCH  27  28
ENDBRANCH  26  27
ENDBRANCH  25  26
ENDBRANCH  24  25
ENDBRANCH  23  24
ENDBRANCH  22  23
ENDBRANCH  21  22
ENDBRANCH  20  21
ENDBRANCH  19  20
ENDBRANCH  18  19
ENDBRANCH   1  18
TORSDOF 28
ENDMDL
MODEL 8
REMARK VINA RESULT:    -3.063      0.903      2.190
REMARK INTER + INTRA:         -14.171
REMARK INTER:                  -8.063
REMARK INTRA:                  -6.108
REMARK UNBOUND:                -6.095
REMARK SMILES CCCCCCCCCCCCCCCCCCCCCCCCCCCCCC(=O)[O-]
REMARK SMILES IDX 16 1 17 2 18 3 19 4 20 5 21 6 22 7 23 8 24 9 25 10 26 11
REMARK SMILES IDX 27 12 28 13 29 14 30 15 31 16 32 17 15 18 14 19 13 20 12 21
REMARK SMILES IDX 11 22 10 23 9 24 8 25 7 26 6 27 5 28 4 29 3 30 2 31 1 32
REMARK H PARENT
REMARK Flexibility Score: inf
ROOT
ATOM      1  C   UNL     1      23.262   4.025  28.822  1.00  0.00     0.000 C 
ENDROOT
BRANCH   1   2
ATOM      2  C   UNL     1      23.588   2.522  28.844  1.00  0.00     0.000 C 
BRANCH   2   3
ATOM      3  C   UNL     1      24.600   2.111  27.762  1.00  0.00     0.000 C 
BRANCH   3   4
ATOM      4  C   UNL     1      25.866   1.466  28.352  1.00  0.00     0.000 C 
BRANCH   4   5
ATOM      5  C   UNL     1      27.113   2.364  28.233  1.00  0.00     0.000 C 
BRANCH   5   6
ATOM      6  C   UNL     1      27.054   3.682  29.028  1.00  0.00     0.000 C 
BRANCH   6   7
ATOM      7  C   UNL     1      27.728   3.584  30.407  1.00  0.00     0.000 C 
BRANCH   7   8
ATOM      8  C   UNL     1      26.934   4.304  31.509  1.00  0.00     0.000 C 
BRANCH   8   9
ATOM      9  C   UNL     1      25.477   3.816  31.650  1.00  0.00     0.000 C 
BRANCH   9  10
ATOM     10  C   UNL     1      25.362   2.563  32.536  1.00  0.00     0.000 C 
BRANCH  10  11
ATOM     11  C   UNL     1      24.233   2.694  33.583  1.00  0.00     0.000 C 
BRANCH  11  12
ATOM     12  C   UNL     1      23.323   3.913  33.353  1.00  0.00     0.000 C 
BRANCH  12  13
ATOM     13  C   UNL     1      21.841   3.532  33.205  1.00  0.00     0.006 C 
BRANCH  13  14
ATOM     14  C   UNL     1      21.287   3.883  31.818  1.00  0.00     0.053 C 
BRANCH  14  15
ATOM     15  C   UNL     1      19.946   4.546  31.905  1.00  0.00     0.041 C 
ATOM     16  O   UNL     1      19.588   5.116  32.971  1.00  0.00    -0.550 OA
ATOM     17  O   UNL     1      19.100   4.550  30.804  1.00  0.00    -0.550 OA
ENDBRANCH  14  15
ENDBRANCH  13  14
ENDBRANCH  12  13
ENDBRANCH  11  12
ENDBRANCH  10  11
ENDBRANCH   9  10
ENDBRANCH   8   9
ENDBRANCH   7   8
ENDBRANCH   6   7
ENDBRANCH   5   6
ENDBRANCH   4   5
ENDBRANCH   3   4
ENDBRANCH   2   3
ENDBRANCH   1   2
BRANCH   1  18
ATOM     18  C   UNL     1      23.683   4.701  27.507  1.00  0.00     0.000 C 
BRANCH  18  19
ATOM     19  C   UNL     1      23.297   6.190  27.461  1.00  0.00     0.000 C 
BRANCH  19  20
ATOM     20  C   UNL     1      24.454   7.088  26.993  1.00  0.00     0.000 C 
BRANCH  20  21
ATOM     21  C   UNL     1      25.082   7.893  28.146  1.00  0.00     0.000 C 
BRANCH  21  22
ATOM     22  C   UNL     1      25.519   7.004  29.321  1.00  0.00     0.000 C 
BRANCH  22  23
ATOM     23  C   UNL     1      25.612   7.777  30.649  1.00  0.00     0.000 C 
BRANCH  23  24
ATOM     24  C   UNL     1      24.574   7.295  31.682  1.00  0.00    -0.000 C 
BRANCH  24  25
ATOM     25  C   UNL     1      23.216   6.901  31.068  1.00  0.00    -0.000 C 
BRANCH  25  26
ATOM     26  C   UNL     1      22.000   7.555  31.759  1.00  0.00    -0.000 C 
BRANCH  26  27
ATOM     27  C   UNL     1      22.280   8.021  33.203  1.00  0.00    -0.000 C 
BRANCH  27  28
ATOM     28  C   UNL     1      21.816   9.459  33.512  1.00  0.00    -0.000 C 
BRANCH  28  29
ATOM     29  C   UNL     1      21.431  10.308  32.285  1.00  0.00    -0.000 C 
BRANCH  29  30
ATOM     30  C   UNL     1      22.450  11.414  31.941  1.00  0.00    -0.000 C 
BRANCH  30  31
ATOM     31  C   UNL     1      23.596  10.900  31.057  1.00  0.00    -0.003 C 
ATOM     32  C   UNL     1      23.084  10.472  29.684  1.00  0.00     0.004 C 
ENDBRANCH  30  31
ENDBRANCH  29  30
ENDBRANCH  28  29
ENDBRANCH  27  28
ENDBRANCH  26  27
ENDBRANCH  25  26
ENDBRANCH  24  25
ENDBRANCH  23  24
ENDBRANCH  22  23
ENDBRANCH  21  22
ENDBRANCH  20  21
ENDBRANCH  19  20
ENDBRANCH  18  19
ENDBRANCH   1  18
TORSDOF 28
ENDMDL
MODEL 9
REMARK VINA RESULT:    -3.022      2.555      7.045
REMARK INTER + INTRA:         -14.064
REMARK INTER:                  -8.181
REMARK INTRA:                  -5.883
REMARK UNBOUND:                -6.095
REMARK SMILES CCCCCCCCCCCCCCCCCCCCCCCCCCCCCC(=O)[O-]
REMARK SMILES IDX 16 1 17 2 18 3 19 4 20 5 21 6 22 7 23 8 24 9 25 10 26 11
REMARK SMILES IDX 27 12 28 13 29 14 30 15 31 16 32 17 15 18 14 19 13 20 12 21
REMARK SMILES IDX 11 22 10 23 9 24 8 25 7 26 6 27 5 28 4 29 3 30 2 31 1 32
REMARK H PARENT
REMARK Flexibility Score: inf
ROOT
ATOM      1  C   UNL     1      22.207   6.629  31.111  1.00  0.00     0.000 C 
ENDROOT
BRANCH   1   2
ATOM      2  C   UNL     1      21.778   7.992  31.681  1.00  0.00     0.000 C 
BRANCH   2   3
ATOM      3  C   UNL     1      22.424   8.304  33.040  1.00  0.00     0.000 C 
BRANCH   3   4
ATOM      4  C   UNL     1      22.980   7.047  33.732  1.00  0.00     0.000 C 
BRANCH   4   5
ATOM      5  C   UNL     1      24.499   7.118  33.984  1.00  0.00     0.000 C 
BRANCH   5   6
ATOM      6  C   UNL     1      25.222   5.758  34.036  1.00  0.00     0.000 C 
BRANCH   6   7
ATOM      7  C   UNL     1      26.176   5.539  32.850  1.00  0.00     0.000 C 
BRANCH   7   8
ATOM      8  C   UNL     1      25.436   5.197  31.545  1.00  0.00     0.000 C 
BRANCH   8   9
ATOM      9  C   UNL     1      25.927   5.999  30.321  1.00  0.00     0.000 C 
BRANCH   9  10
ATOM     10  C   UNL     1      26.903   7.124  30.711  1.00  0.00     0.000 C 
BRANCH  10  11
ATOM     11  C   UNL     1      26.490   8.485  30.109  1.00  0.00     0.000 C 
BRANCH  11  12
ATOM     12  C   UNL     1      25.203   9.062  30.724  1.00  0.00     0.000 C 
BRANCH  12  13
ATOM     13  C   UNL     1      24.261   9.674  29.674  1.00  0.00     0.006 C 
BRANCH  13  14
ATOM     14  C   UNL     1      24.686  11.092  29.271  1.00  0.00     0.053 C 
BRANCH  14  15
ATOM     15  C   UNL     1      23.518  12.029  29.216  1.00  0.00     0.041 C 
ATOM     16  O   UNL     1      22.807  12.216  30.240  1.00  0.00    -0.550 OA
ATOM     17  O   UNL     1      23.227  12.710  28.041  1.00  0.00    -0.550 OA
ENDBRANCH  14  15
ENDBRANCH  13  14
ENDBRANCH  12  13
ENDBRANCH  11  12
ENDBRANCH  10  11
ENDBRANCH   9  10
ENDBRANCH   8   9
ENDBRANCH   7   8
ENDBRANCH   6   7
ENDBRANCH   5   6
ENDBRANCH   4   5
ENDBRANCH   3   4
ENDBRANCH   2   3
ENDBRANCH   1   2
BRANCH   1  18
ATOM     18  C   UNL     1      21.009   5.749  30.721  1.00  0.00     0.000 C 
BRANCH  18  19
ATOM     19  C   UNL     1      20.931   4.456  31.554  1.00  0.00     0.000 C 
BRANCH  19  20
ATOM     20  C   UNL     1      20.230   4.664  32.906  1.00  0.00     0.000 C 
BRANCH  20  21
ATOM     21  C   UNL     1      20.927   3.915  34.057  1.00  0.00     0.000 C 
BRANCH  21  22
ATOM     22  C   UNL     1      22.338   3.434  33.682  1.00  0.00     0.000 C 
BRANCH  22  23
ATOM     23  C   UNL     1      22.483   1.903  33.751  1.00  0.00     0.000 C 
BRANCH  23  24
ATOM     24  C   UNL     1      23.931   1.440  33.496  1.00  0.00    -0.000 C 
BRANCH  24  25
ATOM     25  C   UNL     1      24.480   1.832  32.110  1.00  0.00    -0.000 C 
BRANCH  25  26
ATOM     26  C   UNL     1      23.611   1.348  30.929  1.00  0.00    -0.000 C 
BRANCH  26  27
ATOM     27  C   UNL     1      23.291   2.450  29.898  1.00  0.00    -0.000 C 
BRANCH  27  28
ATOM     28  C   UNL     1      24.458   2.799  28.951  1.00  0.00    -0.000 C 
BRANCH  28  29
ATOM     29  C   UNL     1      24.068   3.583  27.683  1.00  0.00    -0.000 C 
BRANCH  29  30
ATOM     30  C   UNL     1      23.511   4.995  27.964  1.00  0.00    -0.000 C 
BRANCH  30  31
ATOM     31  C   UNL     1      23.528   5.889  26.715  1.00  0.00    -0.003 C 
ATOM     32  C   UNL     1      24.267   7.197  26.983  1.00  0.00     0.004 C 
ENDBRANCH  30  31
ENDBRANCH  29  30
ENDBRANCH  28  29
ENDBRANCH  27  28
ENDBRANCH  26  27
ENDBRANCH  25  26
ENDBRANCH  24  25
ENDBRANCH  23  24
ENDBRANCH  22  23
ENDBRANCH  21  22
ENDBRANCH  20  21
ENDBRANCH  19  20
ENDBRANCH  18  19
ENDBRANCH   1  18
TORSDOF 28
ENDMDL
