MODEL 1
REMARK VINA RESULT:    -4.219      0.000      0.000
REMARK INTER + INTRA:          -4.616
REMARK INTER:                  -4.465
REMARK INTRA:                  -0.151
REMARK UNBOUND:                -0.151
REMARK SMILES CC1=CC=C(C(C)C)CC1
REMARK SMILES IDX 1 1 2 2 3 3 4 4 5 5 9 6 10 7 6 8 7 9 8 10
REMARK H PARENT
REMARK Flexibility Score: inf
ROOT
ATOM      1  C   UNL     1     139.387 137.068 164.446  1.00  0.00     0.039 C 
ATOM      2  C   UNL     1     138.244 136.918 163.485  1.00  0.00    -0.073 C 
ATOM      3  C   UNL     1     138.360 136.091 162.434  1.00  0.00    -0.001 C 
ATOM      4  C   UNL     1     137.247 135.923 161.479  1.00  0.00    -0.001 C 
ATOM      5  C   UNL     1     136.021 136.408 161.752  1.00  0.00    -0.067 C 
ATOM      6  C   UNL     1     135.761 137.035 163.106  1.00  0.00     0.035 C 
ATOM      7  C   UNL     1     137.003 137.767 163.635  1.00  0.00     0.035 C 
ENDROOT
BRANCH   5   8
ATOM      8  C   UNL     1     134.875 136.257 160.767  1.00  0.00     0.009 C 
ATOM      9  C   UNL     1     134.887 134.875 160.100  1.00  0.00     0.012 C 
ATOM     10  C   UNL     1     134.893 137.378 159.722  1.00  0.00     0.012 C 
ENDBRANCH   5   8
TORSDOF 1
ENDMDL
MODEL 2
REMARK VINA RESULT:    -3.936     16.099     17.332
REMARK INTER + INTRA:          -4.317
REMARK INTER:                  -4.174
REMARK INTRA:                  -0.142
REMARK UNBOUND:                -0.151
REMARK SMILES CC1=CC=C(C(C)C)CC1
REMARK SMILES IDX 1 1 2 2 3 3 4 4 5 5 9 6 10 7 6 8 7 9 8 10
REMARK H PARENT
REMARK Flexibility Score: inf
ROOT
ATOM      1  C   UNL     1     140.442 154.008 159.070  1.00  0.00     0.039 C 
ATOM      2  C   UNL     1     139.455 153.891 160.195  1.00  0.00    -0.073 C 
ATOM      3  C   UNL     1     138.856 152.715 160.439  1.00  0.00    -0.001 C 
ATOM      4  C   UNL     1     137.887 152.575 161.543  1.00  0.00    -0.001 C 
ATOM      5  C   UNL     1     137.747 153.542 162.468  1.00  0.00    -0.067 C 
ATOM      6  C   UNL     1     138.677 154.738 162.432  1.00  0.00     0.035 C 
ATOM      7  C   UNL     1     139.056 155.112 160.991  1.00  0.00     0.035 C 
ENDROOT
BRANCH   5   8
ATOM      8  C   UNL     1     136.739 153.415 163.597  1.00  0.00     0.009 C 
ATOM      9  C   UNL     1     137.020 152.182 164.465  1.00  0.00     0.012 C 
ATOM     10  C   UNL     1     135.304 153.399 163.058  1.00  0.00     0.012 C 
ENDBRANCH   5   8
TORSDOF 1
ENDMDL
MODEL 3
REMARK VINA RESULT:    -3.841     14.382     16.486
REMARK INTER + INTRA:          -4.216
REMARK INTER:                  -4.064
REMARK INTRA:                  -0.152
REMARK UNBOUND:                -0.151
REMARK SMILES CC1=CC=C(C(C)C)CC1
REMARK SMILES IDX 1 1 2 2 3 3 4 4 5 5 9 6 10 7 6 8 7 9 8 10
REMARK H PARENT
REMARK Flexibility Score: inf
ROOT
ATOM      1  C   UNL     1     150.474 136.600 158.788  1.00  0.00     0.039 C 
ATOM      2  C   UNL     1     151.340 136.713 160.008  1.00  0.00    -0.073 C 
ATOM      3  C   UNL     1     151.841 137.906 160.364  1.00  0.00    -0.001 C 
ATOM      4  C   UNL     1     152.690 138.042 161.562  1.00  0.00    -0.001 C 
ATOM      5  C   UNL     1     152.801 137.036 162.451  1.00  0.00    -0.067 C 
ATOM      6  C   UNL     1     151.953 135.794 162.268  1.00  0.00     0.035 C 
ATOM      7  C   UNL     1     151.736 135.476 160.781  1.00  0.00     0.035 C 
ENDROOT
BRANCH   5   8
ATOM      8  C   UNL     1     153.688 137.160 163.677  1.00  0.00     0.009 C 
ATOM      9  C   UNL     1     153.652 138.580 164.255  1.00  0.00     0.012 C 
ATOM     10  C   UNL     1     155.125 136.724 163.367  1.00  0.00     0.012 C 
ENDBRANCH   5   8
TORSDOF 1
ENDMDL
MODEL 4
REMARK VINA RESULT:    -3.817     14.247     16.437
REMARK INTER + INTRA:          -4.190
REMARK INTER:                  -4.046
REMARK INTRA:                  -0.144
REMARK UNBOUND:                -0.151
REMARK SMILES CC1=CC=C(C(C)C)CC1
REMARK SMILES IDX 1 1 2 2 3 3 4 4 5 5 9 6 10 7 6 8 7 9 8 10
REMARK H PARENT
REMARK Flexibility Score: inf
ROOT
ATOM      1  C   UNL     1     150.344 136.732 158.836  1.00  0.00     0.039 C 
ATOM      2  C   UNL     1     151.140 136.868 160.101  1.00  0.00    -0.073 C 
ATOM      3  C   UNL     1     151.413 135.780 160.839  1.00  0.00    -0.001 C 
ATOM      4  C   UNL     1     152.199 135.889 162.083  1.00  0.00    -0.001 C 
ATOM      5  C   UNL     1     152.852 137.025 162.393  1.00  0.00    -0.067 C 
ATOM      6  C   UNL     1     152.865 138.164 161.394  1.00  0.00     0.035 C 
ATOM      7  C   UNL     1     151.550 138.233 160.603  1.00  0.00     0.035 C 
ENDROOT
BRANCH   5   8
ATOM      8  C   UNL     1     153.647 137.153 163.680  1.00  0.00     0.009 C 
ATOM      9  C   UNL     1     154.036 138.610 163.958  1.00  0.00     0.012 C 
ATOM     10  C   UNL     1     154.881 136.244 163.660  1.00  0.00     0.012 C 
ENDBRANCH   5   8
TORSDOF 1
ENDMDL
MODEL 5
REMARK VINA RESULT:    -3.374     14.358     16.072
REMARK INTER + INTRA:          -3.722
REMARK INTER:                  -3.582
REMARK INTRA:                  -0.140
REMARK UNBOUND:                -0.151
REMARK SMILES CC1=CC=C(C(C)C)CC1
REMARK SMILES IDX 1 1 2 2 3 3 4 4 5 5 9 6 10 7 6 8 7 9 8 10
REMARK H PARENT
REMARK Flexibility Score: inf
ROOT
ATOM      1  C   UNL     1     154.261 139.082 164.877  1.00  0.00     0.039 C 
ATOM      2  C   UNL     1     153.686 138.368 163.688  1.00  0.00    -0.073 C 
ATOM      3  C   UNL     1     153.251 137.105 163.813  1.00  0.00    -0.001 C 
ATOM      4  C   UNL     1     152.677 136.386 162.659  1.00  0.00    -0.001 C 
ATOM      5  C   UNL     1     152.366 137.037 161.522  1.00  0.00    -0.067 C 
ATOM      6  C   UNL     1     152.506 138.545 161.474  1.00  0.00     0.035 C 
ATOM      7  C   UNL     1     153.689 139.027 162.328  1.00  0.00     0.035 C 
ENDROOT
BRANCH   5   8
ATOM      8  C   UNL     1     151.794 136.302 160.323  1.00  0.00     0.009 C 
ATOM      9  C   UNL     1     150.626 137.075 159.696  1.00  0.00     0.012 C 
ATOM     10  C   UNL     1     151.377 134.875 160.696  1.00  0.00     0.012 C 
ENDBRANCH   5   8
TORSDOF 1
ENDMDL
MODEL 6
REMARK VINA RESULT:    -3.350      0.248      1.580
REMARK INTER + INTRA:          -3.696
REMARK INTER:                  -3.551
REMARK INTRA:                  -0.145
REMARK UNBOUND:                -0.151
REMARK SMILES CC1=CC=C(C(C)C)CC1
REMARK SMILES IDX 1 1 2 2 3 3 4 4 5 5 9 6 10 7 6 8 7 9 8 10
REMARK H PARENT
REMARK Flexibility Score: inf
ROOT
ATOM      1  C   UNL     1     139.409 137.124 164.543  1.00  0.00     0.039 C 
ATOM      2  C   UNL     1     138.248 136.865 163.628  1.00  0.00    -0.073 C 
ATOM      3  C   UNL     1     137.098 137.535 163.801  1.00  0.00    -0.001 C 
ATOM      4  C   UNL     1     135.946 137.301 162.910  1.00  0.00    -0.001 C 
ATOM      5  C   UNL     1     136.080 136.590 161.774  1.00  0.00    -0.067 C 
ATOM      6  C   UNL     1     137.460 136.122 161.358  1.00  0.00     0.035 C 
ATOM      7  C   UNL     1     138.330 135.782 162.577  1.00  0.00     0.035 C 
ENDROOT
BRANCH   5   8
ATOM      8  C   UNL     1     134.896 136.328 160.861  1.00  0.00     0.009 C 
ATOM      9  C   UNL     1     134.877 134.875 160.370  1.00  0.00     0.012 C 
ATOM     10  C   UNL     1     134.876 137.311 159.685  1.00  0.00     0.012 C 
ENDBRANCH   5   8
TORSDOF 1
ENDMDL
MODEL 7
REMARK VINA RESULT:    -3.019     13.667     15.763
REMARK INTER + INTRA:          -3.346
REMARK INTER:                  -3.207
REMARK INTRA:                  -0.138
REMARK UNBOUND:                -0.151
REMARK SMILES CC1=CC=C(C(C)C)CC1
REMARK SMILES IDX 1 1 2 2 3 3 4 4 5 5 9 6 10 7 6 8 7 9 8 10
REMARK H PARENT
REMARK Flexibility Score: inf
ROOT
ATOM      1  C   UNL     1     154.919 136.417 163.771  1.00  0.00     0.039 C 
ATOM      2  C   UNL     1     153.787 136.520 162.791  1.00  0.00    -0.073 C 
ATOM      3  C   UNL     1     153.589 137.664 162.116  1.00  0.00    -0.001 C 
ATOM      4  C   UNL     1     152.487 137.786 161.144  1.00  0.00    -0.001 C 
ATOM      5  C   UNL     1     151.796 136.704 160.739  1.00  0.00    -0.067 C 
ATOM      6  C   UNL     1     152.235 135.332 161.208  1.00  0.00     0.035 C 
ATOM      7  C   UNL     1     152.807 135.381 162.633  1.00  0.00     0.035 C 
ENDROOT
BRANCH   5   8
ATOM      8  C   UNL     1     150.647 136.823 159.754  1.00  0.00     0.009 C 
ATOM      9  C   UNL     1     151.133 136.685 158.306  1.00  0.00     0.012 C 
ATOM     10  C   UNL     1     149.877 138.133 159.958  1.00  0.00     0.012 C 
ENDBRANCH   5   8
TORSDOF 1
ENDMDL
MODEL 8
REMARK VINA RESULT:    -2.633     16.327     17.526
REMARK INTER + INTRA:          -2.937
REMARK INTER:                  -2.799
REMARK INTRA:                  -0.139
REMARK UNBOUND:                -0.151
REMARK SMILES CC1=CC=C(C(C)C)CC1
REMARK SMILES IDX 1 1 2 2 3 3 4 4 5 5 9 6 10 7 6 8 7 9 8 10
REMARK H PARENT
REMARK Flexibility Score: inf
ROOT
ATOM      1  C   UNL     1     135.642 153.560 163.858  1.00  0.00     0.039 C 
ATOM      2  C   UNL     1     136.772 153.665 162.876  1.00  0.00    -0.073 C 
ATOM      3  C   UNL     1     137.159 152.583 162.184  1.00  0.00    -0.001 C 
ATOM      4  C   UNL     1     138.263 152.664 161.209  1.00  0.00    -0.001 C 
ATOM      5  C   UNL     1     138.758 153.854 160.820  1.00  0.00    -0.067 C 
ATOM      6  C   UNL     1     138.093 155.124 161.311  1.00  0.00     0.035 C 
ATOM      7  C   UNL     1     137.543 154.957 162.735  1.00  0.00     0.035 C 
ENDROOT
BRANCH   5   8
ATOM      8  C   UNL     1     139.907 153.947 159.832  1.00  0.00     0.009 C 
ATOM      9  C   UNL     1     139.400 154.005 158.385  1.00  0.00     0.012 C 
ATOM     10  C   UNL     1     140.899 152.795 160.027  1.00  0.00     0.012 C 
ENDBRANCH   5   8
TORSDOF 1
ENDMDL
MODEL 9
REMARK VINA RESULT:    -2.151     16.519     17.733
REMARK INTER + INTRA:          -2.428
REMARK INTER:                  -2.279
REMARK INTRA:                  -0.149
REMARK UNBOUND:                -0.151
REMARK SMILES CC1=CC=C(C(C)C)CC1
REMARK SMILES IDX 1 1 2 2 3 3 4 4 5 5 9 6 10 7 6 8 7 9 8 10
REMARK H PARENT
REMARK Flexibility Score: inf
ROOT
ATOM      1  C   UNL     1     136.095 154.020 163.824  1.00  0.00     0.039 C 
ATOM      2  C   UNL     1     137.083 154.016 162.694  1.00  0.00    -0.073 C 
ATOM      3  C   UNL     1     137.825 155.108 162.452  1.00  0.00    -0.001 C 
ATOM      4  C   UNL     1     138.807 155.125 161.351  1.00  0.00    -0.001 C 
ATOM      5  C   UNL     1     139.148 153.992 160.709  1.00  0.00    -0.067 C 
ATOM      6  C   UNL     1     138.596 152.670 161.203  1.00  0.00     0.035 C 
ATOM      7  C   UNL     1     137.175 152.829 161.765  1.00  0.00     0.035 C 
ENDROOT
BRANCH   5   8
ATOM      8  C   UNL     1     140.143 154.002 159.562  1.00  0.00     0.009 C 
ATOM      9  C   UNL     1     139.432 153.998 158.203  1.00  0.00     0.012 C 
ATOM     10  C   UNL     1     141.130 152.835 159.675  1.00  0.00     0.012 C 
ENDBRANCH   5   8
TORSDOF 1
ENDMDL
