MODEL 1
REMARK VINA RESULT:    51.805      0.000      0.000
REMARK INTER + INTRA:          62.108
REMARK INTER:                  62.405
REMARK INTRA:                  -0.297
REMARK UNBOUND:                -0.297
REMARK SMILES O=c1c(O)c(-c2ccc(O)c(O)c2)oc2cc(O)cc(O)c12
REMARK SMILES IDX 5 1 3 2 2 3 1 4 22 5 20 6 19 7 17 8 16 9 15 10 14 11 6 12
REMARK SMILES IDX 7 13 8 14 9 15 13 16 11 17 10 18 12 20 4 22 21 24 18 26
REMARK H PARENT 10 19 12 21 4 23 21 25 18 27
REMARK Flexibility Score: inf
ROOT
ATOM      1  C   UNL     1     -41.068  29.540 -21.818  1.00  0.00     0.180 A 
ATOM      2  C   UNL     1     -39.885  29.927 -21.166  1.00  0.00     0.208 A 
ATOM      3  C   UNL     1     -38.813  29.022 -21.107  1.00  0.00     0.238 A 
ATOM      4  O   UNL     1     -37.737  29.394 -20.569  1.00  0.00    -0.285 OA
ATOM      5  C   UNL     1     -38.943  27.737 -21.686  1.00  0.00     0.111 A 
ATOM      6  C   UNL     1     -37.936  26.727 -21.652  1.00  0.00     0.134 A 
ATOM      7  C   UNL     1     -38.123  25.539 -22.371  1.00  0.00     0.093 A 
ATOM      8  C   UNL     1     -39.306  25.300 -23.069  1.00  0.00     0.123 A 
ATOM      9  C   UNL     1     -40.322  26.256 -23.061  1.00  0.00     0.094 A 
ATOM     10  C   UNL     1     -40.149  27.465 -22.384  1.00  0.00     0.146 A 
ATOM     11  O   UNL     1     -41.136  28.353 -22.409  1.00  0.00    -0.452 OA
ENDROOT
BRANCH   1  12
ATOM     12  C   UNL     1     -42.250  30.429 -21.899  1.00  0.00     0.025 A 
ATOM     13  C   UNL     1     -42.504  31.205 -23.043  1.00  0.00     0.016 A 
ATOM     14  C   UNL     1     -43.613  32.055 -23.088  1.00  0.00     0.051 A 
ATOM     15  C   UNL     1     -44.475  32.152 -21.988  1.00  0.00     0.157 A 
ATOM     16  C   UNL     1     -43.105  30.545 -20.792  1.00  0.00     0.062 A 
ATOM     17  C   UNL     1     -44.217  31.394 -20.833  1.00  0.00     0.158 A 
BRANCH  15  18
ATOM     18  O   UNL     1     -45.581  32.999 -22.037  1.00  0.00    -0.504 OA
ATOM     19  H   UNL     1     -46.158  33.071 -22.866  1.00  0.00     0.293 HD
ENDBRANCH  15  18
BRANCH  17  20
ATOM     20  O   UNL     1     -45.052  31.473 -19.719  1.00  0.00    -0.504 OA
ATOM     21  H   UNL     1     -45.573  32.313 -19.495  1.00  0.00     0.293 HD
ENDBRANCH  17  20
ENDBRANCH   1  12
BRANCH   2  22
ATOM     22  O   UNL     1     -39.770  31.208 -20.619  1.00  0.00    -0.502 OA
ATOM     23  H   UNL     1     -40.466  31.928 -20.767  1.00  0.00     0.293 HD
ENDBRANCH   2  22
BRANCH   6  24
ATOM     24  O   UNL     1     -36.755  26.826 -20.909  1.00  0.00    -0.507 OA
ATOM     25  H   UNL     1     -35.958  27.385 -21.170  1.00  0.00     0.293 HD
ENDBRANCH   6  24
BRANCH   8  26
ATOM     26  O   UNL     1     -39.464  24.100 -23.760  1.00  0.00    -0.508 OA
ATOM     27  H   UNL     1     -40.005  23.334 -23.375  1.00  0.00     0.293 HD
ENDBRANCH   8  26
TORSDOF 6
ENDMDL
MODEL 2
REMARK VINA RESULT:    52.918      1.464      3.257
REMARK INTER + INTRA:          63.448
REMARK INTER:                  63.599
REMARK INTRA:                  -0.151
REMARK UNBOUND:                -0.297
REMARK SMILES O=c1c(O)c(-c2ccc(O)c(O)c2)oc2cc(O)cc(O)c12
REMARK SMILES IDX 5 1 3 2 2 3 1 4 22 5 20 6 19 7 17 8 16 9 15 10 14 11 6 12
REMARK SMILES IDX 7 13 8 14 9 15 13 16 11 17 10 18 12 20 4 22 21 24 18 26
REMARK H PARENT 10 19 12 21 4 23 21 25 18 27
REMARK Flexibility Score: inf
ROOT
ATOM      1  C   UNL     1     -40.740  29.511 -21.726  1.00  0.00     0.180 A 
ATOM      2  C   UNL     1     -40.500  28.245 -22.289  1.00  0.00     0.208 A 
ATOM      3  C   UNL     1     -39.276  27.606 -22.029  1.00  0.00     0.238 A 
ATOM      4  O   UNL     1     -39.088  26.450 -22.491  1.00  0.00    -0.285 OA
ATOM      5  C   UNL     1     -38.303  28.247 -21.225  1.00  0.00     0.111 A 
ATOM      6  C   UNL     1     -37.015  27.710 -20.930  1.00  0.00     0.134 A 
ATOM      7  C   UNL     1     -36.183  28.370 -20.017  1.00  0.00     0.093 A 
ATOM      8  C   UNL     1     -36.567  29.580 -19.439  1.00  0.00     0.123 A 
ATOM      9  C   UNL     1     -37.800  30.145 -19.766  1.00  0.00     0.094 A 
ATOM     10  C   UNL     1     -38.666  29.491 -20.645  1.00  0.00     0.146 A 
ATOM     11  O   UNL     1     -39.835  30.057 -20.923  1.00  0.00    -0.452 OA
ENDROOT
BRANCH   1  12
ATOM     12  C   UNL     1     -41.995  30.258 -21.974  1.00  0.00     0.025 A 
ATOM     13  C   UNL     1     -42.373  30.642 -23.272  1.00  0.00     0.016 A 
ATOM     14  C   UNL     1     -43.549  31.367 -23.478  1.00  0.00     0.051 A 
ATOM     15  C   UNL     1     -44.357  31.730 -22.393  1.00  0.00     0.157 A 
ATOM     16  C   UNL     1     -42.797  30.641 -20.887  1.00  0.00     0.062 A 
ATOM     17  C   UNL     1     -43.976  31.367 -21.090  1.00  0.00     0.158 A 
BRANCH  15  18
ATOM     18  O   UNL     1     -45.531  32.452 -22.604  1.00  0.00    -0.504 OA
ATOM     19  H   UNL     1     -46.408  31.991 -22.814  1.00  0.00     0.293 HD
ENDBRANCH  15  18
BRANCH  17  20
ATOM     20  O   UNL     1     -44.755  31.719 -19.988  1.00  0.00    -0.504 OA
ATOM     21  H   UNL     1     -45.348  31.049 -19.512  1.00  0.00     0.293 HD
ENDBRANCH  17  20
ENDBRANCH   1  12
BRANCH   2  22
ATOM     22  O   UNL     1     -41.482  27.621 -23.062  1.00  0.00    -0.502 OA
ATOM     23  H   UNL     1     -42.180  28.141 -23.580  1.00  0.00     0.293 HD
ENDBRANCH   2  22
BRANCH   6  24
ATOM     24  O   UNL     1     -36.496  26.554 -21.523  1.00  0.00    -0.507 OA
ATOM     25  H   UNL     1     -36.499  25.640 -21.099  1.00  0.00     0.293 HD
ENDBRANCH   6  24
BRANCH   8  26
ATOM     26  O   UNL     1     -35.707  30.218 -18.547  1.00  0.00    -0.508 OA
ATOM     27  H   UNL     1     -35.997  31.038 -18.025  1.00  0.00     0.293 HD
ENDBRANCH   8  26
TORSDOF 6
ENDMDL
MODEL 3
REMARK VINA RESULT:    53.664     11.217     11.942
REMARK INTER + INTRA:          64.347
REMARK INTER:                  63.917
REMARK INTRA:                   0.431
REMARK UNBOUND:                -0.297
REMARK SMILES O=c1c(O)c(-c2ccc(O)c(O)c2)oc2cc(O)cc(O)c12
REMARK SMILES IDX 5 1 3 2 2 3 1 4 22 5 20 6 19 7 17 8 16 9 15 10 14 11 6 12
REMARK SMILES IDX 7 13 8 14 9 15 13 16 11 17 10 18 12 20 4 22 21 24 18 26
REMARK H PARENT 10 19 12 21 4 23 21 25 18 27
REMARK Flexibility Score: inf
ROOT
ATOM      1  C   UNL     1     -42.711  24.903 -10.889  1.00  0.00     0.180 A 
ATOM      2  C   UNL     1     -41.346  25.001 -10.565  1.00  0.00     0.208 A 
ATOM      3  C   UNL     1     -40.390  24.759 -11.565  1.00  0.00     0.238 A 
ATOM      4  O   UNL     1     -39.171  24.901 -11.284  1.00  0.00    -0.285 OA
ATOM      5  C   UNL     1     -40.810  24.406 -12.871  1.00  0.00     0.111 A 
ATOM      6  C   UNL     1     -39.928  24.100 -13.950  1.00  0.00     0.134 A 
ATOM      7  C   UNL     1     -40.452  23.892 -15.232  1.00  0.00     0.093 A 
ATOM      8  C   UNL     1     -41.827  23.914 -15.461  1.00  0.00     0.123 A 
ATOM      9  C   UNL     1     -42.702  24.153 -14.400  1.00  0.00     0.094 A 
ATOM     10  C   UNL     1     -42.207  24.401 -13.118  1.00  0.00     0.146 A 
ATOM     11  O   UNL     1     -43.073  24.635 -12.138  1.00  0.00    -0.452 OA
ENDROOT
BRANCH   1  12
ATOM     12  C   UNL     1     -43.777  25.119  -9.884  1.00  0.00     0.025 A 
ATOM     13  C   UNL     1     -45.083  25.468 -10.267  1.00  0.00     0.016 A 
ATOM     14  C   UNL     1     -46.066  25.690  -9.299  1.00  0.00     0.051 A 
ATOM     15  C   UNL     1     -45.756  25.581  -7.937  1.00  0.00     0.157 A 
ATOM     16  C   UNL     1     -43.466  25.030  -8.517  1.00  0.00     0.062 A 
ATOM     17  C   UNL     1     -44.448  25.252  -7.545  1.00  0.00     0.158 A 
BRANCH  15  18
ATOM     18  O   UNL     1     -46.741  25.801  -6.975  1.00  0.00    -0.504 OA
ATOM     19  H   UNL     1     -47.335  25.052  -6.641  1.00  0.00     0.293 HD
ENDBRANCH  15  18
BRANCH  17  20
ATOM     20  O   UNL     1     -44.106  25.142  -6.198  1.00  0.00    -0.504 OA
ATOM     21  H   UNL     1     -44.793  24.926  -5.484  1.00  0.00     0.293 HD
ENDBRANCH  17  20
ENDBRANCH   1  12
BRANCH   2  22
ATOM     22  O   UNL     1     -40.954  25.372  -9.277  1.00  0.00    -0.502 OA
ATOM     23  H   UNL     1     -41.494  25.135  -8.453  1.00  0.00     0.293 HD
ENDBRANCH   2  22
BRANCH   6  24
ATOM     24  O   UNL     1     -38.543  23.962 -13.812  1.00  0.00    -0.507 OA
ATOM     25  H   UNL     1     -37.880  24.038 -14.568  1.00  0.00     0.293 HD
ENDBRANCH   6  24
BRANCH   8  26
ATOM     26  O   UNL     1     -42.314  23.686 -16.746  1.00  0.00    -0.508 OA
ATOM     27  H   UNL     1     -43.135  23.114 -16.908  1.00  0.00     0.293 HD
ENDBRANCH   8  26
TORSDOF 6
ENDMDL
MODEL 4
REMARK VINA RESULT:    54.012      3.284      6.745
REMARK INTER + INTRA:          64.767
REMARK INTER:                  64.313
REMARK INTRA:                   0.453
REMARK UNBOUND:                -0.297
REMARK SMILES O=c1c(O)c(-c2ccc(O)c(O)c2)oc2cc(O)cc(O)c12
REMARK SMILES IDX 5 1 3 2 2 3 1 4 22 5 20 6 19 7 17 8 16 9 15 10 14 11 6 12
REMARK SMILES IDX 7 13 8 14 9 15 13 16 11 17 10 18 12 20 4 22 21 24 18 26
REMARK H PARENT 10 19 12 21 4 23 21 25 18 27
REMARK Flexibility Score: inf
ROOT
ATOM      1  C   UNL     1     -39.842  30.733 -23.123  1.00  0.00     0.180 A 
ATOM      2  C   UNL     1     -39.904  29.705 -22.166  1.00  0.00     0.208 A 
ATOM      3  C   UNL     1     -41.090  29.527 -21.434  1.00  0.00     0.238 A 
ATOM      4  O   UNL     1     -41.158  28.571 -20.618  1.00  0.00    -0.285 OA
ATOM      5  C   UNL     1     -42.191  30.389 -21.656  1.00  0.00     0.111 A 
ATOM      6  C   UNL     1     -43.425  30.325 -20.944  1.00  0.00     0.134 A 
ATOM      7  C   UNL     1     -44.493  31.143 -21.337  1.00  0.00     0.093 A 
ATOM      8  C   UNL     1     -44.349  32.066 -22.371  1.00  0.00     0.123 A 
ATOM      9  C   UNL     1     -43.127  32.179 -23.035  1.00  0.00     0.094 A 
ATOM     10  C   UNL     1     -42.056  31.351 -22.691  1.00  0.00     0.146 A 
ATOM     11  O   UNL     1     -40.913  31.482 -23.354  1.00  0.00    -0.452 OA
ENDROOT
BRANCH   1  12
ATOM     12  C   UNL     1     -38.619  30.999 -23.916  1.00  0.00     0.025 A 
ATOM     13  C   UNL     1     -37.533  30.107 -23.906  1.00  0.00     0.016 A 
ATOM     14  C   UNL     1     -36.381  30.390 -24.643  1.00  0.00     0.051 A 
ATOM     15  C   UNL     1     -36.291  31.573 -25.389  1.00  0.00     0.157 A 
ATOM     16  C   UNL     1     -38.517  32.192 -24.648  1.00  0.00     0.062 A 
ATOM     17  C   UNL     1     -37.364  32.479 -25.388  1.00  0.00     0.158 A 
BRANCH  15  18
ATOM     18  O   UNL     1     -35.139  31.851 -26.125  1.00  0.00    -0.504 OA
ATOM     19  H   UNL     1     -34.803  31.220 -26.842  1.00  0.00     0.293 HD
ENDBRANCH  15  18
BRANCH  17  20
ATOM     20  O   UNL     1     -37.303  33.667 -26.115  1.00  0.00    -0.504 OA
ATOM     21  H   UNL     1     -37.358  33.684 -27.126  1.00  0.00     0.293 HD
ENDBRANCH  17  20
ENDBRANCH   1  12
BRANCH   2  22
ATOM     22  O   UNL     1     -38.814  28.852 -21.978  1.00  0.00    -0.502 OA
ATOM     23  H   UNL     1     -38.221  28.898 -21.158  1.00  0.00     0.293 HD
ENDBRANCH   2  22
BRANCH   6  24
ATOM     24  O   UNL     1     -43.646  29.503 -19.834  1.00  0.00    -0.507 OA
ATOM     25  H   UNL     1     -42.921  29.151 -19.228  1.00  0.00     0.293 HD
ENDBRANCH   6  24
BRANCH   8  26
ATOM     26  O   UNL     1     -45.427  32.875 -22.724  1.00  0.00    -0.508 OA
ATOM     27  H   UNL     1     -46.318  32.812 -22.243  1.00  0.00     0.293 HD
ENDBRANCH   8  26
TORSDOF 6
ENDMDL
