MODEL 1
REMARK VINA RESULT:    -3.378      0.000      0.000
REMARK INTER + INTRA:          -3.780
REMARK INTER:                  -3.773
REMARK INTRA:                  -0.007
REMARK UNBOUND:                -0.007
REMARK SMILES CCCC(=O)[O-]
REMARK SMILES IDX 3 1 4 2 5 3 6 4 2 5 1 6
REMARK H PARENT
REMARK Flexibility Score: inf
ROOT
ATOM      1  C   UNL     1      -6.432   5.631  -3.399  1.00  0.00     0.052 C 
ENDROOT
BRANCH   1   2
ATOM      2  C   UNL     1      -7.680   6.433  -3.608  1.00  0.00     0.041 C 
ATOM      3  O   UNL     1      -7.947   6.905  -4.744  1.00  0.00    -0.550 OA
ATOM      4  O   UNL     1      -8.565   6.630  -2.556  1.00  0.00    -0.550 OA
ENDBRANCH   1   2
BRANCH   1   5
ATOM      5  C   UNL     1      -5.173   6.504  -3.481  1.00  0.00     0.003 C 
ATOM      6  C   UNL     1      -3.892   5.673  -3.544  1.00  0.00     0.004 C 
ENDBRANCH   1   5
TORSDOF 2
ENDMDL
MODEL 2
REMARK VINA RESULT:    -3.377      0.226      1.339
REMARK INTER + INTRA:          -3.778
REMARK INTER:                  -3.771
REMARK INTRA:                  -0.007
REMARK UNBOUND:                -0.007
REMARK SMILES CCCC(=O)[O-]
REMARK SMILES IDX 3 1 4 2 5 3 6 4 2 5 1 6
REMARK H PARENT
REMARK Flexibility Score: inf
ROOT
ATOM      1  C   UNL     1      -6.512   5.737  -3.429  1.00  0.00     0.052 C 
ENDROOT
BRANCH   1   2
ATOM      2  C   UNL     1      -7.733   6.578  -3.640  1.00  0.00     0.041 C 
ATOM      3  O   UNL     1      -8.479   6.867  -2.668  1.00  0.00    -0.550 OA
ATOM      4  O   UNL     1      -8.029   7.071  -4.904  1.00  0.00    -0.550 OA
ENDBRANCH   1   2
BRANCH   1   5
ATOM      5  C   UNL     1      -5.243   6.592  -3.325  1.00  0.00     0.003 C 
ATOM      6  C   UNL     1      -3.994   5.836  -3.777  1.00  0.00     0.004 C 
ENDBRANCH   1   5
TORSDOF 2
ENDMDL
MODEL 3
REMARK VINA RESULT:    -3.365      2.421      3.435
REMARK INTER + INTRA:          -3.765
REMARK INTER:                  -3.730
REMARK INTRA:                  -0.035
REMARK UNBOUND:                -0.007
REMARK SMILES CCCC(=O)[O-]
REMARK SMILES IDX 3 1 4 2 5 3 6 4 2 5 1 6
REMARK H PARENT
REMARK Flexibility Score: inf
ROOT
ATOM      1  C   UNL     1      -5.465   5.802  -3.527  1.00  0.00     0.052 C 
ENDROOT
BRANCH   1   2
ATOM      2  C   UNL     1      -4.770   7.128  -3.496  1.00  0.00     0.041 C 
ATOM      3  O   UNL     1      -4.617   7.737  -2.404  1.00  0.00    -0.550 OA
ATOM      4  O   UNL     1      -4.261   7.675  -4.666  1.00  0.00    -0.550 OA
ENDBRANCH   1   2
BRANCH   1   5
ATOM      5  C   UNL     1      -6.977   5.946  -3.309  1.00  0.00     0.003 C 
ATOM      6  C   UNL     1      -7.586   7.055  -4.167  1.00  0.00     0.004 C 
ENDBRANCH   1   5
TORSDOF 2
ENDMDL
MODEL 4
REMARK VINA RESULT:    -3.283      2.470      3.331
REMARK INTER + INTRA:          -3.674
REMARK INTER:                  -3.608
REMARK INTRA:                  -0.065
REMARK UNBOUND:                -0.007
REMARK SMILES CCCC(=O)[O-]
REMARK SMILES IDX 3 1 4 2 5 3 6 4 2 5 1 6
REMARK H PARENT
REMARK Flexibility Score: inf
ROOT
ATOM      1  C   UNL     1      -4.739   6.957  -3.004  1.00  0.00     0.052 C 
ENDROOT
BRANCH   1   2
ATOM      2  C   UNL     1      -4.851   8.120  -3.941  1.00  0.00     0.041 C 
ATOM      3  O   UNL     1      -5.280   9.228  -3.526  1.00  0.00    -0.550 OA
ATOM      4  O   UNL     1      -4.449   7.990  -5.264  1.00  0.00    -0.550 OA
ENDBRANCH   1   2
BRANCH   1   5
ATOM      5  C   UNL     1      -5.529   5.742  -3.508  1.00  0.00     0.003 C 
ATOM      6  C   UNL     1      -7.040   5.944  -3.397  1.00  0.00     0.004 C 
ENDBRANCH   1   5
TORSDOF 2
ENDMDL
MODEL 5
REMARK VINA RESULT:    -3.217      2.733      3.426
REMARK INTER + INTRA:          -3.600
REMARK INTER:                  -3.554
REMARK INTRA:                  -0.046
REMARK UNBOUND:                -0.007
REMARK SMILES CCCC(=O)[O-]
REMARK SMILES IDX 3 1 4 2 5 3 6 4 2 5 1 6
REMARK H PARENT
REMARK Flexibility Score: inf
ROOT
ATOM      1  C   UNL     1      -5.598   7.392  -3.100  1.00  0.00     0.052 C 
ENDROOT
BRANCH   1   2
ATOM      2  C   UNL     1      -4.459   6.917  -3.948  1.00  0.00     0.041 C 
ATOM      3  O   UNL     1      -4.101   7.580  -4.957  1.00  0.00    -0.550 OA
ATOM      4  O   UNL     1      -3.770   5.761  -3.604  1.00  0.00    -0.550 OA
ENDBRANCH   1   2
BRANCH   1   5
ATOM      5  C   UNL     1      -6.955   6.987  -3.691  1.00  0.00     0.003 C 
ATOM      6  C   UNL     1      -7.375   5.578  -3.273  1.00  0.00     0.004 C 
ENDBRANCH   1   5
TORSDOF 2
ENDMDL
MODEL 6
REMARK VINA RESULT:    -3.038      2.746      3.548
REMARK INTER + INTRA:          -3.400
REMARK INTER:                  -3.357
REMARK INTRA:                  -0.043
REMARK UNBOUND:                -0.007
REMARK SMILES CCCC(=O)[O-]
REMARK SMILES IDX 3 1 4 2 5 3 6 4 2 5 1 6
REMARK H PARENT
REMARK Flexibility Score: inf
ROOT
ATOM      1  C   UNL     1      -6.542   8.097  -2.980  1.00  0.00     0.052 C 
ENDROOT
BRANCH   1   2
ATOM      2  C   UNL     1      -5.057   7.949  -2.863  1.00  0.00     0.041 C 
ATOM      3  O   UNL     1      -4.468   8.287  -1.802  1.00  0.00    -0.550 OA
ATOM      4  O   UNL     1      -4.326   7.406  -3.912  1.00  0.00    -0.550 OA
ENDBRANCH   1   2
BRANCH   1   5
ATOM      5  C   UNL     1      -7.142   7.068  -3.947  1.00  0.00     0.003 C 
ATOM      6  C   UNL     1      -7.350   5.704  -3.289  1.00  0.00     0.004 C 
ENDBRANCH   1   5
TORSDOF 2
ENDMDL
MODEL 7
REMARK VINA RESULT:    -2.878      2.685      3.303
REMARK INTER + INTRA:          -3.221
REMARK INTER:                  -3.155
REMARK INTRA:                  -0.067
REMARK UNBOUND:                -0.007
REMARK SMILES CCCC(=O)[O-]
REMARK SMILES IDX 3 1 4 2 5 3 6 4 2 5 1 6
REMARK H PARENT
REMARK Flexibility Score: inf
ROOT
ATOM      1  C   UNL     1      -4.474   7.472  -4.164  1.00  0.00     0.052 C 
ENDROOT
BRANCH   1   2
ATOM      2  C   UNL     1      -4.670   6.094  -3.614  1.00  0.00     0.041 C 
ATOM      3  O   UNL     1      -3.680   5.425  -3.215  1.00  0.00    -0.550 OA
ATOM      4  O   UNL     1      -5.947   5.560  -3.509  1.00  0.00    -0.550 OA
ENDBRANCH   1   2
BRANCH   1   5
ATOM      5  C   UNL     1      -5.415   8.488  -3.503  1.00  0.00     0.003 C 
ATOM      6  C   UNL     1      -5.117   8.675  -2.016  1.00  0.00     0.004 C 
ENDBRANCH   1   5
TORSDOF 2
ENDMDL
MODEL 8
REMARK VINA RESULT:    -2.796     13.557     14.051
REMARK INTER + INTRA:          -3.130
REMARK INTER:                  -3.117
REMARK INTRA:                  -0.013
REMARK UNBOUND:                -0.007
REMARK SMILES CCCC(=O)[O-]
REMARK SMILES IDX 3 1 4 2 5 3 6 4 2 5 1 6
REMARK H PARENT
REMARK Flexibility Score: inf
ROOT
ATOM      1  C   UNL     1       3.392   5.339   5.878  1.00  0.00     0.052 C 
ENDROOT
BRANCH   1   2
ATOM      2  C   UNL     1       3.994   4.413   4.867  1.00  0.00     0.041 C 
ATOM      3  O   UNL     1       5.184   4.577   4.487  1.00  0.00    -0.550 OA
ATOM      4  O   UNL     1       3.254   3.349   4.368  1.00  0.00    -0.550 OA
ENDBRANCH   1   2
BRANCH   1   5
ATOM      5  C   UNL     1       4.171   6.657   5.979  1.00  0.00     0.003 C 
ATOM      6  C   UNL     1       3.257   7.856   6.231  1.00  0.00     0.004 C 
ENDBRANCH   1   5
TORSDOF 2
ENDMDL
MODEL 9
REMARK VINA RESULT:    -2.788     11.736     12.399
REMARK INTER + INTRA:          -3.121
REMARK INTER:                  -3.115
REMARK INTRA:                  -0.006
REMARK UNBOUND:                -0.007
REMARK SMILES CCCC(=O)[O-]
REMARK SMILES IDX 3 1 4 2 5 3 6 4 2 5 1 6
REMARK H PARENT
REMARK Flexibility Score: inf
ROOT
ATOM      1  C   UNL     1      -0.226   7.858   7.564  1.00  0.00     0.052 C 
ENDROOT
BRANCH   1   2
ATOM      2  C   UNL     1      -1.495   8.279   6.889  1.00  0.00     0.041 C 
ATOM      3  O   UNL     1      -2.144   7.456   6.191  1.00  0.00    -0.550 OA
ATOM      4  O   UNL     1      -1.980   9.569   7.060  1.00  0.00    -0.550 OA
ENDBRANCH   1   2
BRANCH   1   5
ATOM      5  C   UNL     1       0.969   8.707   7.110  1.00  0.00     0.003 C 
ATOM      6  C   UNL     1       2.258   7.892   7.012  1.00  0.00     0.004 C 
ENDBRANCH   1   5
TORSDOF 2
ENDMDL
