MODEL 1
REMARK VINA RESULT:    -3.859      0.000      0.000
REMARK INTER + INTRA:          -5.414
REMARK INTER:                  -5.663
REMARK INTRA:                   0.249
REMARK UNBOUND:                 0.249
REMARK SMILES C=C1CC=CC(C)(C)CC=C(C)CCC1
REMARK SMILES IDX 2 1 1 2 15 3 14 4 13 5 11 6 12 7 10 8 3 10 4 11 5 12 6 13
REMARK SMILES IDX 7 14 8 15 9 16
REMARK H PARENT
REMARK Flexibility Score: 60.00
ROOT
ATOM      1  C   UNL     1       4.647  -2.889  18.864  1.00  0.00    -0.074 C 
ATOM      2  C   UNL     1       5.477  -2.601  19.881  1.00  0.00     0.008 C 
ENDROOT
BRANCH   1   3
ATOM      3  C   UNL     1       3.980  -4.245  18.801  1.00  0.00     0.031 C 
BRANCH   3   4
ATOM      4  C   UNL     1       2.589  -4.258  19.461  1.00  0.00     0.009 C 
BRANCH   4   5
ATOM      5  C   UNL     1       1.400  -4.198  18.475  1.00  0.00     0.030 C 
BRANCH   5   6
ATOM      6  C   UNL     1       0.781  -2.814  18.308  1.00  0.00    -0.077 C 
ATOM      7  C   UNL     1      -0.113  -2.248  19.387  1.00  0.00     0.039 C 
ATOM      8  C   UNL     1       0.904  -2.088  17.170  1.00  0.00    -0.027 CG0
ATOM      9  G   UNL     1       1.440  -2.594  15.848  1.00  0.00     0.000 G0
ENDBRANCH   5   6
ENDBRANCH   4   5
ENDBRANCH   3   4
ENDBRANCH   1   3
BRANCH   1  10
ATOM     10  C   UNL     1       4.319  -1.843  17.819  1.00  0.00     0.057 C 
BRANCH  10  11
ATOM     11  C   UNL     1       4.666  -2.333  16.436  1.00  0.00    -0.026 C 
ATOM     12  C   UNL     1       3.921  -2.250  15.312  1.00  0.00    -0.024 C 
BRANCH  12  13
ATOM     13  C   UNL     1       2.499  -1.710  15.100  1.00  0.00    -0.014 C 
ATOM     14  C   UNL     1       2.217  -1.838  13.579  1.00  0.00     0.016 C 
ATOM     15  C   UNL     1       2.375  -0.200  15.428  1.00  0.00     0.016 C 
BRANCH  13  16
ATOM     16  C   UNL     1       1.439  -2.600  15.831  1.00  0.00     0.038 CG0
ATOM     17  G   UNL     1       0.920  -2.094  17.159  1.00  0.00     0.000 G0
ENDBRANCH  13  16
ENDBRANCH  12  13
ENDBRANCH  10  11
ENDBRANCH   1  10
TORSDOF 0
ENDMDL
MODEL 2
REMARK VINA RESULT:    -3.709      2.157      5.031
REMARK INTER + INTRA:          -5.194
REMARK INTER:                  -5.626
REMARK INTRA:                   0.432
REMARK UNBOUND:                 0.249
REMARK SMILES C=C1CC=CC(C)(C)CC=C(C)CCC1
REMARK SMILES IDX 2 1 1 2 15 3 14 4 13 5 11 6 12 7 10 8 3 10 4 11 5 12 6 13
REMARK SMILES IDX 7 14 8 15 9 16
REMARK H PARENT
REMARK Flexibility Score: 60.00
ROOT
ATOM      1  C   UNL     1       2.774  -1.908  16.679  1.00  0.00    -0.074 C 
ATOM      2  C   UNL     1       2.466  -1.023  15.716  1.00  0.00     0.008 C 
ENDROOT
BRANCH   1   3
ATOM      3  C   UNL     1       4.149  -2.537  16.708  1.00  0.00     0.031 C 
BRANCH   3   4
ATOM      4  C   UNL     1       4.887  -2.298  18.039  1.00  0.00     0.009 C 
BRANCH   4   5
ATOM      5  C   UNL     1       5.140  -3.570  18.879  1.00  0.00     0.030 C 
BRANCH   5   6
ATOM      6  C   UNL     1       4.900  -3.403  20.376  1.00  0.00    -0.077 C 
ATOM      7  C   UNL     1       5.938  -2.724  21.239  1.00  0.00     0.039 C 
ATOM      8  C   UNL     1       3.828  -3.937  21.011  1.00  0.00    -0.027 CG0
ATOM      9  G   UNL     1       2.862  -4.944  20.426  1.00  0.00     0.000 G0
ENDBRANCH   5   6
ENDBRANCH   4   5
ENDBRANCH   3   4
ENDBRANCH   1   3
BRANCH   1  10
ATOM     10  C   UNL     1       1.779  -2.229  17.775  1.00  0.00     0.057 C 
BRANCH  10  11
ATOM     11  C   UNL     1       1.266  -3.640  17.644  1.00  0.00    -0.026 C 
ATOM     12  C   UNL     1       1.085  -4.554  18.622  1.00  0.00    -0.024 C 
BRANCH  12  13
ATOM     13  C   UNL     1       1.397  -4.478  20.124  1.00  0.00    -0.014 C 
ATOM     14  C   UNL     1       0.447  -5.498  20.809  1.00  0.00     0.016 C 
ATOM     15  C   UNL     1       1.051  -3.098  20.740  1.00  0.00     0.016 C 
BRANCH  13  16
ATOM     16  C   UNL     1       2.858  -4.951  20.425  1.00  0.00     0.038 CG0
ATOM     17  G   UNL     1       3.801  -3.925  21.014  1.00  0.00     0.000 G0
ENDBRANCH  13  16
ENDBRANCH  12  13
ENDBRANCH  10  11
ENDBRANCH   1  10
TORSDOF 0
ENDMDL
MODEL 3
REMARK VINA RESULT:    -3.663      1.308      2.437
REMARK INTER + INTRA:          -5.127
REMARK INTER:                  -6.026
REMARK INTRA:                   0.898
REMARK UNBOUND:                 0.249
REMARK SMILES C=C1CC=CC(C)(C)CC=C(C)CCC1
REMARK SMILES IDX 2 1 1 2 15 3 14 4 13 5 11 6 12 7 10 8 3 10 4 11 5 12 6 13
REMARK SMILES IDX 7 14 8 15 9 16
REMARK H PARENT
REMARK Flexibility Score: 60.00
ROOT
ATOM      1  C   UNL     1       5.184  -2.237  15.588  1.00  0.00    -0.074 C 
ATOM      2  C   UNL     1       6.269  -1.828  14.907  1.00  0.00     0.008 C 
ENDROOT
BRANCH   1   3
ATOM      3  C   UNL     1       5.314  -2.612  17.047  1.00  0.00     0.031 C 
BRANCH   3   4
ATOM      4  C   UNL     1       4.101  -2.172  17.887  1.00  0.00     0.009 C 
BRANCH   4   5
ATOM      5  C   UNL     1       3.145  -3.313  18.299  1.00  0.00     0.030 C 
BRANCH   5   6
ATOM      6  C   UNL     1       1.720  -2.870  18.614  1.00  0.00    -0.077 C 
ATOM      7  C   UNL     1       1.162  -3.044  20.008  1.00  0.00     0.039 C 
ATOM      8  C   UNL     1       0.868  -2.412  17.664  1.00  0.00    -0.027 CG0
ATOM      9  G   UNL     1       1.083  -2.488  16.168  1.00  0.00     0.000 G0
ENDBRANCH   5   6
ENDBRANCH   4   5
ENDBRANCH   3   4
ENDBRANCH   1   3
BRANCH   1  10
ATOM     10  C   UNL     1       3.823  -2.258  14.925  1.00  0.00     0.057 C 
BRANCH  10  11
ATOM     11  C   UNL     1       3.278  -0.862  14.765  1.00  0.00    -0.026 C 
ATOM     12  C   UNL     1       2.010  -0.436  14.955  1.00  0.00    -0.024 C 
BRANCH  12  13
ATOM     13  C   UNL     1       0.741  -1.223  15.315  1.00  0.00    -0.014 C 
ATOM     14  C   UNL     1       0.159  -1.734  13.969  1.00  0.00     0.016 C 
ATOM     15  C   UNL     1      -0.362  -0.329  15.941  1.00  0.00     0.016 C 
BRANCH  13  16
ATOM     16  C   UNL     1       1.081  -2.489  16.168  1.00  0.00     0.038 CG0
ATOM     17  G   UNL     1       0.858  -2.388  17.661  1.00  0.00     0.000 G0
ENDBRANCH  13  16
ENDBRANCH  12  13
ENDBRANCH  10  11
ENDBRANCH   1  10
TORSDOF 0
ENDMDL
MODEL 4
REMARK VINA RESULT:    -3.634      1.804      4.173
REMARK INTER + INTRA:          -5.084
REMARK INTER:                  -5.686
REMARK INTRA:                   0.602
REMARK UNBOUND:                 0.249
REMARK SMILES C=C1CC=CC(C)(C)CC=C(C)CCC1
REMARK SMILES IDX 2 1 1 2 15 3 14 4 13 5 11 6 12 7 10 8 3 10 4 11 5 12 6 13
REMARK SMILES IDX 7 14 8 15 9 16
REMARK H PARENT
REMARK Flexibility Score: 60.00
ROOT
ATOM      1  C   UNL     1       7.346  -2.297  16.642  1.00  0.00    -0.074 C 
ATOM      2  C   UNL     1       8.515  -1.648  16.516  1.00  0.00     0.008 C 
ENDROOT
BRANCH   1   3
ATOM      3  C   UNL     1       6.507  -2.576  15.414  1.00  0.00     0.031 C 
BRANCH   3   4
ATOM      4  C   UNL     1       5.350  -1.575  15.241  1.00  0.00     0.009 C 
BRANCH   4   5
ATOM      5  C   UNL     1       3.991  -2.210  14.872  1.00  0.00     0.030 C 
BRANCH   5   6
ATOM      6  C   UNL     1       2.833  -1.813  15.783  1.00  0.00    -0.077 C 
ATOM      7  C   UNL     1       2.126  -0.493  15.580  1.00  0.00     0.039 C 
ATOM      8  C   UNL     1       2.462  -2.549  16.859  1.00  0.00    -0.027 CG0
ATOM      9  G   UNL     1       3.240  -3.700  17.458  1.00  0.00     0.000 G0
ENDBRANCH   5   6
ENDBRANCH   4   5
ENDBRANCH   3   4
ENDBRANCH   1   3
BRANCH   1  10
ATOM     10  C   UNL     1       6.894  -2.813  17.992  1.00  0.00     0.057 C 
BRANCH  10  11
ATOM     11  C   UNL     1       5.864  -1.898  18.604  1.00  0.00    -0.026 C 
ATOM     12  C   UNL     1       4.610  -2.202  19.002  1.00  0.00    -0.024 C 
BRANCH  12  13
ATOM     13  C   UNL     1       3.828  -3.520  18.899  1.00  0.00    -0.014 C 
ATOM     14  C   UNL     1       2.627  -3.380  19.873  1.00  0.00     0.016 C 
ATOM     15  C   UNL     1       4.640  -4.741  19.402  1.00  0.00     0.016 C 
BRANCH  13  16
ATOM     16  C   UNL     1       3.226  -3.713  17.468  1.00  0.00     0.038 CG0
ATOM     17  G   UNL     1       2.490  -2.534  16.871  1.00  0.00     0.000 G0
ENDBRANCH  13  16
ENDBRANCH  12  13
ENDBRANCH  10  11
ENDBRANCH   1  10
TORSDOF 0
ENDMDL
MODEL 5
REMARK VINA RESULT:    -3.602      2.553      4.947
REMARK INTER + INTRA:          -5.037
REMARK INTER:                  -5.422
REMARK INTRA:                   0.385
REMARK UNBOUND:                 0.249
REMARK SMILES C=C1CC=CC(C)(C)CC=C(C)CCC1
REMARK SMILES IDX 2 1 1 2 15 3 14 4 13 5 11 6 12 7 10 8 3 10 4 11 5 12 6 13
REMARK SMILES IDX 7 14 8 15 9 16
REMARK H PARENT
REMARK Flexibility Score: 60.00
ROOT
ATOM      1  C   UNL     1       0.927  -2.210  17.860  1.00  0.00    -0.074 C 
ATOM      2  C   UNL     1       0.640  -1.615  16.690  1.00  0.00     0.008 C 
ENDROOT
BRANCH   1   3
ATOM      3  C   UNL     1      -0.021  -2.059  19.030  1.00  0.00     0.031 C 
BRANCH   3   4
ATOM      4  C   UNL     1      -0.235  -3.376  19.799  1.00  0.00     0.009 C 
BRANCH   4   5
ATOM      5  C   UNL     1       0.432  -3.433  21.191  1.00  0.00     0.030 C 
BRANCH   5   6
ATOM      6  C   UNL     1       1.262  -4.686  21.450  1.00  0.00    -0.077 C 
ATOM      7  C   UNL     1       0.597  -5.945  21.957  1.00  0.00     0.039 C 
ATOM      8  C   UNL     1       2.614  -4.704  21.349  1.00  0.00    -0.027 CG0
ATOM      9  G   UNL     1       3.510  -3.492  21.209  1.00  0.00     0.000 G0
ENDBRANCH   5   6
ENDBRANCH   4   5
ENDBRANCH   3   4
ENDBRANCH   1   3
BRANCH   1  10
ATOM     10  C   UNL     1       2.154  -3.087  17.997  1.00  0.00     0.057 C 
BRANCH  10  11
ATOM     11  C   UNL     1       3.396  -2.254  18.183  1.00  0.00    -0.026 C 
ATOM     12  C   UNL     1       4.426  -2.471  19.030  1.00  0.00    -0.024 C 
BRANCH  12  13
ATOM     13  C   UNL     1       4.626  -3.564  20.091  1.00  0.00    -0.014 C 
ATOM     14  C   UNL     1       5.973  -3.238  20.790  1.00  0.00     0.016 C 
ATOM     15  C   UNL     1       4.800  -4.976  19.474  1.00  0.00     0.016 C 
BRANCH  13  16
ATOM     16  C   UNL     1       3.518  -3.493  21.194  1.00  0.00     0.038 CG0
ATOM     17  G   UNL     1       2.623  -4.704  21.342  1.00  0.00     0.000 G0
ENDBRANCH  13  16
ENDBRANCH  12  13
ENDBRANCH  10  11
ENDBRANCH   1  10
TORSDOF 0
ENDMDL
MODEL 6
REMARK VINA RESULT:    -3.444      1.772      4.016
REMARK INTER + INTRA:          -4.806
REMARK INTER:                  -5.486
REMARK INTRA:                   0.680
REMARK UNBOUND:                 0.249
REMARK SMILES C=C1CC=CC(C)(C)CC=C(C)CCC1
REMARK SMILES IDX 2 1 1 2 15 3 14 4 13 5 11 6 12 7 10 8 3 10 4 11 5 12 6 13
REMARK SMILES IDX 7 14 8 15 9 16
REMARK H PARENT
REMARK Flexibility Score: 60.00
ROOT
ATOM      1  C   UNL     1       3.320  -4.244  21.067  1.00  0.00    -0.074 C 
ATOM      2  C   UNL     1       3.121  -5.548  21.328  1.00  0.00     0.008 C 
ENDROOT
BRANCH   1   3
ATOM      3  C   UNL     1       4.605  -3.580  21.509  1.00  0.00     0.031 C 
BRANCH   3   4
ATOM      4  C   UNL     1       5.698  -3.614  20.426  1.00  0.00     0.009 C 
BRANCH   4   5
ATOM      5  C   UNL     1       5.888  -2.291  19.650  1.00  0.00     0.030 C 
BRANCH   5   6
ATOM      6  C   UNL     1       5.923  -2.441  18.133  1.00  0.00    -0.077 C 
ATOM      7  C   UNL     1       7.247  -2.475  17.404  1.00  0.00     0.039 C 
ATOM      8  C   UNL     1       4.802  -2.440  17.370  1.00  0.00    -0.027 CG0
ATOM      9  G   UNL     1       3.412  -2.065  17.836  1.00  0.00     0.000 G0
ENDBRANCH   5   6
ENDBRANCH   4   5
ENDBRANCH   3   4
ENDBRANCH   1   3
BRANCH   1  10
ATOM     10  C   UNL     1       2.300  -3.454  20.274  1.00  0.00     0.057 C 
BRANCH  10  11
ATOM     11  C   UNL     1       1.735  -4.279  19.146  1.00  0.00    -0.026 C 
ATOM     12  C   UNL     1       1.723  -3.990  17.827  1.00  0.00    -0.024 C 
BRANCH  12  13
ATOM     13  C   UNL     1       2.202  -2.736  17.080  1.00  0.00    -0.014 C 
ATOM     14  C   UNL     1       1.021  -1.730  17.133  1.00  0.00     0.016 C 
ATOM     15  C   UNL     1       2.468  -2.998  15.576  1.00  0.00     0.016 C 
BRANCH  13  16
ATOM     16  C   UNL     1       3.403  -2.059  17.821  1.00  0.00     0.038 CG0
ATOM     17  G   UNL     1       4.793  -2.453  17.373  1.00  0.00     0.000 G0
ENDBRANCH  13  16
ENDBRANCH  12  13
ENDBRANCH  10  11
ENDBRANCH   1  10
TORSDOF 0
ENDMDL
MODEL 7
REMARK VINA RESULT:    -3.367      2.979      6.106
REMARK INTER + INTRA:          -4.693
REMARK INTER:                  -4.850
REMARK INTRA:                   0.158
REMARK UNBOUND:                 0.249
REMARK SMILES C=C1CC=CC(C)(C)CC=C(C)CCC1
REMARK SMILES IDX 2 1 1 2 15 3 14 4 13 5 11 6 12 7 10 8 3 10 4 11 5 12 6 13
REMARK SMILES IDX 7 14 8 15 9 16
REMARK H PARENT
REMARK Flexibility Score: 60.00
ROOT
ATOM      1  C   UNL     1       0.792  -3.557  20.058  1.00  0.00    -0.074 C 
ATOM      2  C   UNL     1      -0.024  -2.508  19.858  1.00  0.00     0.008 C 
ENDROOT
BRANCH   1   3
ATOM      3  C   UNL     1       1.068  -4.520  18.925  1.00  0.00     0.031 C 
BRANCH   3   4
ATOM      4  C   UNL     1       2.068  -3.961  17.896  1.00  0.00     0.009 C 
BRANCH   4   5
ATOM      5  C   UNL     1       3.543  -4.349  18.145  1.00  0.00     0.030 C 
BRANCH   5   6
ATOM      6  C   UNL     1       4.318  -3.376  19.029  1.00  0.00    -0.077 C 
ATOM      7  C   UNL     1       4.686  -2.006  18.507  1.00  0.00     0.039 C 
ATOM      8  C   UNL     1       4.798  -3.718  20.249  1.00  0.00    -0.027 CG0
ATOM      9  G   UNL     1       4.863  -5.119  20.817  1.00  0.00     0.000 G0
ENDBRANCH   5   6
ENDBRANCH   4   5
ENDBRANCH   3   4
ENDBRANCH   1   3
BRANCH   1  10
ATOM     10  C   UNL     1       1.492  -3.744  21.388  1.00  0.00     0.057 C 
BRANCH  10  11
ATOM     11  C   UNL     1       1.648  -5.207  21.717  1.00  0.00    -0.026 C 
ATOM     12  C   UNL     1       2.769  -5.862  22.088  1.00  0.00    -0.024 C 
BRANCH  12  13
ATOM     13  C   UNL     1       4.215  -5.360  22.224  1.00  0.00    -0.014 C 
ATOM     14  C   UNL     1       5.004  -6.512  22.903  1.00  0.00     0.016 C 
ATOM     15  C   UNL     1       4.340  -4.142  23.176  1.00  0.00     0.016 C 
BRANCH  13  16
ATOM     16  C   UNL     1       4.870  -5.131  20.822  1.00  0.00     0.038 CG0
ATOM     17  G   UNL     1       4.806  -3.728  20.258  1.00  0.00     0.000 G0
ENDBRANCH  13  16
ENDBRANCH  12  13
ENDBRANCH  10  11
ENDBRANCH   1  10
TORSDOF 0
ENDMDL
MODEL 8
REMARK VINA RESULT:    -3.355      3.155      6.294
REMARK INTER + INTRA:          -4.675
REMARK INTER:                  -5.185
REMARK INTRA:                   0.511
REMARK UNBOUND:                 0.249
REMARK SMILES C=C1CC=CC(C)(C)CC=C(C)CCC1
REMARK SMILES IDX 2 1 1 2 15 3 14 4 13 5 11 6 12 7 10 8 3 10 4 11 5 12 6 13
REMARK SMILES IDX 7 14 8 15 9 16
REMARK H PARENT
REMARK Flexibility Score: 60.00
ROOT
ATOM      1  C   UNL     1       2.226  -3.938  18.737  1.00  0.00    -0.074 C 
ATOM      2  C   UNL     1       1.248  -3.696  17.848  1.00  0.00     0.008 C 
ENDROOT
BRANCH   1   3
ATOM      3  C   UNL     1       3.634  -4.197  18.249  1.00  0.00     0.031 C 
BRANCH   3   4
ATOM      4  C   UNL     1       4.448  -2.904  18.060  1.00  0.00     0.009 C 
BRANCH   4   5
ATOM      5  C   UNL     1       5.849  -2.914  18.714  1.00  0.00     0.030 C 
BRANCH   5   6
ATOM      6  C   UNL     1       5.901  -2.324  20.119  1.00  0.00    -0.077 C 
ATOM      7  C   UNL     1       6.519  -0.964  20.348  1.00  0.00     0.039 C 
ATOM      8  C   UNL     1       5.507  -3.012  21.218  1.00  0.00    -0.027 CG0
ATOM      9  G   UNL     1       5.196  -4.492  21.274  1.00  0.00     0.000 G0
ENDBRANCH   5   6
ENDBRANCH   4   5
ENDBRANCH   3   4
ENDBRANCH   1   3
BRANCH   1  10
ATOM     10  C   UNL     1       1.945  -3.884  20.224  1.00  0.00     0.057 C 
BRANCH  10  11
ATOM     11  C   UNL     1       2.060  -5.252  20.846  1.00  0.00    -0.026 C 
ATOM     12  C   UNL     1       2.962  -5.679  21.755  1.00  0.00    -0.024 C 
BRANCH  12  13
ATOM     13  C   UNL     1       4.166  -4.956  22.378  1.00  0.00    -0.014 C 
ATOM     14  C   UNL     1       4.902  -6.016  23.241  1.00  0.00     0.016 C 
ATOM     15  C   UNL     1       3.748  -3.829  23.358  1.00  0.00     0.016 C 
BRANCH  13  16
ATOM     16  C   UNL     1       5.177  -4.488  21.279  1.00  0.00     0.038 CG0
ATOM     17  G   UNL     1       5.491  -3.009  21.223  1.00  0.00     0.000 G0
ENDBRANCH  13  16
ENDBRANCH  12  13
ENDBRANCH  10  11
ENDBRANCH   1  10
TORSDOF 0
ENDMDL
MODEL 9
REMARK VINA RESULT:    -3.313      1.995      4.727
REMARK INTER + INTRA:          -4.613
REMARK INTER:                  -5.077
REMARK INTRA:                   0.463
REMARK UNBOUND:                 0.249
REMARK SMILES C=C1CC=CC(C)(C)CC=C(C)CCC1
REMARK SMILES IDX 2 1 1 2 15 3 14 4 13 5 11 6 12 7 10 8 3 10 4 11 5 12 6 13
REMARK SMILES IDX 7 14 8 15 9 16
REMARK H PARENT
REMARK Flexibility Score: 60.00
ROOT
ATOM      1  C   UNL     1       5.775  -2.658  19.964  1.00  0.00    -0.074 C 
ATOM      2  C   UNL     1       6.304  -1.424  20.020  1.00  0.00     0.008 C 
ENDROOT
BRANCH   1   3
ATOM      3  C   UNL     1       5.542  -3.314  18.621  1.00  0.00     0.031 C 
BRANCH   3   4
ATOM      4  C   UNL     1       4.943  -2.349  17.581  1.00  0.00     0.009 C 
BRANCH   4   5
ATOM      5  C   UNL     1       3.501  -1.881  17.882  1.00  0.00     0.030 C 
BRANCH   5   6
ATOM      6  C   UNL     1       2.435  -2.960  17.728  1.00  0.00    -0.077 C 
ATOM      7  C   UNL     1       1.783  -3.196  16.385  1.00  0.00     0.039 C 
ATOM      8  C   UNL     1       1.952  -3.668  18.778  1.00  0.00    -0.027 CG0
ATOM      9  G   UNL     1       2.191  -3.362  20.240  1.00  0.00     0.000 G0
ENDBRANCH   5   6
ENDBRANCH   4   5
ENDBRANCH   3   4
ENDBRANCH   1   3
BRANCH   1  10
ATOM     10  C   UNL     1       5.474  -3.424  21.235  1.00  0.00     0.057 C 
BRANCH  10  11
ATOM     11  C   UNL     1       5.014  -4.826  20.925  1.00  0.00    -0.026 C 
ATOM     12  C   UNL     1       3.749  -5.298  20.883  1.00  0.00    -0.024 C 
BRANCH  12  13
ATOM     13  C   UNL     1       2.417  -4.599  21.195  1.00  0.00    -0.014 C 
ATOM     14  C   UNL     1       2.560  -4.031  22.633  1.00  0.00     0.016 C 
ATOM     15  C   UNL     1       1.221  -5.583  21.246  1.00  0.00     0.016 C 
BRANCH  13  16
ATOM     16  C   UNL     1       2.184  -3.375  20.249  1.00  0.00     0.038 CG0
ATOM     17  G   UNL     1       1.964  -3.677  18.782  1.00  0.00     0.000 G0
ENDBRANCH  13  16
ENDBRANCH  12  13
ENDBRANCH  10  11
ENDBRANCH   1  10
TORSDOF 0
ENDMDL
