MODEL 1
REMARK VINA RESULT:    -4.993      0.000      0.000
REMARK INTER + INTRA:          -7.129
REMARK INTER:                  -6.744
REMARK INTRA:                  -0.385
REMARK UNBOUND:                -0.385
REMARK SMILES CCCCCCC=CC(=O)[O-]
REMARK SMILES IDX 5 1 6 2 7 3 8 4 9 5 10 6 11 7 4 8 3 9 2 10 1 11
REMARK H PARENT
REMARK Flexibility Score: inf
ROOT
ATOM      1  C   UNL     1      79.721  57.295  10.376  1.00  0.00     0.004 C 
ENDROOT
BRANCH   1   2
ATOM      2  C   UNL     1      79.328  58.734  10.008  1.00  0.00     0.027 C 
BRANCH   2   3
ATOM      3  C   UNL     1      80.403  59.707  10.400  1.00  0.00    -0.025 C 
ATOM      4  C   UNL     1      81.589  59.291  10.857  1.00  0.00     0.020 C 
BRANCH   4   5
ATOM      5  C   UNL     1      82.656  60.232  11.230  1.00  0.00     0.064 C 
ATOM      6  O   UNL     1      82.928  61.197  10.469  1.00  0.00    -0.545 OA
ATOM      7  O   UNL     1      83.371  60.072  12.412  1.00  0.00    -0.545 OA
ENDBRANCH   4   5
ENDBRANCH   2   3
ENDBRANCH   1   2
BRANCH   1   8
ATOM      8  C   UNL     1      78.578  56.294  10.151  1.00  0.00     0.000 C 
BRANCH   8   9
ATOM      9  C   UNL     1      77.577  56.767   9.086  1.00  0.00    -0.000 C 
BRANCH   9  10
ATOM     10  C   UNL     1      77.796  56.028   7.761  1.00  0.00    -0.003 C 
ATOM     11  C   UNL     1      77.825  56.999   6.584  1.00  0.00     0.004 C 
ENDBRANCH   9  10
ENDBRANCH   8   9
ENDBRANCH   1   8
TORSDOF 6
ENDMDL
MODEL 2
REMARK VINA RESULT:    -4.591      4.055      5.015
REMARK INTER + INTRA:          -6.586
REMARK INTER:                  -6.220
REMARK INTRA:                  -0.366
REMARK UNBOUND:                -0.385
REMARK SMILES CCCCCCC=CC(=O)[O-]
REMARK SMILES IDX 5 1 6 2 7 3 8 4 9 5 10 6 11 7 4 8 3 9 2 10 1 11
REMARK H PARENT
REMARK Flexibility Score: inf
ROOT
ATOM      1  C   UNL     1      79.771  55.968   9.890  1.00  0.00     0.004 C 
ENDROOT
BRANCH   1   2
ATOM      2  C   UNL     1      80.131  55.398  11.270  1.00  0.00     0.027 C 
BRANCH   2   3
ATOM      3  C   UNL     1      79.021  55.626  12.256  1.00  0.00    -0.025 C 
ATOM      4  C   UNL     1      78.977  54.972  13.422  1.00  0.00     0.020 C 
BRANCH   4   5
ATOM      5  C   UNL     1      77.905  55.195  14.403  1.00  0.00     0.064 C 
ATOM      6  O   UNL     1      77.402  56.343  14.523  1.00  0.00    -0.545 OA
ATOM      7  O   UNL     1      77.437  54.158  15.202  1.00  0.00    -0.545 OA
ENDBRANCH   4   5
ENDBRANCH   2   3
ENDBRANCH   1   2
BRANCH   1   8
ATOM      8  C   UNL     1      78.704  57.071   9.965  1.00  0.00     0.000 C 
BRANCH   8   9
ATOM      9  C   UNL     1      77.466  56.756   9.112  1.00  0.00    -0.000 C 
BRANCH   9  10
ATOM     10  C   UNL     1      77.863  56.069   7.801  1.00  0.00    -0.003 C 
ATOM     11  C   UNL     1      77.827  57.048   6.630  1.00  0.00     0.004 C 
ENDBRANCH   9  10
ENDBRANCH   8   9
ENDBRANCH   1   8
TORSDOF 6
ENDMDL
MODEL 3
REMARK VINA RESULT:    -4.572      4.760      6.464
REMARK INTER + INTRA:          -6.560
REMARK INTER:                  -5.895
REMARK INTRA:                  -0.665
REMARK UNBOUND:                -0.385
REMARK SMILES CCCCCCC=CC(=O)[O-]
REMARK SMILES IDX 5 1 6 2 7 3 8 4 9 5 10 6 11 7 4 8 3 9 2 10 1 11
REMARK H PARENT
REMARK Flexibility Score: inf
ROOT
ATOM      1  C   UNL     1      77.717  56.504   9.415  1.00  0.00     0.004 C 
ENDROOT
BRANCH   1   2
ATOM      2  C   UNL     1      77.869  56.120   7.935  1.00  0.00     0.027 C 
BRANCH   2   3
ATOM      3  C   UNL     1      77.930  54.629   7.766  1.00  0.00    -0.025 C 
ATOM      4  C   UNL     1      79.087  53.964   7.842  1.00  0.00     0.020 C 
BRANCH   4   5
ATOM      5  C   UNL     1      79.159  52.503   7.692  1.00  0.00     0.064 C 
ATOM      6  O   UNL     1      78.748  51.965   6.631  1.00  0.00    -0.545 OA
ATOM      7  O   UNL     1      79.676  51.704   8.706  1.00  0.00    -0.545 OA
ENDBRANCH   4   5
ENDBRANCH   2   3
ENDBRANCH   1   2
BRANCH   1   8
ATOM      8  C   UNL     1      78.693  57.611   9.842  1.00  0.00     0.000 C 
BRANCH   8   9
ATOM      9  C   UNL     1      79.850  57.081  10.702  1.00  0.00    -0.000 C 
BRANCH   9  10
ATOM     10  C   UNL     1      79.534  55.682  11.245  1.00  0.00    -0.003 C 
ATOM     11  C   UNL     1      80.730  54.747  11.093  1.00  0.00     0.004 C 
ENDBRANCH   9  10
ENDBRANCH   8   9
ENDBRANCH   1   8
TORSDOF 6
ENDMDL
MODEL 4
REMARK VINA RESULT:    -4.483      9.856     10.990
REMARK INTER + INTRA:          -6.440
REMARK INTER:                  -5.893
REMARK INTRA:                  -0.547
REMARK UNBOUND:                -0.385
REMARK SMILES CCCCCCC=CC(=O)[O-]
REMARK SMILES IDX 5 1 6 2 7 3 8 4 9 5 10 6 11 7 4 8 3 9 2 10 1 11
REMARK H PARENT
REMARK Flexibility Score: inf
ROOT
ATOM      1  C   UNL     1      85.624  63.907  15.251  1.00  0.00     0.004 C 
ENDROOT
BRANCH   1   2
ATOM      2  C   UNL     1      85.020  65.231  15.741  1.00  0.00     0.027 C 
BRANCH   2   3
ATOM      3  C   UNL     1      84.872  65.239  17.236  1.00  0.00    -0.025 C 
ATOM      4  C   UNL     1      83.691  65.465  17.820  1.00  0.00     0.020 C 
BRANCH   4   5
ATOM      5  C   UNL     1      83.529  65.461  19.282  1.00  0.00     0.064 C 
ATOM      6  O   UNL     1      82.377  65.368  19.779  1.00  0.00    -0.545 OA
ATOM      7  O   UNL     1      84.631  65.559  20.125  1.00  0.00    -0.545 OA
ENDBRANCH   4   5
ENDBRANCH   2   3
ENDBRANCH   1   2
BRANCH   1   8
ATOM      8  C   UNL     1      84.914  62.678  15.840  1.00  0.00     0.000 C 
BRANCH   8   9
ATOM      9  C   UNL     1      85.895  61.585  16.289  1.00  0.00    -0.000 C 
BRANCH   9  10
ATOM     10  C   UNL     1      85.446  60.956  17.613  1.00  0.00    -0.003 C 
ATOM     11  C   UNL     1      84.414  61.831  18.318  1.00  0.00     0.004 C 
ENDBRANCH   9  10
ENDBRANCH   8   9
ENDBRANCH   1   8
TORSDOF 6
ENDMDL
MODEL 5
REMARK VINA RESULT:    -4.415      3.469      4.226
REMARK INTER + INTRA:          -6.349
REMARK INTER:                  -5.611
REMARK INTRA:                  -0.739
REMARK UNBOUND:                -0.385
REMARK SMILES CCCCCCC=CC(=O)[O-]
REMARK SMILES IDX 5 1 6 2 7 3 8 4 9 5 10 6 11 7 4 8 3 9 2 10 1 11
REMARK H PARENT
REMARK Flexibility Score: inf
ROOT
ATOM      1  C   UNL     1      78.625  57.339   9.825  1.00  0.00     0.004 C 
ENDROOT
BRANCH   1   2
ATOM      2  C   UNL     1      78.631  56.705  11.224  1.00  0.00     0.027 C 
BRANCH   2   3
ATOM      3  C   UNL     1      79.538  55.509  11.274  1.00  0.00    -0.025 C 
ATOM      4  C   UNL     1      80.814  55.584  10.881  1.00  0.00     0.020 C 
BRANCH   4   5
ATOM      5  C   UNL     1      81.718  54.425  10.938  1.00  0.00     0.064 C 
ATOM      6  O   UNL     1      81.246  53.278  11.153  1.00  0.00    -0.545 OA
ATOM      7  O   UNL     1      83.089  54.577  10.758  1.00  0.00    -0.545 OA
ENDBRANCH   4   5
ENDBRANCH   2   3
ENDBRANCH   1   2
BRANCH   1   8
ATOM      8  C   UNL     1      77.519  56.771   8.923  1.00  0.00     0.000 C 
BRANCH   8   9
ATOM      9  C   UNL     1      78.075  56.040   7.692  1.00  0.00    -0.000 C 
BRANCH   9  10
ATOM     10  C   UNL     1      77.990  54.520   7.873  1.00  0.00    -0.003 C 
ATOM     11  C   UNL     1      79.377  53.884   7.867  1.00  0.00     0.004 C 
ENDBRANCH   9  10
ENDBRANCH   8   9
ENDBRANCH   1   8
TORSDOF 6
ENDMDL
MODEL 6
REMARK VINA RESULT:    -4.406      1.848      2.785
REMARK INTER + INTRA:          -6.336
REMARK INTER:                  -5.787
REMARK INTRA:                  -0.549
REMARK UNBOUND:                -0.385
REMARK SMILES CCCCCCC=CC(=O)[O-]
REMARK SMILES IDX 5 1 6 2 7 3 8 4 9 5 10 6 11 7 4 8 3 9 2 10 1 11
REMARK H PARENT
REMARK Flexibility Score: inf
ROOT
ATOM      1  C   UNL     1      80.312  54.176   9.252  1.00  0.00     0.004 C 
ENDROOT
BRANCH   1   2
ATOM      2  C   UNL     1      80.093  55.012  10.522  1.00  0.00     0.027 C 
BRANCH   2   3
ATOM      3  C   UNL     1      80.747  56.359  10.404  1.00  0.00    -0.025 C 
ATOM      4  C   UNL     1      80.077  57.486  10.670  1.00  0.00     0.020 C 
BRANCH   4   5
ATOM      5  C   UNL     1      80.708  58.811  10.573  1.00  0.00     0.064 C 
ATOM      6  O   UNL     1      81.823  59.010  11.123  1.00  0.00    -0.545 OA
ATOM      7  O   UNL     1      80.092  59.848   9.882  1.00  0.00    -0.545 OA
ENDBRANCH   4   5
ENDBRANCH   2   3
ENDBRANCH   1   2
BRANCH   1   8
ATOM      8  C   UNL     1      79.609  54.774   8.023  1.00  0.00     0.000 C 
BRANCH   8   9
ATOM      9  C   UNL     1      78.097  54.943   8.229  1.00  0.00    -0.000 C 
BRANCH   9  10
ATOM     10  C   UNL     1      77.684  56.411   8.074  1.00  0.00    -0.003 C 
ATOM     11  C   UNL     1      77.824  56.876   6.627  1.00  0.00     0.004 C 
ENDBRANCH   9  10
ENDBRANCH   8   9
ENDBRANCH   1   8
TORSDOF 6
ENDMDL
MODEL 7
REMARK VINA RESULT:    -4.369      3.082      4.596
REMARK INTER + INTRA:          -6.287
REMARK INTER:                  -5.588
REMARK INTRA:                  -0.699
REMARK UNBOUND:                -0.385
REMARK SMILES CCCCCCC=CC(=O)[O-]
REMARK SMILES IDX 5 1 6 2 7 3 8 4 9 5 10 6 11 7 4 8 3 9 2 10 1 11
REMARK H PARENT
REMARK Flexibility Score: inf
ROOT
ATOM      1  C   UNL     1      78.102  54.456   8.236  1.00  0.00     0.004 C 
ENDROOT
BRANCH   1   2
ATOM      2  C   UNL     1      79.284  53.553   7.854  1.00  0.00     0.027 C 
BRANCH   2   3
ATOM      3  C   UNL     1      80.560  54.035   8.483  1.00  0.00    -0.025 C 
ATOM      4  C   UNL     1      80.606  54.419   9.763  1.00  0.00     0.020 C 
BRANCH   4   5
ATOM      5  C   UNL     1      81.851  54.879  10.397  1.00  0.00     0.064 C 
ATOM      6  O   UNL     1      82.216  56.074  10.252  1.00  0.00    -0.545 OA
ATOM      7  O   UNL     1      82.632  54.012  11.154  1.00  0.00    -0.545 OA
ENDBRANCH   4   5
ENDBRANCH   2   3
ENDBRANCH   1   2
BRANCH   1   8
ATOM      8  C   UNL     1      77.919  55.633   7.266  1.00  0.00     0.000 C 
BRANCH   8   9
ATOM      9  C   UNL     1      77.708  56.971   7.990  1.00  0.00    -0.000 C 
BRANCH   9  10
ATOM     10  C   UNL     1      77.749  56.783   9.511  1.00  0.00    -0.003 C 
ATOM     11  C   UNL     1      78.818  57.667  10.148  1.00  0.00     0.004 C 
ENDBRANCH   9  10
ENDBRANCH   8   9
ENDBRANCH   1   8
TORSDOF 6
ENDMDL
MODEL 8
REMARK VINA RESULT:    -4.340      4.882      5.944
REMARK INTER + INTRA:          -6.247
REMARK INTER:                  -5.839
REMARK INTRA:                  -0.408
REMARK UNBOUND:                -0.385
REMARK SMILES CCCCCCC=CC(=O)[O-]
REMARK SMILES IDX 5 1 6 2 7 3 8 4 9 5 10 6 11 7 4 8 3 9 2 10 1 11
REMARK H PARENT
REMARK Flexibility Score: inf
ROOT
ATOM      1  C   UNL     1      79.905  56.502  10.473  1.00  0.00     0.004 C 
ENDROOT
BRANCH   1   2
ATOM      2  C   UNL     1      80.936  55.378  10.286  1.00  0.00     0.027 C 
BRANCH   2   3
ATOM      3  C   UNL     1      80.293  54.141   9.728  1.00  0.00    -0.025 C 
ATOM      4  C   UNL     1      80.968  52.991   9.618  1.00  0.00     0.020 C 
BRANCH   4   5
ATOM      5  C   UNL     1      80.347  51.769   9.087  1.00  0.00     0.064 C 
ATOM      6  O   UNL     1      80.807  50.644   9.417  1.00  0.00    -0.545 OA
ATOM      7  O   UNL     1      79.257  51.834   8.226  1.00  0.00    -0.545 OA
ENDBRANCH   4   5
ENDBRANCH   2   3
ENDBRANCH   1   2
BRANCH   1   8
ATOM      8  C   UNL     1      78.474  56.055  10.136  1.00  0.00     0.000 C 
BRANCH   8   9
ATOM      9  C   UNL     1      77.834  56.904   9.027  1.00  0.00    -0.000 C 
BRANCH   9  10
ATOM     10  C   UNL     1      77.739  56.113   7.718  1.00  0.00    -0.003 C 
ATOM     11  C   UNL     1      77.730  57.045   6.509  1.00  0.00     0.004 C 
ENDBRANCH   9  10
ENDBRANCH   8   9
ENDBRANCH   1   8
TORSDOF 6
ENDMDL
MODEL 9
REMARK VINA RESULT:    -4.299      3.698      6.045
REMARK INTER + INTRA:          -6.192
REMARK INTER:                  -5.880
REMARK INTRA:                  -0.312
REMARK UNBOUND:                -0.385
REMARK SMILES CCCCCCC=CC(=O)[O-]
REMARK SMILES IDX 5 1 6 2 7 3 8 4 9 5 10 6 11 7 4 8 3 9 2 10 1 11
REMARK H PARENT
REMARK Flexibility Score: inf
ROOT
ATOM      1  C   UNL     1      80.542  57.954  10.762  1.00  0.00     0.004 C 
ENDROOT
BRANCH   1   2
ATOM      2  C   UNL     1      79.285  57.073  10.831  1.00  0.00     0.027 C 
BRANCH   2   3
ATOM      3  C   UNL     1      79.018  56.406   9.512  1.00  0.00    -0.025 C 
ATOM      4  C   UNL     1      77.978  56.759   8.749  1.00  0.00     0.020 C 
BRANCH   4   5
ATOM      5  C   UNL     1      77.712  56.126   7.449  1.00  0.00     0.064 C 
ATOM      6  O   UNL     1      77.512  54.884   7.392  1.00  0.00    -0.545 OA
ATOM      7  O   UNL     1      77.679  56.877   6.279  1.00  0.00    -0.545 OA
ENDBRANCH   4   5
ENDBRANCH   2   3
ENDBRANCH   1   2
BRANCH   1   8
ATOM      8  C   UNL     1      80.212  59.437  10.534  1.00  0.00     0.000 C 
BRANCH   8   9
ATOM      9  C   UNL     1      81.468  60.304  10.356  1.00  0.00    -0.000 C 
BRANCH   9  10
ATOM     10  C   UNL     1      82.704  59.600  10.926  1.00  0.00    -0.003 C 
ATOM     11  C   UNL     1      83.912  59.773  10.009  1.00  0.00     0.004 C 
ENDBRANCH   9  10
ENDBRANCH   8   9
ENDBRANCH   1   8
TORSDOF 6
ENDMDL
