MODEL 1
REMARK VINA RESULT:    -5.353      0.000      0.000
REMARK INTER + INTRA:          -8.223
REMARK INTER:                  -7.544
REMARK INTRA:                  -0.679
REMARK UNBOUND:                -0.679
REMARK SMILES COc1ccc(-c2cc(=O)c3c(OC)c(OC)c(OC)c(OC)c3o2)cc1OC
REMARK SMILES IDX 7 1 8 2 9 3 10 4 11 5 24 6 25 7 21 8 18 9 15 10 12 11 6 12
REMARK SMILES IDX 3 13 27 14 4 15 26 16 5 17 2 18 1 19 28 20 29 21 22 22 23 23
REMARK SMILES IDX 13 24 14 25 19 26 20 27 16 28 17 29
REMARK H PARENT
REMARK Flexibility Score: inf
ROOT
ATOM      1  C   UNL     1      13.026  38.335  24.962  1.00  0.00     0.138 A 
ATOM      2  C   UNL     1      14.151  39.154  24.832  1.00  0.00     0.100 A 
ATOM      3  C   UNL     1      14.274  39.975  23.714  1.00  0.00     0.197 A 
ATOM      4  O   UNL     1      15.292  40.712  23.619  1.00  0.00    -0.289 OA
ATOM      5  C   UNL     1      13.263  39.971  22.723  1.00  0.00     0.115 A 
ATOM      6  C   UNL     1      12.153  39.112  22.922  1.00  0.00     0.188 A 
ATOM      7  O   UNL     1      12.091  38.354  24.015  1.00  0.00    -0.452 OA
ATOM      8  C   UNL     1      11.114  39.065  21.966  1.00  0.00     0.209 A 
ATOM      9  C   UNL     1      11.162  39.910  20.844  1.00  0.00     0.211 A 
ATOM     10  C   UNL     1      12.281  40.748  20.616  1.00  0.00     0.208 A 
ATOM     11  C   UNL     1      13.325  40.794  21.573  1.00  0.00     0.179 A 
ENDROOT
BRANCH   1  12
ATOM     12  C   UNL     1      12.840  37.460  26.147  1.00  0.00     0.021 A 
ATOM     13  C   UNL     1      12.444  35.827  28.418  1.00  0.00     0.160 A 
ATOM     14  C   UNL     1      11.355  36.495  27.837  1.00  0.00     0.161 A 
ATOM     15  C   UNL     1      13.724  35.962  27.848  1.00  0.00     0.051 A 
ATOM     16  C   UNL     1      11.559  37.306  26.704  1.00  0.00     0.062 A 
ATOM     17  C   UNL     1      13.917  36.765  26.723  1.00  0.00     0.016 A 
BRANCH  13  18
ATOM     18  O   UNL     1      12.214  35.038  29.555  1.00  0.00    -0.493 OA
ATOM     19  C   UNL     1      12.671  33.699  29.713  1.00  0.00     0.278 C 
ENDBRANCH  13  18
BRANCH  14  20
ATOM     20  O   UNL     1      10.085  36.327  28.414  1.00  0.00    -0.493 OA
ATOM     21  C   UNL     1       8.945  35.825  27.724  1.00  0.00     0.278 C 
ENDBRANCH  14  20
ENDBRANCH   1  12
BRANCH   8  22
ATOM     22  O   UNL     1      10.020  38.181  22.052  1.00  0.00    -0.490 OA
ATOM     23  C   UNL     1       8.875  38.313  22.886  1.00  0.00     0.278 C 
ENDBRANCH   8  22
BRANCH  11  24
ATOM     24  O   UNL     1      14.448  41.631  21.414  1.00  0.00    -0.492 OA
ATOM     25  C   UNL     1      14.478  43.047  21.572  1.00  0.00     0.278 C 
ENDBRANCH  11  24
BRANCH   9  26
ATOM     26  O   UNL     1      10.097  39.897  19.939  1.00  0.00    -0.490 OA
ATOM     27  C   UNL     1       8.963  40.750  20.073  1.00  0.00     0.279 C 
ENDBRANCH   9  26
BRANCH  10  28
ATOM     28  O   UNL     1      12.414  41.535  19.456  1.00  0.00    -0.490 OA
ATOM     29  C   UNL     1      11.811  42.798  19.197  1.00  0.00     0.278 C 
ENDBRANCH  10  28
TORSDOF 7
ENDMDL
MODEL 2
REMARK VINA RESULT:    -4.612      5.218      8.857
REMARK INTER + INTRA:          -7.178
REMARK INTER:                  -6.891
REMARK INTRA:                  -0.287
REMARK UNBOUND:                -0.679
REMARK SMILES COc1ccc(-c2cc(=O)c3c(OC)c(OC)c(OC)c(OC)c3o2)cc1OC
REMARK SMILES IDX 7 1 8 2 9 3 10 4 11 5 24 6 25 7 21 8 18 9 15 10 12 11 6 12
REMARK SMILES IDX 3 13 27 14 4 15 26 16 5 17 2 18 1 19 28 20 29 21 22 22 23 23
REMARK SMILES IDX 13 24 14 25 19 26 20 27 16 28 17 29
REMARK H PARENT
REMARK Flexibility Score: inf
ROOT
ATOM      1  C   UNL     1      15.624  45.010  21.836  1.00  0.00     0.138 A 
ATOM      2  C   UNL     1      14.812  46.128  22.048  1.00  0.00     0.100 A 
ATOM      3  C   UNL     1      13.431  46.005  21.919  1.00  0.00     0.197 A 
ATOM      4  O   UNL     1      12.716  47.023  22.121  1.00  0.00    -0.289 OA
ATOM      5  C   UNL     1      12.865  44.755  21.572  1.00  0.00     0.115 A 
ATOM      6  C   UNL     1      13.751  43.667  21.370  1.00  0.00     0.188 A 
ATOM      7  O   UNL     1      15.063  43.847  21.514  1.00  0.00    -0.452 OA
ATOM      8  C   UNL     1      13.243  42.395  21.021  1.00  0.00     0.209 A 
ATOM      9  C   UNL     1      11.855  42.203  20.926  1.00  0.00     0.211 A 
ATOM     10  C   UNL     1      10.960  43.289  21.093  1.00  0.00     0.208 A 
ATOM     11  C   UNL     1      11.468  44.564  21.440  1.00  0.00     0.179 A 
ENDROOT
BRANCH   1  12
ATOM     12  C   UNL     1      17.099  45.086  21.985  1.00  0.00     0.021 A 
ATOM     13  C   UNL     1      19.899  45.260  22.315  1.00  0.00     0.160 A 
ATOM     14  C   UNL     1      19.060  45.248  23.440  1.00  0.00     0.161 A 
ATOM     15  C   UNL     1      19.335  45.164  21.029  1.00  0.00     0.051 A 
ATOM     16  C   UNL     1      17.665  45.160  23.269  1.00  0.00     0.062 A 
ATOM     17  C   UNL     1      17.951  45.073  20.868  1.00  0.00     0.016 A 
BRANCH  13  18
ATOM     18  O   UNL     1      21.284  45.365  22.515  1.00  0.00    -0.493 OA
ATOM     19  C   UNL     1      22.206  45.835  21.539  1.00  0.00     0.278 C 
ENDBRANCH  13  18
BRANCH  14  20
ATOM     20  O   UNL     1      19.651  45.324  24.712  1.00  0.00    -0.493 OA
ATOM     21  C   UNL     1      18.998  45.821  25.877  1.00  0.00     0.278 C 
ENDBRANCH  14  20
ENDBRANCH   1  12
BRANCH   8  22
ATOM     22  O   UNL     1      14.062  41.287  20.725  1.00  0.00    -0.490 OA
ATOM     23  C   UNL     1      14.069  40.522  19.526  1.00  0.00     0.278 C 
ENDBRANCH   8  22
BRANCH  11  24
ATOM     24  O   UNL     1      10.623  45.674  21.648  1.00  0.00    -0.492 OA
ATOM     25  C   UNL     1       9.949  46.425  20.641  1.00  0.00     0.278 C 
ENDBRANCH  11  24
BRANCH   9  26
ATOM     26  O   UNL     1      11.364  40.925  20.642  1.00  0.00    -0.490 OA
ATOM     27  C   UNL     1      10.914  40.031  21.656  1.00  0.00     0.279 C 
ENDBRANCH   9  26
BRANCH  10  28
ATOM     28  O   UNL     1       9.570  43.159  20.908  1.00  0.00    -0.490 OA
ATOM     29  C   UNL     1       8.876  42.981  19.679  1.00  0.00     0.278 C 
ENDBRANCH  10  28
TORSDOF 7
ENDMDL
MODEL 3
REMARK VINA RESULT:    -4.574      4.901      8.671
REMARK INTER + INTRA:          -7.124
REMARK INTER:                  -6.397
REMARK INTRA:                  -0.727
REMARK UNBOUND:                -0.679
REMARK SMILES COc1ccc(-c2cc(=O)c3c(OC)c(OC)c(OC)c(OC)c3o2)cc1OC
REMARK SMILES IDX 7 1 8 2 9 3 10 4 11 5 24 6 25 7 21 8 18 9 15 10 12 11 6 12
REMARK SMILES IDX 3 13 27 14 4 15 26 16 5 17 2 18 1 19 28 20 29 21 22 22 23 23
REMARK SMILES IDX 13 24 14 25 19 26 20 27 16 28 17 29
REMARK H PARENT
REMARK Flexibility Score: inf
ROOT
ATOM      1  C   UNL     1      13.815  44.708  21.684  1.00  0.00     0.138 A 
ATOM      2  C   UNL     1      12.540  45.236  21.461  1.00  0.00     0.100 A 
ATOM      3  C   UNL     1      11.527  44.402  20.996  1.00  0.00     0.197 A 
ATOM      4  O   UNL     1      10.382  44.895  20.808  1.00  0.00    -0.289 OA
ATOM      5  C   UNL     1      11.797  43.034  20.751  1.00  0.00     0.115 A 
ATOM      6  C   UNL     1      13.115  42.572  20.998  1.00  0.00     0.188 A 
ATOM      7  O   UNL     1      14.039  43.418  21.448  1.00  0.00    -0.452 OA
ATOM      8  C   UNL     1      13.444  41.217  20.770  1.00  0.00     0.209 A 
ATOM      9  C   UNL     1      12.447  40.321  20.348  1.00  0.00     0.211 A 
ATOM     10  C   UNL     1      11.135  40.776  20.066  1.00  0.00     0.208 A 
ATOM     11  C   UNL     1      10.805  42.134  20.291  1.00  0.00     0.179 A 
ENDROOT
BRANCH   1  12
ATOM     12  C   UNL     1      14.921  45.552  22.203  1.00  0.00     0.021 A 
ATOM     13  C   UNL     1      17.044  47.115  23.216  1.00  0.00     0.160 A 
ATOM     14  C   UNL     1      17.235  45.746  22.975  1.00  0.00     0.161 A 
ATOM     15  C   UNL     1      15.798  47.702  22.931  1.00  0.00     0.051 A 
ATOM     16  C   UNL     1      16.173  44.973  22.469  1.00  0.00     0.062 A 
ATOM     17  C   UNL     1      14.750  46.930  22.425  1.00  0.00     0.016 A 
BRANCH  13  18
ATOM     18  O   UNL     1      18.116  47.857  23.736  1.00  0.00    -0.493 OA
ATOM     19  C   UNL     1      18.315  48.125  25.120  1.00  0.00     0.278 C 
ENDBRANCH  13  18
BRANCH  14  20
ATOM     20  O   UNL     1      18.496  45.190  23.251  1.00  0.00    -0.493 OA
ATOM     21  C   UNL     1      19.470  44.869  22.263  1.00  0.00     0.278 C 
ENDBRANCH  14  20
ENDBRANCH   1  12
BRANCH   8  22
ATOM     22  O   UNL     1      14.747  40.700  20.915  1.00  0.00    -0.490 OA
ATOM     23  C   UNL     1      15.756  40.629  19.915  1.00  0.00     0.278 C 
ENDBRANCH   8  22
BRANCH  11  24
ATOM     24  O   UNL     1       9.509  42.637  20.056  1.00  0.00    -0.492 OA
ATOM     25  C   UNL     1       8.875  42.786  18.788  1.00  0.00     0.278 C 
ENDBRANCH  11  24
BRANCH   9  26
ATOM     26  O   UNL     1      12.772  38.970  20.188  1.00  0.00    -0.490 OA
ATOM     27  C   UNL     1      12.518  37.993  21.193  1.00  0.00     0.279 C 
ENDBRANCH   9  26
BRANCH  10  28
ATOM     28  O   UNL     1      10.136  39.930  19.547  1.00  0.00    -0.490 OA
ATOM     29  C   UNL     1       9.075  39.309  20.263  1.00  0.00     0.278 C 
ENDBRANCH  10  28
TORSDOF 7
ENDMDL
MODEL 4
REMARK VINA RESULT:    -4.024      6.079      8.488
REMARK INTER + INTRA:          -6.349
REMARK INTER:                  -5.732
REMARK INTRA:                  -0.617
REMARK UNBOUND:                -0.679
REMARK SMILES COc1ccc(-c2cc(=O)c3c(OC)c(OC)c(OC)c(OC)c3o2)cc1OC
REMARK SMILES IDX 7 1 8 2 9 3 10 4 11 5 24 6 25 7 21 8 18 9 15 10 12 11 6 12
REMARK SMILES IDX 3 13 27 14 4 15 26 16 5 17 2 18 1 19 28 20 29 21 22 22 23 23
REMARK SMILES IDX 13 24 14 25 19 26 20 27 16 28 17 29
REMARK H PARENT
REMARK Flexibility Score: inf
ROOT
ATOM      1  C   UNL     1      14.936  44.758  22.134  1.00  0.00     0.138 A 
ATOM      2  C   UNL     1      14.043  45.832  22.080  1.00  0.00     0.100 A 
ATOM      3  C   UNL     1      12.754  45.626  21.597  1.00  0.00     0.197 A 
ATOM      4  O   UNL     1      11.961  46.605  21.563  1.00  0.00    -0.289 OA
ATOM      5  C   UNL     1      12.362  44.336  21.163  1.00  0.00     0.115 A 
ATOM      6  C   UNL     1      13.323  43.297  21.245  1.00  0.00     0.188 A 
ATOM      7  O   UNL     1      14.539  43.557  21.722  1.00  0.00    -0.452 OA
ATOM      8  C   UNL     1      12.989  41.990  20.826  1.00  0.00     0.209 A 
ATOM      9  C   UNL     1      11.686  41.715  20.377  1.00  0.00     0.211 A 
ATOM     10  C   UNL     1      10.727  42.750  20.259  1.00  0.00     0.208 A 
ATOM     11  C   UNL     1      11.061  44.062  20.676  1.00  0.00     0.179 A 
ENDROOT
BRANCH   1  12
ATOM     12  C   UNL     1      16.313  44.924  22.664  1.00  0.00     0.021 A 
ATOM     13  C   UNL     1      18.950  45.198  23.639  1.00  0.00     0.160 A 
ATOM     14  C   UNL     1      18.732  44.757  22.325  1.00  0.00     0.161 A 
ATOM     15  C   UNL     1      17.849  45.520  24.455  1.00  0.00     0.051 A 
ATOM     16  C   UNL     1      17.415  44.624  21.844  1.00  0.00     0.062 A 
ATOM     17  C   UNL     1      16.546  45.389  23.970  1.00  0.00     0.016 A 
BRANCH  13  18
ATOM     18  O   UNL     1      20.272  45.306  24.096  1.00  0.00    -0.493 OA
ATOM     19  C   UNL     1      20.674  45.131  25.451  1.00  0.00     0.278 C 
ENDBRANCH  13  18
BRANCH  14  20
ATOM     20  O   UNL     1      19.849  44.462  21.527  1.00  0.00    -0.493 OA
ATOM     21  C   UNL     1      20.315  45.277  20.456  1.00  0.00     0.278 C 
ENDBRANCH  14  20
ENDBRANCH   1  12
BRANCH   8  22
ATOM     22  O   UNL     1      13.911  40.924  20.801  1.00  0.00    -0.490 OA
ATOM     23  C   UNL     1      14.963  40.722  19.865  1.00  0.00     0.278 C 
ENDBRANCH   8  22
BRANCH  11  24
ATOM     24  O   UNL     1      10.138  45.126  20.609  1.00  0.00    -0.492 OA
ATOM     25  C   UNL     1       8.875  45.194  21.266  1.00  0.00     0.278 C 
ENDBRANCH  11  24
BRANCH   9  26
ATOM     26  O   UNL     1      11.353  40.403  20.025  1.00  0.00    -0.490 OA
ATOM     27  C   UNL     1      11.542  39.889  18.710  1.00  0.00     0.279 C 
ENDBRANCH   9  26
BRANCH  10  28
ATOM     28  O   UNL     1       9.444  42.535  19.720  1.00  0.00    -0.490 OA
ATOM     29  C   UNL     1       9.089  42.456  18.344  1.00  0.00     0.278 C 
ENDBRANCH  10  28
TORSDOF 7
ENDMDL
MODEL 5
REMARK VINA RESULT:    -3.536      1.139      3.680
REMARK INTER + INTRA:          -5.662
REMARK INTER:                  -6.353
REMARK INTRA:                   0.691
REMARK UNBOUND:                -0.679
REMARK SMILES COc1ccc(-c2cc(=O)c3c(OC)c(OC)c(OC)c(OC)c3o2)cc1OC
REMARK SMILES IDX 7 1 8 2 9 3 10 4 11 5 24 6 25 7 21 8 18 9 15 10 12 11 6 12
REMARK SMILES IDX 3 13 27 14 4 15 26 16 5 17 2 18 1 19 28 20 29 21 22 22 23 23
REMARK SMILES IDX 13 24 14 25 19 26 20 27 16 28 17 29
REMARK H PARENT
REMARK Flexibility Score: inf
ROOT
ATOM      1  C   UNL     1      11.220  37.943  25.113  1.00  0.00     0.138 A 
ATOM      2  C   UNL     1      10.042  37.804  24.372  1.00  0.00     0.100 A 
ATOM      3  C   UNL     1       9.946  38.407  23.122  1.00  0.00     0.197 A 
ATOM      4  O   UNL     1       8.879  38.263  22.467  1.00  0.00    -0.289 OA
ATOM      5  C   UNL     1      11.035  39.155  22.614  1.00  0.00     0.115 A 
ATOM      6  C   UNL     1      12.196  39.255  23.423  1.00  0.00     0.188 A 
ATOM      7  O   UNL     1      12.229  38.650  24.609  1.00  0.00    -0.452 OA
ATOM      8  C   UNL     1      13.314  39.989  22.970  1.00  0.00     0.209 A 
ATOM      9  C   UNL     1      13.289  40.576  21.693  1.00  0.00     0.211 A 
ATOM     10  C   UNL     1      12.124  40.513  20.889  1.00  0.00     0.208 A 
ATOM     11  C   UNL     1      11.002  39.779  21.344  1.00  0.00     0.179 A 
ENDROOT
BRANCH   1  12
ATOM     12  C   UNL     1      11.379  37.298  26.441  1.00  0.00     0.021 A 
ATOM     13  C   UNL     1      11.707  36.030  28.944  1.00  0.00     0.160 A 
ATOM     14  C   UNL     1      12.662  35.841  27.932  1.00  0.00     0.161 A 
ATOM     15  C   UNL     1      10.602  36.869  28.706  1.00  0.00     0.051 A 
ATOM     16  C   UNL     1      12.493  36.477  26.687  1.00  0.00     0.062 A 
ATOM     17  C   UNL     1      10.444  37.499  27.471  1.00  0.00     0.016 A 
BRANCH  13  18
ATOM     18  O   UNL     1      11.894  35.371  30.168  1.00  0.00    -0.493 OA
ATOM     19  C   UNL     1      12.284  34.008  30.299  1.00  0.00     0.278 C 
ENDBRANCH  13  18
BRANCH  14  20
ATOM     20  O   UNL     1      13.765  35.015  28.202  1.00  0.00    -0.493 OA
ATOM     21  C   UNL     1      14.078  33.825  27.484  1.00  0.00     0.278 C 
ENDBRANCH  14  20
ENDBRANCH   1  12
BRANCH   8  22
ATOM     22  O   UNL     1      14.470  40.201  23.747  1.00  0.00    -0.490 OA
ATOM     23  C   UNL     1      14.850  39.503  24.927  1.00  0.00     0.278 C 
ENDBRANCH   8  22
BRANCH  11  24
ATOM     24  O   UNL     1       9.827  39.657  20.574  1.00  0.00    -0.492 OA
ATOM     25  C   UNL     1       8.907  40.699  20.261  1.00  0.00     0.278 C 
ENDBRANCH  11  24
BRANCH   9  26
ATOM     26  O   UNL     1      14.426  41.248  21.233  1.00  0.00    -0.490 OA
ATOM     27  C   UNL     1      14.544  42.667  21.259  1.00  0.00     0.279 C 
ENDBRANCH   9  26
BRANCH  10  28
ATOM     28  O   UNL     1      12.024  41.172  19.648  1.00  0.00    -0.490 OA
ATOM     29  C   UNL     1      12.202  40.606  18.355  1.00  0.00     0.278 C 
ENDBRANCH  10  28
TORSDOF 7
ENDMDL
MODEL 6
REMARK VINA RESULT:    -3.149      5.334      8.407
REMARK INTER + INTRA:          -5.116
REMARK INTER:                  -4.796
REMARK INTRA:                  -0.320
REMARK UNBOUND:                -0.679
REMARK SMILES COc1ccc(-c2cc(=O)c3c(OC)c(OC)c(OC)c(OC)c3o2)cc1OC
REMARK SMILES IDX 7 1 8 2 9 3 10 4 11 5 24 6 25 7 21 8 18 9 15 10 12 11 6 12
REMARK SMILES IDX 3 13 27 14 4 15 26 16 5 17 2 18 1 19 28 20 29 21 22 22 23 23
REMARK SMILES IDX 13 24 14 25 19 26 20 27 16 28 17 29
REMARK H PARENT
REMARK Flexibility Score: inf
ROOT
ATOM      1  C   UNL     1      14.729  43.762  21.566  1.00  0.00     0.138 A 
ATOM      2  C   UNL     1      15.291  42.492  21.403  1.00  0.00     0.100 A 
ATOM      3  C   UNL     1      14.519  41.466  20.866  1.00  0.00     0.197 A 
ATOM      4  O   UNL     1      15.046  40.331  20.721  1.00  0.00    -0.289 OA
ATOM      5  C   UNL     1      13.176  41.716  20.495  1.00  0.00     0.115 A 
ATOM      6  C   UNL     1      12.674  43.027  20.692  1.00  0.00     0.188 A 
ATOM      7  O   UNL     1      13.465  43.968  21.205  1.00  0.00    -0.452 OA
ATOM      8  C   UNL     1      11.341  43.335  20.341  1.00  0.00     0.209 A 
ATOM      9  C   UNL     1      10.532  42.350  19.749  1.00  0.00     0.211 A 
ATOM     10  C   UNL     1      11.010  41.027  19.577  1.00  0.00     0.208 A 
ATOM     11  C   UNL     1      12.346  40.717  19.931  1.00  0.00     0.179 A 
ENDROOT
BRANCH   1  12
ATOM     12  C   UNL     1      15.520  44.893  22.112  1.00  0.00     0.021 A 
ATOM     13  C   UNL     1      17.060  47.011  23.172  1.00  0.00     0.160 A 
ATOM     14  C   UNL     1      17.688  45.824  22.763  1.00  0.00     0.161 A 
ATOM     15  C   UNL     1      15.666  47.142  23.030  1.00  0.00     0.051 A 
ATOM     16  C   UNL     1      16.914  44.773  22.235  1.00  0.00     0.062 A 
ATOM     17  C   UNL     1      14.907  46.097  22.501  1.00  0.00     0.016 A 
BRANCH  13  18
ATOM     18  O   UNL     1      17.855  48.035  23.709  1.00  0.00    -0.493 OA
ATOM     19  C   UNL     1      18.238  48.125  25.077  1.00  0.00     0.278 C 
ENDBRANCH  13  18
BRANCH  14  20
ATOM     20  O   UNL     1      19.083  45.728  22.897  1.00  0.00    -0.493 OA
ATOM     21  C   UNL     1      19.878  44.687  22.336  1.00  0.00     0.278 C 
ENDBRANCH  14  20
ENDBRANCH   1  12
BRANCH   8  22
ATOM     22  O   UNL     1      10.745  44.590  20.580  1.00  0.00    -0.490 OA
ATOM     23  C   UNL     1       9.745  44.894  21.545  1.00  0.00     0.278 C 
ENDBRANCH   8  22
BRANCH  11  24
ATOM     24  O   UNL     1      12.885  39.426  19.755  1.00  0.00    -0.492 OA
ATOM     25  C   UNL     1      12.704  38.307  20.619  1.00  0.00     0.278 C 
ENDBRANCH  11  24
BRANCH   9  26
ATOM     26  O   UNL     1       9.235  42.686  19.349  1.00  0.00    -0.490 OA
ATOM     27  C   UNL     1       8.875  42.872  17.982  1.00  0.00     0.279 C 
ENDBRANCH   9  26
BRANCH  10  28
ATOM     28  O   UNL     1      10.200  39.988  19.079  1.00  0.00    -0.490 OA
ATOM     29  C   UNL     1      10.230  39.421  17.775  1.00  0.00     0.278 C 
ENDBRANCH  10  28
TORSDOF 7
ENDMDL
MODEL 7
REMARK VINA RESULT:    -2.567      1.624      7.906
REMARK INTER + INTRA:          -4.296
REMARK INTER:                  -4.587
REMARK INTRA:                   0.291
REMARK UNBOUND:                -0.679
REMARK SMILES COc1ccc(-c2cc(=O)c3c(OC)c(OC)c(OC)c(OC)c3o2)cc1OC
REMARK SMILES IDX 7 1 8 2 9 3 10 4 11 5 24 6 25 7 21 8 18 9 15 10 12 11 6 12
REMARK SMILES IDX 3 13 27 14 4 15 26 16 5 17 2 18 1 19 28 20 29 21 22 22 23 23
REMARK SMILES IDX 13 24 14 25 19 26 20 27 16 28 17 29
REMARK H PARENT
REMARK Flexibility Score: inf
ROOT
ATOM      1  C   UNL     1      12.588  38.839  23.204  1.00  0.00     0.138 A 
ATOM      2  C   UNL     1      13.914  38.789  23.643  1.00  0.00     0.100 A 
ATOM      3  C   UNL     1      14.207  38.198  24.869  1.00  0.00     0.197 A 
ATOM      4  O   UNL     1      15.410  38.157  25.244  1.00  0.00    -0.289 OA
ATOM      5  C   UNL     1      13.163  37.657  25.658  1.00  0.00     0.115 A 
ATOM      6  C   UNL     1      11.843  37.747  25.148  1.00  0.00     0.188 A 
ATOM      7  O   UNL     1      11.628  38.320  23.966  1.00  0.00    -0.452 OA
ATOM      8  C   UNL     1      10.761  37.226  25.892  1.00  0.00     0.209 A 
ATOM      9  C   UNL     1      11.005  36.574  27.112  1.00  0.00     0.211 A 
ATOM     10  C   UNL     1      12.315  36.507  27.649  1.00  0.00     0.208 A 
ATOM     11  C   UNL     1      13.400  37.032  26.905  1.00  0.00     0.179 A 
ENDROOT
BRANCH   1  12
ATOM     12  C   UNL     1      12.229  39.437  21.894  1.00  0.00     0.021 A 
ATOM     13  C   UNL     1      11.546  40.626  19.424  1.00  0.00     0.160 A 
ATOM     14  C   UNL     1      12.323  41.336  20.352  1.00  0.00     0.161 A 
ATOM     15  C   UNL     1      11.131  39.315  19.726  1.00  0.00     0.051 A 
ATOM     16  C   UNL     1      12.661  40.738  21.581  1.00  0.00     0.062 A 
ATOM     17  C   UNL     1      11.474  38.727  20.945  1.00  0.00     0.016 A 
BRANCH  13  18
ATOM     18  O   UNL     1      11.211  41.253  18.214  1.00  0.00    -0.493 OA
ATOM     19  C   UNL     1       9.954  41.864  17.944  1.00  0.00     0.278 C 
ENDBRANCH  13  18
BRANCH  14  20
ATOM     20  O   UNL     1      12.740  42.635  20.017  1.00  0.00    -0.493 OA
ATOM     21  C   UNL     1      12.350  43.814  20.714  1.00  0.00     0.278 C 
ENDBRANCH  14  20
ENDBRANCH   1  12
BRANCH   8  22
ATOM     22  O   UNL     1       9.415  37.348  25.492  1.00  0.00    -0.490 OA
ATOM     23  C   UNL     1       8.875  37.074  24.205  1.00  0.00     0.278 C 
ENDBRANCH   8  22
BRANCH  11  24
ATOM     24  O   UNL     1      14.729  36.967  27.375  1.00  0.00    -0.492 OA
ATOM     25  C   UNL     1      15.459  38.021  27.996  1.00  0.00     0.278 C 
ENDBRANCH  11  24
BRANCH   9  26
ATOM     26  O   UNL     1       9.931  36.009  27.807  1.00  0.00    -0.490 OA
ATOM     27  C   UNL     1       9.261  34.833  27.361  1.00  0.00     0.279 C 
ENDBRANCH   9  26
BRANCH  10  28
ATOM     28  O   UNL     1      12.587  35.952  28.914  1.00  0.00    -0.490 OA
ATOM     29  C   UNL     1      12.623  34.572  29.259  1.00  0.00     0.278 C 
ENDBRANCH  10  28
TORSDOF 7
ENDMDL
