MODEL 1
REMARK VINA RESULT:    -3.506      0.000      0.000
REMARK INTER + INTRA:          -5.947
REMARK INTER:                  -5.351
REMARK INTRA:                  -0.597
REMARK UNBOUND:                -0.597
REMARK SMILES O=C([O-])CCCCCCCCC(=O)[O-]
REMARK SMILES IDX 7 1 6 2 5 3 4 4 2 5 1 6 3 7 8 8 9 9 10 10 11 11 12 12 13 13
REMARK SMILES IDX 14 14
REMARK H PARENT
REMARK Flexibility Score: inf
ROOT
ATOM      1  C   UNL     1       9.160  -3.883  19.366  1.00  0.00     0.000 C 
ENDROOT
BRANCH   1   2
ATOM      2  C   UNL     1       9.708  -5.199  19.947  1.00  0.00     0.000 C 
BRANCH   2   3
ATOM      3  C   UNL     1       9.371  -6.422  19.081  1.00  0.00     0.006 C 
BRANCH   3   4
ATOM      4  C   UNL     1       8.228  -6.108  18.111  1.00  0.00     0.053 C 
BRANCH   4   5
ATOM      5  C   UNL     1       8.202  -7.103  16.993  1.00  0.00     0.041 C 
ATOM      6  O   UNL     1       7.602  -8.200  17.136  1.00  0.00    -0.550 OA
ATOM      7  O   UNL     1       8.882  -6.838  15.811  1.00  0.00    -0.550 OA
ENDBRANCH   4   5
ENDBRANCH   3   4
ENDBRANCH   2   3
ENDBRANCH   1   2
BRANCH   1   8
ATOM      8  C   UNL     1       8.513  -2.940  20.396  1.00  0.00     0.000 C 
BRANCH   8   9
ATOM      9  C   UNL     1       7.415  -2.051  19.785  1.00  0.00     0.000 C 
BRANCH   9  10
ATOM     10  C   UNL     1       6.495  -2.826  18.827  1.00  0.00     0.006 C 
BRANCH  10  11
ATOM     11  C   UNL     1       5.607  -1.900  17.986  1.00  0.00     0.053 C 
BRANCH  11  12
ATOM     12  C   UNL     1       5.930  -2.046  16.532  1.00  0.00     0.041 C 
ATOM     13  O   UNL     1       5.095  -1.690  15.660  1.00  0.00    -0.550 OA
ATOM     14  O   UNL     1       7.132  -2.621  16.142  1.00  0.00    -0.550 OA
ENDBRANCH  11  12
ENDBRANCH  10  11
ENDBRANCH   9  10
ENDBRANCH   8   9
ENDBRANCH   1   8
TORSDOF 9
ENDMDL
MODEL 2
REMARK VINA RESULT:    -3.465      0.342      4.950
REMARK INTER + INTRA:          -5.886
REMARK INTER:                  -5.243
REMARK INTRA:                  -0.642
REMARK UNBOUND:                -0.597
REMARK SMILES O=C([O-])CCCCCCCCC(=O)[O-]
REMARK SMILES IDX 7 1 6 2 5 3 4 4 2 5 1 6 3 7 8 8 9 9 10 10 11 11 12 12 13 13
REMARK SMILES IDX 14 14
REMARK H PARENT
REMARK Flexibility Score: inf
ROOT
ATOM      1  C   UNL     1       8.800  -2.758  19.974  1.00  0.00     0.000 C 
ENDROOT
BRANCH   1   2
ATOM      2  C   UNL     1       7.287  -2.478  19.990  1.00  0.00     0.000 C 
BRANCH   2   3
ATOM      3  C   UNL     1       6.564  -3.024  18.750  1.00  0.00     0.006 C 
BRANCH   3   4
ATOM      4  C   UNL     1       5.833  -1.904  18.004  1.00  0.00     0.053 C 
BRANCH   4   5
ATOM      5  C   UNL     1       6.033  -2.041  16.527  1.00  0.00     0.041 C 
ATOM      6  O   UNL     1       5.097  -1.760  15.733  1.00  0.00    -0.550 OA
ATOM      7  O   UNL     1       7.236  -2.526  16.030  1.00  0.00    -0.550 OA
ENDBRANCH   4   5
ENDBRANCH   3   4
ENDBRANCH   2   3
ENDBRANCH   1   2
BRANCH   1   8
ATOM      8  C   UNL     1       9.237  -3.910  19.051  1.00  0.00     0.000 C 
BRANCH   8   9
ATOM      9  C   UNL     1       9.766  -5.129  19.828  1.00  0.00     0.000 C 
BRANCH   9  10
ATOM     10  C   UNL     1       9.326  -6.463  19.202  1.00  0.00     0.006 C 
BRANCH  10  11
ATOM     11  C   UNL     1       8.297  -6.276  18.079  1.00  0.00     0.053 C 
BRANCH  11  12
ATOM     12  C   UNL     1       8.410  -7.382  17.078  1.00  0.00     0.041 C 
ATOM     13  O   UNL     1       8.776  -7.134  15.900  1.00  0.00    -0.550 OA
ATOM     14  O   UNL     1       8.064  -8.679  17.434  1.00  0.00    -0.550 OA
ENDBRANCH  11  12
ENDBRANCH  10  11
ENDBRANCH   9  10
ENDBRANCH   8   9
ENDBRANCH   1   8
TORSDOF 9
ENDMDL
MODEL 3
REMARK VINA RESULT:    -3.357      0.990      1.361
REMARK INTER + INTRA:          -5.721
REMARK INTER:                  -5.101
REMARK INTRA:                  -0.619
REMARK UNBOUND:                -0.597
REMARK SMILES O=C([O-])CCCCCCCCC(=O)[O-]
REMARK SMILES IDX 7 1 6 2 5 3 4 4 2 5 1 6 3 7 8 8 9 9 10 10 11 11 12 12 13 13
REMARK SMILES IDX 14 14
REMARK H PARENT
REMARK Flexibility Score: inf
ROOT
ATOM      1  C   UNL     1       9.039  -2.607  20.300  1.00  0.00     0.000 C 
ENDROOT
BRANCH   1   2
ATOM      2  C   UNL     1       9.488  -4.011  19.859  1.00  0.00     0.000 C 
BRANCH   2   3
ATOM      3  C   UNL     1       9.243  -4.277  18.366  1.00  0.00     0.006 C 
BRANCH   3   4
ATOM      4  C   UNL     1       8.018  -5.173  18.163  1.00  0.00     0.053 C 
BRANCH   4   5
ATOM      5  C   UNL     1       8.439  -6.587  17.915  1.00  0.00     0.041 C 
ATOM      6  O   UNL     1       9.535  -7.010  18.368  1.00  0.00    -0.550 OA
ATOM      7  O   UNL     1       7.643  -7.425  17.144  1.00  0.00    -0.550 OA
ENDBRANCH   4   5
ENDBRANCH   3   4
ENDBRANCH   2   3
ENDBRANCH   1   2
BRANCH   1   8
ATOM      8  C   UNL     1       7.519  -2.442  20.487  1.00  0.00     0.000 C 
BRANCH   8   9
ATOM      9  C   UNL     1       6.893  -1.480  19.461  1.00  0.00     0.000 C 
BRANCH   9  10
ATOM     10  C   UNL     1       5.751  -2.130  18.664  1.00  0.00     0.006 C 
BRANCH  10  11
ATOM     11  C   UNL     1       5.237  -1.232  17.531  1.00  0.00     0.053 C 
BRANCH  11  12
ATOM     12  C   UNL     1       5.670  -1.769  16.203  1.00  0.00     0.041 C 
ATOM     13  O   UNL     1       4.899  -1.698  15.211  1.00  0.00    -0.550 OA
ATOM     14  O   UNL     1       6.904  -2.391  16.073  1.00  0.00    -0.550 OA
ENDBRANCH  11  12
ENDBRANCH  10  11
ENDBRANCH   9  10
ENDBRANCH   8   9
ENDBRANCH   1   8
TORSDOF 9
ENDMDL
MODEL 4
REMARK VINA RESULT:    -3.224      1.346      5.139
REMARK INTER + INTRA:          -5.518
REMARK INTER:                  -4.896
REMARK INTRA:                  -0.622
REMARK UNBOUND:                -0.597
REMARK SMILES O=C([O-])CCCCCCCCC(=O)[O-]
REMARK SMILES IDX 7 1 6 2 5 3 4 4 2 5 1 6 3 7 8 8 9 9 10 10 11 11 12 12 13 13
REMARK SMILES IDX 14 14
REMARK H PARENT
REMARK Flexibility Score: inf
ROOT
ATOM      1  C   UNL     1       7.530  -1.819  19.507  1.00  0.00     0.000 C 
ENDROOT
BRANCH   1   2
ATOM      2  C   UNL     1       6.226  -2.529  19.101  1.00  0.00     0.000 C 
BRANCH   2   3
ATOM      3  C   UNL     1       5.385  -1.715  18.106  1.00  0.00     0.006 C 
BRANCH   3   4
ATOM      4  C   UNL     1       5.909  -1.887  16.677  1.00  0.00     0.053 C 
BRANCH   4   5
ATOM      5  C   UNL     1       5.164  -0.993  15.736  1.00  0.00     0.041 C 
ATOM      6  O   UNL     1       4.743  -1.441  14.637  1.00  0.00    -0.550 OA
ATOM      7  O   UNL     1       4.978   0.347  16.050  1.00  0.00    -0.550 OA
ENDBRANCH   4   5
ENDBRANCH   3   4
ENDBRANCH   2   3
ENDBRANCH   1   2
BRANCH   1   8
ATOM      8  C   UNL     1       8.146  -2.303  20.832  1.00  0.00     0.000 C 
BRANCH   8   9
ATOM      9  C   UNL     1       9.530  -2.951  20.645  1.00  0.00     0.000 C 
BRANCH   9  10
ATOM     10  C   UNL     1       9.706  -3.573  19.251  1.00  0.00     0.006 C 
BRANCH  10  11
ATOM     11  C   UNL     1       9.342  -5.063  19.221  1.00  0.00     0.053 C 
BRANCH  11  12
ATOM     12  C   UNL     1       8.501  -5.371  18.023  1.00  0.00     0.041 C 
ATOM     13  O   UNL     1       8.372  -4.521  17.105  1.00  0.00    -0.550 OA
ATOM     14  O   UNL     1       7.818  -6.578  17.945  1.00  0.00    -0.550 OA
ENDBRANCH  11  12
ENDBRANCH  10  11
ENDBRANCH   9  10
ENDBRANCH   8   9
ENDBRANCH   1   8
TORSDOF 9
ENDMDL
MODEL 5
REMARK VINA RESULT:    -3.216      1.293      5.049
REMARK INTER + INTRA:          -5.505
REMARK INTER:                  -4.887
REMARK INTRA:                  -0.618
REMARK UNBOUND:                -0.597
REMARK SMILES O=C([O-])CCCCCCCCC(=O)[O-]
REMARK SMILES IDX 7 1 6 2 5 3 4 4 2 5 1 6 3 7 8 8 9 9 10 10 11 11 12 12 13 13
REMARK SMILES IDX 14 14
REMARK H PARENT
REMARK Flexibility Score: inf
ROOT
ATOM      1  C   UNL     1       7.613  -2.677  20.350  1.00  0.00     0.000 C 
ENDROOT
BRANCH   1   2
ATOM      2  C   UNL     1       6.553  -2.773  19.238  1.00  0.00     0.000 C 
BRANCH   2   3
ATOM      3  C   UNL     1       6.048  -1.400  18.772  1.00  0.00     0.006 C 
BRANCH   3   4
ATOM      4  C   UNL     1       6.737  -0.974  17.472  1.00  0.00     0.053 C 
BRANCH   4   5
ATOM      5  C   UNL     1       6.401  -1.924  16.366  1.00  0.00     0.041 C 
ATOM      6  O   UNL     1       7.271  -2.725  15.932  1.00  0.00    -0.550 OA
ATOM      7  O   UNL     1       5.141  -1.893  15.782  1.00  0.00    -0.550 OA
ENDBRANCH   4   5
ENDBRANCH   3   4
ENDBRANCH   2   3
ENDBRANCH   1   2
BRANCH   1   8
ATOM      8  C   UNL     1       9.046  -2.406  19.858  1.00  0.00     0.000 C 
BRANCH   8   9
ATOM      9  C   UNL     1      10.092  -3.304  20.542  1.00  0.00     0.000 C 
BRANCH   9  10
ATOM     10  C   UNL     1      10.552  -4.463  19.644  1.00  0.00     0.006 C 
BRANCH  10  11
ATOM     11  C   UNL     1       9.793  -5.766  19.929  1.00  0.00     0.053 C 
BRANCH  11  12
ATOM     12  C   UNL     1       9.142  -6.276  18.682  1.00  0.00     0.041 C 
ATOM     13  O   UNL     1       9.345  -7.458  18.300  1.00  0.00    -0.550 OA
ATOM     14  O   UNL     1       8.353  -5.430  17.915  1.00  0.00    -0.550 OA
ENDBRANCH  11  12
ENDBRANCH  10  11
ENDBRANCH   9  10
ENDBRANCH   8   9
ENDBRANCH   1   8
TORSDOF 9
ENDMDL
MODEL 6
REMARK VINA RESULT:    -3.180      1.343      2.157
REMARK INTER + INTRA:          -5.449
REMARK INTER:                  -4.819
REMARK INTRA:                  -0.631
REMARK UNBOUND:                -0.597
REMARK SMILES O=C([O-])CCCCCCCCC(=O)[O-]
REMARK SMILES IDX 7 1 6 2 5 3 4 4 2 5 1 6 3 7 8 8 9 9 10 10 11 11 12 12 13 13
REMARK SMILES IDX 14 14
REMARK H PARENT
REMARK Flexibility Score: inf
ROOT
ATOM      1  C   UNL     1       7.682  -2.709  20.380  1.00  0.00     0.000 C 
ENDROOT
BRANCH   1   2
ATOM      2  C   UNL     1       9.117  -2.995  19.902  1.00  0.00     0.000 C 
BRANCH   2   3
ATOM      3  C   UNL     1       9.389  -4.492  19.687  1.00  0.00     0.006 C 
BRANCH   3   4
ATOM      4  C   UNL     1       8.551  -5.040  18.528  1.00  0.00     0.053 C 
BRANCH   4   5
ATOM      5  C   UNL     1       8.808  -6.503  18.343  1.00  0.00     0.041 C 
ATOM      6  O   UNL     1       9.809  -7.043  18.881  1.00  0.00    -0.550 OA
ATOM      7  O   UNL     1       7.968  -7.259  17.535  1.00  0.00    -0.550 OA
ENDBRANCH   4   5
ENDBRANCH   3   4
ENDBRANCH   2   3
ENDBRANCH   1   2
BRANCH   1   8
ATOM      8  C   UNL     1       6.946  -1.606  19.597  1.00  0.00     0.000 C 
BRANCH   8   9
ATOM      9  C   UNL     1       5.956  -2.169  18.562  1.00  0.00     0.000 C 
BRANCH   9  10
ATOM     10  C   UNL     1       6.603  -2.387  17.185  1.00  0.00     0.006 C 
BRANCH  10  11
ATOM     11  C   UNL     1       6.628  -1.108  16.336  1.00  0.00     0.053 C 
BRANCH  11  12
ATOM     12  C   UNL     1       5.276  -0.843  15.752  1.00  0.00     0.041 C 
ATOM     13  O   UNL     1       4.789  -1.633  14.902  1.00  0.00    -0.550 OA
ATOM     14  O   UNL     1       4.578   0.302  16.108  1.00  0.00    -0.550 OA
ENDBRANCH  11  12
ENDBRANCH  10  11
ENDBRANCH   9  10
ENDBRANCH   8   9
ENDBRANCH   1   8
TORSDOF 9
ENDMDL
MODEL 7
REMARK VINA RESULT:    -3.179      1.739      4.725
REMARK INTER + INTRA:          -5.448
REMARK INTER:                  -4.571
REMARK INTRA:                  -0.876
REMARK UNBOUND:                -0.597
REMARK SMILES O=C([O-])CCCCCCCCC(=O)[O-]
REMARK SMILES IDX 7 1 6 2 5 3 4 4 2 5 1 6 3 7 8 8 9 9 10 10 11 11 12 12 13 13
REMARK SMILES IDX 14 14
REMARK H PARENT
REMARK Flexibility Score: inf
ROOT
ATOM      1  C   UNL     1      10.639  -3.572  20.969  1.00  0.00     0.000 C 
ENDROOT
BRANCH   1   2
ATOM      2  C   UNL     1       9.741  -2.569  20.221  1.00  0.00     0.000 C 
BRANCH   2   3
ATOM      3  C   UNL     1       8.247  -2.770  20.513  1.00  0.00     0.006 C 
BRANCH   3   4
ATOM      4  C   UNL     1       7.419  -1.607  19.958  1.00  0.00     0.053 C 
BRANCH   4   5
ATOM      5  C   UNL     1       6.288  -2.120  19.124  1.00  0.00     0.041 C 
ATOM      6  O   UNL     1       6.221  -3.342  18.831  1.00  0.00    -0.550 OA
ATOM      7  O   UNL     1       5.333  -1.240  18.631  1.00  0.00    -0.550 OA
ENDBRANCH   4   5
ENDBRANCH   3   4
ENDBRANCH   2   3
ENDBRANCH   1   2
BRANCH   1   8
ATOM      8  C   UNL     1      11.124  -4.763  20.123  1.00  0.00     0.000 C 
BRANCH   8   9
ATOM      9  C   UNL     1      10.291  -6.037  20.353  1.00  0.00     0.000 C 
BRANCH   9  10
ATOM     10  C   UNL     1       9.801  -6.666  19.040  1.00  0.00     0.006 C 
BRANCH  10  11
ATOM     11  C   UNL     1       8.567  -5.954  18.470  1.00  0.00     0.053 C 
BRANCH  11  12
ATOM     12  C   UNL     1       8.903  -5.281  17.176  1.00  0.00     0.041 C 
ATOM     13  O   UNL     1       9.092  -5.967  16.137  1.00  0.00    -0.550 OA
ATOM     14  O   UNL     1       9.058  -3.902  17.129  1.00  0.00    -0.550 OA
ENDBRANCH  11  12
ENDBRANCH  10  11
ENDBRANCH   9  10
ENDBRANCH   8   9
ENDBRANCH   1   8
TORSDOF 9
ENDMDL
MODEL 8
REMARK VINA RESULT:    -3.170      7.128      8.236
REMARK INTER + INTRA:          -5.435
REMARK INTER:                  -4.950
REMARK INTRA:                  -0.486
REMARK UNBOUND:                -0.597
REMARK SMILES O=C([O-])CCCCCCCCC(=O)[O-]
REMARK SMILES IDX 7 1 6 2 5 3 4 4 2 5 1 6 3 7 8 8 9 9 10 10 11 11 12 12 13 13
REMARK SMILES IDX 14 14
REMARK H PARENT
REMARK Flexibility Score: inf
ROOT
ATOM      1  C   UNL     1       1.750  -4.098  12.240  1.00  0.00     0.000 C 
ENDROOT
BRANCH   1   2
ATOM      2  C   UNL     1       2.293  -5.439  11.715  1.00  0.00     0.000 C 
BRANCH   2   3
ATOM      3  C   UNL     1       1.798  -6.646  12.527  1.00  0.00     0.006 C 
BRANCH   3   4
ATOM      4  C   UNL     1       2.973  -7.509  12.996  1.00  0.00     0.053 C 
BRANCH   4   5
ATOM      5  C   UNL     1       3.669  -8.127  11.825  1.00  0.00     0.041 C 
ATOM      6  O   UNL     1       3.118  -9.059  11.180  1.00  0.00    -0.550 OA
ATOM      7  O   UNL     1       4.946  -7.709  11.474  1.00  0.00    -0.550 OA
ENDBRANCH   4   5
ENDBRANCH   3   4
ENDBRANCH   2   3
ENDBRANCH   1   2
BRANCH   1   8
ATOM      8  C   UNL     1       0.953  -3.275  11.213  1.00  0.00     0.000 C 
BRANCH   8   9
ATOM      9  C   UNL     1       1.569  -1.889  10.951  1.00  0.00     0.000 C 
BRANCH   9  10
ATOM     10  C   UNL     1       1.384  -0.928  12.137  1.00  0.00     0.006 C 
BRANCH  10  11
ATOM     11  C   UNL     1       2.647  -0.109  12.435  1.00  0.00     0.053 C 
BRANCH  11  12
ATOM     12  C   UNL     1       3.826  -1.014  12.610  1.00  0.00     0.041 C 
ATOM     13  O   UNL     1       3.931  -1.723  13.644  1.00  0.00    -0.550 OA
ATOM     14  O   UNL     1       4.833  -1.035  11.654  1.00  0.00    -0.550 OA
ENDBRANCH  11  12
ENDBRANCH  10  11
ENDBRANCH   9  10
ENDBRANCH   8   9
ENDBRANCH   1   8
TORSDOF 9
ENDMDL
MODEL 9
REMARK VINA RESULT:    -3.135      1.706      2.384
REMARK INTER + INTRA:          -5.381
REMARK INTER:                  -4.738
REMARK INTRA:                  -0.643
REMARK UNBOUND:                -0.597
REMARK SMILES O=C([O-])CCCCCCCCC(=O)[O-]
REMARK SMILES IDX 7 1 6 2 5 3 4 4 2 5 1 6 3 7 8 8 9 9 10 10 11 11 12 12 13 13
REMARK SMILES IDX 14 14
REMARK H PARENT
REMARK Flexibility Score: inf
ROOT
ATOM      1  C   UNL     1      10.796  -3.992  20.273  1.00  0.00     0.000 C 
ENDROOT
BRANCH   1   2
ATOM      2  C   UNL     1      11.125  -5.396  20.812  1.00  0.00     0.000 C 
BRANCH   2   3
ATOM      3  C   UNL     1      10.296  -6.504  20.145  1.00  0.00     0.006 C 
BRANCH   3   4
ATOM      4  C   UNL     1       9.252  -5.909  19.195  1.00  0.00     0.053 C 
BRANCH   4   5
ATOM      5  C   UNL     1       9.044  -6.809  18.017  1.00  0.00     0.041 C 
ATOM      6  O   UNL     1       8.345  -6.425  17.043  1.00  0.00    -0.550 OA
ATOM      7  O   UNL     1       9.582  -8.089  18.017  1.00  0.00    -0.550 OA
ENDBRANCH   4   5
ENDBRANCH   3   4
ENDBRANCH   2   3
ENDBRANCH   1   2
BRANCH   1   8
ATOM      8  C   UNL     1      10.730  -2.886  21.341  1.00  0.00     0.000 C 
BRANCH   8   9
ATOM      9  C   UNL     1       9.475  -2.005  21.212  1.00  0.00     0.000 C 
BRANCH   9  10
ATOM     10  C   UNL     1       8.301  -2.744  20.550  1.00  0.00     0.006 C 
BRANCH  10  11
ATOM     11  C   UNL     1       7.482  -1.838  19.622  1.00  0.00     0.053 C 
BRANCH  11  12
ATOM     12  C   UNL     1       6.416  -2.628  18.929  1.00  0.00     0.041 C 
ATOM     13  O   UNL     1       6.647  -3.805  18.548  1.00  0.00    -0.550 OA
ATOM     14  O   UNL     1       5.184  -2.046  18.660  1.00  0.00    -0.550 OA
ENDBRANCH  11  12
ENDBRANCH  10  11
ENDBRANCH   9  10
ENDBRANCH   8   9
ENDBRANCH   1   8
TORSDOF 9
ENDMDL
