MODEL 1
REMARK VINA RESULT:    -3.636      0.000      0.000
REMARK INTER + INTRA:          -5.334
REMARK INTER:                  -5.018
REMARK INTRA:                  -0.315
REMARK UNBOUND:                -0.315
REMARK SMILES CCCCCCCCO
REMARK SMILES IDX 5 1 4 2 3 3 2 4 1 5 6 6 7 7 8 8 9 9
REMARK H PARENT 9 10
REMARK Flexibility Score: inf
ROOT
ATOM      1  C   UNL     1      30.872  25.265  23.274  1.00  0.00     0.000 C 
ENDROOT
BRANCH   1   2
ATOM      2  C   UNL     1      32.123  26.072  22.893  1.00  0.00    -0.000 C 
BRANCH   2   3
ATOM      3  C   UNL     1      32.005  27.557  23.265  1.00  0.00    -0.000 C 
BRANCH   3   4
ATOM      4  C   UNL     1      31.751  28.416  22.021  1.00  0.00    -0.003 C 
ATOM      5  C   UNL     1      31.181  29.780  22.399  1.00  0.00     0.004 C 
ENDBRANCH   3   4
ENDBRANCH   2   3
ENDBRANCH   1   2
BRANCH   1   6
ATOM      6  C   UNL     1      30.012  24.894  22.053  1.00  0.00     0.002 C 
BRANCH   6   7
ATOM      7  C   UNL     1      28.636  25.579  22.070  1.00  0.00     0.028 C 
BRANCH   7   8
ATOM      8  C   UNL     1      28.411  26.484  20.852  1.00  0.00     0.156 C 
BRANCH   8   9
ATOM      9  O   UNL     1      27.067  26.875  20.784  1.00  0.00    -0.396 OA
ATOM     10  H   UNL     1      27.002  27.545  20.054  1.00  0.00     0.210 HD
ENDBRANCH   8   9
ENDBRANCH   7   8
ENDBRANCH   6   7
ENDBRANCH   1   6
TORSDOF 7
ENDMDL
MODEL 2
REMARK VINA RESULT:    -3.500      2.849      4.288
REMARK INTER + INTRA:          -5.146
REMARK INTER:                  -4.848
REMARK INTRA:                  -0.297
REMARK UNBOUND:                -0.315
REMARK SMILES CCCCCCCCO
REMARK SMILES IDX 5 1 4 2 3 3 2 4 1 5 6 6 7 7 8 8 9 9
REMARK H PARENT 9 10
REMARK Flexibility Score: inf
ROOT
ATOM      1  C   UNL     1      27.306  27.502  23.498  1.00  0.00     0.000 C 
ENDROOT
BRANCH   1   2
ATOM      2  C   UNL     1      28.606  26.867  22.981  1.00  0.00    -0.000 C 
BRANCH   2   3
ATOM      3  C   UNL     1      28.350  25.673  22.050  1.00  0.00    -0.000 C 
BRANCH   3   4
ATOM      4  C   UNL     1      29.664  24.971  21.685  1.00  0.00    -0.003 C 
ATOM      5  C   UNL     1      30.778  25.342  22.659  1.00  0.00     0.004 C 
ENDBRANCH   3   4
ENDBRANCH   2   3
ENDBRANCH   1   2
BRANCH   1   6
ATOM      6  C   UNL     1      26.058  26.681  23.129  1.00  0.00     0.002 C 
BRANCH   6   7
ATOM      7  C   UNL     1      25.384  26.046  24.356  1.00  0.00     0.028 C 
BRANCH   7   8
ATOM      8  C   UNL     1      24.622  24.760  24.013  1.00  0.00     0.156 C 
BRANCH   8   9
ATOM      9  O   UNL     1      25.371  23.979  23.122  1.00  0.00    -0.396 OA
ATOM     10  H   UNL     1      24.800  23.206  22.871  1.00  0.00     0.210 HD
ENDBRANCH   8   9
ENDBRANCH   7   8
ENDBRANCH   6   7
ENDBRANCH   1   6
TORSDOF 7
ENDMDL
MODEL 3
REMARK VINA RESULT:    -3.428      3.507      4.779
REMARK INTER + INTRA:          -5.046
REMARK INTER:                  -4.898
REMARK INTRA:                  -0.148
REMARK UNBOUND:                -0.315
REMARK SMILES CCCCCCCCO
REMARK SMILES IDX 5 1 4 2 3 3 2 4 1 5 6 6 7 7 8 8 9 9
REMARK H PARENT 9 10
REMARK Flexibility Score: inf
ROOT
ATOM      1  C   UNL     1      26.616  26.927  22.826  1.00  0.00     0.000 C 
ENDROOT
BRANCH   1   2
ATOM      2  C   UNL     1      28.110  26.579  22.735  1.00  0.00    -0.000 C 
BRANCH   2   3
ATOM      3  C   UNL     1      28.427  25.637  21.565  1.00  0.00    -0.000 C 
BRANCH   3   4
ATOM      4  C   UNL     1      29.760  24.911  21.790  1.00  0.00    -0.003 C 
ATOM      5  C   UNL     1      30.564  25.569  22.907  1.00  0.00     0.004 C 
ENDBRANCH   3   4
ENDBRANCH   2   3
ENDBRANCH   1   2
BRANCH   1   6
ATOM      6  C   UNL     1      26.353  28.189  23.668  1.00  0.00     0.002 C 
BRANCH   6   7
ATOM      7  C   UNL     1      24.920  28.238  24.223  1.00  0.00     0.028 C 
BRANCH   7   8
ATOM      8  C   UNL     1      24.345  29.660  24.248  1.00  0.00     0.156 C 
BRANCH   8   9
ATOM      9  O   UNL     1      24.206  30.146  22.941  1.00  0.00    -0.396 OA
ATOM     10  H   UNL     1      23.240  30.086  22.716  1.00  0.00     0.210 HD
ENDBRANCH   8   9
ENDBRANCH   7   8
ENDBRANCH   6   7
ENDBRANCH   1   6
TORSDOF 7
ENDMDL
MODEL 4
REMARK VINA RESULT:    -3.384      2.425      3.827
REMARK INTER + INTRA:          -4.985
REMARK INTER:                  -4.737
REMARK INTRA:                  -0.248
REMARK UNBOUND:                -0.315
REMARK SMILES CCCCCCCCO
REMARK SMILES IDX 5 1 4 2 3 3 2 4 1 5 6 6 7 7 8 8 9 9
REMARK H PARENT 9 10
REMARK Flexibility Score: inf
ROOT
ATOM      1  C   UNL     1      27.626  26.364  21.496  1.00  0.00     0.000 C 
ENDROOT
BRANCH   1   2
ATOM      2  C   UNL     1      29.133  26.222  21.228  1.00  0.00    -0.000 C 
BRANCH   2   3
ATOM      3  C   UNL     1      29.777  25.101  22.056  1.00  0.00    -0.000 C 
BRANCH   3   4
ATOM      4  C   UNL     1      31.152  25.531  22.584  1.00  0.00    -0.003 C 
ATOM      5  C   UNL     1      31.369  25.049  24.016  1.00  0.00     0.004 C 
ENDBRANCH   3   4
ENDBRANCH   2   3
ENDBRANCH   1   2
BRANCH   1   6
ATOM      6  C   UNL     1      27.279  26.263  22.992  1.00  0.00     0.002 C 
BRANCH   6   7
ATOM      7  C   UNL     1      25.775  26.423  23.262  1.00  0.00     0.028 C 
BRANCH   7   8
ATOM      8  C   UNL     1      25.160  25.189  23.933  1.00  0.00     0.156 C 
BRANCH   8   9
ATOM      9  O   UNL     1      25.369  24.053  23.139  1.00  0.00    -0.396 OA
ATOM     10  H   UNL     1      26.254  24.170  22.703  1.00  0.00     0.210 HD
ENDBRANCH   8   9
ENDBRANCH   7   8
ENDBRANCH   6   7
ENDBRANCH   1   6
TORSDOF 7
ENDMDL
MODEL 5
REMARK VINA RESULT:    -3.332      1.762      2.014
REMARK INTER + INTRA:          -4.914
REMARK INTER:                  -4.380
REMARK INTRA:                  -0.534
REMARK UNBOUND:                -0.315
REMARK SMILES CCCCCCCCO
REMARK SMILES IDX 5 1 4 2 3 3 2 4 1 5 6 6 7 7 8 8 9 9
REMARK H PARENT 9 10
REMARK Flexibility Score: inf
ROOT
ATOM      1  C   UNL     1      30.874  26.222  22.601  1.00  0.00     0.000 C 
ENDROOT
BRANCH   1   2
ATOM      2  C   UNL     1      31.172  26.189  24.108  1.00  0.00    -0.000 C 
BRANCH   2   3
ATOM      3  C   UNL     1      30.095  26.901  24.939  1.00  0.00    -0.000 C 
BRANCH   3   4
ATOM      4  C   UNL     1      29.540  28.119  24.189  1.00  0.00    -0.003 C 
ATOM      5  C   UNL     1      28.014  28.134  24.215  1.00  0.00     0.004 C 
ENDBRANCH   3   4
ENDBRANCH   2   3
ENDBRANCH   1   2
BRANCH   1   6
ATOM      6  C   UNL     1      30.068  24.997  22.130  1.00  0.00     0.002 C 
BRANCH   6   7
ATOM      7  C   UNL     1      28.588  25.326  21.880  1.00  0.00     0.028 C 
BRANCH   7   8
ATOM      8  C   UNL     1      28.395  26.403  20.805  1.00  0.00     0.156 C 
BRANCH   8   9
ATOM      9  O   UNL     1      27.086  26.903  20.853  1.00  0.00    -0.396 OA
ATOM     10  H   UNL     1      26.898  27.120  21.804  1.00  0.00     0.210 HD
ENDBRANCH   8   9
ENDBRANCH   7   8
ENDBRANCH   6   7
ENDBRANCH   1   6
TORSDOF 7
ENDMDL
MODEL 6
REMARK VINA RESULT:    -3.303      4.478      5.616
REMARK INTER + INTRA:          -4.873
REMARK INTER:                  -4.694
REMARK INTRA:                  -0.180
REMARK UNBOUND:                -0.315
REMARK SMILES CCCCCCCCO
REMARK SMILES IDX 5 1 4 2 3 3 2 4 1 5 6 6 7 7 8 8 9 9
REMARK H PARENT 9 10
REMARK Flexibility Score: inf
ROOT
ATOM      1  C   UNL     1      26.768  28.377  23.789  1.00  0.00     0.000 C 
ENDROOT
BRANCH   1   2
ATOM      2  C   UNL     1      25.318  27.868  23.796  1.00  0.00    -0.000 C 
BRANCH   2   3
ATOM      3  C   UNL     1      24.406  28.697  24.712  1.00  0.00    -0.000 C 
BRANCH   3   4
ATOM      4  C   UNL     1      24.063  30.047  24.069  1.00  0.00    -0.003 C 
ATOM      5  C   UNL     1      23.951  31.146  25.122  1.00  0.00     0.004 C 
ENDBRANCH   3   4
ENDBRANCH   2   3
ENDBRANCH   1   2
BRANCH   1   6
ATOM      6  C   UNL     1      27.791  27.251  24.021  1.00  0.00     0.002 C 
BRANCH   6   7
ATOM      7  C   UNL     1      28.645  26.963  22.775  1.00  0.00     0.028 C 
BRANCH   7   8
ATOM      8  C   UNL     1      27.923  26.072  21.757  1.00  0.00     0.156 C 
BRANCH   8   9
ATOM      9  O   UNL     1      27.226  26.863  20.833  1.00  0.00    -0.396 OA
ATOM     10  H   UNL     1      26.607  26.256  20.348  1.00  0.00     0.210 HD
ENDBRANCH   8   9
ENDBRANCH   7   8
ENDBRANCH   6   7
ENDBRANCH   1   6
TORSDOF 7
ENDMDL
MODEL 7
REMARK VINA RESULT:    -3.281      2.753      4.196
REMARK INTER + INTRA:          -4.843
REMARK INTER:                  -4.297
REMARK INTRA:                  -0.546
REMARK UNBOUND:                -0.315
REMARK SMILES CCCCCCCCO
REMARK SMILES IDX 5 1 4 2 3 3 2 4 1 5 6 6 7 7 8 8 9 9
REMARK H PARENT 9 10
REMARK Flexibility Score: inf
ROOT
ATOM      1  C   UNL     1      29.164  28.056  23.633  1.00  0.00     0.000 C 
ENDROOT
BRANCH   1   2
ATOM      2  C   UNL     1      27.820  27.522  24.152  1.00  0.00    -0.000 C 
BRANCH   2   3
ATOM      3  C   UNL     1      26.662  28.501  23.909  1.00  0.00    -0.000 C 
BRANCH   3   4
ATOM      4  C   UNL     1      25.355  27.747  23.634  1.00  0.00    -0.003 C 
ATOM      5  C   UNL     1      25.552  26.238  23.755  1.00  0.00     0.004 C 
ENDBRANCH   3   4
ENDBRANCH   2   3
ENDBRANCH   1   2
BRANCH   1   6
ATOM      6  C   UNL     1      29.862  27.072  22.677  1.00  0.00     0.002 C 
BRANCH   6   7
ATOM      7  C   UNL     1      28.929  25.945  22.206  1.00  0.00     0.028 C 
BRANCH   7   8
ATOM      8  C   UNL     1      28.450  26.139  20.762  1.00  0.00     0.156 C 
BRANCH   8   9
ATOM      9  O   UNL     1      27.251  26.864  20.745  1.00  0.00    -0.396 OA
ATOM     10  H   UNL     1      27.239  27.376  19.894  1.00  0.00     0.210 HD
ENDBRANCH   8   9
ENDBRANCH   7   8
ENDBRANCH   6   7
ENDBRANCH   1   6
TORSDOF 7
ENDMDL
MODEL 8
REMARK VINA RESULT:    -3.245      1.995      3.105
REMARK INTER + INTRA:          -4.793
REMARK INTER:                  -4.311
REMARK INTRA:                  -0.482
REMARK UNBOUND:                -0.315
REMARK SMILES CCCCCCCCO
REMARK SMILES IDX 5 1 4 2 3 3 2 4 1 5 6 6 7 7 8 8 9 9
REMARK H PARENT 9 10
REMARK Flexibility Score: inf
ROOT
ATOM      1  C   UNL     1      29.702  28.532  23.569  1.00  0.00     0.000 C 
ENDROOT
BRANCH   1   2
ATOM      2  C   UNL     1      30.447  27.692  22.520  1.00  0.00    -0.000 C 
BRANCH   2   3
ATOM      3  C   UNL     1      31.426  26.692  23.151  1.00  0.00    -0.000 C 
BRANCH   3   4
ATOM      4  C   UNL     1      30.994  25.248  22.866  1.00  0.00    -0.003 C 
ATOM      5  C   UNL     1      29.850  25.203  21.857  1.00  0.00     0.004 C 
ENDBRANCH   3   4
ENDBRANCH   2   3
ENDBRANCH   1   2
BRANCH   1   6
ATOM      6  C   UNL     1      28.579  27.744  24.269  1.00  0.00     0.002 C 
BRANCH   6   7
ATOM      7  C   UNL     1      27.194  28.030  23.667  1.00  0.00     0.028 C 
BRANCH   7   8
ATOM      8  C   UNL     1      26.641  26.843  22.868  1.00  0.00     0.156 C 
BRANCH   8   9
ATOM      9  O   UNL     1      26.857  27.043  21.497  1.00  0.00    -0.396 OA
ATOM     10  H   UNL     1      27.841  27.035  21.360  1.00  0.00     0.210 HD
ENDBRANCH   8   9
ENDBRANCH   7   8
ENDBRANCH   6   7
ENDBRANCH   1   6
TORSDOF 7
ENDMDL
MODEL 9
REMARK VINA RESULT:    -3.218      2.418      4.312
REMARK INTER + INTRA:          -4.757
REMARK INTER:                  -4.435
REMARK INTRA:                  -0.322
REMARK UNBOUND:                -0.315
REMARK SMILES CCCCCCCCO
REMARK SMILES IDX 5 1 4 2 3 3 2 4 1 5 6 6 7 7 8 8 9 9
REMARK H PARENT 9 10
REMARK Flexibility Score: inf
ROOT
ATOM      1  C   UNL     1      30.830  27.591  23.321  1.00  0.00     0.000 C 
ENDROOT
BRANCH   1   2
ATOM      2  C   UNL     1      30.608  26.102  23.627  1.00  0.00    -0.000 C 
BRANCH   2   3
ATOM      3  C   UNL     1      30.380  25.266  22.360  1.00  0.00    -0.000 C 
BRANCH   3   4
ATOM      4  C   UNL     1      28.910  25.319  21.925  1.00  0.00    -0.003 C 
ATOM      5  C   UNL     1      28.736  26.173  20.673  1.00  0.00     0.004 C 
ENDBRANCH   3   4
ENDBRANCH   2   3
ENDBRANCH   1   2
BRANCH   1   6
ATOM      6  C   UNL     1      32.124  27.846  22.527  1.00  0.00     0.002 C 
BRANCH   6   7
ATOM      7  C   UNL     1      31.986  29.007  21.529  1.00  0.00     0.028 C 
BRANCH   7   8
ATOM      8  C   UNL     1      31.736  30.353  22.220  1.00  0.00     0.156 C 
BRANCH   8   9
ATOM      9  O   UNL     1      32.096  31.406  21.368  1.00  0.00    -0.396 OA
ATOM     10  H   UNL     1      32.779  31.943  21.851  1.00  0.00     0.210 HD
ENDBRANCH   8   9
ENDBRANCH   7   8
ENDBRANCH   6   7
ENDBRANCH   1   6
TORSDOF 7
ENDMDL
