MODEL 1
REMARK VINA RESULT:    -6.758      0.000      0.000
REMARK INTER + INTRA:          -8.191
REMARK INTER:                  -7.745
REMARK INTRA:                  -0.445
REMARK UNBOUND:                -0.445
REMARK SMILES C=C(C)[C@H]1CC[C@@]2(C(=O)[O-])CC[C@@]3(C)[C@H](CC[C@@H]4[C@@]5(C)CC[C@@H](O)C(C)(C)[C@H]5CC[C@@]43C)[C@@H]12
REMARK SMILES IDX 7 1 6 2 33 3 11 4 5 5 15 6 4 7 12 8 16 9 13 10 17 11 31 12
REMARK SMILES IDX 14 13 18 14 30 15 32 16 19 17 29 18 21 19 20 20 28 21 22 22
REMARK SMILES IDX 25 23 23 24 26 25 27 26 8 27 9 28 10 29 2 30 3 31 1 32 24 33
REMARK H PARENT 24 34
REMARK Flexibility Score: inf
ROOT
ATOM      1  C   UNL     1     -14.144  -2.141 -34.475  1.00  0.00     0.014 C 
ATOM      2  C   UNL     1     -13.220  -2.427 -35.693  1.00  0.00     0.014 C 
ATOM      3  C   UNL     1     -13.205  -2.211 -33.240  1.00  0.00     0.012 C 
ATOM      4  C   UNL     1     -15.322  -3.125 -34.397  1.00  0.00     0.014 C 
ATOM      5  C   UNL     1     -11.806  -2.021 -35.286  1.00  0.00     0.009 C 
ATOM      6  C   UNL     1     -13.050  -3.631 -32.541  1.00  0.00     0.000 C 
ATOM      7  C   UNL     1     -11.887  -1.608 -33.812  1.00  0.00     0.018 C 
ATOM      8  C   UNL     1     -14.897  -4.541 -34.018  1.00  0.00     0.008 C 
ATOM      9  C   UNL     1     -12.624  -3.441 -31.082  1.00  0.00     0.005 C 
ATOM     10  C   UNL     1     -14.256  -4.668 -32.590  1.00  0.00    -0.024 C 
ATOM     11  C   UNL     1     -13.735  -2.814 -30.234  1.00  0.00     0.005 C 
ATOM     12  C   UNL     1     -15.315  -4.544 -31.333  1.00  0.00    -0.024 C 
ATOM     13  C   UNL     1     -13.639  -6.108 -32.599  1.00  0.00     0.012 C 
ATOM     14  C   UNL     1     -15.227  -3.101 -30.678  1.00  0.00     0.002 C 
ATOM     15  C   UNL     1     -15.025  -5.524 -30.146  1.00  0.00     0.008 C 
ATOM     16  C   UNL     1     -16.732  -4.959 -31.853  1.00  0.00     0.012 C 
ATOM     17  C   UNL     1     -16.220  -2.781 -29.458  1.00  0.00    -0.026 C 
ATOM     18  C   UNL     1     -15.972  -5.366 -28.943  1.00  0.00     0.005 C 
ATOM     19  C   UNL     1     -17.681  -2.518 -29.954  1.00  0.00     0.010 C 
ATOM     20  C   UNL     1     -15.766  -1.411 -28.837  1.00  0.00     0.012 C 
ATOM     21  C   UNL     1     -16.150  -3.928 -28.356  1.00  0.00     0.003 C 
ATOM     22  C   UNL     1     -18.741  -2.441 -28.849  1.00  0.00     0.033 C 
ATOM     23  C   UNL     1     -17.307  -3.877 -27.254  1.00  0.00    -0.006 C 
ATOM     24  C   UNL     1     -18.709  -3.650 -27.905  1.00  0.00     0.120 C 
ATOM     25  C   UNL     1     -17.345  -5.194 -26.415  1.00  0.00     0.014 C 
ATOM     26  C   UNL     1     -17.031  -2.759 -26.202  1.00  0.00     0.014 C 
ENDROOT
BRANCH   1  27
ATOM     27  C   UNL     1     -14.729  -0.731 -34.571  1.00  0.00     0.048 C 
ATOM     28  O   UNL     1     -15.105  -0.097 -33.548  1.00  0.00    -0.550 OA
ATOM     29  O   UNL     1     -14.926  -0.141 -35.819  1.00  0.00    -0.550 OA
ENDBRANCH   1  27
BRANCH   7  30
ATOM     30  C   UNL     1     -10.592  -1.787 -33.018  1.00  0.00    -0.077 C 
ATOM     31  C   UNL     1     -10.484  -1.178 -31.642  1.00  0.00     0.039 C 
ATOM     32  C   UNL     1      -9.518  -2.433 -33.507  1.00  0.00     0.008 C 
ENDBRANCH   7  30
BRANCH  24  33
ATOM     33  O   UNL     1     -19.125  -4.792 -28.615  1.00  0.00    -0.393 OA
ATOM     34  H   UNL     1     -18.306  -5.276 -28.896  1.00  0.00     0.210 HD
ENDBRANCH  24  33
TORSDOF 3
ENDMDL
MODEL 2
REMARK VINA RESULT:    -6.417      3.325      6.012
REMARK INTER + INTRA:          -7.800
REMARK INTER:                  -7.156
REMARK INTRA:                  -0.644
REMARK UNBOUND:                -0.445
REMARK SMILES C=C(C)[C@H]1CC[C@@]2(C(=O)[O-])CC[C@@]3(C)[C@H](CC[C@@H]4[C@@]5(C)CC[C@@H](O)C(C)(C)[C@H]5CC[C@@]43C)[C@@H]12
REMARK SMILES IDX 7 1 6 2 33 3 11 4 5 5 15 6 4 7 12 8 16 9 13 10 17 11 31 12
REMARK SMILES IDX 14 13 18 14 30 15 32 16 19 17 29 18 21 19 20 20 28 21 22 22
REMARK SMILES IDX 25 23 23 24 26 25 27 26 8 27 9 28 10 29 2 30 3 31 1 32 24 33
REMARK H PARENT 24 34
REMARK Flexibility Score: inf
ROOT
ATOM      1  C   UNL     1     -12.298  -2.596 -32.431  1.00  0.00     0.014 C 
ATOM      2  C   UNL     1     -11.807  -4.013 -32.845  1.00  0.00     0.014 C 
ATOM      3  C   UNL     1     -13.616  -2.845 -31.648  1.00  0.00     0.012 C 
ATOM      4  C   UNL     1     -12.480  -1.669 -33.643  1.00  0.00     0.014 C 
ATOM      5  C   UNL     1     -12.388  -5.000 -31.834  1.00  0.00     0.009 C 
ATOM      6  C   UNL     1     -14.960  -2.851 -32.497  1.00  0.00     0.000 C 
ATOM      7  C   UNL     1     -13.295  -4.180 -30.910  1.00  0.00     0.018 C 
ATOM      8  C   UNL     1     -13.663  -2.059 -34.525  1.00  0.00     0.008 C 
ATOM      9  C   UNL     1     -16.143  -2.512 -31.586  1.00  0.00     0.005 C 
ATOM     10  C   UNL     1     -15.061  -1.966 -33.816  1.00  0.00    -0.024 C 
ATOM     11  C   UNL     1     -16.104  -1.058 -31.105  1.00  0.00     0.005 C 
ATOM     12  C   UNL     1     -15.622  -0.436 -33.570  1.00  0.00    -0.024 C 
ATOM     13  C   UNL     1     -16.018  -2.708 -34.810  1.00  0.00     0.012 C 
ATOM     14  C   UNL     1     -15.405  -0.004 -32.059  1.00  0.00     0.002 C 
ATOM     15  C   UNL     1     -17.163  -0.268 -33.801  1.00  0.00     0.008 C 
ATOM     16  C   UNL     1     -14.957   0.499 -34.636  1.00  0.00     0.012 C 
ATOM     17  C   UNL     1     -15.857   1.478 -31.640  1.00  0.00    -0.026 C 
ATOM     18  C   UNL     1     -17.701   1.144 -33.510  1.00  0.00     0.005 C 
ATOM     19  C   UNL     1     -14.840   2.556 -32.142  1.00  0.00     0.010 C 
ATOM     20  C   UNL     1     -15.775   1.563 -30.073  1.00  0.00     0.012 C 
ATOM     21  C   UNL     1     -17.344   1.774 -32.124  1.00  0.00     0.003 C 
ATOM     22  C   UNL     1     -15.307   4.010 -31.999  1.00  0.00     0.033 C 
ATOM     23  C   UNL     1     -17.790   3.307 -32.039  1.00  0.00    -0.006 C 
ATOM     24  C   UNL     1     -16.690   4.256 -32.614  1.00  0.00     0.120 C 
ATOM     25  C   UNL     1     -19.125   3.550 -32.812  1.00  0.00     0.014 C 
ATOM     26  C   UNL     1     -18.118   3.715 -30.569  1.00  0.00     0.014 C 
ENDROOT
BRANCH   1  27
ATOM     27  C   UNL     1     -11.286  -1.935 -31.495  1.00  0.00     0.048 C 
ATOM     28  O   UNL     1     -11.648  -1.256 -30.497  1.00  0.00    -0.550 OA
ATOM     29  O   UNL     1      -9.922  -2.014 -31.774  1.00  0.00    -0.550 OA
ENDBRANCH   1  27
BRANCH   7  30
ATOM     30  C   UNL     1     -14.445  -4.962 -30.274  1.00  0.00    -0.077 C 
ATOM     31  C   UNL     1     -15.057  -6.115 -31.031  1.00  0.00     0.039 C 
ATOM     32  C   UNL     1     -14.971  -4.645 -29.076  1.00  0.00     0.008 C 
ENDBRANCH   7  30
BRANCH  24  33
ATOM     33  O   UNL     1     -16.595   4.128 -34.012  1.00  0.00    -0.393 OA
ATOM     34  H   UNL     1     -17.396   3.626 -34.314  1.00  0.00     0.210 HD
ENDBRANCH  24  33
TORSDOF 3
ENDMDL
MODEL 3
REMARK VINA RESULT:    -6.282      3.673      6.150
REMARK INTER + INTRA:          -7.646
REMARK INTER:                  -6.917
REMARK INTRA:                  -0.728
REMARK UNBOUND:                -0.445
REMARK SMILES C=C(C)[C@H]1CC[C@@]2(C(=O)[O-])CC[C@@]3(C)[C@H](CC[C@@H]4[C@@]5(C)CC[C@@H](O)C(C)(C)[C@H]5CC[C@@]43C)[C@@H]12
REMARK SMILES IDX 7 1 6 2 33 3 11 4 5 5 15 6 4 7 12 8 16 9 13 10 17 11 31 12
REMARK SMILES IDX 14 13 18 14 30 15 32 16 19 17 29 18 21 19 20 20 28 21 22 22
REMARK SMILES IDX 25 23 23 24 26 25 27 26 8 27 9 28 10 29 2 30 3 31 1 32 24 33
REMARK H PARENT 24 34
REMARK Flexibility Score: inf
ROOT
ATOM      1  C   UNL     1     -15.916  -3.302 -32.036  1.00  0.00     0.014 C 
ATOM      2  C   UNL     1     -15.572  -4.668 -31.377  1.00  0.00     0.014 C 
ATOM      3  C   UNL     1     -14.668  -2.413 -31.783  1.00  0.00     0.012 C 
ATOM      4  C   UNL     1     -17.213  -2.699 -31.476  1.00  0.00     0.014 C 
ATOM      5  C   UNL     1     -14.049  -4.784 -31.358  1.00  0.00     0.009 C 
ATOM      6  C   UNL     1     -14.667  -1.549 -30.448  1.00  0.00     0.000 C 
ATOM      7  C   UNL     1     -13.513  -3.453 -31.898  1.00  0.00     0.018 C 
ATOM      8  C   UNL     1     -17.077  -2.216 -30.035  1.00  0.00     0.008 C 
ATOM      9  C   UNL     1     -13.738  -0.344 -30.618  1.00  0.00     0.005 C 
ATOM     10  C   UNL     1     -16.047  -1.047 -29.835  1.00  0.00    -0.024 C 
ATOM     11  C   UNL     1     -14.286   0.671 -31.626  1.00  0.00     0.005 C 
ATOM     12  C   UNL     1     -16.543   0.426 -30.385  1.00  0.00    -0.024 C 
ATOM     13  C   UNL     1     -15.876  -0.980 -28.279  1.00  0.00     0.012 C 
ATOM     14  C   UNL     1     -15.860   0.753 -31.780  1.00  0.00     0.002 C 
ATOM     15  C   UNL     1     -16.139   1.628 -29.466  1.00  0.00     0.008 C 
ATOM     16  C   UNL     1     -18.109   0.437 -30.387  1.00  0.00     0.012 C 
ATOM     17  C   UNL     1     -16.256   2.135 -32.492  1.00  0.00    -0.026 C 
ATOM     18  C   UNL     1     -16.543   3.010 -30.010  1.00  0.00     0.005 C 
ATOM     19  C   UNL     1     -17.673   2.061 -33.152  1.00  0.00     0.010 C 
ATOM     20  C   UNL     1     -15.272   2.334 -33.701  1.00  0.00     0.012 C 
ATOM     21  C   UNL     1     -16.123   3.354 -31.476  1.00  0.00     0.003 C 
ATOM     22  C   UNL     1     -18.235   3.400 -33.646  1.00  0.00     0.033 C 
ATOM     23  C   UNL     1     -16.779   4.723 -31.974  1.00  0.00    -0.006 C 
ATOM     24  C   UNL     1     -18.206   4.492 -32.569  1.00  0.00     0.120 C 
ATOM     25  C   UNL     1     -16.878   5.759 -30.809  1.00  0.00     0.014 C 
ATOM     26  C   UNL     1     -15.877   5.425 -33.035  1.00  0.00     0.014 C 
ENDROOT
BRANCH   1  27
ATOM     27  C   UNL     1     -16.103  -3.471 -33.545  1.00  0.00     0.048 C 
ATOM     28  O   UNL     1     -16.370  -4.590 -34.060  1.00  0.00    -0.550 OA
ATOM     29  O   UNL     1     -15.909  -2.385 -34.398  1.00  0.00    -0.550 OA
ENDBRANCH   1  27
BRANCH   7  30
ATOM     30  C   UNL     1     -12.122  -3.064 -31.393  1.00  0.00    -0.077 C 
ATOM     31  C   UNL     1     -11.250  -2.181 -32.250  1.00  0.00     0.039 C 
ATOM     32  C   UNL     1     -11.616  -3.509 -30.228  1.00  0.00     0.008 C 
ENDBRANCH   7  30
BRANCH  24  33
ATOM     33  O   UNL     1     -19.125   4.158 -31.558  1.00  0.00    -0.393 OA
ATOM     34  H   UNL     1     -19.757   4.918 -31.474  1.00  0.00     0.210 HD
ENDBRANCH  24  33
TORSDOF 3
ENDMDL
MODEL 4
REMARK VINA RESULT:    -5.557      4.011      7.115
REMARK INTER + INTRA:          -6.814
REMARK INTER:                  -6.101
REMARK INTRA:                  -0.714
REMARK UNBOUND:                -0.445
REMARK SMILES C=C(C)[C@H]1CC[C@@]2(C(=O)[O-])CC[C@@]3(C)[C@H](CC[C@@H]4[C@@]5(C)CC[C@@H](O)C(C)(C)[C@H]5CC[C@@]43C)[C@@H]12
REMARK SMILES IDX 7 1 6 2 33 3 11 4 5 5 15 6 4 7 12 8 16 9 13 10 17 11 31 12
REMARK SMILES IDX 14 13 18 14 30 15 32 16 19 17 29 18 21 19 20 20 28 21 22 22
REMARK SMILES IDX 25 23 23 24 26 25 27 26 8 27 9 28 10 29 2 30 3 31 1 32 24 33
REMARK H PARENT 24 34
REMARK Flexibility Score: inf
ROOT
ATOM      1  C   UNL     1     -13.813  -1.918 -31.553  1.00  0.00     0.014 C 
ATOM      2  C   UNL     1     -13.628  -3.461 -31.638  1.00  0.00     0.014 C 
ATOM      3  C   UNL     1     -15.181  -1.722 -30.845  1.00  0.00     0.012 C 
ATOM      4  C   UNL     1     -13.745  -1.250 -32.934  1.00  0.00     0.014 C 
ATOM      5  C   UNL     1     -14.445  -4.072 -30.502  1.00  0.00     0.009 C 
ATOM      6  C   UNL     1     -16.463  -1.629 -31.781  1.00  0.00     0.000 C 
ATOM      7  C   UNL     1     -15.186  -2.908 -29.834  1.00  0.00     0.018 C 
ATOM      8  C   UNL     1     -14.951  -1.564 -33.814  1.00  0.00     0.008 C 
ATOM      9  C   UNL     1     -17.576  -0.871 -31.054  1.00  0.00     0.005 C 
ATOM     10  C   UNL     1     -16.321  -1.040 -33.253  1.00  0.00    -0.024 C 
ATOM     11  C   UNL     1     -17.239   0.612 -30.867  1.00  0.00     0.005 C 
ATOM     12  C   UNL     1     -16.544   0.590 -33.360  1.00  0.00    -0.024 C 
ATOM     13  C   UNL     1     -17.379  -1.762 -34.155  1.00  0.00     0.012 C 
ATOM     14  C   UNL     1     -16.294   1.275 -31.951  1.00  0.00     0.002 C 
ATOM     15  C   UNL     1     -18.002   1.018 -33.743  1.00  0.00     0.008 C 
ATOM     16  C   UNL     1     -15.653   1.122 -34.532  1.00  0.00     0.012 C 
ATOM     17  C   UNL     1     -16.427   2.873 -31.870  1.00  0.00    -0.026 C 
ATOM     18  C   UNL     1     -18.230   2.539 -33.780  1.00  0.00     0.005 C 
ATOM     19  C   UNL     1     -15.182   3.589 -32.492  1.00  0.00     0.010 C 
ATOM     20  C   UNL     1     -16.386   3.266 -30.350  1.00  0.00     0.012 C 
ATOM     21  C   UNL     1     -17.795   3.360 -32.522  1.00  0.00     0.003 C 
ATOM     22  C   UNL     1     -15.326   5.105 -32.677  1.00  0.00     0.033 C 
ATOM     23  C   UNL     1     -17.900   4.934 -32.777  1.00  0.00    -0.006 C 
ATOM     24  C   UNL     1     -16.600   5.495 -33.438  1.00  0.00     0.120 C 
ATOM     25  C   UNL     1     -19.121   5.279 -33.688  1.00  0.00     0.014 C 
ATOM     26  C   UNL     1     -18.184   5.700 -31.448  1.00  0.00     0.014 C 
ENDROOT
BRANCH   1  27
ATOM     27  C   UNL     1     -12.716  -1.298 -30.687  1.00  0.00     0.048 C 
ATOM     28  O   UNL     1     -11.549  -1.774 -30.651  1.00  0.00    -0.550 OA
ATOM     29  O   UNL     1     -13.010  -0.217 -29.856  1.00  0.00    -0.550 OA
ENDBRANCH   1  27
BRANCH   7  30
ATOM     30  C   UNL     1     -16.501  -3.286 -29.151  1.00  0.00    -0.077 C 
ATOM     31  C   UNL     1     -16.926  -2.538 -27.911  1.00  0.00     0.039 C 
ATOM     32  C   UNL     1     -17.287  -4.291 -29.582  1.00  0.00     0.008 C 
ENDBRANCH   7  30
BRANCH  24  33
ATOM     33  O   UNL     1     -16.484   5.059 -34.770  1.00  0.00    -0.393 OA
ATOM     34  H   UNL     1     -17.353   4.652 -35.021  1.00  0.00     0.210 HD
ENDBRANCH  24  33
TORSDOF 3
ENDMDL
MODEL 5
REMARK VINA RESULT:    -5.488      3.502      7.131
REMARK INTER + INTRA:          -6.736
REMARK INTER:                  -6.212
REMARK INTRA:                  -0.523
REMARK UNBOUND:                -0.445
REMARK SMILES C=C(C)[C@H]1CC[C@@]2(C(=O)[O-])CC[C@@]3(C)[C@H](CC[C@@H]4[C@@]5(C)CC[C@@H](O)C(C)(C)[C@H]5CC[C@@]43C)[C@@H]12
REMARK SMILES IDX 7 1 6 2 33 3 11 4 5 5 15 6 4 7 12 8 16 9 13 10 17 11 31 12
REMARK SMILES IDX 14 13 18 14 30 15 32 16 19 17 29 18 21 19 20 20 28 21 22 22
REMARK SMILES IDX 25 23 23 24 26 25 27 26 8 27 9 28 10 29 2 30 3 31 1 32 24 33
REMARK H PARENT 24 34
REMARK Flexibility Score: inf
ROOT
ATOM      1  C   UNL     1     -16.722   0.981 -28.480  1.00  0.00     0.014 C 
ATOM      2  C   UNL     1     -17.943   1.740 -27.886  1.00  0.00     0.014 C 
ATOM      3  C   UNL     1     -16.498   1.621 -29.876  1.00  0.00     0.012 C 
ATOM      4  C   UNL     1     -16.956  -0.536 -28.539  1.00  0.00     0.014 C 
ATOM      5  C   UNL     1     -17.983   3.113 -28.553  1.00  0.00     0.009 C 
ATOM      6  C   UNL     1     -17.262   0.952 -31.100  1.00  0.00     0.000 C 
ATOM      7  C   UNL     1     -16.865   3.111 -29.603  1.00  0.00     0.018 C 
ATOM      8  C   UNL     1     -17.993  -0.943 -29.583  1.00  0.00     0.008 C 
ATOM      9  C   UNL     1     -16.522   1.267 -32.402  1.00  0.00     0.005 C 
ATOM     10  C   UNL     1     -17.592  -0.605 -31.064  1.00  0.00    -0.024 C 
ATOM     11  C   UNL     1     -15.164   0.561 -32.480  1.00  0.00     0.005 C 
ATOM     12  C   UNL     1     -16.420  -1.567 -31.710  1.00  0.00    -0.024 C 
ATOM     13  C   UNL     1     -18.927  -0.823 -31.856  1.00  0.00     0.012 C 
ATOM     14  C   UNL     1     -15.023  -0.813 -31.705  1.00  0.00     0.002 C 
ATOM     15  C   UNL     1     -16.649  -1.943 -33.213  1.00  0.00     0.008 C 
ATOM     16  C   UNL     1     -16.445  -2.935 -30.949  1.00  0.00     0.012 C 
ATOM     17  C   UNL     1     -13.748  -1.613 -32.263  1.00  0.00    -0.026 C 
ATOM     18  C   UNL     1     -15.524  -2.787 -33.838  1.00  0.00     0.005 C 
ATOM     19  C   UNL     1     -13.233  -2.671 -31.232  1.00  0.00     0.010 C 
ATOM     20  C   UNL     1     -12.570  -0.581 -32.387  1.00  0.00     0.012 C 
ATOM     21  C   UNL     1     -14.062  -2.255 -33.686  1.00  0.00     0.003 C 
ATOM     22  C   UNL     1     -12.175  -3.643 -31.768  1.00  0.00     0.033 C 
ATOM     23  C   UNL     1     -12.988  -3.322 -34.197  1.00  0.00    -0.006 C 
ATOM     24  C   UNL     1     -12.604  -4.333 -33.070  1.00  0.00     0.120 C 
ATOM     25  C   UNL     1     -13.524  -4.117 -35.430  1.00  0.00     0.014 C 
ATOM     26  C   UNL     1     -11.702  -2.615 -34.726  1.00  0.00     0.014 C 
ENDROOT
BRANCH   1  27
ATOM     27  C   UNL     1     -15.479   1.220 -27.622  1.00  0.00     0.048 C 
ATOM     28  O   UNL     1     -15.481   1.016 -26.378  1.00  0.00    -0.550 OA
ATOM     29  O   UNL     1     -14.322   1.743 -28.199  1.00  0.00    -0.550 OA
ENDBRANCH   1  27
BRANCH   7  30
ATOM     30  C   UNL     1     -17.096   4.041 -30.795  1.00  0.00    -0.077 C 
ATOM     31  C   UNL     1     -18.510   4.380 -31.200  1.00  0.00     0.039 C 
ATOM     32  C   UNL     1     -16.091   4.548 -31.533  1.00  0.00     0.008 C 
ENDBRANCH   7  30
BRANCH  24  33
ATOM     33  O   UNL     1     -13.671  -5.206 -32.791  1.00  0.00    -0.393 OA
ATOM     34  H   UNL     1     -14.477  -4.832 -33.232  1.00  0.00     0.210 HD
ENDBRANCH  24  33
TORSDOF 3
ENDMDL
MODEL 6
REMARK VINA RESULT:    -5.473      2.053      7.373
REMARK INTER + INTRA:          -6.718
REMARK INTER:                  -6.196
REMARK INTRA:                  -0.522
REMARK UNBOUND:                -0.445
REMARK SMILES C=C(C)[C@H]1CC[C@@]2(C(=O)[O-])CC[C@@]3(C)[C@H](CC[C@@H]4[C@@]5(C)CC[C@@H](O)C(C)(C)[C@H]5CC[C@@]43C)[C@@H]12
REMARK SMILES IDX 7 1 6 2 33 3 11 4 5 5 15 6 4 7 12 8 16 9 13 10 17 11 31 12
REMARK SMILES IDX 14 13 18 14 30 15 32 16 19 17 29 18 21 19 20 20 28 21 22 22
REMARK SMILES IDX 25 23 23 24 26 25 27 26 8 27 9 28 10 29 2 30 3 31 1 32 24 33
REMARK H PARENT 24 34
REMARK Flexibility Score: inf
ROOT
ATOM      1  C   UNL     1     -17.763  -3.076 -28.221  1.00  0.00     0.014 C 
ATOM      2  C   UNL     1     -19.041  -2.742 -27.400  1.00  0.00     0.014 C 
ATOM      3  C   UNL     1     -17.044  -1.713 -28.408  1.00  0.00     0.012 C 
ATOM      4  C   UNL     1     -18.094  -3.775 -29.549  1.00  0.00     0.014 C 
ATOM      5  C   UNL     1     -18.745  -1.467 -26.612  1.00  0.00     0.009 C 
ATOM      6  C   UNL     1     -17.424  -0.878 -29.707  1.00  0.00     0.000 C 
ATOM      7  C   UNL     1     -17.352  -1.006 -27.055  1.00  0.00     0.018 C 
ATOM      8  C   UNL     1     -18.765  -2.852 -30.561  1.00  0.00     0.008 C 
ATOM      9  C   UNL     1     -16.277   0.072 -30.060  1.00  0.00     0.005 C 
ATOM     10  C   UNL     1     -17.879  -1.642 -31.028  1.00  0.00    -0.024 C 
ATOM     11  C   UNL     1     -15.033  -0.679 -30.545  1.00  0.00     0.005 C 
ATOM     12  C   UNL     1     -16.646  -2.030 -32.051  1.00  0.00    -0.024 C 
ATOM     13  C   UNL     1     -18.897  -0.718 -31.780  1.00  0.00     0.012 C 
ATOM     14  C   UNL     1     -15.268  -2.070 -31.266  1.00  0.00     0.002 C 
ATOM     15  C   UNL     1     -16.407  -0.989 -33.197  1.00  0.00     0.008 C 
ATOM     16  C   UNL     1     -17.034  -3.353 -32.793  1.00  0.00     0.012 C 
ATOM     17  C   UNL     1     -13.954  -2.472 -32.095  1.00  0.00    -0.026 C 
ATOM     18  C   UNL     1     -15.216  -1.314 -34.115  1.00  0.00     0.005 C 
ATOM     19  C   UNL     1     -13.894  -4.010 -32.373  1.00  0.00     0.010 C 
ATOM     20  C   UNL     1     -12.717  -2.192 -31.169  1.00  0.00     0.012 C 
ATOM     21  C   UNL     1     -13.842  -1.610 -33.429  1.00  0.00     0.003 C 
ATOM     22  C   UNL     1     -12.806  -4.453 -33.359  1.00  0.00     0.033 C 
ATOM     23  C   UNL     1     -12.755  -2.128 -34.480  1.00  0.00    -0.006 C 
ATOM     24  C   UNL     1     -12.846  -3.675 -34.681  1.00  0.00     0.120 C 
ATOM     25  C   UNL     1     -12.928  -1.426 -35.864  1.00  0.00     0.014 C 
ATOM     26  C   UNL     1     -11.312  -1.742 -34.031  1.00  0.00     0.014 C 
ENDROOT
BRANCH   1  27
ATOM     27  C   UNL     1     -16.850  -4.011 -27.426  1.00  0.00     0.048 C 
ATOM     28  O   UNL     1     -15.866  -4.591 -27.959  1.00  0.00    -0.550 OA
ATOM     29  O   UNL     1     -17.136  -4.297 -26.091  1.00  0.00    -0.550 OA
ENDBRANCH   1  27
BRANCH   7  30
ATOM     30  C   UNL     1     -17.103   0.499 -26.939  1.00  0.00    -0.077 C 
ATOM     31  C   UNL     1     -15.684   1.007 -26.884  1.00  0.00     0.039 C 
ATOM     32  C   UNL     1     -18.099   1.400 -26.841  1.00  0.00     0.008 C 
ENDBRANCH   7  30
BRANCH  24  33
ATOM     33  O   UNL     1     -14.016  -4.024 -35.379  1.00  0.00    -0.393 OA
ATOM     34  H   UNL     1     -13.930  -4.978 -35.635  1.00  0.00     0.210 HD
ENDBRANCH  24  33
TORSDOF 3
ENDMDL
MODEL 7
REMARK VINA RESULT:    -5.406      3.271      5.844
REMARK INTER + INTRA:          -6.641
REMARK INTER:                  -5.905
REMARK INTRA:                  -0.736
REMARK UNBOUND:                -0.445
REMARK SMILES C=C(C)[C@H]1CC[C@@]2(C(=O)[O-])CC[C@@]3(C)[C@H](CC[C@@H]4[C@@]5(C)CC[C@@H](O)C(C)(C)[C@H]5CC[C@@]43C)[C@@H]12
REMARK SMILES IDX 7 1 6 2 33 3 11 4 5 5 15 6 4 7 12 8 16 9 13 10 17 11 31 12
REMARK SMILES IDX 14 13 18 14 30 15 32 16 19 17 29 18 21 19 20 20 28 21 22 22
REMARK SMILES IDX 25 23 23 24 26 25 27 26 8 27 9 28 10 29 2 30 3 31 1 32 24 33
REMARK H PARENT 24 34
REMARK Flexibility Score: inf
ROOT
ATOM      1  C   UNL     1     -15.034  -4.281 -31.493  1.00  0.00     0.014 C 
ATOM      2  C   UNL     1     -14.030  -5.383 -31.938  1.00  0.00     0.014 C 
ATOM      3  C   UNL     1     -15.346  -3.481 -32.787  1.00  0.00     0.012 C 
ATOM      4  C   UNL     1     -14.472  -3.407 -30.361  1.00  0.00     0.014 C 
ATOM      5  C   UNL     1     -14.269  -5.630 -33.425  1.00  0.00     0.009 C 
ATOM      6  C   UNL     1     -14.411  -2.232 -33.096  1.00  0.00     0.000 C 
ATOM      7  C   UNL     1     -15.322  -4.606 -33.865  1.00  0.00     0.018 C 
ATOM      8  C   UNL     1     -13.337  -2.494 -30.816  1.00  0.00     0.008 C 
ATOM      9  C   UNL     1     -15.158  -1.244 -33.996  1.00  0.00     0.005 C 
ATOM     10  C   UNL     1     -13.750  -1.428 -31.892  1.00  0.00    -0.024 C 
ATOM     11  C   UNL     1     -16.324  -0.567 -33.268  1.00  0.00     0.005 C 
ATOM     12  C   UNL     1     -14.661  -0.176 -31.325  1.00  0.00    -0.024 C 
ATOM     13  C   UNL     1     -12.374  -0.872 -32.395  1.00  0.00     0.012 C 
ATOM     14  C   UNL     1     -16.188  -0.390 -31.701  1.00  0.00     0.002 C 
ATOM     15  C   UNL     1     -14.303   1.216 -31.947  1.00  0.00     0.008 C 
ATOM     16  C   UNL     1     -14.362  -0.017 -29.796  1.00  0.00     0.012 C 
ATOM     17  C   UNL     1     -17.237   0.714 -31.194  1.00  0.00    -0.026 C 
ATOM     18  C   UNL     1     -15.194   2.376 -31.468  1.00  0.00     0.005 C 
ATOM     19  C   UNL     1     -17.543   0.563 -29.667  1.00  0.00     0.010 C 
ATOM     20  C   UNL     1     -18.607   0.411 -31.900  1.00  0.00     0.012 C 
ATOM     21  C   UNL     1     -16.742   2.179 -31.571  1.00  0.00     0.003 C 
ATOM     22  C   UNL     1     -18.344   1.714 -29.045  1.00  0.00     0.033 C 
ATOM     23  C   UNL     1     -17.538   3.366 -30.857  1.00  0.00    -0.006 C 
ATOM     24  C   UNL     1     -17.730   3.090 -29.331  1.00  0.00     0.120 C 
ATOM     25  C   UNL     1     -16.799   4.730 -31.036  1.00  0.00     0.014 C 
ATOM     26  C   UNL     1     -18.928   3.593 -31.527  1.00  0.00     0.014 C 
ENDROOT
BRANCH   1  27
ATOM     27  C   UNL     1     -16.329  -4.916 -30.982  1.00  0.00     0.048 C 
ATOM     28  O   UNL     1     -16.343  -6.059 -30.450  1.00  0.00    -0.550 OA
ATOM     29  O   UNL     1     -17.546  -4.260 -31.162  1.00  0.00    -0.550 OA
ENDBRANCH   1  27
BRANCH   7  30
ATOM     30  C   UNL     1     -15.260  -4.209 -35.341  1.00  0.00    -0.077 C 
ATOM     31  C   UNL     1     -16.535  -3.834 -36.055  1.00  0.00     0.039 C 
ATOM     32  C   UNL     1     -14.118  -4.215 -36.053  1.00  0.00     0.008 C 
ENDBRANCH   7  30
BRANCH  24  33
ATOM     33  O   UNL     1     -16.507   3.195 -28.643  1.00  0.00    -0.393 OA
ATOM     34  H   UNL     1     -16.069   2.306 -28.688  1.00  0.00     0.210 HD
ENDBRANCH  24  33
TORSDOF 3
ENDMDL
MODEL 8
REMARK VINA RESULT:    -5.359      2.796      5.144
REMARK INTER + INTRA:          -6.588
REMARK INTER:                  -5.877
REMARK INTRA:                  -0.711
REMARK UNBOUND:                -0.445
REMARK SMILES C=C(C)[C@H]1CC[C@@]2(C(=O)[O-])CC[C@@]3(C)[C@H](CC[C@@H]4[C@@]5(C)CC[C@@H](O)C(C)(C)[C@H]5CC[C@@]43C)[C@@H]12
REMARK SMILES IDX 7 1 6 2 33 3 11 4 5 5 15 6 4 7 12 8 16 9 13 10 17 11 31 12
REMARK SMILES IDX 14 13 18 14 30 15 32 16 19 17 29 18 21 19 20 20 28 21 22 22
REMARK SMILES IDX 25 23 23 24 26 25 27 26 8 27 9 28 10 29 2 30 3 31 1 32 24 33
REMARK H PARENT 24 34
REMARK Flexibility Score: inf
ROOT
ATOM      1  C   UNL     1     -13.382  -2.775 -33.367  1.00  0.00     0.014 C 
ATOM      2  C   UNL     1     -13.057  -3.309 -34.792  1.00  0.00     0.014 C 
ATOM      3  C   UNL     1     -14.815  -3.292 -33.067  1.00  0.00     0.012 C 
ATOM      4  C   UNL     1     -13.259  -1.246 -33.279  1.00  0.00     0.014 C 
ATOM      5  C   UNL     1     -13.909  -4.558 -35.006  1.00  0.00     0.009 C 
ATOM      6  C   UNL     1     -16.019  -2.342 -33.486  1.00  0.00     0.000 C 
ATOM      7  C   UNL     1     -14.800  -4.686 -33.765  1.00  0.00     0.018 C 
ATOM      8  C   UNL     1     -14.358  -0.511 -34.041  1.00  0.00     0.008 C 
ATOM      9  C   UNL     1     -17.250  -2.668 -32.636  1.00  0.00     0.005 C 
ATOM     10  C   UNL     1     -15.809  -0.764 -33.498  1.00  0.00    -0.024 C 
ATOM     11  C   UNL     1     -17.059  -2.272 -31.168  1.00  0.00     0.005 C 
ATOM     12  C   UNL     1     -16.163  -0.018 -32.071  1.00  0.00    -0.024 C 
ATOM     13  C   UNL     1     -16.724  -0.174 -34.625  1.00  0.00     0.012 C 
ATOM     14  C   UNL     1     -16.090  -1.056 -30.872  1.00  0.00     0.002 C 
ATOM     15  C   UNL     1     -17.616   0.562 -31.989  1.00  0.00     0.008 C 
ATOM     16  C   UNL     1     -15.229   1.231 -31.935  1.00  0.00     0.012 C 
ATOM     17  C   UNL     1     -16.367  -0.498 -29.393  1.00  0.00    -0.026 C 
ATOM     18  C   UNL     1     -17.972   1.201 -30.636  1.00  0.00     0.005 C 
ATOM     19  C   UNL     1     -15.142   0.302 -28.837  1.00  0.00     0.010 C 
ATOM     20  C   UNL     1     -16.485  -1.743 -28.442  1.00  0.00     0.012 C 
ATOM     21  C   UNL     1     -17.714   0.348 -29.351  1.00  0.00     0.003 C 
ATOM     22  C   UNL     1     -15.402   1.072 -27.536  1.00  0.00     0.033 C 
ATOM     23  C   UNL     1     -17.934   1.203 -28.019  1.00  0.00    -0.006 C 
ATOM     24  C   UNL     1     -16.638   1.977 -27.614  1.00  0.00     0.120 C 
ATOM     25  C   UNL     1     -19.102   2.226 -28.190  1.00  0.00     0.014 C 
ATOM     26  C   UNL     1     -18.392   0.294 -26.837  1.00  0.00     0.014 C 
ENDROOT
BRANCH   1  27
ATOM     27  C   UNL     1     -12.417  -3.373 -32.342  1.00  0.00     0.048 C 
ATOM     28  O   UNL     1     -12.690  -3.405 -31.112  1.00  0.00    -0.550 OA
ATOM     29  O   UNL     1     -11.167  -3.839 -32.749  1.00  0.00    -0.550 OA
ENDBRANCH   1  27
BRANCH   7  30
ATOM     30  C   UNL     1     -16.129  -5.407 -33.995  1.00  0.00    -0.077 C 
ATOM     31  C   UNL     1     -16.810  -5.282 -35.335  1.00  0.00     0.039 C 
ATOM     32  C   UNL     1     -16.747  -6.125 -33.038  1.00  0.00     0.008 C 
ENDBRANCH   7  30
BRANCH  24  33
ATOM     33  O   UNL     1     -16.376   3.026 -28.514  1.00  0.00    -0.393 OA
ATOM     34  H   UNL     1     -16.946   2.876 -29.312  1.00  0.00     0.210 HD
ENDBRANCH  24  33
TORSDOF 3
ENDMDL
MODEL 9
REMARK VINA RESULT:    -5.179      5.147      7.816
REMARK INTER + INTRA:          -6.381
REMARK INTER:                  -5.732
REMARK INTRA:                  -0.649
REMARK UNBOUND:                -0.445
REMARK SMILES C=C(C)[C@H]1CC[C@@]2(C(=O)[O-])CC[C@@]3(C)[C@H](CC[C@@H]4[C@@]5(C)CC[C@@H](O)C(C)(C)[C@H]5CC[C@@]43C)[C@@H]12
REMARK SMILES IDX 7 1 6 2 33 3 11 4 5 5 15 6 4 7 12 8 16 9 13 10 17 11 31 12
REMARK SMILES IDX 14 13 18 14 30 15 32 16 19 17 29 18 21 19 20 20 28 21 22 22
REMARK SMILES IDX 25 23 23 24 26 25 27 26 8 27 9 28 10 29 2 30 3 31 1 32 24 33
REMARK H PARENT 24 34
REMARK Flexibility Score: inf
ROOT
ATOM      1  C   UNL     1     -17.006  -0.973 -32.986  1.00  0.00     0.014 C 
ATOM      2  C   UNL     1     -16.959  -2.396 -32.358  1.00  0.00     0.014 C 
ATOM      3  C   UNL     1     -15.688  -0.293 -32.526  1.00  0.00     0.012 C 
ATOM      4  C   UNL     1     -18.266  -0.198 -32.572  1.00  0.00     0.014 C 
ATOM      5  C   UNL     1     -15.487  -2.741 -32.145  1.00  0.00     0.009 C 
ATOM      6  C   UNL     1     -15.745   0.520 -31.160  1.00  0.00     0.000 C 
ATOM      7  C   UNL     1     -14.693  -1.491 -32.540  1.00  0.00     0.018 C 
ATOM      8  C   UNL     1     -18.260   0.215 -31.103  1.00  0.00     0.008 C 
ATOM      9  C   UNL     1     -14.635   1.575 -31.145  1.00  0.00     0.005 C 
ATOM     10  C   UNL     1     -17.108   1.207 -30.710  1.00  0.00    -0.024 C 
ATOM     11  C   UNL     1     -14.885   2.691 -32.164  1.00  0.00     0.005 C 
ATOM     12  C   UNL     1     -17.303   2.754 -31.245  1.00  0.00    -0.024 C 
ATOM     13  C   UNL     1     -17.146   1.199 -29.143  1.00  0.00     0.012 C 
ATOM     14  C   UNL     1     -16.393   3.016 -32.519  1.00  0.00     0.002 C 
ATOM     15  C   UNL     1     -16.858   3.853 -30.221  1.00  0.00     0.008 C 
ATOM     16  C   UNL     1     -18.835   3.003 -31.453  1.00  0.00     0.012 C 
ATOM     17  C   UNL     1     -16.482   4.464 -33.206  1.00  0.00    -0.026 C 
ATOM     18  C   UNL     1     -16.977   5.296 -30.742  1.00  0.00     0.005 C 
ATOM     19  C   UNL     1     -17.789   4.625 -34.050  1.00  0.00     0.010 C 
ATOM     20  C   UNL     1     -15.322   4.548 -34.263  1.00  0.00     0.012 C 
ATOM     21  C   UNL     1     -16.314   5.616 -32.121  1.00  0.00     0.003 C 
ATOM     22  C   UNL     1     -18.076   6.048 -34.545  1.00  0.00     0.033 C 
ATOM     23  C   UNL     1     -16.687   7.084 -32.631  1.00  0.00    -0.006 C 
ATOM     24  C   UNL     1     -18.036   7.090 -33.419  1.00  0.00     0.120 C 
ATOM     25  C   UNL     1     -16.793   8.086 -31.438  1.00  0.00     0.014 C 
ATOM     26  C   UNL     1     -15.554   7.673 -33.527  1.00  0.00     0.014 C 
ENDROOT
BRANCH   1  27
ATOM     27  C   UNL     1     -17.006  -1.066 -34.513  1.00  0.00     0.048 C 
ATOM     28  O   UNL     1     -16.631  -0.104 -35.237  1.00  0.00    -0.550 OA
ATOM     29  O   UNL     1     -17.494  -2.211 -35.143  1.00  0.00    -0.550 OA
ENDBRANCH   1  27
BRANCH   7  30
ATOM     30  C   UNL     1     -13.343  -1.334 -31.838  1.00  0.00    -0.077 C 
ATOM     31  C   UNL     1     -12.151  -0.865 -32.635  1.00  0.00     0.039 C 
ATOM     32  C   UNL     1     -13.155  -1.635 -30.539  1.00  0.00     0.008 C 
ENDBRANCH   7  30
BRANCH  24  33
ATOM     33  O   UNL     1     -19.125   6.869 -32.556  1.00  0.00    -0.393 OA
ATOM     34  H   UNL     1     -19.257   5.887 -32.498  1.00  0.00     0.210 HD
ENDBRANCH  24  33
TORSDOF 3
ENDMDL
