MODEL 1
REMARK VINA RESULT:    -5.303      0.000      0.000
REMARK INTER + INTRA:          -8.049
REMARK INTER:                  -7.163
REMARK INTRA:                  -0.886
REMARK UNBOUND:                -0.886
REMARK SMILES CC(=O)CCC=C(C)CCC=C(C)C
REMARK SMILES IDX 7 1 6 2 8 3 9 4 10 5 11 6 13 7 12 8 14 9 5 10 4 11 2 12 3 13
REMARK SMILES IDX 1 14
REMARK H PARENT
REMARK Flexibility Score: inf
ROOT
ATOM      1  C   UNL     1      47.110  19.601  21.177  1.00  0.00    -0.077 C 
ATOM      2  C   UNL     1      46.262  20.359  20.449  1.00  0.00    -0.028 C 
ATOM      3  C   UNL     1      46.815  19.253  22.617  1.00  0.00     0.039 C 
ENDROOT
BRANCH   1   4
ATOM      4  C   UNL     1      48.379  19.086  20.536  1.00  0.00     0.034 C 
BRANCH   4   5
ATOM      5  C   UNL     1      49.543  20.056  20.774  1.00  0.00     0.032 C 
BRANCH   5   6
ATOM      6  C   UNL     1      49.794  20.901  19.551  1.00  0.00    -0.028 C 
ATOM      7  C   UNL     1      48.945  22.997  20.627  1.00  0.00     0.039 C 
ATOM      8  C   UNL     1      49.554  22.229  19.477  1.00  0.00    -0.080 C 
ATOM      9  C   UNL     1      49.893  22.950  18.198  1.00  0.00     0.039 C 
ENDBRANCH   5   6
ENDBRANCH   4   5
ENDBRANCH   1   4
BRANCH   2  10
ATOM     10  C   UNL     1      44.973  20.918  21.002  1.00  0.00     0.035 C 
BRANCH  10  11
ATOM     11  C   UNL     1      44.852  22.419  20.718  1.00  0.00     0.079 C 
BRANCH  11  12
ATOM     12  C   UNL     1      43.414  22.862  20.794  1.00  0.00     0.130 C 
ATOM     13  O   UNL     1      42.578  22.111  21.274  1.00  0.00    -0.300 OA
ATOM     14  C   UNL     1      42.985  24.213  20.302  1.00  0.00     0.087 C 
ENDBRANCH  11  12
ENDBRANCH  10  11
ENDBRANCH   2  10
TORSDOF 6
ENDMDL
MODEL 2
REMARK VINA RESULT:    -5.285      3.126      5.700
REMARK INTER + INTRA:          -8.025
REMARK INTER:                  -6.988
REMARK INTRA:                  -1.037
REMARK UNBOUND:                -0.886
REMARK SMILES CC(=O)CCC=C(C)CCC=C(C)C
REMARK SMILES IDX 7 1 6 2 8 3 9 4 10 5 11 6 13 7 12 8 14 9 5 10 4 11 2 12 3 13
REMARK SMILES IDX 1 14
REMARK H PARENT
REMARK Flexibility Score: inf
ROOT
ATOM      1  C   UNL     1      49.732  21.896  19.694  1.00  0.00    -0.077 C 
ATOM      2  C   UNL     1      49.382  22.551  20.823  1.00  0.00    -0.028 C 
ATOM      3  C   UNL     1      49.739  22.591  18.352  1.00  0.00     0.039 C 
ENDROOT
BRANCH   1   4
ATOM      4  C   UNL     1      50.129  20.439  19.775  1.00  0.00     0.034 C 
BRANCH   4   5
ATOM      5  C   UNL     1      48.899  19.532  19.658  1.00  0.00     0.032 C 
BRANCH   5   6
ATOM      6  C   UNL     1      48.380  19.155  21.022  1.00  0.00    -0.028 C 
ATOM      7  C   UNL     1      46.261  20.462  20.754  1.00  0.00     0.039 C 
ATOM      8  C   UNL     1      47.186  19.545  21.520  1.00  0.00    -0.080 C 
ATOM      9  C   UNL     1      46.783  19.056  22.887  1.00  0.00     0.039 C 
ENDBRANCH   5   6
ENDBRANCH   4   5
ENDBRANCH   1   4
BRANCH   2  10
ATOM     10  C   UNL     1      48.970  24.003  20.840  1.00  0.00     0.035 C 
BRANCH  10  11
ATOM     11  C   UNL     1      49.955  24.849  21.653  1.00  0.00     0.079 C 
BRANCH  11  12
ATOM     12  C   UNL     1      50.949  25.528  20.748  1.00  0.00     0.130 C 
ATOM     13  O   UNL     1      50.679  26.618  20.268  1.00  0.00    -0.300 OA
ATOM     14  C   UNL     1      52.274  24.898  20.430  1.00  0.00     0.087 C 
ENDBRANCH  11  12
ENDBRANCH  10  11
ENDBRANCH   2  10
TORSDOF 6
ENDMDL
MODEL 3
REMARK VINA RESULT:    -5.241      2.776      4.878
REMARK INTER + INTRA:          -7.966
REMARK INTER:                  -6.974
REMARK INTRA:                  -0.992
REMARK UNBOUND:                -0.886
REMARK SMILES CC(=O)CCC=C(C)CCC=C(C)C
REMARK SMILES IDX 7 1 6 2 8 3 9 4 10 5 11 6 13 7 12 8 14 9 5 10 4 11 2 12 3 13
REMARK SMILES IDX 1 14
REMARK H PARENT
REMARK Flexibility Score: inf
ROOT
ATOM      1  C   UNL     1      50.316  22.248  18.617  1.00  0.00    -0.077 C 
ATOM      2  C   UNL     1      49.352  21.844  19.473  1.00  0.00    -0.028 C 
ATOM      3  C   UNL     1      51.623  21.500  18.495  1.00  0.00     0.039 C 
ENDROOT
BRANCH   1   4
ATOM      4  C   UNL     1      50.081  23.472  17.761  1.00  0.00     0.034 C 
BRANCH   4   5
ATOM      5  C   UNL     1      49.828  24.707  18.633  1.00  0.00     0.032 C 
BRANCH   5   6
ATOM      6  C   UNL     1      51.118  25.219  19.222  1.00  0.00    -0.028 C 
ATOM      7  C   UNL     1      50.427  24.723  21.577  1.00  0.00     0.039 C 
ATOM      8  C   UNL     1      51.412  25.210  20.541  1.00  0.00    -0.080 C 
ATOM      9  C   UNL     1      52.761  25.720  20.979  1.00  0.00     0.039 C 
ENDBRANCH   5   6
ENDBRANCH   4   5
ENDBRANCH   1   4
BRANCH   2  10
ATOM     10  C   UNL     1      49.497  20.637  20.368  1.00  0.00     0.035 C 
BRANCH  10  11
ATOM     11  C   UNL     1      48.468  19.558  20.015  1.00  0.00     0.079 C 
BRANCH  11  12
ATOM     12  C   UNL     1      47.232  19.702  20.864  1.00  0.00     0.130 C 
ATOM     13  O   UNL     1      46.232  20.219  20.389  1.00  0.00    -0.300 OA
ATOM     14  C   UNL     1      47.197  19.213  22.283  1.00  0.00     0.087 C 
ENDBRANCH  11  12
ENDBRANCH  10  11
ENDBRANCH   2  10
TORSDOF 6
ENDMDL
MODEL 4
REMARK VINA RESULT:    -5.233      3.139      6.045
REMARK INTER + INTRA:          -7.955
REMARK INTER:                  -7.147
REMARK INTRA:                  -0.808
REMARK UNBOUND:                -0.886
REMARK SMILES CC(=O)CCC=C(C)CCC=C(C)C
REMARK SMILES IDX 7 1 6 2 8 3 9 4 10 5 11 6 13 7 12 8 14 9 5 10 4 11 2 12 3 13
REMARK SMILES IDX 1 14
REMARK H PARENT
REMARK Flexibility Score: inf
ROOT
ATOM      1  C   UNL     1      49.540  21.820  20.045  1.00  0.00    -0.077 C 
ATOM      2  C   UNL     1      50.018  21.944  18.787  1.00  0.00    -0.028 C 
ATOM      3  C   UNL     1      49.034  23.016  20.816  1.00  0.00     0.039 C 
ENDROOT
BRANCH   1   4
ATOM      4  C   UNL     1      49.509  20.454  20.693  1.00  0.00     0.034 C 
BRANCH   4   5
ATOM      5  C   UNL     1      48.382  19.596  20.105  1.00  0.00     0.032 C 
BRANCH   5   6
ATOM      6  C   UNL     1      47.036  20.211  20.394  1.00  0.00    -0.028 C 
ATOM      7  C   UNL     1      46.847  19.130  22.645  1.00  0.00     0.039 C 
ATOM      8  C   UNL     1      46.345  20.031  21.541  1.00  0.00    -0.080 C 
ATOM      9  C   UNL     1      45.027  20.742  21.704  1.00  0.00     0.039 C 
ENDBRANCH   5   6
ENDBRANCH   4   5
ENDBRANCH   1   4
BRANCH   2  10
ATOM     10  C   UNL     1      50.091  23.265  18.060  1.00  0.00     0.035 C 
BRANCH  10  11
ATOM     11  C   UNL     1      51.533  23.775  17.977  1.00  0.00     0.079 C 
BRANCH  11  12
ATOM     12  C   UNL     1      51.730  24.967  18.877  1.00  0.00     0.130 C 
ATOM     13  O   UNL     1      51.506  26.089  18.447  1.00  0.00    -0.300 OA
ATOM     14  C   UNL     1      52.185  24.807  20.298  1.00  0.00     0.087 C 
ENDBRANCH  11  12
ENDBRANCH  10  11
ENDBRANCH   2  10
TORSDOF 6
ENDMDL
MODEL 5
REMARK VINA RESULT:    -5.155      2.438      4.392
REMARK INTER + INTRA:          -7.849
REMARK INTER:                  -6.923
REMARK INTRA:                  -0.926
REMARK UNBOUND:                -0.886
REMARK SMILES CC(=O)CCC=C(C)CCC=C(C)C
REMARK SMILES IDX 7 1 6 2 8 3 9 4 10 5 11 6 13 7 12 8 14 9 5 10 4 11 2 12 3 13
REMARK SMILES IDX 1 14
REMARK H PARENT
REMARK Flexibility Score: inf
ROOT
ATOM      1  C   UNL     1      49.509  21.955  19.603  1.00  0.00    -0.077 C 
ATOM      2  C   UNL     1      49.689  20.624  19.753  1.00  0.00    -0.028 C 
ATOM      3  C   UNL     1      48.939  22.802  20.716  1.00  0.00     0.039 C 
ENDROOT
BRANCH   1   4
ATOM      4  C   UNL     1      49.889  22.611  18.294  1.00  0.00     0.034 C 
BRANCH   4   5
ATOM      5  C   UNL     1      51.391  22.911  18.249  1.00  0.00     0.032 C 
BRANCH   5   6
ATOM      6  C   UNL     1      51.636  24.384  18.042  1.00  0.00    -0.028 C 
ATOM      7  C   UNL     1      52.025  24.826  20.476  1.00  0.00     0.039 C 
ATOM      8  C   UNL     1      51.946  25.253  19.029  1.00  0.00    -0.080 C 
ATOM      9  C   UNL     1      52.203  26.693  18.664  1.00  0.00     0.039 C 
ENDBRANCH   5   6
ENDBRANCH   4   5
ENDBRANCH   1   4
BRANCH   2  10
ATOM     10  C   UNL     1      49.339  19.883  21.020  1.00  0.00     0.035 C 
BRANCH  10  11
ATOM     11  C   UNL     1      48.042  19.085  20.854  1.00  0.00     0.079 C 
BRANCH  11  12
ATOM     12  C   UNL     1      46.989  19.573  21.815  1.00  0.00     0.130 C 
ATOM     13  O   UNL     1      46.984  19.157  22.964  1.00  0.00    -0.300 OA
ATOM     14  C   UNL     1      45.949  20.570  21.395  1.00  0.00     0.087 C 
ENDBRANCH  11  12
ENDBRANCH  10  11
ENDBRANCH   2  10
TORSDOF 6
ENDMDL
MODEL 6
REMARK VINA RESULT:    -5.131      1.399      2.087
REMARK INTER + INTRA:          -7.817
REMARK INTER:                  -7.260
REMARK INTRA:                  -0.557
REMARK UNBOUND:                -0.886
REMARK SMILES CC(=O)CCC=C(C)CCC=C(C)C
REMARK SMILES IDX 7 1 6 2 8 3 9 4 10 5 11 6 13 7 12 8 14 9 5 10 4 11 2 12 3 13
REMARK SMILES IDX 1 14
REMARK H PARENT
REMARK Flexibility Score: inf
ROOT
ATOM      1  C   UNL     1      47.845  20.078  20.761  1.00  0.00    -0.077 C 
ATOM      2  C   UNL     1      46.902  20.619  19.959  1.00  0.00    -0.028 C 
ATOM      3  C   UNL     1      47.473  19.350  22.032  1.00  0.00     0.039 C 
ENDROOT
BRANCH   1   4
ATOM      4  C   UNL     1      49.302  20.201  20.378  1.00  0.00     0.034 C 
BRANCH   4   5
ATOM      5  C   UNL     1      49.590  21.574  19.761  1.00  0.00     0.032 C 
BRANCH   5   6
ATOM      6  C   UNL     1      49.554  22.652  20.814  1.00  0.00    -0.028 C 
ATOM      7  C   UNL     1      51.487  23.904  19.829  1.00  0.00     0.039 C 
ATOM      8  C   UNL     1      50.383  23.719  20.845  1.00  0.00    -0.080 C 
ATOM      9  C   UNL     1      50.202  24.738  21.940  1.00  0.00     0.039 C 
ENDBRANCH   5   6
ENDBRANCH   4   5
ENDBRANCH   1   4
BRANCH   2  10
ATOM     10  C   UNL     1      45.424  20.548  20.260  1.00  0.00     0.035 C 
BRANCH  10  11
ATOM     11  C   UNL     1      44.894  21.898  20.754  1.00  0.00     0.079 C 
BRANCH  11  12
ATOM     12  C   UNL     1      43.511  21.748  21.334  1.00  0.00     0.130 C 
ATOM     13  O   UNL     1      42.545  22.136  20.694  1.00  0.00    -0.300 OA
ATOM     14  C   UNL     1      43.292  21.120  22.680  1.00  0.00     0.087 C 
ENDBRANCH  11  12
ENDBRANCH  10  11
ENDBRANCH   2  10
TORSDOF 6
ENDMDL
MODEL 7
REMARK VINA RESULT:    -5.122      1.726      2.630
REMARK INTER + INTRA:          -7.804
REMARK INTER:                  -7.046
REMARK INTRA:                  -0.759
REMARK UNBOUND:                -0.886
REMARK SMILES CC(=O)CCC=C(C)CCC=C(C)C
REMARK SMILES IDX 7 1 6 2 8 3 9 4 10 5 11 6 13 7 12 8 14 9 5 10 4 11 2 12 3 13
REMARK SMILES IDX 1 14
REMARK H PARENT
REMARK Flexibility Score: inf
ROOT
ATOM      1  C   UNL     1      49.125  20.388  20.109  1.00  0.00    -0.077 C 
ATOM      2  C   UNL     1      47.955  21.051  20.246  1.00  0.00    -0.028 C 
ATOM      3  C   UNL     1      49.351  19.047  20.769  1.00  0.00     0.039 C 
ENDROOT
BRANCH   1   4
ATOM      4  C   UNL     1      50.229  20.998  19.276  1.00  0.00     0.034 C 
BRANCH   4   5
ATOM      5  C   UNL     1      49.864  22.424  18.847  1.00  0.00     0.032 C 
BRANCH   5   6
ATOM      6  C   UNL     1      50.983  23.382  19.168  1.00  0.00    -0.028 C 
ATOM      7  C   UNL     1      50.041  23.983  21.410  1.00  0.00     0.039 C 
ATOM      8  C   UNL     1      51.090  24.071  20.326  1.00  0.00    -0.080 C 
ATOM      9  C   UNL     1      52.288  24.965  20.522  1.00  0.00     0.039 C 
ENDBRANCH   5   6
ENDBRANCH   4   5
ENDBRANCH   1   4
BRANCH   2  10
ATOM     10  C   UNL     1      46.798  20.522  21.059  1.00  0.00     0.035 C 
BRANCH  10  11
ATOM     11  C   UNL     1      45.480  20.639  20.287  1.00  0.00     0.079 C 
BRANCH  11  12
ATOM     12  C   UNL     1      44.559  21.628  20.953  1.00  0.00     0.130 C 
ATOM     13  O   UNL     1      44.516  22.779  20.544  1.00  0.00    -0.300 OA
ATOM     14  C   UNL     1      43.681  21.229  22.103  1.00  0.00     0.087 C 
ENDBRANCH  11  12
ENDBRANCH  10  11
ENDBRANCH   2  10
TORSDOF 6
ENDMDL
MODEL 8
REMARK VINA RESULT:    -4.988      2.148      4.854
REMARK INTER + INTRA:          -7.624
REMARK INTER:                  -6.806
REMARK INTRA:                  -0.817
REMARK UNBOUND:                -0.886
REMARK SMILES CC(=O)CCC=C(C)CCC=C(C)C
REMARK SMILES IDX 7 1 6 2 8 3 9 4 10 5 11 6 13 7 12 8 14 9 5 10 4 11 2 12 3 13
REMARK SMILES IDX 1 14
REMARK H PARENT
REMARK Flexibility Score: inf
ROOT
ATOM      1  C   UNL     1      50.076  22.304  19.609  1.00  0.00    -0.077 C 
ATOM      2  C   UNL     1      50.421  22.918  20.762  1.00  0.00    -0.028 C 
ATOM      3  C   UNL     1      49.842  23.089  18.339  1.00  0.00     0.039 C 
ENDROOT
BRANCH   1   4
ATOM      4  C   UNL     1      49.925  20.800  19.587  1.00  0.00     0.034 C 
BRANCH   4   5
ATOM      5  C   UNL     1      48.932  20.335  20.659  1.00  0.00     0.032 C 
BRANCH   5   6
ATOM      6  C   UNL     1      47.514  20.625  20.237  1.00  0.00    -0.028 C 
ATOM      7  C   UNL     1      46.521  19.593  22.292  1.00  0.00     0.039 C 
ATOM      8  C   UNL     1      46.421  20.320  20.971  1.00  0.00    -0.080 C 
ATOM      9  C   UNL     1      45.067  20.707  20.436  1.00  0.00     0.039 C 
ENDBRANCH   5   6
ENDBRANCH   4   5
ENDBRANCH   1   4
BRANCH   2  10
ATOM     10  C   UNL     1      50.593  24.413  20.881  1.00  0.00     0.035 C 
BRANCH  10  11
ATOM     11  C   UNL     1      49.550  25.018  21.825  1.00  0.00     0.079 C 
BRANCH  11  12
ATOM     12  C   UNL     1      48.267  25.306  21.089  1.00  0.00     0.130 C 
ATOM     13  O   UNL     1      47.359  24.489  21.122  1.00  0.00    -0.300 OA
ATOM     14  C   UNL     1      48.075  26.582  20.323  1.00  0.00     0.087 C 
ENDBRANCH  11  12
ENDBRANCH  10  11
ENDBRANCH   2  10
TORSDOF 6
ENDMDL
MODEL 9
REMARK VINA RESULT:    -4.976      2.615      4.687
REMARK INTER + INTRA:          -7.607
REMARK INTER:                  -6.793
REMARK INTRA:                  -0.814
REMARK UNBOUND:                -0.886
REMARK SMILES CC(=O)CCC=C(C)CCC=C(C)C
REMARK SMILES IDX 7 1 6 2 8 3 9 4 10 5 11 6 13 7 12 8 14 9 5 10 4 11 2 12 3 13
REMARK SMILES IDX 1 14
REMARK H PARENT
REMARK Flexibility Score: inf
ROOT
ATOM      1  C   UNL     1      49.943  22.586  20.002  1.00  0.00    -0.077 C 
ATOM      2  C   UNL     1      49.354  21.617  20.737  1.00  0.00    -0.028 C 
ATOM      3  C   UNL     1      49.717  22.689  18.511  1.00  0.00     0.039 C 
ENDROOT
BRANCH   1   4
ATOM      4  C   UNL     1      50.843  23.590  20.685  1.00  0.00     0.034 C 
BRANCH   4   5
ATOM      5  C   UNL     1      50.024  24.568  21.535  1.00  0.00     0.032 C 
BRANCH   5   6
ATOM      6  C   UNL     1      49.587  25.755  20.713  1.00  0.00    -0.028 C 
ATOM      7  C   UNL     1      47.156  25.399  21.198  1.00  0.00     0.039 C 
ATOM      8  C   UNL     1      48.304  26.155  20.572  1.00  0.00    -0.080 C 
ATOM      9  C   UNL     1      48.023  27.386  19.749  1.00  0.00     0.039 C 
ENDBRANCH   5   6
ENDBRANCH   4   5
ENDBRANCH   1   4
BRANCH   2  10
ATOM     10  C   UNL     1      48.442  20.571  20.143  1.00  0.00     0.035 C 
BRANCH  10  11
ATOM     11  C   UNL     1      48.270  19.382  21.093  1.00  0.00     0.079 C 
BRANCH  11  12
ATOM     12  C   UNL     1      47.023  19.539  21.924  1.00  0.00     0.130 C 
ATOM     13  O   UNL     1      46.931  18.946  22.988  1.00  0.00    -0.300 OA
ATOM     14  C   UNL     1      45.892  20.418  21.478  1.00  0.00     0.087 C 
ENDBRANCH  11  12
ENDBRANCH  10  11
ENDBRANCH   2  10
TORSDOF 6
ENDMDL
