MODEL 1
REMARK VINA RESULT:    -2.182      0.000      0.000
REMARK INTER + INTRA:          -2.182
REMARK INTER:                  -2.182
REMARK INTRA:                   0.000
REMARK UNBOUND:                 0.000
REMARK SMILES CC(=O)[O-]
REMARK SMILES IDX 1 1 2 2 3 3 4 4
REMARK H PARENT
REMARK Flexibility Score: inf
ROOT
ATOM      1  C   UNL     1      10.039   0.103 128.329  1.00  0.00     0.063 C 
ATOM      2  C   UNL     1       8.839   0.921 127.995  1.00  0.00     0.038 C 
ATOM      3  O   UNL     1       8.301   1.644 128.874  1.00  0.00    -0.550 OA
ATOM      4  O   UNL     1       8.276   0.846 126.728  1.00  0.00    -0.550 OA
ENDROOT
TORSDOF 0
ENDMDL
MODEL 2
REMARK VINA RESULT:    -2.068      1.401      1.788
REMARK INTER + INTRA:          -2.068
REMARK INTER:                  -2.068
REMARK INTRA:                   0.000
REMARK UNBOUND:                 0.000
REMARK SMILES CC(=O)[O-]
REMARK SMILES IDX 1 1 2 2 3 3 4 4
REMARK H PARENT
REMARK Flexibility Score: inf
ROOT
ATOM      1  C   UNL     1       7.789   0.862 127.108  1.00  0.00     0.063 C 
ATOM      2  C   UNL     1       8.845   0.969 128.153  1.00  0.00     0.038 C 
ATOM      3  O   UNL     1       8.793   1.887 129.014  1.00  0.00    -0.550 OA
ATOM      4  O   UNL     1       9.921   0.091 128.150  1.00  0.00    -0.550 OA
ENDROOT
TORSDOF 0
ENDMDL
MODEL 3
REMARK VINA RESULT:    -1.845      6.219      6.885
REMARK INTER + INTRA:          -1.845
REMARK INTER:                  -1.845
REMARK INTRA:                   0.000
REMARK UNBOUND:                 0.000
REMARK SMILES CC(=O)[O-]
REMARK SMILES IDX 1 1 2 2 3 3 4 4
REMARK H PARENT
REMARK Flexibility Score: inf
ROOT
ATOM      1  C   UNL     1       5.093   3.688 122.126  1.00  0.00     0.063 C 
ATOM      2  C   UNL     1       5.512   2.354 122.640  1.00  0.00     0.038 C 
ATOM      3  O   UNL     1       6.230   1.600 121.932  1.00  0.00    -0.550 OA
ATOM      4  O   UNL     1       5.070   1.915 123.881  1.00  0.00    -0.550 OA
ENDROOT
TORSDOF 0
ENDMDL
MODEL 4
REMARK VINA RESULT:    -1.830      6.012      6.372
REMARK INTER + INTRA:          -1.830
REMARK INTER:                  -1.830
REMARK INTRA:                   0.000
REMARK UNBOUND:                 0.000
REMARK SMILES CC(=O)[O-]
REMARK SMILES IDX 1 1 2 2 3 3 4 4
REMARK H PARENT
REMARK Flexibility Score: inf
ROOT
ATOM      1  C   UNL     1      10.664   5.747 128.866  1.00  0.00     0.063 C 
ATOM      2  C   UNL     1      10.219   6.942 128.095  1.00  0.00     0.038 C 
ATOM      3  O   UNL     1      10.953   7.421 127.191  1.00  0.00    -0.550 OA
ATOM      4  O   UNL     1       9.017   7.564 128.407  1.00  0.00    -0.550 OA
ENDROOT
TORSDOF 0
ENDMDL
MODEL 5
REMARK VINA RESULT:    -1.788      6.141      6.553
REMARK INTER + INTRA:          -1.788
REMARK INTER:                  -1.788
REMARK INTRA:                   0.000
REMARK UNBOUND:                 0.000
REMARK SMILES CC(=O)[O-]
REMARK SMILES IDX 1 1 2 2 3 3 4 4
REMARK H PARENT
REMARK Flexibility Score: inf
ROOT
ATOM      1  C   UNL     1      10.846   7.754 127.075  1.00  0.00     0.063 C 
ATOM      2  C   UNL     1      10.012   7.107 128.126  1.00  0.00     0.038 C 
ATOM      3  O   UNL     1       8.921   7.627 128.477  1.00  0.00    -0.550 OA
ATOM      4  O   UNL     1      10.460   5.956 128.761  1.00  0.00    -0.550 OA
ENDROOT
TORSDOF 0
ENDMDL
MODEL 6
REMARK VINA RESULT:    -1.731      6.527      6.899
REMARK INTER + INTRA:          -1.731
REMARK INTER:                  -1.731
REMARK INTRA:                   0.000
REMARK UNBOUND:                 0.000
REMARK SMILES CC(=O)[O-]
REMARK SMILES IDX 1 1 2 2 3 3 4 4
REMARK H PARENT
REMARK Flexibility Score: inf
ROOT
ATOM      1  C   UNL     1       9.242   8.092 128.186  1.00  0.00     0.063 C 
ATOM      2  C   UNL     1      10.243   7.261 127.460  1.00  0.00     0.038 C 
ATOM      3  O   UNL     1      10.058   6.023 127.324  1.00  0.00    -0.550 OA
ATOM      4  O   UNL     1      11.410   7.838 126.977  1.00  0.00    -0.550 OA
ENDROOT
TORSDOF 0
ENDMDL
MODEL 7
REMARK VINA RESULT:    -1.719     15.620     16.243
REMARK INTER + INTRA:          -1.719
REMARK INTER:                  -1.719
REMARK INTRA:                   0.000
REMARK UNBOUND:                 0.000
REMARK SMILES CC(=O)[O-]
REMARK SMILES IDX 1 1 2 2 3 3 4 4
REMARK H PARENT
REMARK Flexibility Score: inf
ROOT
ATOM      1  C   UNL     1       4.056   5.085 111.893  1.00  0.00     0.063 C 
ATOM      2  C   UNL     1       4.883   4.177 112.738  1.00  0.00     0.038 C 
ATOM      3  O   UNL     1       5.277   4.553 113.873  1.00  0.00    -0.550 OA
ATOM      4  O   UNL     1       5.266   2.933 112.254  1.00  0.00    -0.550 OA
ENDROOT
TORSDOF 0
ENDMDL
MODEL 8
REMARK VINA RESULT:    -1.683     17.521     17.840
REMARK INTER + INTRA:          -1.683
REMARK INTER:                  -1.683
REMARK INTRA:                   0.000
REMARK UNBOUND:                 0.000
REMARK SMILES CC(=O)[O-]
REMARK SMILES IDX 1 1 2 2 3 3 4 4
REMARK H PARENT
REMARK Flexibility Score: inf
ROOT
ATOM      1  C   UNL     1       4.450   4.053 111.171  1.00  0.00     0.063 C 
ATOM      2  C   UNL     1       3.918   5.404 111.507  1.00  0.00     0.038 C 
ATOM      3  O   UNL     1       2.972   5.525 112.329  1.00  0.00    -0.550 OA
ATOM      4  O   UNL     1       4.428   6.531 110.875  1.00  0.00    -0.550 OA
ENDROOT
TORSDOF 0
ENDMDL
