MODEL 1
REMARK VINA RESULT:    -3.170      0.000      0.000
REMARK INTER + INTRA:          -5.863
REMARK INTER:                  -4.838
REMARK INTRA:                  -1.025
REMARK UNBOUND:                -1.025
REMARK SMILES CCCCCCCCCCC(=O)[O-]
REMARK SMILES IDX 7 1 8 2 9 3 10 4 11 5 12 6 13 7 6 8 5 9 4 10 3 11 2 12 1 13
REMARK H PARENT
REMARK Flexibility Score: inf
ROOT
ATOM      1  C   UNL     1      33.124  19.424  12.756  1.00  0.00     0.000 C 
ENDROOT
BRANCH   1   2
ATOM      2  C   UNL     1      33.748  20.743  12.287  1.00  0.00     0.000 C 
BRANCH   2   3
ATOM      3  C   UNL     1      35.162  20.519  11.737  1.00  0.00     0.006 C 
BRANCH   3   4
ATOM      4  C   UNL     1      35.678  21.772  11.023  1.00  0.00     0.053 C 
BRANCH   4   5
ATOM      5  C   UNL     1      35.942  21.481   9.580  1.00  0.00     0.041 C 
ATOM      6  O   UNL     1      36.976  20.848   9.240  1.00  0.00    -0.550 OA
ATOM      7  O   UNL     1      35.071  21.951   8.606  1.00  0.00    -0.550 OA
ENDBRANCH   4   5
ENDBRANCH   3   4
ENDBRANCH   2   3
ENDBRANCH   1   2
BRANCH   1   8
ATOM      8  C   UNL     1      33.638  19.036  14.151  1.00  0.00     0.000 C 
BRANCH   8   9
ATOM      9  C   UNL     1      33.564  20.197  15.155  1.00  0.00    -0.000 C 
BRANCH   9  10
ATOM     10  C   UNL     1      34.632  20.100  16.253  1.00  0.00    -0.000 C 
BRANCH  10  11
ATOM     11  C   UNL     1      36.034  20.357  15.679  1.00  0.00    -0.000 C 
BRANCH  11  12
ATOM     12  C   UNL     1      36.191  21.779  15.120  1.00  0.00    -0.003 C 
ATOM     13  C   UNL     1      37.584  22.041  14.549  1.00  0.00     0.004 C 
ENDBRANCH  11  12
ENDBRANCH  10  11
ENDBRANCH   9  10
ENDBRANCH   8   9
ENDBRANCH   1   8
TORSDOF 9
ENDMDL
MODEL 2
REMARK VINA RESULT:    -3.130      3.233      5.658
REMARK INTER + INTRA:          -5.802
REMARK INTER:                  -5.298
REMARK INTRA:                  -0.504
REMARK UNBOUND:                -1.025
REMARK SMILES CCCCCCCCCCC(=O)[O-]
REMARK SMILES IDX 7 1 8 2 9 3 10 4 11 5 12 6 13 7 6 8 5 9 4 10 3 11 2 12 1 13
REMARK H PARENT
REMARK Flexibility Score: inf
ROOT
ATOM      1  C   UNL     1      35.908  21.102  14.614  1.00  0.00     0.000 C 
ENDROOT
BRANCH   1   2
ATOM      2  C   UNL     1      35.882  20.085  15.760  1.00  0.00     0.000 C 
BRANCH   2   3
ATOM      3  C   UNL     1      34.635  20.271  16.634  1.00  0.00     0.006 C 
BRANCH   3   4
ATOM      4  C   UNL     1      33.356  20.031  15.824  1.00  0.00     0.053 C 
BRANCH   4   5
ATOM      5  C   UNL     1      33.262  18.597  15.407  1.00  0.00     0.041 C 
ATOM      6  O   UNL     1      33.238  18.293  14.185  1.00  0.00    -0.550 OA
ATOM      7  O   UNL     1      33.151  17.600  16.368  1.00  0.00    -0.550 OA
ENDBRANCH   4   5
ENDBRANCH   3   4
ENDBRANCH   2   3
ENDBRANCH   1   2
BRANCH   1   8
ATOM      8  C   UNL     1      36.831  22.285  14.949  1.00  0.00     0.000 C 
BRANCH   8   9
ATOM      9  C   UNL     1      37.387  22.977  13.695  1.00  0.00    -0.000 C 
BRANCH   9  10
ATOM     10  C   UNL     1      36.361  23.053  12.555  1.00  0.00    -0.000 C 
BRANCH  10  11
ATOM     11  C   UNL     1      37.034  22.817  11.195  1.00  0.00    -0.000 C 
BRANCH  11  12
ATOM     12  C   UNL     1      36.072  22.222  10.155  1.00  0.00    -0.003 C 
ATOM     13  C   UNL     1      36.707  21.099   9.335  1.00  0.00     0.004 C 
ENDBRANCH  11  12
ENDBRANCH  10  11
ENDBRANCH   9  10
ENDBRANCH   8   9
ENDBRANCH   1   8
TORSDOF 9
ENDMDL
MODEL 3
REMARK VINA RESULT:    -3.106      0.778      1.542
REMARK INTER + INTRA:          -5.766
REMARK INTER:                  -4.999
REMARK INTRA:                  -0.767
REMARK UNBOUND:                -1.025
REMARK SMILES CCCCCCCCCCC(=O)[O-]
REMARK SMILES IDX 7 1 8 2 9 3 10 4 11 5 12 6 13 7 6 8 5 9 4 10 3 11 2 12 1 13
REMARK H PARENT
REMARK Flexibility Score: inf
ROOT
ATOM      1  C   UNL     1      33.978  19.856  12.634  1.00  0.00     0.000 C 
ENDROOT
BRANCH   1   2
ATOM      2  C   UNL     1      33.206  20.486  11.469  1.00  0.00     0.000 C 
BRANCH   2   3
ATOM      3  C   UNL     1      33.865  21.795  11.014  1.00  0.00     0.006 C 
BRANCH   3   4
ATOM      4  C   UNL     1      35.388  21.648  10.944  1.00  0.00     0.053 C 
BRANCH   4   5
ATOM      5  C   UNL     1      35.834  21.496   9.524  1.00  0.00     0.041 C 
ATOM      6  O   UNL     1      35.149  21.988   8.589  1.00  0.00    -0.550 OA
ATOM      7  O   UNL     1      36.980  20.769   9.229  1.00  0.00    -0.550 OA
ENDBRANCH   4   5
ENDBRANCH   3   4
ENDBRANCH   2   3
ENDBRANCH   1   2
BRANCH   1   8
ATOM      8  C   UNL     1      33.095  18.865  13.408  1.00  0.00     0.000 C 
BRANCH   8   9
ATOM      9  C   UNL     1      33.547  18.681  14.865  1.00  0.00    -0.000 C 
BRANCH   9  10
ATOM     10  C   UNL     1      33.288  19.925  15.728  1.00  0.00    -0.000 C 
BRANCH  10  11
ATOM     11  C   UNL     1      34.523  20.273  16.573  1.00  0.00    -0.000 C 
BRANCH  11  12
ATOM     12  C   UNL     1      35.840  20.035  15.819  1.00  0.00    -0.003 C 
ATOM     13  C   UNL     1      36.355  21.290  15.114  1.00  0.00     0.004 C 
ENDBRANCH  11  12
ENDBRANCH  10  11
ENDBRANCH   9  10
ENDBRANCH   8   9
ENDBRANCH   1   8
TORSDOF 9
ENDMDL
MODEL 4
REMARK VINA RESULT:    -2.976      2.329      4.520
REMARK INTER + INTRA:          -5.567
REMARK INTER:                  -4.797
REMARK INTRA:                  -0.770
REMARK UNBOUND:                -1.025
REMARK SMILES CCCCCCCCCCC(=O)[O-]
REMARK SMILES IDX 7 1 8 2 9 3 10 4 11 5 12 6 13 7 6 8 5 9 4 10 3 11 2 12 1 13
REMARK H PARENT
REMARK Flexibility Score: inf
ROOT
ATOM      1  C   UNL     1      33.932  18.981  14.677  1.00  0.00     0.000 C 
ENDROOT
BRANCH   1   2
ATOM      2  C   UNL     1      33.725  20.080  15.725  1.00  0.00     0.000 C 
BRANCH   2   3
ATOM      3  C   UNL     1      35.060  20.502  16.353  1.00  0.00     0.006 C 
BRANCH   3   4
ATOM      4  C   UNL     1      36.214  20.321  15.362  1.00  0.00     0.053 C 
BRANCH   4   5
ATOM      5  C   UNL     1      36.638  21.643  14.805  1.00  0.00     0.041 C 
ATOM      6  O   UNL     1      35.775  22.465  14.400  1.00  0.00    -0.550 OA
ATOM      7  O   UNL     1      37.988  21.946  14.687  1.00  0.00    -0.550 OA
ENDBRANCH   4   5
ENDBRANCH   3   4
ENDBRANCH   2   3
ENDBRANCH   1   2
BRANCH   1   8
ATOM      8  C   UNL     1      32.973  19.164  13.491  1.00  0.00     0.000 C 
BRANCH   8   9
ATOM      9  C   UNL     1      32.996  20.591  12.923  1.00  0.00    -0.000 C 
BRANCH   9  10
ATOM     10  C   UNL     1      33.494  20.643  11.471  1.00  0.00    -0.000 C 
BRANCH  10  11
ATOM     11  C   UNL     1      35.023  20.777  11.420  1.00  0.00    -0.000 C 
BRANCH  11  12
ATOM     12  C   UNL     1      35.499  21.671  10.265  1.00  0.00    -0.003 C 
ATOM     13  C   UNL     1      36.614  21.029   9.439  1.00  0.00     0.004 C 
ENDBRANCH  11  12
ENDBRANCH  10  11
ENDBRANCH   9  10
ENDBRANCH   8   9
ENDBRANCH   1   8
TORSDOF 9
ENDMDL
MODEL 5
REMARK VINA RESULT:    -2.969      2.970      5.589
REMARK INTER + INTRA:          -5.557
REMARK INTER:                  -4.940
REMARK INTRA:                  -0.616
REMARK UNBOUND:                -1.025
REMARK SMILES CCCCCCCCCCC(=O)[O-]
REMARK SMILES IDX 7 1 8 2 9 3 10 4 11 5 12 6 13 7 6 8 5 9 4 10 3 11 2 12 1 13
REMARK H PARENT
REMARK Flexibility Score: inf
ROOT
ATOM      1  C   UNL     1      37.310  21.737  14.428  1.00  0.00     0.000 C 
ENDROOT
BRANCH   1   2
ATOM      2  C   UNL     1      36.123  21.670  15.396  1.00  0.00     0.000 C 
BRANCH   2   3
ATOM      3  C   UNL     1      35.865  20.228  15.852  1.00  0.00     0.006 C 
BRANCH   3   4
ATOM      4  C   UNL     1      34.381  20.008  16.161  1.00  0.00     0.053 C 
BRANCH   4   5
ATOM      5  C   UNL     1      33.820  18.927  15.292  1.00  0.00     0.041 C 
ATOM      6  O   UNL     1      33.837  19.048  14.039  1.00  0.00    -0.550 OA
ATOM      7  O   UNL     1      33.234  17.807  15.868  1.00  0.00    -0.550 OA
ENDBRANCH   4   5
ENDBRANCH   3   4
ENDBRANCH   2   3
ENDBRANCH   1   2
BRANCH   1   8
ATOM      8  C   UNL     1      37.081  22.806  13.349  1.00  0.00     0.000 C 
BRANCH   8   9
ATOM      9  C   UNL     1      35.664  22.757  12.756  1.00  0.00    -0.000 C 
BRANCH   9  10
ATOM     10  C   UNL     1      35.488  21.623  11.734  1.00  0.00    -0.000 C 
BRANCH  10  11
ATOM     11  C   UNL     1      34.679  22.102  10.519  1.00  0.00    -0.000 C 
BRANCH  11  12
ATOM     12  C   UNL     1      35.417  21.874   9.192  1.00  0.00    -0.003 C 
ATOM     13  C   UNL     1      36.753  21.155   9.372  1.00  0.00     0.004 C 
ENDBRANCH  11  12
ENDBRANCH  10  11
ENDBRANCH   9  10
ENDBRANCH   8   9
ENDBRANCH   1   8
TORSDOF 9
ENDMDL
MODEL 6
REMARK VINA RESULT:    -2.822      1.414      2.983
REMARK INTER + INTRA:          -5.332
REMARK INTER:                  -4.361
REMARK INTRA:                  -0.972
REMARK UNBOUND:                -1.025
REMARK SMILES CCCCCCCCCCC(=O)[O-]
REMARK SMILES IDX 7 1 8 2 9 3 10 4 11 5 12 6 13 7 6 8 5 9 4 10 3 11 2 12 1 13
REMARK H PARENT
REMARK Flexibility Score: inf
ROOT
ATOM      1  C   UNL     1      35.424  21.661  14.204  1.00  0.00     0.000 C 
ENDROOT
BRANCH   1   2
ATOM      2  C   UNL     1      36.548  22.322  13.399  1.00  0.00     0.000 C 
BRANCH   2   3
ATOM      3  C   UNL     1      35.999  22.989  12.131  1.00  0.00     0.006 C 
BRANCH   3   4
ATOM      4  C   UNL     1      36.901  22.705  10.926  1.00  0.00     0.053 C 
BRANCH   4   5
ATOM      5  C   UNL     1      36.309  21.630  10.071  1.00  0.00     0.041 C 
ATOM      6  O   UNL     1      37.027  21.013   9.241  1.00  0.00    -0.550 OA
ATOM      7  O   UNL     1      34.953  21.343  10.156  1.00  0.00    -0.550 OA
ENDBRANCH   4   5
ENDBRANCH   3   4
ENDBRANCH   2   3
ENDBRANCH   1   2
BRANCH   1   8
ATOM      8  C   UNL     1      34.048  22.007  13.616  1.00  0.00     0.000 C 
BRANCH   8   9
ATOM      9  C   UNL     1      33.272  20.765  13.150  1.00  0.00    -0.000 C 
BRANCH   9  10
ATOM     10  C   UNL     1      34.004  19.453  13.471  1.00  0.00    -0.000 C 
BRANCH  10  11
ATOM     11  C   UNL     1      33.228  18.633  14.513  1.00  0.00    -0.000 C 
BRANCH  11  12
ATOM     12  C   UNL     1      33.842  18.730  15.917  1.00  0.00    -0.003 C 
ATOM     13  C   UNL     1      33.188  19.812  16.777  1.00  0.00     0.004 C 
ENDBRANCH  11  12
ENDBRANCH  10  11
ENDBRANCH   9  10
ENDBRANCH   8   9
ENDBRANCH   1   8
TORSDOF 9
ENDMDL
MODEL 7
REMARK VINA RESULT:    -2.753     14.033     16.183
REMARK INTER + INTRA:          -5.226
REMARK INTER:                  -4.529
REMARK INTRA:                  -0.697
REMARK UNBOUND:                -1.025
REMARK SMILES CCCCCCCCCCC(=O)[O-]
REMARK SMILES IDX 7 1 8 2 9 3 10 4 11 5 12 6 13 7 6 8 5 9 4 10 3 11 2 12 1 13
REMARK H PARENT
REMARK Flexibility Score: inf
ROOT
ATOM      1  C   UNL     1      47.483  21.409  16.821  1.00  0.00     0.000 C 
ENDROOT
BRANCH   1   2
ATOM      2  C   UNL     1      47.731  22.875  17.190  1.00  0.00     0.000 C 
BRANCH   2   3
ATOM      3  C   UNL     1      48.098  23.016  18.673  1.00  0.00     0.006 C 
BRANCH   3   4
ATOM      4  C   UNL     1      49.586  22.735  18.900  1.00  0.00     0.053 C 
BRANCH   4   5
ATOM      5  C   UNL     1      49.823  22.272  20.302  1.00  0.00     0.041 C 
ATOM      6  O   UNL     1      50.758  21.467  20.554  1.00  0.00    -0.550 OA
ATOM      7  O   UNL     1      48.982  22.692  21.324  1.00  0.00    -0.550 OA
ENDBRANCH   4   5
ENDBRANCH   3   4
ENDBRANCH   2   3
ENDBRANCH   1   2
BRANCH   1   8
ATOM      8  C   UNL     1      48.217  21.035  15.524  1.00  0.00     0.000 C 
BRANCH   8   9
ATOM      9  C   UNL     1      49.654  21.576  15.479  1.00  0.00    -0.000 C 
BRANCH   9  10
ATOM     10  C   UNL     1      50.565  20.763  14.547  1.00  0.00    -0.000 C 
BRANCH  10  11
ATOM     11  C   UNL     1      52.042  21.112  14.783  1.00  0.00    -0.000 C 
BRANCH  11  12
ATOM     12  C   UNL     1      52.237  22.107  15.937  1.00  0.00    -0.003 C 
ATOM     13  C   UNL     1      52.875  21.468  17.170  1.00  0.00     0.004 C 
ENDBRANCH  11  12
ENDBRANCH  10  11
ENDBRANCH   9  10
ENDBRANCH   8   9
ENDBRANCH   1   8
TORSDOF 9
ENDMDL
MODEL 8
REMARK VINA RESULT:    -2.731     14.196     16.949
REMARK INTER + INTRA:          -5.193
REMARK INTER:                  -4.459
REMARK INTRA:                  -0.734
REMARK UNBOUND:                -1.025
REMARK SMILES CCCCCCCCCCC(=O)[O-]
REMARK SMILES IDX 7 1 8 2 9 3 10 4 11 5 12 6 13 7 6 8 5 9 4 10 3 11 2 12 1 13
REMARK H PARENT
REMARK Flexibility Score: inf
ROOT
ATOM      1  C   UNL     1      52.359  22.056  15.980  1.00  0.00     0.000 C 
ENDROOT
BRANCH   1   2
ATOM      2  C   UNL     1      52.965  21.521  17.283  1.00  0.00     0.000 C 
BRANCH   2   3
ATOM      3  C   UNL     1      52.700  22.482  18.449  1.00  0.00     0.006 C 
BRANCH   3   4
ATOM      4  C   UNL     1      51.204  22.561  18.767  1.00  0.00     0.053 C 
BRANCH   4   5
ATOM      5  C   UNL     1      50.928  21.997  20.125  1.00  0.00     0.041 C 
ATOM      6  O   UNL     1      51.801  21.309  20.715  1.00  0.00    -0.550 OA
ATOM      7  O   UNL     1      49.687  22.191  20.718  1.00  0.00    -0.550 OA
ENDBRANCH   4   5
ENDBRANCH   3   4
ENDBRANCH   2   3
ENDBRANCH   1   2
BRANCH   1   8
ATOM      8  C   UNL     1      52.026  20.907  15.016  1.00  0.00     0.000 C 
BRANCH   8   9
ATOM      9  C   UNL     1      50.554  20.910  14.575  1.00  0.00    -0.000 C 
BRANCH   9  10
ATOM     10  C   UNL     1      49.629  21.585  15.599  1.00  0.00    -0.000 C 
BRANCH  10  11
ATOM     11  C   UNL     1      48.217  20.983  15.543  1.00  0.00    -0.000 C 
BRANCH  11  12
ATOM     12  C   UNL     1      47.313  21.492  16.675  1.00  0.00    -0.003 C 
ATOM     13  C   UNL     1      47.761  22.845  17.229  1.00  0.00     0.004 C 
ENDBRANCH  11  12
ENDBRANCH  10  11
ENDBRANCH   9  10
ENDBRANCH   8   9
ENDBRANCH   1   8
TORSDOF 9
ENDMDL
MODEL 9
REMARK VINA RESULT:    -2.704      2.847      5.222
REMARK INTER + INTRA:          -5.151
REMARK INTER:                  -4.249
REMARK INTRA:                  -0.903
REMARK UNBOUND:                -1.025
REMARK SMILES CCCCCCCCCCC(=O)[O-]
REMARK SMILES IDX 7 1 8 2 9 3 10 4 11 5 12 6 13 7 6 8 5 9 4 10 3 11 2 12 1 13
REMARK H PARENT
REMARK Flexibility Score: inf
ROOT
ATOM      1  C   UNL     1      33.361  20.605  11.875  1.00  0.00     0.000 C 
ENDROOT
BRANCH   1   2
ATOM      2  C   UNL     1      33.388  19.361  12.770  1.00  0.00     0.000 C 
BRANCH   2   3
ATOM      3  C   UNL     1      33.023  19.715  14.217  1.00  0.00     0.006 C 
BRANCH   3   4
ATOM      4  C   UNL     1      33.957  19.012  15.207  1.00  0.00     0.053 C 
BRANCH   4   5
ATOM      5  C   UNL     1      35.048  19.938  15.645  1.00  0.00     0.041 C 
ATOM      6  O   UNL     1      34.987  20.499  16.771  1.00  0.00    -0.550 OA
ATOM      7  O   UNL     1      36.107  20.218  14.792  1.00  0.00    -0.550 OA
ENDBRANCH   4   5
ENDBRANCH   3   4
ENDBRANCH   2   3
ENDBRANCH   1   2
BRANCH   1   8
ATOM      8  C   UNL     1      33.678  21.872  12.684  1.00  0.00     0.000 C 
BRANCH   8   9
ATOM      9  C   UNL     1      35.051  22.470  12.336  1.00  0.00    -0.000 C 
BRANCH   9  10
ATOM     10  C   UNL     1      35.864  21.576  11.389  1.00  0.00    -0.000 C 
BRANCH  10  11
ATOM     11  C   UNL     1      36.623  22.421  10.355  1.00  0.00    -0.000 C 
BRANCH  11  12
ATOM     12  C   UNL     1      36.273  22.040   8.909  1.00  0.00    -0.003 C 
ATOM     13  C   UNL     1      34.771  22.091   8.629  1.00  0.00     0.004 C 
ENDBRANCH  11  12
ENDBRANCH  10  11
ENDBRANCH   9  10
ENDBRANCH   8   9
ENDBRANCH   1   8
TORSDOF 9
ENDMDL
