MODEL 1
REMARK VINA RESULT:    -4.499      0.000      0.000
REMARK INTER + INTRA:         -10.619
REMARK INTER:                  -8.181
REMARK INTRA:                  -2.438
REMARK UNBOUND:                -2.438
REMARK SMILES CCCCCCCCCCCCCC[C@@H](C)C(=O)[O-]
REMARK SMILES IDX 9 1 10 2 11 3 12 4 13 5 14 6 15 7 16 8 17 9 18 10 19 11 8 12
REMARK SMILES IDX 7 13 6 14 5 15 4 16 3 17 2 18 1 19
REMARK H PARENT
REMARK Flexibility Score: inf
ROOT
ATOM      1  C   UNL     1      15.784 -34.768  21.828  1.00  0.00     0.000 C 
ENDROOT
BRANCH   1   2
ATOM      2  C   UNL     1      16.797 -34.386  22.920  1.00  0.00     0.000 C 
BRANCH   2   3
ATOM      3  C   UNL     1      16.218 -33.406  23.957  1.00  0.00     0.000 C 
BRANCH   3   4
ATOM      4  C   UNL     1      14.738 -33.639  24.322  1.00  0.00     0.000 C 
BRANCH   4   5
ATOM      5  C   UNL     1      13.862 -32.370  24.342  1.00  0.00     0.001 C 
BRANCH   5   6
ATOM      6  C   UNL     1      14.493 -31.128  23.679  1.00  0.00     0.009 C 
BRANCH   6   7
ATOM      7  C   UNL     1      13.781 -30.640  22.397  1.00  0.00     0.032 C 
ATOM      8  C   UNL     1      13.862 -31.665  21.257  1.00  0.00     0.014 C 
BRANCH   7   9
ATOM      9  C   UNL     1      12.339 -30.344  22.707  1.00  0.00     0.044 C 
ATOM     10  O   UNL     1      11.422 -30.949  22.092  1.00  0.00    -0.550 OA
ATOM     11  O   UNL     1      12.008 -29.389  23.662  1.00  0.00    -0.550 OA
ENDBRANCH   7   9
ENDBRANCH   6   7
ENDBRANCH   5   6
ENDBRANCH   4   5
ENDBRANCH   3   4
ENDBRANCH   2   3
ENDBRANCH   1   2
BRANCH   1  12
ATOM     12  C   UNL     1      16.357 -35.775  20.817  1.00  0.00     0.000 C 
BRANCH  12  13
ATOM     13  C   UNL     1      16.969 -35.091  19.581  1.00  0.00    -0.000 C 
BRANCH  13  14
ATOM     14  C   UNL     1      18.444 -35.469  19.364  1.00  0.00    -0.000 C 
BRANCH  14  15
ATOM     15  C   UNL     1      19.377 -34.247  19.399  1.00  0.00    -0.000 C 
BRANCH  15  16
ATOM     16  C   UNL     1      19.761 -33.837  20.831  1.00  0.00    -0.000 C 
BRANCH  16  17
ATOM     17  C   UNL     1      19.498 -32.347  21.110  1.00  0.00    -0.000 C 
BRANCH  17  18
ATOM     18  C   UNL     1      18.159 -31.867  20.527  1.00  0.00    -0.003 C 
ATOM     19  C   UNL     1      17.458 -30.840  21.417  1.00  0.00     0.004 C 
ENDBRANCH  17  18
ENDBRANCH  16  17
ENDBRANCH  15  16
ENDBRANCH  14  15
ENDBRANCH  13  14
ENDBRANCH  12  13
ENDBRANCH   1  12
TORSDOF 14
ENDMDL
MODEL 2
REMARK VINA RESULT:    -4.466      1.200      3.501
REMARK INTER + INTRA:         -10.558
REMARK INTER:                  -8.027
REMARK INTRA:                  -2.531
REMARK UNBOUND:                -2.438
REMARK SMILES CCCCCCCCCCCCCC[C@@H](C)C(=O)[O-]
REMARK SMILES IDX 9 1 10 2 11 3 12 4 13 5 14 6 15 7 16 8 17 9 18 10 19 11 8 12
REMARK SMILES IDX 7 13 6 14 5 15 4 16 3 17 2 18 1 19
REMARK H PARENT
REMARK Flexibility Score: inf
ROOT
ATOM      1  C   UNL     1      19.981 -33.210  20.280  1.00  0.00     0.000 C 
ENDROOT
BRANCH   1   2
ATOM      2  C   UNL     1      19.153 -32.527  21.382  1.00  0.00     0.000 C 
BRANCH   2   3
ATOM      3  C   UNL     1      18.447 -31.250  20.895  1.00  0.00     0.000 C 
BRANCH   3   4
ATOM      4  C   UNL     1      17.065 -30.984  21.527  1.00  0.00     0.000 C 
BRANCH   4   5
ATOM      5  C   UNL     1      16.935 -31.388  23.008  1.00  0.00     0.001 C 
BRANCH   5   6
ATOM      6  C   UNL     1      15.543 -31.153  23.633  1.00  0.00     0.009 C 
BRANCH   6   7
ATOM      7  C   UNL     1      14.491 -32.238  23.308  1.00  0.00     0.032 C 
ATOM      8  C   UNL     1      13.824 -32.801  24.570  1.00  0.00     0.014 C 
BRANCH   7   9
ATOM      9  C   UNL     1      13.442 -31.661  22.397  1.00  0.00     0.044 C 
ATOM     10  O   UNL     1      13.404 -31.994  21.184  1.00  0.00    -0.550 OA
ATOM     11  O   UNL     1      12.517 -30.744  22.884  1.00  0.00    -0.550 OA
ENDBRANCH   7   9
ENDBRANCH   6   7
ENDBRANCH   5   6
ENDBRANCH   4   5
ENDBRANCH   3   4
ENDBRANCH   2   3
ENDBRANCH   1   2
BRANCH   1  12
ATOM     12  C   UNL     1      19.358 -34.535  19.811  1.00  0.00     0.000 C 
BRANCH  12  13
ATOM     13  C   UNL     1      18.033 -34.333  19.054  1.00  0.00    -0.000 C 
BRANCH  13  14
ATOM     14  C   UNL     1      16.888 -35.186  19.625  1.00  0.00    -0.000 C 
BRANCH  14  15
ATOM     15  C   UNL     1      15.987 -34.395  20.588  1.00  0.00    -0.000 C 
BRANCH  15  16
ATOM     16  C   UNL     1      15.885 -35.050  21.975  1.00  0.00    -0.000 C 
BRANCH  16  17
ATOM     17  C   UNL     1      17.244 -35.126  22.694  1.00  0.00    -0.000 C 
BRANCH  17  18
ATOM     18  C   UNL     1      17.121 -35.668  24.127  1.00  0.00    -0.003 C 
ATOM     19  C   UNL     1      16.910 -34.563  25.163  1.00  0.00     0.004 C 
ENDBRANCH  17  18
ENDBRANCH  16  17
ENDBRANCH  15  16
ENDBRANCH  14  15
ENDBRANCH  13  14
ENDBRANCH  12  13
ENDBRANCH   1  12
TORSDOF 14
ENDMDL
MODEL 3
REMARK VINA RESULT:    -4.420      3.308      5.429
REMARK INTER + INTRA:         -10.475
REMARK INTER:                  -7.541
REMARK INTRA:                  -2.934
REMARK UNBOUND:                -2.438
REMARK SMILES CCCCCCCCCCCCCC[C@@H](C)C(=O)[O-]
REMARK SMILES IDX 9 1 10 2 11 3 12 4 13 5 14 6 15 7 16 8 17 9 18 10 19 11 8 12
REMARK SMILES IDX 7 13 6 14 5 15 4 16 3 17 2 18 1 19
REMARK H PARENT
REMARK Flexibility Score: inf
ROOT
ATOM      1  C   UNL     1      19.123 -34.581  19.516  1.00  0.00     0.000 C 
ENDROOT
BRANCH   1   2
ATOM      2  C   UNL     1      19.531 -33.387  20.396  1.00  0.00     0.000 C 
BRANCH   2   3
ATOM      3  C   UNL     1      18.357 -32.437  20.696  1.00  0.00     0.000 C 
BRANCH   3   4
ATOM      4  C   UNL     1      17.953 -32.345  22.182  1.00  0.00     0.000 C 
BRANCH   4   5
ATOM      5  C   UNL     1      18.386 -33.542  23.052  1.00  0.00     0.001 C 
BRANCH   5   6
ATOM      6  C   UNL     1      17.237 -34.454  23.531  1.00  0.00     0.009 C 
BRANCH   6   7
ATOM      7  C   UNL     1      17.591 -35.955  23.622  1.00  0.00     0.032 C 
ATOM      8  C   UNL     1      18.928 -36.283  22.941  1.00  0.00     0.014 C 
BRANCH   7   9
ATOM      9  C   UNL     1      17.646 -36.371  25.066  1.00  0.00     0.044 C 
ATOM     10  O   UNL     1      18.169 -37.470  25.390  1.00  0.00    -0.550 OA
ATOM     11  O   UNL     1      17.105 -35.553  26.053  1.00  0.00    -0.550 OA
ENDBRANCH   7   9
ENDBRANCH   6   7
ENDBRANCH   5   6
ENDBRANCH   4   5
ENDBRANCH   3   4
ENDBRANCH   2   3
ENDBRANCH   1   2
BRANCH   1  12
ATOM     12  C   UNL     1      17.607 -34.639  19.267  1.00  0.00     0.000 C 
BRANCH  12  13
ATOM     13  C   UNL     1      16.950 -35.883  19.893  1.00  0.00    -0.000 C 
BRANCH  13  14
ATOM     14  C   UNL     1      15.541 -35.599  20.437  1.00  0.00    -0.000 C 
BRANCH  14  15
ATOM     15  C   UNL     1      15.059 -34.175  20.113  1.00  0.00    -0.000 C 
BRANCH  15  16
ATOM     16  C   UNL     1      14.599 -33.407  21.363  1.00  0.00    -0.000 C 
BRANCH  16  17
ATOM     17  C   UNL     1      13.881 -32.091  21.018  1.00  0.00    -0.000 C 
BRANCH  17  18
ATOM     18  C   UNL     1      14.475 -30.885  21.763  1.00  0.00    -0.003 C 
ATOM     19  C   UNL     1      14.641 -31.136  23.263  1.00  0.00     0.004 C 
ENDBRANCH  17  18
ENDBRANCH  16  17
ENDBRANCH  15  16
ENDBRANCH  14  15
ENDBRANCH  13  14
ENDBRANCH  12  13
ENDBRANCH   1  12
TORSDOF 14
ENDMDL
MODEL 4
REMARK VINA RESULT:    -4.407      1.637      2.519
REMARK INTER + INTRA:         -10.451
REMARK INTER:                  -7.951
REMARK INTRA:                  -2.500
REMARK UNBOUND:                -2.438
REMARK SMILES CCCCCCCCCCCCCC[C@@H](C)C(=O)[O-]
REMARK SMILES IDX 9 1 10 2 11 3 12 4 13 5 14 6 15 7 16 8 17 9 18 10 19 11 8 12
REMARK SMILES IDX 7 13 6 14 5 15 4 16 3 17 2 18 1 19
REMARK H PARENT
REMARK Flexibility Score: inf
ROOT
ATOM      1  C   UNL     1      18.334 -36.722  22.839  1.00  0.00     0.000 C 
ENDROOT
BRANCH   1   2
ATOM      2  C   UNL     1      18.802 -35.275  23.063  1.00  0.00     0.000 C 
BRANCH   2   3
ATOM      3  C   UNL     1      17.753 -34.412  23.788  1.00  0.00     0.000 C 
BRANCH   3   4
ATOM      4  C   UNL     1      16.310 -34.955  23.735  1.00  0.00     0.000 C 
BRANCH   4   5
ATOM      5  C   UNL     1      15.352 -34.175  22.813  1.00  0.00     0.001 C 
BRANCH   5   6
ATOM      6  C   UNL     1      15.138 -32.694  23.191  1.00  0.00     0.009 C 
BRANCH   6   7
ATOM      7  C   UNL     1      14.544 -31.814  22.068  1.00  0.00     0.032 C 
ATOM      8  C   UNL     1      13.921 -32.647  20.939  1.00  0.00     0.014 C 
BRANCH   7   9
ATOM      9  C   UNL     1      13.505 -30.894  22.649  1.00  0.00     0.044 C 
ATOM     10  O   UNL     1      13.850 -29.941  23.395  1.00  0.00    -0.550 OA
ATOM     11  O   UNL     1      12.157 -31.099  22.378  1.00  0.00    -0.550 OA
ENDBRANCH   7   9
ENDBRANCH   6   7
ENDBRANCH   5   6
ENDBRANCH   4   5
ENDBRANCH   3   4
ENDBRANCH   2   3
ENDBRANCH   1   2
BRANCH   1  12
ATOM     12  C   UNL     1      18.980 -37.366  21.601  1.00  0.00     0.000 C 
BRANCH  12  13
ATOM     13  C   UNL     1      17.950 -38.035  20.673  1.00  0.00    -0.000 C 
BRANCH  13  14
ATOM     14  C   UNL     1      17.515 -37.122  19.515  1.00  0.00    -0.000 C 
BRANCH  14  15
ATOM     15  C   UNL     1      16.350 -36.195  19.900  1.00  0.00    -0.000 C 
BRANCH  15  16
ATOM     16  C   UNL     1      16.554 -34.753  19.406  1.00  0.00    -0.000 C 
BRANCH  16  17
ATOM     17  C   UNL     1      18.030 -34.431  19.118  1.00  0.00    -0.000 C 
BRANCH  17  18
ATOM     18  C   UNL     1      18.658 -33.535  20.197  1.00  0.00    -0.003 C 
ATOM     19  C   UNL     1      17.810 -32.302  20.512  1.00  0.00     0.004 C 
ENDBRANCH  17  18
ENDBRANCH  16  17
ENDBRANCH  15  16
ENDBRANCH  14  15
ENDBRANCH  13  14
ENDBRANCH  12  13
ENDBRANCH   1  12
TORSDOF 14
ENDMDL
MODEL 5
REMARK VINA RESULT:    -4.348      1.541      2.796
REMARK INTER + INTRA:         -10.344
REMARK INTER:                  -8.050
REMARK INTRA:                  -2.294
REMARK UNBOUND:                -2.438
REMARK SMILES CCCCCCCCCCCCCC[C@@H](C)C(=O)[O-]
REMARK SMILES IDX 9 1 10 2 11 3 12 4 13 5 14 6 15 7 16 8 17 9 18 10 19 11 8 12
REMARK SMILES IDX 7 13 6 14 5 15 4 16 3 17 2 18 1 19
REMARK H PARENT
REMARK Flexibility Score: inf
ROOT
ATOM      1  C   UNL     1      16.028 -35.772  20.408  1.00  0.00     0.000 C 
ENDROOT
BRANCH   1   2
ATOM      2  C   UNL     1      15.522 -34.426  20.956  1.00  0.00     0.000 C 
BRANCH   2   3
ATOM      3  C   UNL     1      15.445 -34.397  22.493  1.00  0.00     0.000 C 
BRANCH   3   4
ATOM      4  C   UNL     1      16.400 -33.398  23.178  1.00  0.00     0.000 C 
BRANCH   4   5
ATOM      5  C   UNL     1      15.709 -32.256  23.948  1.00  0.00     0.001 C 
BRANCH   5   6
ATOM      6  C   UNL     1      14.170 -32.343  24.009  1.00  0.00     0.009 C 
BRANCH   6   7
ATOM      7  C   UNL     1      13.428 -31.036  23.650  1.00  0.00     0.032 C 
ATOM      8  C   UNL     1      14.370 -29.825  23.599  1.00  0.00     0.014 C 
BRANCH   7   9
ATOM      9  C   UNL     1      12.742 -31.198  22.321  1.00  0.00     0.044 C 
ATOM     10  O   UNL     1      11.532 -30.875  22.190  1.00  0.00    -0.550 OA
ATOM     11  O   UNL     1      13.433 -31.718  21.233  1.00  0.00    -0.550 OA
ENDBRANCH   7   9
ENDBRANCH   6   7
ENDBRANCH   5   6
ENDBRANCH   4   5
ENDBRANCH   3   4
ENDBRANCH   2   3
ENDBRANCH   1   2
BRANCH   1  12
ATOM     12  C   UNL     1      17.099 -35.600  19.319  1.00  0.00     0.000 C 
BRANCH  12  13
ATOM     13  C   UNL     1      17.830 -34.249  19.412  1.00  0.00    -0.000 C 
BRANCH  13  14
ATOM     14  C   UNL     1      19.348 -34.408  19.600  1.00  0.00    -0.000 C 
BRANCH  14  15
ATOM     15  C   UNL     1      19.819 -33.967  20.997  1.00  0.00    -0.000 C 
BRANCH  15  16
ATOM     16  C   UNL     1      20.279 -35.149  21.865  1.00  0.00    -0.000 C 
BRANCH  16  17
ATOM     17  C   UNL     1      19.398 -35.345  23.111  1.00  0.00    -0.000 C 
BRANCH  17  18
ATOM     18  C   UNL     1      18.537 -36.615  23.028  1.00  0.00    -0.003 C 
ATOM     19  C   UNL     1      18.950 -37.539  21.881  1.00  0.00     0.004 C 
ENDBRANCH  17  18
ENDBRANCH  16  17
ENDBRANCH  15  16
ENDBRANCH  14  15
ENDBRANCH  13  14
ENDBRANCH  12  13
ENDBRANCH   1  12
TORSDOF 14
ENDMDL
MODEL 6
REMARK VINA RESULT:    -4.342      1.091      1.934
REMARK INTER + INTRA:         -10.333
REMARK INTER:                  -7.842
REMARK INTRA:                  -2.490
REMARK UNBOUND:                -2.438
REMARK SMILES CCCCCCCCCCCCCC[C@@H](C)C(=O)[O-]
REMARK SMILES IDX 9 1 10 2 11 3 12 4 13 5 14 6 15 7 16 8 17 9 18 10 19 11 8 12
REMARK SMILES IDX 7 13 6 14 5 15 4 16 3 17 2 18 1 19
REMARK H PARENT
REMARK Flexibility Score: inf
ROOT
ATOM      1  C   UNL     1      16.164 -35.565  20.237  1.00  0.00     0.000 C 
ENDROOT
BRANCH   1   2
ATOM      2  C   UNL     1      15.052 -34.512  20.103  1.00  0.00     0.000 C 
BRANCH   2   3
ATOM      3  C   UNL     1      14.822 -33.717  21.401  1.00  0.00     0.000 C 
BRANCH   3   4
ATOM      4  C   UNL     1      15.506 -34.299  22.655  1.00  0.00     0.000 C 
BRANCH   4   5
ATOM      5  C   UNL     1      15.418 -33.418  23.916  1.00  0.00     0.001 C 
BRANCH   5   6
ATOM      6  C   UNL     1      14.062 -32.713  24.131  1.00  0.00     0.009 C 
BRANCH   6   7
ATOM      7  C   UNL     1      14.115 -31.169  24.089  1.00  0.00     0.032 C 
ATOM      8  C   UNL     1      15.400 -30.647  23.432  1.00  0.00     0.014 C 
BRANCH   7   9
ATOM      9  C   UNL     1      12.918 -30.647  23.342  1.00  0.00     0.044 C 
ATOM     10  O   UNL     1      12.440 -31.299  22.377  1.00  0.00    -0.550 OA
ATOM     11  O   UNL     1      12.341 -29.434  23.701  1.00  0.00    -0.550 OA
ENDBRANCH   7   9
ENDBRANCH   6   7
ENDBRANCH   5   6
ENDBRANCH   4   5
ENDBRANCH   3   4
ENDBRANCH   2   3
ENDBRANCH   1   2
BRANCH   1  12
ATOM     12  C   UNL     1      17.272 -35.390  19.185  1.00  0.00     0.000 C 
BRANCH  12  13
ATOM     13  C   UNL     1      18.679 -35.344  19.806  1.00  0.00    -0.000 C 
BRANCH  13  14
ATOM     14  C   UNL     1      18.706 -35.863  21.253  1.00  0.00    -0.000 C 
BRANCH  14  15
ATOM     15  C   UNL     1      19.206 -34.803  22.250  1.00  0.00    -0.000 C 
BRANCH  15  16
ATOM     16  C   UNL     1      20.398 -33.997  21.708  1.00  0.00    -0.000 C 
BRANCH  16  17
ATOM     17  C   UNL     1      20.067 -32.506  21.520  1.00  0.00    -0.000 C 
BRANCH  17  18
ATOM     18  C   UNL     1      18.612 -32.176  21.889  1.00  0.00    -0.003 C 
ATOM     19  C   UNL     1      17.786 -31.710  20.689  1.00  0.00     0.004 C 
ENDBRANCH  17  18
ENDBRANCH  16  17
ENDBRANCH  15  16
ENDBRANCH  14  15
ENDBRANCH  13  14
ENDBRANCH  12  13
ENDBRANCH   1  12
TORSDOF 14
ENDMDL
MODEL 7
REMARK VINA RESULT:    -4.327      1.360      3.245
REMARK INTER + INTRA:         -10.306
REMARK INTER:                  -7.730
REMARK INTRA:                  -2.576
REMARK UNBOUND:                -2.438
REMARK SMILES CCCCCCCCCCCCCC[C@@H](C)C(=O)[O-]
REMARK SMILES IDX 9 1 10 2 11 3 12 4 13 5 14 6 15 7 16 8 17 9 18 10 19 11 8 12
REMARK SMILES IDX 7 13 6 14 5 15 4 16 3 17 2 18 1 19
REMARK H PARENT
REMARK Flexibility Score: inf
ROOT
ATOM      1  C   UNL     1      17.800 -34.329  19.237  1.00  0.00     0.000 C 
ENDROOT
BRANCH   1   2
ATOM      2  C   UNL     1      16.897 -35.536  19.542  1.00  0.00     0.000 C 
BRANCH   2   3
ATOM      3  C   UNL     1      15.864 -35.246  20.646  1.00  0.00     0.000 C 
BRANCH   3   4
ATOM      4  C   UNL     1      14.954 -34.028  20.387  1.00  0.00     0.000 C 
BRANCH   4   5
ATOM      5  C   UNL     1      14.564 -33.225  21.643  1.00  0.00     0.001 C 
BRANCH   5   6
ATOM      6  C   UNL     1      14.593 -31.691  21.476  1.00  0.00     0.009 C 
BRANCH   6   7
ATOM      7  C   UNL     1      14.654 -30.892  22.798  1.00  0.00     0.032 C 
ATOM      8  C   UNL     1      15.512 -29.625  22.676  1.00  0.00     0.014 C 
BRANCH   7   9
ATOM      9  C   UNL     1      13.260 -30.518  23.221  1.00  0.00     0.044 C 
ATOM     10  O   UNL     1      12.288 -30.717  22.447  1.00  0.00    -0.550 OA
ATOM     11  O   UNL     1      13.036 -29.935  24.464  1.00  0.00    -0.550 OA
ENDBRANCH   7   9
ENDBRANCH   6   7
ENDBRANCH   5   6
ENDBRANCH   4   5
ENDBRANCH   3   4
ENDBRANCH   2   3
ENDBRANCH   1   2
BRANCH   1  12
ATOM     12  C   UNL     1      19.172 -34.429  19.924  1.00  0.00     0.000 C 
BRANCH  12  13
ATOM     13  C   UNL     1      19.663 -33.076  20.469  1.00  0.00    -0.000 C 
BRANCH  13  14
ATOM     14  C   UNL     1      18.509 -32.147  20.880  1.00  0.00    -0.000 C 
BRANCH  14  15
ATOM     15  C   UNL     1      18.853 -31.285  22.107  1.00  0.00    -0.000 C 
BRANCH  15  16
ATOM     16  C   UNL     1      18.800 -32.081  23.421  1.00  0.00    -0.000 C 
BRANCH  16  17
ATOM     17  C   UNL     1      17.633 -33.083  23.459  1.00  0.00    -0.000 C 
BRANCH  17  18
ATOM     18  C   UNL     1      18.105 -34.526  23.695  1.00  0.00    -0.003 C 
ATOM     19  C   UNL     1      16.972 -35.459  24.126  1.00  0.00     0.004 C 
ENDBRANCH  17  18
ENDBRANCH  16  17
ENDBRANCH  15  16
ENDBRANCH  14  15
ENDBRANCH  13  14
ENDBRANCH  12  13
ENDBRANCH   1  12
TORSDOF 14
ENDMDL
MODEL 8
REMARK VINA RESULT:    -4.277      3.407      6.067
REMARK INTER + INTRA:         -10.215
REMARK INTER:                  -7.663
REMARK INTRA:                  -2.552
REMARK UNBOUND:                -2.438
REMARK SMILES CCCCCCCCCCCCCC[C@@H](C)C(=O)[O-]
REMARK SMILES IDX 9 1 10 2 11 3 12 4 13 5 14 6 15 7 16 8 17 9 18 10 19 11 8 12
REMARK SMILES IDX 7 13 6 14 5 15 4 16 3 17 2 18 1 19
REMARK H PARENT
REMARK Flexibility Score: inf
ROOT
ATOM      1  C   UNL     1      13.842 -32.358  20.692  1.00  0.00     0.000 C 
ENDROOT
BRANCH   1   2
ATOM      2  C   UNL     1      14.701 -33.538  21.177  1.00  0.00     0.000 C 
BRANCH   2   3
ATOM      3  C   UNL     1      14.919 -34.605  20.089  1.00  0.00     0.000 C 
BRANCH   3   4
ATOM      4  C   UNL     1      16.384 -34.798  19.646  1.00  0.00     0.000 C 
BRANCH   4   5
ATOM      5  C   UNL     1      16.910 -36.244  19.735  1.00  0.00     0.001 C 
BRANCH   5   6
ATOM      6  C   UNL     1      17.780 -36.550  20.972  1.00  0.00     0.009 C 
BRANCH   6   7
ATOM      7  C   UNL     1      17.938 -35.377  21.965  1.00  0.00     0.032 C 
ATOM      8  C   UNL     1      17.363 -35.703  23.351  1.00  0.00     0.014 C 
BRANCH   7   9
ATOM      9  C   UNL     1      19.394 -35.022  22.094  1.00  0.00     0.044 C 
ATOM     10  O   UNL     1      19.924 -34.925  23.232  1.00  0.00    -0.550 OA
ATOM     11  O   UNL     1      20.162 -34.785  20.959  1.00  0.00    -0.550 OA
ENDBRANCH   7   9
ENDBRANCH   6   7
ENDBRANCH   5   6
ENDBRANCH   4   5
ENDBRANCH   3   4
ENDBRANCH   2   3
ENDBRANCH   1   2
BRANCH   1  12
ATOM     12  C   UNL     1      13.796 -31.205  21.708  1.00  0.00     0.000 C 
BRANCH  12  13
ATOM     13  C   UNL     1      13.162 -31.618  23.048  1.00  0.00    -0.000 C 
BRANCH  13  14
ATOM     14  C   UNL     1      14.123 -31.451  24.236  1.00  0.00    -0.000 C 
BRANCH  14  15
ATOM     15  C   UNL     1      15.533 -31.020  23.798  1.00  0.00    -0.000 C 
BRANCH  15  16
ATOM     16  C   UNL     1      16.596 -32.093  24.089  1.00  0.00    -0.000 C 
BRANCH  16  17
ATOM     17  C   UNL     1      17.898 -31.863  23.303  1.00  0.00    -0.000 C 
BRANCH  17  18
ATOM     18  C   UNL     1      17.699 -30.937  22.093  1.00  0.00    -0.003 C 
ATOM     19  C   UNL     1      17.870 -31.661  20.757  1.00  0.00     0.004 C 
ENDBRANCH  17  18
ENDBRANCH  16  17
ENDBRANCH  15  16
ENDBRANCH  14  15
ENDBRANCH  13  14
ENDBRANCH  12  13
ENDBRANCH   1  12
TORSDOF 14
ENDMDL
MODEL 9
REMARK VINA RESULT:    -4.235      3.179      6.592
REMARK INTER + INTRA:         -10.138
REMARK INTER:                  -7.968
REMARK INTRA:                  -2.170
REMARK UNBOUND:                -2.438
REMARK SMILES CCCCCCCCCCCCCC[C@@H](C)C(=O)[O-]
REMARK SMILES IDX 9 1 10 2 11 3 12 4 13 5 14 6 15 7 16 8 17 9 18 10 19 11 8 12
REMARK SMILES IDX 7 13 6 14 5 15 4 16 3 17 2 18 1 19
REMARK H PARENT
REMARK Flexibility Score: inf
ROOT
ATOM      1  C   UNL     1      17.814 -31.009  22.755  1.00  0.00     0.000 C 
ENDROOT
BRANCH   1   2
ATOM      2  C   UNL     1      19.038 -31.771  22.220  1.00  0.00     0.000 C 
BRANCH   2   3
ATOM      3  C   UNL     1      18.784 -32.421  20.847  1.00  0.00     0.000 C 
BRANCH   3   4
ATOM      4  C   UNL     1      19.840 -33.456  20.408  1.00  0.00     0.000 C 
BRANCH   4   5
ATOM      5  C   UNL     1      19.275 -34.716  19.724  1.00  0.00     0.001 C 
BRANCH   5   6
ATOM      6  C   UNL     1      17.739 -34.856  19.771  1.00  0.00     0.009 C 
BRANCH   6   7
ATOM      7  C   UNL     1      17.223 -36.189  20.358  1.00  0.00     0.032 C 
ATOM      8  C   UNL     1      17.313 -37.344  19.351  1.00  0.00     0.014 C 
BRANCH   7   9
ATOM      9  C   UNL     1      18.012 -36.532  21.591  1.00  0.00     0.044 C 
ATOM     10  O   UNL     1      18.714 -37.577  21.624  1.00  0.00    -0.550 OA
ATOM     11  O   UNL     1      17.960 -35.708  22.710  1.00  0.00    -0.550 OA
ENDBRANCH   7   9
ENDBRANCH   6   7
ENDBRANCH   5   6
ENDBRANCH   4   5
ENDBRANCH   3   4
ENDBRANCH   2   3
ENDBRANCH   1   2
BRANCH   1  12
ATOM     12  C   UNL     1      16.964 -30.394  21.631  1.00  0.00     0.000 C 
BRANCH  12  13
ATOM     13  C   UNL     1      15.671 -29.743  22.153  1.00  0.00    -0.000 C 
BRANCH  13  14
ATOM     14  C   UNL     1      15.330 -30.170  23.590  1.00  0.00    -0.000 C 
BRANCH  14  15
ATOM     15  C   UNL     1      13.842 -30.521  23.764  1.00  0.00    -0.000 C 
BRANCH  15  16
ATOM     16  C   UNL     1      13.598 -32.037  23.844  1.00  0.00    -0.000 C 
BRANCH  16  17
ATOM     17  C   UNL     1      14.900 -32.836  24.023  1.00  0.00    -0.000 C 
BRANCH  17  18
ATOM     18  C   UNL     1      15.069 -33.931  22.958  1.00  0.00    -0.003 C 
ATOM     19  C   UNL     1      14.808 -33.424  21.539  1.00  0.00     0.004 C 
ENDBRANCH  17  18
ENDBRANCH  16  17
ENDBRANCH  15  16
ENDBRANCH  14  15
ENDBRANCH  13  14
ENDBRANCH  12  13
ENDBRANCH   1  12
TORSDOF 14
ENDMDL
