MODEL 1
REMARK VINA RESULT:    -3.162      0.000      0.000
REMARK INTER + INTRA:          -3.841
REMARK INTER:                  -3.716
REMARK INTRA:                  -0.125
REMARK UNBOUND:                -0.125
REMARK SMILES O=C([O-])CCC(=O)[O-]
REMARK SMILES IDX 4 1 2 2 1 3 3 4 5 5 6 6 7 7 8 8
REMARK H PARENT
REMARK Flexibility Score: inf
ROOT
ATOM      1  C   UNL     1       9.107  33.697  -0.256  1.00  0.00     0.059 C 
ENDROOT
BRANCH   1   2
ATOM      2  C   UNL     1      10.250  34.665  -0.272  1.00  0.00     0.042 C 
ATOM      3  O   UNL     1      10.446  35.430   0.709  1.00  0.00    -0.550 OA
ATOM      4  O   UNL     1      11.122  34.696  -1.353  1.00  0.00    -0.550 OA
ENDBRANCH   1   2
BRANCH   1   5
ATOM      5  C   UNL     1       9.343  32.528  -1.219  1.00  0.00     0.059 C 
BRANCH   5   6
ATOM      6  C   UNL     1      10.132  31.430  -0.572  1.00  0.00     0.042 C 
ATOM      7  O   UNL     1      11.239  31.076  -1.056  1.00  0.00    -0.550 OA
ATOM      8  O   UNL     1       9.663  30.827   0.589  1.00  0.00    -0.550 OA
ENDBRANCH   5   6
ENDBRANCH   1   5
TORSDOF 3
ENDMDL
MODEL 2
REMARK VINA RESULT:    -3.098      0.354      3.798
REMARK INTER + INTRA:          -3.766
REMARK INTER:                  -3.663
REMARK INTRA:                  -0.103
REMARK UNBOUND:                -0.125
REMARK SMILES O=C([O-])CCC(=O)[O-]
REMARK SMILES IDX 4 1 2 2 1 3 3 4 5 5 6 6 7 7 8 8
REMARK H PARENT
REMARK Flexibility Score: inf
ROOT
ATOM      1  C   UNL     1       9.247  32.799  -1.284  1.00  0.00     0.059 C 
ENDROOT
BRANCH   1   2
ATOM      2  C   UNL     1      10.018  31.569  -0.911  1.00  0.00     0.042 C 
ATOM      3  O   UNL     1      10.904  31.118  -1.684  1.00  0.00    -0.550 OA
ATOM      4  O   UNL     1       9.786  30.945   0.309  1.00  0.00    -0.550 OA
ENDBRANCH   1   2
BRANCH   1   5
ATOM      5  C   UNL     1       9.231  33.823  -0.144  1.00  0.00     0.059 C 
BRANCH   5   6
ATOM      6  C   UNL     1      10.356  34.806  -0.268  1.00  0.00     0.042 C 
ATOM      7  O   UNL     1      10.619  35.590   0.681  1.00  0.00    -0.550 OA
ATOM      8  O   UNL     1      11.140  34.826  -1.415  1.00  0.00    -0.550 OA
ENDBRANCH   5   6
ENDBRANCH   1   5
TORSDOF 3
ENDMDL
MODEL 3
REMARK VINA RESULT:    -3.081      2.470      2.856
REMARK INTER + INTRA:          -3.746
REMARK INTER:                  -3.688
REMARK INTRA:                  -0.057
REMARK UNBOUND:                -0.125
REMARK SMILES O=C([O-])CCC(=O)[O-]
REMARK SMILES IDX 4 1 2 2 1 3 3 4 5 5 6 6 7 7 8 8
REMARK H PARENT
REMARK Flexibility Score: inf
ROOT
ATOM      1  C   UNL     1       8.678  33.393  -1.027  1.00  0.00     0.059 C 
ENDROOT
BRANCH   1   2
ATOM      2  C   UNL     1       7.371  33.727  -1.679  1.00  0.00     0.042 C 
ATOM      3  O   UNL     1       6.558  34.501  -1.108  1.00  0.00    -0.550 OA
ATOM      4  O   UNL     1       7.069  33.216  -2.935  1.00  0.00    -0.550 OA
ENDBRANCH   1   2
BRANCH   1   5
ATOM      5  C   UNL     1       9.599  32.613  -1.973  1.00  0.00     0.059 C 
BRANCH   5   6
ATOM      6  C   UNL     1      10.338  31.526  -1.253  1.00  0.00     0.042 C 
ATOM      7  O   UNL     1       9.916  31.098  -0.147  1.00  0.00    -0.550 OA
ATOM      8  O   UNL     1      11.469  30.957  -1.826  1.00  0.00    -0.550 OA
ENDBRANCH   5   6
ENDBRANCH   1   5
TORSDOF 3
ENDMDL
MODEL 4
REMARK VINA RESULT:    -3.033     11.834     12.609
REMARK INTER + INTRA:          -3.690
REMARK INTER:                  -3.569
REMARK INTRA:                  -0.121
REMARK UNBOUND:                -0.125
REMARK SMILES O=C([O-])CCC(=O)[O-]
REMARK SMILES IDX 4 1 2 2 1 3 3 4 5 5 6 6 7 7 8 8
REMARK H PARENT
REMARK Flexibility Score: inf
ROOT
ATOM      1  C   UNL     1      22.008  37.456   3.117  1.00  0.00     0.059 C 
ENDROOT
BRANCH   1   2
ATOM      2  C   UNL     1      21.763  37.794   4.556  1.00  0.00     0.042 C 
ATOM      3  O   UNL     1      22.290  38.818   5.066  1.00  0.00    -0.550 OA
ATOM      4  O   UNL     1      20.919  37.000   5.324  1.00  0.00    -0.550 OA
ENDBRANCH   1   2
BRANCH   1   5
ATOM      5  C   UNL     1      20.866  36.619   2.530  1.00  0.00     0.059 C 
BRANCH   5   6
ATOM      6  C   UNL     1      21.294  35.207   2.268  1.00  0.00     0.042 C 
ATOM      7  O   UNL     1      21.739  34.496   3.207  1.00  0.00    -0.550 OA
ATOM      8  O   UNL     1      21.161  34.664   0.996  1.00  0.00    -0.550 OA
ENDBRANCH   5   6
ENDBRANCH   1   5
TORSDOF 3
ENDMDL
MODEL 5
REMARK VINA RESULT:    -3.002      4.572      5.070
REMARK INTER + INTRA:          -3.653
REMARK INTER:                  -3.573
REMARK INTRA:                  -0.080
REMARK UNBOUND:                -0.125
REMARK SMILES O=C([O-])CCC(=O)[O-]
REMARK SMILES IDX 4 1 2 2 1 3 3 4 5 5 6 6 7 7 8 8
REMARK H PARENT
REMARK Flexibility Score: inf
ROOT
ATOM      1  C   UNL     1       5.847  34.723  -2.483  1.00  0.00     0.059 C 
ENDROOT
BRANCH   1   2
ATOM      2  C   UNL     1       4.523  34.307  -1.919  1.00  0.00     0.042 C 
ATOM      3  O   UNL     1       4.037  34.916  -0.929  1.00  0.00    -0.550 OA
ATOM      4  O   UNL     1       3.807  33.273  -2.510  1.00  0.00    -0.550 OA
ENDBRANCH   1   2
BRANCH   1   5
ATOM      5  C   UNL     1       6.755  33.515  -2.743  1.00  0.00     0.059 C 
BRANCH   5   6
ATOM      6  C   UNL     1       7.901  33.468  -1.778  1.00  0.00     0.042 C 
ATOM      7  O   UNL     1       7.822  34.064  -0.672  1.00  0.00    -0.550 OA
ATOM      8  O   UNL     1       9.038  32.730  -2.084  1.00  0.00    -0.550 OA
ENDBRANCH   5   6
ENDBRANCH   1   5
TORSDOF 3
ENDMDL
MODEL 6
REMARK VINA RESULT:    -2.995      2.726      3.553
REMARK INTER + INTRA:          -3.645
REMARK INTER:                  -3.550
REMARK INTRA:                  -0.095
REMARK UNBOUND:                -0.125
REMARK SMILES O=C([O-])CCC(=O)[O-]
REMARK SMILES IDX 4 1 2 2 1 3 3 4 5 5 6 6 7 7 8 8
REMARK H PARENT
REMARK Flexibility Score: inf
ROOT
ATOM      1  C   UNL     1       8.981  33.173  -0.666  1.00  0.00     0.059 C 
ENDROOT
BRANCH   1   2
ATOM      2  C   UNL     1      10.188  34.056  -0.579  1.00  0.00     0.042 C 
ATOM      3  O   UNL     1      11.166  33.870  -1.352  1.00  0.00    -0.550 OA
ATOM      4  O   UNL     1      10.218  35.109   0.326  1.00  0.00    -0.550 OA
ENDBRANCH   1   2
BRANCH   1   5
ATOM      5  C   UNL     1       8.191  33.420  -1.956  1.00  0.00     0.059 C 
BRANCH   5   6
ATOM      6  C   UNL     1       6.837  33.997  -1.673  1.00  0.00     0.042 C 
ATOM      7  O   UNL     1       6.672  34.777  -0.699  1.00  0.00    -0.550 OA
ATOM      8  O   UNL     1       5.767  33.705  -2.511  1.00  0.00    -0.550 OA
ENDBRANCH   5   6
ENDBRANCH   1   5
TORSDOF 3
ENDMDL
MODEL 7
REMARK VINA RESULT:    -2.993      2.223      3.556
REMARK INTER + INTRA:          -3.643
REMARK INTER:                  -3.546
REMARK INTRA:                  -0.097
REMARK UNBOUND:                -0.125
REMARK SMILES O=C([O-])CCC(=O)[O-]
REMARK SMILES IDX 4 1 2 2 1 3 3 4 5 5 6 6 7 7 8 8
REMARK H PARENT
REMARK Flexibility Score: inf
ROOT
ATOM      1  C   UNL     1      10.227  33.149  -1.367  1.00  0.00     0.059 C 
ENDROOT
BRANCH   1   2
ATOM      2  C   UNL     1      10.613  31.737  -1.049  1.00  0.00     0.042 C 
ATOM      3  O   UNL     1      10.014  31.106  -0.139  1.00  0.00    -0.550 OA
ATOM      4  O   UNL     1      11.608  31.105  -1.785  1.00  0.00    -0.550 OA
ENDBRANCH   1   2
BRANCH   1   5
ATOM      5  C   UNL     1       9.010  33.599  -0.551  1.00  0.00     0.059 C 
BRANCH   5   6
ATOM      6  C   UNL     1       7.784  33.717  -1.404  1.00  0.00     0.042 C 
ATOM      7  O   UNL     1       7.721  33.116  -2.508  1.00  0.00    -0.550 OA
ATOM      8  O   UNL     1       6.694  34.455  -0.959  1.00  0.00    -0.550 OA
ENDBRANCH   5   6
ENDBRANCH   1   5
TORSDOF 3
ENDMDL
MODEL 8
REMARK VINA RESULT:    -2.960      4.486      5.179
REMARK INTER + INTRA:          -3.604
REMARK INTER:                  -3.568
REMARK INTRA:                  -0.037
REMARK UNBOUND:                -0.125
REMARK SMILES O=C([O-])CCC(=O)[O-]
REMARK SMILES IDX 4 1 2 2 1 3 3 4 5 5 6 6 7 7 8 8
REMARK H PARENT
REMARK Flexibility Score: inf
ROOT
ATOM      1  C   UNL     1       6.837  34.395  -1.197  1.00  0.00     0.059 C 
ENDROOT
BRANCH   1   2
ATOM      2  C   UNL     1       8.122  33.626  -1.215  1.00  0.00     0.042 C 
ATOM      3  O   UNL     1       8.440  32.946  -2.227  1.00  0.00    -0.550 OA
ATOM      4  O   UNL     1       8.988  33.691  -0.130  1.00  0.00    -0.550 OA
ENDBRANCH   1   2
BRANCH   1   5
ATOM      5  C   UNL     1       5.966  34.069  -2.416  1.00  0.00     0.059 C 
BRANCH   5   6
ATOM      6  C   UNL     1       4.506  34.188  -2.100  1.00  0.00     0.042 C 
ATOM      7  O   UNL     1       3.705  33.288  -2.464  1.00  0.00    -0.550 OA
ATOM      8  O   UNL     1       4.038  35.272  -1.367  1.00  0.00    -0.550 OA
ENDBRANCH   5   6
ENDBRANCH   1   5
TORSDOF 3
ENDMDL
MODEL 9
REMARK VINA RESULT:    -2.954      3.000      3.727
REMARK INTER + INTRA:          -3.596
REMARK INTER:                  -3.558
REMARK INTRA:                  -0.038
REMARK UNBOUND:                -0.125
REMARK SMILES O=C([O-])CCC(=O)[O-]
REMARK SMILES IDX 4 1 2 2 1 3 3 4 5 5 6 6 7 7 8 8
REMARK H PARENT
REMARK Flexibility Score: inf
ROOT
ATOM      1  C   UNL     1       7.597  34.176  -1.139  1.00  0.00     0.059 C 
ENDROOT
BRANCH   1   2
ATOM      2  C   UNL     1       6.637  33.770  -2.216  1.00  0.00     0.042 C 
ATOM      3  O   UNL     1       5.413  34.049  -2.111  1.00  0.00    -0.550 OA
ATOM      4  O   UNL     1       7.100  33.119  -3.352  1.00  0.00    -0.550 OA
ENDBRANCH   1   2
BRANCH   1   5
ATOM      5  C   UNL     1       8.839  33.278  -1.122  1.00  0.00     0.059 C 
BRANCH   5   6
ATOM      6  C   UNL     1      10.060  34.031  -0.686  1.00  0.00     0.042 C 
ATOM      7  O   UNL     1      11.130  33.935  -1.340  1.00  0.00    -0.550 OA
ATOM      8  O   UNL     1      10.001  34.872   0.419  1.00  0.00    -0.550 OA
ENDBRANCH   5   6
ENDBRANCH   1   5
TORSDOF 3
ENDMDL
