MODEL 1
REMARK VINA RESULT:     3.046      0.000      0.000
REMARK INTER + INTRA:           3.639
REMARK INTER:                   3.669
REMARK INTRA:                  -0.030
REMARK UNBOUND:                -0.030
REMARK SMILES CC[C@H](C)[C@@H]([NH3+])C(=O)[O-]
REMARK SMILES IDX 3 1 4 2 5 3 6 4 7 8 8 9 9 10 2 11 1 12
REMARK H PARENT 6 5 6 6 6 7
REMARK Flexibility Score: inf
ROOT
ATOM      1  C   UNL     1      -1.712  -4.847 -11.590  1.00  0.00     0.050 C 
ATOM      2  C   UNL     1      -1.524  -4.611 -13.102  1.00  0.00     0.014 C 
ENDROOT
BRANCH   1   3
ATOM      3  C   UNL     1      -2.382  -6.234 -11.336  1.00  0.00     0.230 C 
BRANCH   3   4
ATOM      4  N   UNL     1      -2.220  -7.141 -12.482  1.00  0.00    -0.350 N 
ATOM      5  H   UNL     1      -1.842  -8.070 -12.192  1.00  0.00     0.345 HD
ATOM      6  H   UNL     1      -3.149  -7.292 -12.939  1.00  0.00     0.345 HD
ATOM      7  H   UNL     1      -1.579  -6.715 -13.190  1.00  0.00     0.345 HD
ENDBRANCH   3   4
BRANCH   3   8
ATOM      8  C   UNL     1      -1.893  -6.887 -10.064  1.00  0.00     0.099 C 
ATOM      9  O   UNL     1      -1.479  -8.077 -10.088  1.00  0.00    -0.544 OA
ATOM     10  O   UNL     1      -1.925  -6.201  -8.857  1.00  0.00    -0.544 OA
ENDBRANCH   3   8
ENDBRANCH   1   3
BRANCH   1  11
ATOM     11  C   UNL     1      -2.480  -3.670 -10.933  1.00  0.00     0.006 C 
ATOM     12  C   UNL     1      -1.568  -2.738 -10.132  1.00  0.00     0.004 C 
ENDBRANCH   1  11
TORSDOF 4
ENDMDL
MODEL 2
REMARK VINA RESULT:     3.720      6.277      7.588
REMARK INTER + INTRA:           4.451
REMARK INTER:                   4.520
REMARK INTRA:                  -0.069
REMARK UNBOUND:                -0.030
REMARK SMILES CC[C@H](C)[C@@H]([NH3+])C(=O)[O-]
REMARK SMILES IDX 3 1 4 2 5 3 6 4 7 8 8 9 9 10 2 11 1 12
REMARK H PARENT 6 5 6 6 6 7
REMARK Flexibility Score: inf
ROOT
ATOM      1  C   UNL     1       1.161  -0.082  -7.299  1.00  0.00     0.050 C 
ATOM      2  C   UNL     1       2.404  -0.091  -6.387  1.00  0.00     0.014 C 
ENDROOT
BRANCH   1   3
ATOM      3  C   UNL     1       1.569   0.237  -8.771  1.00  0.00     0.230 C 
BRANCH   3   4
ATOM      4  N   UNL     1       3.016   0.460  -8.905  1.00  0.00    -0.350 N 
ATOM      5  H   UNL     1       3.547  -0.438  -8.934  1.00  0.00     0.345 HD
ATOM      6  H   UNL     1       3.206   0.984  -9.791  1.00  0.00     0.345 HD
ATOM      7  H   UNL     1       3.365   1.041  -8.108  1.00  0.00     0.345 HD
ENDBRANCH   3   4
BRANCH   3   8
ATOM      8  C   UNL     1       1.100  -0.821  -9.743  1.00  0.00     0.099 C 
ATOM      9  O   UNL     1       0.031  -1.448  -9.522  1.00  0.00    -0.544 OA
ATOM     10  O   UNL     1       1.855  -1.135 -10.867  1.00  0.00    -0.544 OA
ENDBRANCH   3   8
ENDBRANCH   1   3
BRANCH   1  11
ATOM     11  C   UNL     1       0.071   0.874  -6.747  1.00  0.00     0.006 C 
ATOM     12  C   UNL     1       0.490   1.571  -5.451  1.00  0.00     0.004 C 
ENDBRANCH   1  11
TORSDOF 4
ENDMDL
MODEL 3
REMARK VINA RESULT:     3.983      2.071      2.624
REMARK INTER + INTRA:           4.767
REMARK INTER:                   4.564
REMARK INTRA:                   0.203
REMARK UNBOUND:                -0.030
REMARK SMILES CC[C@H](C)[C@@H]([NH3+])C(=O)[O-]
REMARK SMILES IDX 3 1 4 2 5 3 6 4 7 8 8 9 9 10 2 11 1 12
REMARK H PARENT 6 5 6 6 6 7
REMARK Flexibility Score: inf
ROOT
ATOM      1  C   UNL     1      -2.420  -4.224 -10.478  1.00  0.00     0.050 C 
ATOM      2  C   UNL     1      -1.963  -5.288  -9.460  1.00  0.00     0.014 C 
ENDROOT
BRANCH   1   3
ATOM      3  C   UNL     1      -2.847  -4.901 -11.817  1.00  0.00     0.230 C 
BRANCH   3   4
ATOM      4  N   UNL     1      -3.082  -3.914 -12.882  1.00  0.00    -0.350 N 
ATOM      5  H   UNL     1      -2.645  -4.204 -13.785  1.00  0.00     0.345 HD
ATOM      6  H   UNL     1      -4.112  -3.806 -13.034  1.00  0.00     0.345 HD
ATOM      7  H   UNL     1      -2.700  -2.982 -12.599  1.00  0.00     0.345 HD
ENDBRANCH   3   4
BRANCH   3   8
ATOM      8  C   UNL     1      -1.864  -5.953 -12.273  1.00  0.00     0.099 C 
ATOM      9  O   UNL     1      -1.942  -7.126 -11.819  1.00  0.00    -0.544 OA
ATOM     10  O   UNL     1      -0.847  -5.634 -13.166  1.00  0.00    -0.544 OA
ENDBRANCH   3   8
ENDBRANCH   1   3
BRANCH   1  11
ATOM     11  C   UNL     1      -1.336  -3.130 -10.666  1.00  0.00     0.006 C 
ATOM     12  C   UNL     1      -1.421  -2.021  -9.616  1.00  0.00     0.004 C 
ENDBRANCH   1  11
TORSDOF 4
ENDMDL
MODEL 4
REMARK VINA RESULT:     4.069      2.653      3.532
REMARK INTER + INTRA:           4.871
REMARK INTER:                   4.088
REMARK INTRA:                   0.783
REMARK UNBOUND:                -0.030
REMARK SMILES CC[C@H](C)[C@@H]([NH3+])C(=O)[O-]
REMARK SMILES IDX 3 1 4 2 5 3 6 4 7 8 8 9 9 10 2 11 1 12
REMARK H PARENT 6 5 6 6 6 7
REMARK Flexibility Score: inf
ROOT
ATOM      1  C   UNL     1      -2.774  -5.052 -11.404  1.00  0.00     0.050 C 
ATOM      2  C   UNL     1      -2.337  -4.172 -12.592  1.00  0.00     0.014 C 
ENDROOT
BRANCH   1   3
ATOM      3  C   UNL     1      -2.376  -4.379 -10.054  1.00  0.00     0.230 C 
BRANCH   3   4
ATOM      4  N   UNL     1      -1.679  -5.314  -9.157  1.00  0.00    -0.350 N 
ATOM      5  H   UNL     1      -2.153  -6.244  -9.122  1.00  0.00     0.345 HD
ATOM      6  H   UNL     1      -0.700  -5.456  -9.497  1.00  0.00     0.345 HD
ATOM      7  H   UNL     1      -1.629  -4.916  -8.191  1.00  0.00     0.345 HD
ENDBRANCH   3   4
BRANCH   3   8
ATOM      8  C   UNL     1      -1.559  -3.123 -10.252  1.00  0.00     0.099 C 
ATOM      9  O   UNL     1      -0.585  -3.126 -11.050  1.00  0.00    -0.544 OA
ATOM     10  O   UNL     1      -1.851  -1.968  -9.536  1.00  0.00    -0.544 OA
ENDBRANCH   3   8
ENDBRANCH   1   3
BRANCH   1  11
ATOM     11  C   UNL     1      -2.229  -6.497 -11.549  1.00  0.00     0.006 C 
ATOM     12  C   UNL     1      -1.386  -6.691 -12.811  1.00  0.00     0.004 C 
ENDBRANCH   1  11
TORSDOF 4
ENDMDL
MODEL 5
REMARK VINA RESULT:     4.365      7.065      8.230
REMARK INTER + INTRA:           5.228
REMARK INTER:                   5.292
REMARK INTRA:                  -0.064
REMARK UNBOUND:                -0.030
REMARK SMILES CC[C@H](C)[C@@H]([NH3+])C(=O)[O-]
REMARK SMILES IDX 3 1 4 2 5 3 6 4 7 8 8 9 9 10 2 11 1 12
REMARK H PARENT 6 5 6 6 6 7
REMARK Flexibility Score: inf
ROOT
ATOM      1  C   UNL     1       1.234   0.264  -8.264  1.00  0.00     0.050 C 
ATOM      2  C   UNL     1       2.629   0.535  -8.861  1.00  0.00     0.014 C 
ENDROOT
BRANCH   1   3
ATOM      3  C   UNL     1       1.343  -0.022  -6.734  1.00  0.00     0.230 C 
BRANCH   3   4
ATOM      4  N   UNL     1       2.712  -0.387  -6.339  1.00  0.00    -0.350 N 
ATOM      5  H   UNL     1       3.104   0.277  -5.635  1.00  0.00     0.345 HD
ATOM      6  H   UNL     1       2.709  -1.346  -5.921  1.00  0.00     0.345 HD
ATOM      7  H   UNL     1       3.336  -0.405  -7.179  1.00  0.00     0.345 HD
ENDBRANCH   3   4
BRANCH   3   8
ATOM      8  C   UNL     1       0.834   1.126  -5.894  1.00  0.00     0.099 C 
ATOM      9  O   UNL     1      -0.307   1.611  -6.117  1.00  0.00    -0.544 OA
ATOM     10  O   UNL     1       1.626   1.679  -4.894  1.00  0.00    -0.544 OA
ENDBRANCH   3   8
ENDBRANCH   1   3
BRANCH   1  11
ATOM     11  C   UNL     1       0.503  -0.861  -9.044  1.00  0.00     0.006 C 
ATOM     12  C   UNL     1       1.152  -1.169 -10.394  1.00  0.00     0.004 C 
ENDBRANCH   1  11
TORSDOF 4
ENDMDL
MODEL 6
REMARK VINA RESULT:     4.530      5.800      6.910
REMARK INTER + INTRA:           5.427
REMARK INTER:                   5.086
REMARK INTRA:                   0.341
REMARK UNBOUND:                -0.030
REMARK SMILES CC[C@H](C)[C@@H]([NH3+])C(=O)[O-]
REMARK SMILES IDX 3 1 4 2 5 3 6 4 7 8 8 9 9 10 2 11 1 12
REMARK H PARENT 6 5 6 6 6 7
REMARK Flexibility Score: inf
ROOT
ATOM      1  C   UNL     1       0.729  -0.702  -9.652  1.00  0.00     0.050 C 
ATOM      2  C   UNL     1       1.397  -1.424 -10.840  1.00  0.00     0.014 C 
ENDROOT
BRANCH   1   3
ATOM      3  C   UNL     1       1.787  -0.373  -8.552  1.00  0.00     0.230 C 
BRANCH   3   4
ATOM      4  N   UNL     1       2.761   0.630  -9.009  1.00  0.00    -0.350 N 
ATOM      5  H   UNL     1       3.392   0.938  -8.238  1.00  0.00     0.345 HD
ATOM      6  H   UNL     1       3.349   0.221  -9.772  1.00  0.00     0.345 HD
ATOM      7  H   UNL     1       2.263   1.463  -9.400  1.00  0.00     0.345 HD
ENDBRANCH   3   4
BRANCH   3   8
ATOM      8  C   UNL     1       1.152   0.055  -7.249  1.00  0.00     0.099 C 
ATOM      9  O   UNL     1       0.055   0.673  -7.257  1.00  0.00    -0.544 OA
ATOM     10  O   UNL     1       1.784  -0.198  -6.038  1.00  0.00    -0.544 OA
ENDBRANCH   3   8
ENDBRANCH   1   3
BRANCH   1  11
ATOM     11  C   UNL     1      -0.478  -1.514  -9.113  1.00  0.00     0.006 C 
ATOM     12  C   UNL     1      -1.137  -2.384 -10.185  1.00  0.00     0.004 C 
ENDBRANCH   1  11
TORSDOF 4
ENDMDL
MODEL 7
REMARK VINA RESULT:     4.538      2.712      3.616
REMARK INTER + INTRA:           5.436
REMARK INTER:                   5.268
REMARK INTRA:                   0.168
REMARK UNBOUND:                -0.030
REMARK SMILES CC[C@H](C)[C@@H]([NH3+])C(=O)[O-]
REMARK SMILES IDX 3 1 4 2 5 3 6 4 7 8 8 9 9 10 2 11 1 12
REMARK H PARENT 6 5 6 6 6 7
REMARK Flexibility Score: inf
ROOT
ATOM      1  C   UNL     1      -1.609  -5.485 -11.670  1.00  0.00     0.050 C 
ATOM      2  C   UNL     1      -2.226  -6.895 -11.769  1.00  0.00     0.014 C 
ENDROOT
BRANCH   1   3
ATOM      3  C   UNL     1      -2.325  -4.655 -10.559  1.00  0.00     0.230 C 
BRANCH   3   4
ATOM      4  N   UNL     1      -1.969  -5.120  -9.210  1.00  0.00    -0.350 N 
ATOM      5  H   UNL     1      -0.954  -5.353  -9.135  1.00  0.00     0.345 HD
ATOM      6  H   UNL     1      -2.186  -4.367  -8.515  1.00  0.00     0.345 HD
ATOM      7  H   UNL     1      -2.536  -5.962  -8.959  1.00  0.00     0.345 HD
ENDBRANCH   3   4
BRANCH   3   8
ATOM      8  C   UNL     1      -2.077  -3.171 -10.695  1.00  0.00     0.099 C 
ATOM      9  O   UNL     1      -2.808  -2.478 -11.451  1.00  0.00    -0.544 OA
ATOM     10  O   UNL     1      -1.024  -2.564 -10.021  1.00  0.00    -0.544 OA
ENDBRANCH   3   8
ENDBRANCH   1   3
BRANCH   1  11
ATOM     11  C   UNL     1      -1.606  -4.779 -13.052  1.00  0.00     0.006 C 
ATOM     12  C   UNL     1      -0.330  -5.045 -13.853  1.00  0.00     0.004 C 
ENDBRANCH   1  11
TORSDOF 4
ENDMDL
MODEL 8
REMARK VINA RESULT:     4.835      3.615      4.570
REMARK INTER + INTRA:           5.794
REMARK INTER:                   5.858
REMARK INTRA:                  -0.063
REMARK UNBOUND:                -0.030
REMARK SMILES CC[C@H](C)[C@@H]([NH3+])C(=O)[O-]
REMARK SMILES IDX 3 1 4 2 5 3 6 4 7 8 8 9 9 10 2 11 1 12
REMARK H PARENT 6 5 6 6 6 7
REMARK Flexibility Score: inf
ROOT
ATOM      1  C   UNL     1      -1.473  -3.863 -10.681  1.00  0.00     0.050 C 
ATOM      2  C   UNL     1      -2.190  -4.602  -9.534  1.00  0.00     0.014 C 
ENDROOT
BRANCH   1   3
ATOM      3  C   UNL     1      -1.341  -2.343 -10.349  1.00  0.00     0.230 C 
BRANCH   3   4
ATOM      4  N   UNL     1      -2.040  -1.990  -9.104  1.00  0.00    -0.350 N 
ATOM      5  H   UNL     1      -2.963  -2.470  -9.026  1.00  0.00     0.345 HD
ATOM      6  H   UNL     1      -1.453  -2.271  -8.284  1.00  0.00     0.345 HD
ATOM      7  H   UNL     1      -2.184  -0.955  -9.054  1.00  0.00     0.345 HD
ENDBRANCH   3   4
BRANCH   3   8
ATOM      8  C   UNL     1       0.097  -1.883 -10.303  1.00  0.00     0.099 C 
ATOM      9  O   UNL     1       0.927  -2.329 -11.139  1.00  0.00    -0.544 OA
ATOM     10  O   UNL     1       0.526  -0.996  -9.323  1.00  0.00    -0.544 OA
ENDBRANCH   3   8
ENDBRANCH   1   3
BRANCH   1  11
ATOM     11  C   UNL     1      -2.169  -4.132 -12.040  1.00  0.00     0.006 C 
ATOM     12  C   UNL     1      -2.059  -5.591 -12.487  1.00  0.00     0.004 C 
ENDBRANCH   1  11
TORSDOF 4
ENDMDL
MODEL 9
REMARK VINA RESULT:     4.967      1.722      2.499
REMARK INTER + INTRA:           5.953
REMARK INTER:                   4.248
REMARK INTRA:                   1.705
REMARK UNBOUND:                -0.030
REMARK SMILES CC[C@H](C)[C@@H]([NH3+])C(=O)[O-]
REMARK SMILES IDX 3 1 4 2 5 3 6 4 7 8 8 9 9 10 2 11 1 12
REMARK H PARENT 6 5 6 6 6 7
REMARK Flexibility Score: inf
ROOT
ATOM      1  C   UNL     1      -2.404  -4.486 -10.659  1.00  0.00     0.050 C 
ATOM      2  C   UNL     1      -1.780  -3.123 -10.302  1.00  0.00     0.014 C 
ENDROOT
BRANCH   1   3
ATOM      3  C   UNL     1      -1.583  -5.646 -10.014  1.00  0.00     0.230 C 
BRANCH   3   4
ATOM      4  N   UNL     1      -1.828  -5.755  -8.567  1.00  0.00    -0.350 N 
ATOM      5  H   UNL     1      -1.921  -6.749  -8.262  1.00  0.00     0.345 HD
ATOM      6  H   UNL     1      -1.028  -5.324  -8.047  1.00  0.00     0.345 HD
ATOM      7  H   UNL     1      -2.697  -5.232  -8.310  1.00  0.00     0.345 HD
ENDBRANCH   3   4
BRANCH   3   8
ATOM      8  C   UNL     1      -1.821  -6.973 -10.696  1.00  0.00     0.099 C 
ATOM      9  O   UNL     1      -2.269  -7.003 -11.873  1.00  0.00    -0.544 OA
ATOM     10  O   UNL     1      -1.584  -8.167 -10.026  1.00  0.00    -0.544 OA
ENDBRANCH   3   8
ENDBRANCH   1   3
BRANCH   1  11
ATOM     11  C   UNL     1      -2.572  -4.639 -12.194  1.00  0.00     0.006 C 
ATOM     12  C   UNL     1      -1.250  -4.517 -12.952  1.00  0.00     0.004 C 
ENDBRANCH   1  11
TORSDOF 4
ENDMDL
