MODEL 1
REMARK VINA RESULT:    -5.672      0.000      0.000
REMARK INTER + INTRA:          -6.379
REMARK INTER:                  -6.832
REMARK INTRA:                   0.453
REMARK UNBOUND:                 0.453
REMARK SMILES O=c1c(O)c(-c2ccc(O)c(O)c2)oc2cc(O)cc(O)c12
REMARK SMILES IDX 5 1 3 2 2 3 1 4 22 5 20 6 19 7 17 8 16 9 15 10 14 11 6 12
REMARK SMILES IDX 7 13 8 14 9 15 13 16 11 17 10 18 12 20 4 22 21 24 18 26
REMARK H PARENT 10 19 12 21 4 23 21 25 18 27
REMARK Flexibility Score: inf
ROOT
ATOM      1  C   UNL     1       4.434 -15.681   7.762  1.00  0.00     0.180 A 
ATOM      2  C   UNL     1       4.090 -16.185   6.496  1.00  0.00     0.208 A 
ATOM      3  C   UNL     1       4.000 -15.299   5.412  1.00  0.00     0.238 A 
ATOM      4  O   UNL     1       3.745 -15.764   4.270  1.00  0.00    -0.285 OA
ATOM      5  C   UNL     1       4.239 -13.917   5.608  1.00  0.00     0.111 A 
ATOM      6  C   UNL     1       4.136 -12.924   4.589  1.00  0.00     0.134 A 
ATOM      7  C   UNL     1       4.521 -11.606   4.866  1.00  0.00     0.093 A 
ATOM      8  C   UNL     1       4.944 -11.234   6.145  1.00  0.00     0.123 A 
ATOM      9  C   UNL     1       4.991 -12.185   7.162  1.00  0.00     0.094 A 
ATOM     10  C   UNL     1       4.648 -13.514   6.906  1.00  0.00     0.146 A 
ATOM     11  O   UNL     1       4.717 -14.390   7.901  1.00  0.00    -0.452 OA
ENDROOT
BRANCH   1  12
ATOM     12  C   UNL     1       4.525 -16.548   8.959  1.00  0.00     0.025 A 
ATOM     13  C   UNL     1       4.472 -17.948   8.852  1.00  0.00     0.016 A 
ATOM     14  C   UNL     1       4.536 -18.747   9.997  1.00  0.00     0.051 A 
ATOM     15  C   UNL     1       4.639 -18.159  11.265  1.00  0.00     0.157 A 
ATOM     16  C   UNL     1       4.608 -15.963  10.233  1.00  0.00     0.062 A 
ATOM     17  C   UNL     1       4.672 -16.759  11.382  1.00  0.00     0.158 A 
BRANCH  15  18
ATOM     18  O   UNL     1       4.704 -18.958  12.405  1.00  0.00    -0.504 OA
ATOM     19  H   UNL     1       4.943 -18.570  13.311  1.00  0.00     0.293 HD
ENDBRANCH  15  18
BRANCH  17  20
ATOM     20  O   UNL     1       4.766 -16.142  12.629  1.00  0.00    -0.504 OA
ATOM     21  H   UNL     1       3.955 -15.986  13.215  1.00  0.00     0.293 HD
ENDBRANCH  17  20
ENDBRANCH   1  12
BRANCH   2  22
ATOM     22  O   UNL     1       3.880 -17.555   6.319  1.00  0.00    -0.502 OA
ATOM     23  H   UNL     1       2.957 -17.971   6.329  1.00  0.00     0.293 HD
ENDBRANCH   2  22
BRANCH   6  24
ATOM     24  O   UNL     1       3.638 -13.170   3.306  1.00  0.00    -0.507 OA
ATOM     25  H   UNL     1       4.179 -13.100   2.457  1.00  0.00     0.293 HD
ENDBRANCH   6  24
BRANCH   8  26
ATOM     26  O   UNL     1       5.312  -9.918   6.417  1.00  0.00    -0.508 OA
ATOM     27  H   UNL     1       5.022  -9.453   7.269  1.00  0.00     0.293 HD
ENDBRANCH   8  26
TORSDOF 6
ENDMDL
MODEL 2
REMARK VINA RESULT:    -5.622      1.696      2.361
REMARK INTER + INTRA:          -6.320
REMARK INTER:                  -6.142
REMARK INTRA:                  -0.178
REMARK UNBOUND:                 0.453
REMARK SMILES O=c1c(O)c(-c2ccc(O)c(O)c2)oc2cc(O)cc(O)c12
REMARK SMILES IDX 5 1 3 2 2 3 1 4 22 5 20 6 19 7 17 8 16 9 15 10 14 11 6 12
REMARK SMILES IDX 7 13 8 14 9 15 13 16 11 17 10 18 12 20 4 22 21 24 18 26
REMARK H PARENT 10 19 12 21 4 23 21 25 18 27
REMARK Flexibility Score: inf
ROOT
ATOM      1  C   UNL     1       4.094 -15.243   6.357  1.00  0.00     0.180 A 
ATOM      2  C   UNL     1       3.546 -15.359   5.067  1.00  0.00     0.208 A 
ATOM      3  C   UNL     1       3.371 -14.199   4.296  1.00  0.00     0.238 A 
ATOM      4  O   UNL     1       2.932 -14.315   3.121  1.00  0.00    -0.285 OA
ATOM      5  C   UNL     1       3.730 -12.937   4.827  1.00  0.00     0.111 A 
ATOM      6  C   UNL     1       3.559 -11.693   4.149  1.00  0.00     0.134 A 
ATOM      7  C   UNL     1       4.069 -10.520   4.718  1.00  0.00     0.093 A 
ATOM      8  C   UNL     1       4.687 -10.537   5.971  1.00  0.00     0.123 A 
ATOM      9  C   UNL     1       4.805 -11.737   6.667  1.00  0.00     0.094 A 
ATOM     10  C   UNL     1       4.339 -12.929   6.109  1.00  0.00     0.146 A 
ATOM     11  O   UNL     1       4.482 -14.053   6.802  1.00  0.00    -0.452 OA
ENDROOT
BRANCH   1  12
ATOM     12  C   UNL     1       4.286 -16.416   7.240  1.00  0.00     0.025 A 
ATOM     13  C   UNL     1       3.565 -16.555   8.438  1.00  0.00     0.016 A 
ATOM     14  C   UNL     1       3.779 -17.659   9.267  1.00  0.00     0.051 A 
ATOM     15  C   UNL     1       4.726 -18.631   8.920  1.00  0.00     0.157 A 
ATOM     16  C   UNL     1       5.249 -17.382   6.906  1.00  0.00     0.062 A 
ATOM     17  C   UNL     1       5.467 -18.489   7.734  1.00  0.00     0.158 A 
BRANCH  15  18
ATOM     18  O   UNL     1       4.938 -19.732   9.749  1.00  0.00    -0.504 OA
ATOM     19  H   UNL     1       4.311 -20.528   9.742  1.00  0.00     0.293 HD
ENDBRANCH  15  18
BRANCH  17  20
ATOM     20  O   UNL     1       6.422 -19.435   7.363  1.00  0.00    -0.504 OA
ATOM     21  H   UNL     1       6.172 -20.386   7.121  1.00  0.00     0.293 HD
ENDBRANCH  17  20
ENDBRANCH   1  12
BRANCH   2  22
ATOM     22  O   UNL     1       3.220 -16.616   4.552  1.00  0.00    -0.502 OA
ATOM     23  H   UNL     1       3.008 -16.765   3.573  1.00  0.00     0.293 HD
ENDBRANCH   2  22
BRANCH   6  24
ATOM     24  O   UNL     1       2.875 -11.552   2.938  1.00  0.00    -0.507 OA
ATOM     25  H   UNL     1       2.608 -12.317   2.336  1.00  0.00     0.293 HD
ENDBRANCH   6  24
BRANCH   8  26
ATOM     26  O   UNL     1       5.178  -9.362   6.537  1.00  0.00    -0.508 OA
ATOM     27  H   UNL     1       4.715  -8.918   7.321  1.00  0.00     0.293 HD
ENDBRANCH   8  26
TORSDOF 6
ENDMDL
MODEL 3
REMARK VINA RESULT:    -5.472      5.681      9.751
REMARK INTER + INTRA:          -6.139
REMARK INTER:                  -5.861
REMARK INTRA:                  -0.277
REMARK UNBOUND:                 0.453
REMARK SMILES O=c1c(O)c(-c2ccc(O)c(O)c2)oc2cc(O)cc(O)c12
REMARK SMILES IDX 5 1 3 2 2 3 1 4 22 5 20 6 19 7 17 8 16 9 15 10 14 11 6 12
REMARK SMILES IDX 7 13 8 14 9 15 13 16 11 17 10 18 12 20 4 22 21 24 18 26
REMARK H PARENT 10 19 12 21 4 23 21 25 18 27
REMARK Flexibility Score: inf
ROOT
ATOM      1  C   UNL     1       5.229  -6.789   5.444  1.00  0.00     0.180 A 
ATOM      2  C   UNL     1       4.392  -5.742   5.870  1.00  0.00     0.208 A 
ATOM      3  C   UNL     1       4.940  -4.462   6.046  1.00  0.00     0.238 A 
ATOM      4  O   UNL     1       4.176  -3.517   6.374  1.00  0.00    -0.285 OA
ATOM      5  C   UNL     1       6.319  -4.246   5.812  1.00  0.00     0.111 A 
ATOM      6  C   UNL     1       6.989  -2.999   5.998  1.00  0.00     0.134 A 
ATOM      7  C   UNL     1       8.328  -2.870   5.611  1.00  0.00     0.093 A 
ATOM      8  C   UNL     1       9.040  -3.960   5.105  1.00  0.00     0.123 A 
ATOM      9  C   UNL     1       8.413  -5.196   4.976  1.00  0.00     0.094 A 
ATOM     10  C   UNL     1       7.068  -5.347   5.319  1.00  0.00     0.146 A 
ATOM     11  O   UNL     1       6.504  -6.540   5.169  1.00  0.00    -0.452 OA
ENDROOT
BRANCH   1  12
ATOM     12  C   UNL     1       4.730  -8.171   5.259  1.00  0.00     0.025 A 
ATOM     13  C   UNL     1       3.976  -8.531   4.130  1.00  0.00     0.016 A 
ATOM     14  C   UNL     1       3.496  -9.836   3.987  1.00  0.00     0.051 A 
ATOM     15  C   UNL     1       3.750 -10.794   4.977  1.00  0.00     0.157 A 
ATOM     16  C   UNL     1       4.965  -9.130   6.259  1.00  0.00     0.062 A 
ATOM     17  C   UNL     1       4.486 -10.437   6.120  1.00  0.00     0.158 A 
BRANCH  15  18
ATOM     18  O   UNL     1       3.271 -12.096   4.833  1.00  0.00    -0.504 OA
ATOM     19  H   UNL     1       3.154 -12.709   5.631  1.00  0.00     0.293 HD
ENDBRANCH  15  18
BRANCH  17  20
ATOM     20  O   UNL     1       4.749 -11.365   7.127  1.00  0.00    -0.504 OA
ATOM     21  H   UNL     1       4.678 -11.129   8.109  1.00  0.00     0.293 HD
ENDBRANCH  17  20
ENDBRANCH   1  12
BRANCH   2  22
ATOM     22  O   UNL     1       3.029  -5.970   6.073  1.00  0.00    -0.502 OA
ATOM     23  H   UNL     1       2.457  -5.369   6.654  1.00  0.00     0.293 HD
ENDBRANCH   2  22
BRANCH   6  24
ATOM     24  O   UNL     1       6.397  -1.875   6.581  1.00  0.00    -0.507 OA
ATOM     25  H   UNL     1       6.525  -1.591   7.541  1.00  0.00     0.293 HD
ENDBRANCH   6  24
BRANCH   8  26
ATOM     26  O   UNL     1      10.378  -3.826   4.736  1.00  0.00    -0.508 OA
ATOM     27  H   UNL     1      11.128  -3.977   5.401  1.00  0.00     0.293 HD
ENDBRANCH   8  26
TORSDOF 6
ENDMDL
MODEL 4
REMARK VINA RESULT:    -5.329      1.302      6.646
REMARK INTER + INTRA:          -5.967
REMARK INTER:                  -6.131
REMARK INTRA:                   0.165
REMARK UNBOUND:                 0.453
REMARK SMILES O=c1c(O)c(-c2ccc(O)c(O)c2)oc2cc(O)cc(O)c12
REMARK SMILES IDX 5 1 3 2 2 3 1 4 22 5 20 6 19 7 17 8 16 9 15 10 14 11 6 12
REMARK SMILES IDX 7 13 8 14 9 15 13 16 11 17 10 18 12 20 4 22 21 24 18 26
REMARK H PARENT 10 19 12 21 4 23 21 25 18 27
REMARK Flexibility Score: inf
ROOT
ATOM      1  C   UNL     1       4.154 -15.770   6.813  1.00  0.00     0.180 A 
ATOM      2  C   UNL     1       4.220 -17.073   6.289  1.00  0.00     0.208 A 
ATOM      3  C   UNL     1       4.418 -18.150   7.167  1.00  0.00     0.238 A 
ATOM      4  O   UNL     1       4.421 -19.319   6.698  1.00  0.00    -0.285 OA
ATOM      5  C   UNL     1       4.563 -17.912   8.554  1.00  0.00     0.111 A 
ATOM      6  C   UNL     1       4.808 -18.925   9.530  1.00  0.00     0.134 A 
ATOM      7  C   UNL     1       4.805 -18.590  10.889  1.00  0.00     0.093 A 
ATOM      8  C   UNL     1       4.631 -17.268  11.305  1.00  0.00     0.123 A 
ATOM      9  C   UNL     1       4.452 -16.263  10.357  1.00  0.00     0.094 A 
ATOM     10  C   UNL     1       4.413 -16.571   8.996  1.00  0.00     0.146 A 
ATOM     11  O   UNL     1       4.228 -15.585   8.127  1.00  0.00    -0.452 OA
ENDROOT
BRANCH   1  12
ATOM     12  C   UNL     1       3.973 -14.581   5.950  1.00  0.00     0.025 A 
ATOM     13  C   UNL     1       3.108 -14.606   4.842  1.00  0.00     0.016 A 
ATOM     14  C   UNL     1       2.970 -13.479   4.027  1.00  0.00     0.051 A 
ATOM     15  C   UNL     1       3.704 -12.317   4.298  1.00  0.00     0.157 A 
ATOM     16  C   UNL     1       4.722 -13.420   6.205  1.00  0.00     0.062 A 
ATOM     17  C   UNL     1       4.587 -12.290   5.391  1.00  0.00     0.158 A 
BRANCH  15  18
ATOM     18  O   UNL     1       3.564 -11.194   3.484  1.00  0.00    -0.504 OA
ATOM     19  H   UNL     1       3.656 -10.256   3.856  1.00  0.00     0.293 HD
ENDBRANCH  15  18
BRANCH  17  20
ATOM     20  O   UNL     1       5.337 -11.151   5.684  1.00  0.00    -0.504 OA
ATOM     21  H   UNL     1       5.611 -10.489   4.968  1.00  0.00     0.293 HD
ENDBRANCH  17  20
ENDBRANCH   1  12
BRANCH   2  22
ATOM     22  O   UNL     1       4.051 -17.288   4.919  1.00  0.00    -0.502 OA
ATOM     23  H   UNL     1       4.190 -16.558   4.231  1.00  0.00     0.293 HD
ENDBRANCH   2  22
BRANCH   6  24
ATOM     24  O   UNL     1       5.086 -20.259   9.217  1.00  0.00    -0.507 OA
ATOM     25  H   UNL     1       5.892 -20.770   9.545  1.00  0.00     0.293 HD
ENDBRANCH   6  24
BRANCH   8  26
ATOM     26  O   UNL     1       4.645 -16.941  12.659  1.00  0.00    -0.508 OA
ATOM     27  H   UNL     1       4.172 -16.116  13.010  1.00  0.00     0.293 HD
ENDBRANCH   8  26
TORSDOF 6
ENDMDL
MODEL 5
REMARK VINA RESULT:    -5.188      3.093      6.760
REMARK INTER + INTRA:          -5.796
REMARK INTER:                  -5.539
REMARK INTRA:                  -0.256
REMARK UNBOUND:                 0.453
REMARK SMILES O=c1c(O)c(-c2ccc(O)c(O)c2)oc2cc(O)cc(O)c12
REMARK SMILES IDX 5 1 3 2 2 3 1 4 22 5 20 6 19 7 17 8 16 9 15 10 14 11 6 12
REMARK SMILES IDX 7 13 8 14 9 15 13 16 11 17 10 18 12 20 4 22 21 24 18 26
REMARK H PARENT 10 19 12 21 4 23 21 25 18 27
REMARK Flexibility Score: inf
ROOT
ATOM      1  C   UNL     1       4.528 -18.472   7.539  1.00  0.00     0.180 A 
ATOM      2  C   UNL     1       4.703 -17.090   7.351  1.00  0.00     0.208 A 
ATOM      3  C   UNL     1       4.872 -16.266   8.475  1.00  0.00     0.238 A 
ATOM      4  O   UNL     1       5.084 -15.038   8.298  1.00  0.00    -0.285 OA
ATOM      5  C   UNL     1       4.849 -16.830   9.773  1.00  0.00     0.111 A 
ATOM      6  C   UNL     1       4.971 -16.085  10.984  1.00  0.00     0.134 A 
ATOM      7  C   UNL     1       5.065 -16.761  12.206  1.00  0.00     0.093 A 
ATOM      8  C   UNL     1       4.977 -18.154  12.266  1.00  0.00     0.123 A 
ATOM      9  C   UNL     1       4.797 -18.887  11.095  1.00  0.00     0.094 A 
ATOM     10  C   UNL     1       4.737 -18.243   9.858  1.00  0.00     0.146 A 
ATOM     11  O   UNL     1       4.577 -18.980   8.766  1.00  0.00    -0.452 OA
ENDROOT
BRANCH   1  12
ATOM     12  C   UNL     1       4.318 -19.402   6.406  1.00  0.00     0.025 A 
ATOM     13  C   UNL     1       3.110 -19.419   5.688  1.00  0.00     0.016 A 
ATOM     14  C   UNL     1       2.925 -20.321   4.637  1.00  0.00     0.051 A 
ATOM     15  C   UNL     1       3.938 -21.227   4.297  1.00  0.00     0.157 A 
ATOM     16  C   UNL     1       5.322 -20.326   6.074  1.00  0.00     0.062 A 
ATOM     17  C   UNL     1       5.141 -21.231   5.023  1.00  0.00     0.158 A 
BRANCH  15  18
ATOM     18  O   UNL     1       3.752 -22.125   3.247  1.00  0.00    -0.504 OA
ATOM     19  H   UNL     1       4.482 -22.305   2.568  1.00  0.00     0.293 HD
ENDBRANCH  15  18
BRANCH  17  20
ATOM     20  O   UNL     1       6.166 -22.125   4.714  1.00  0.00    -0.504 OA
ATOM     21  H   UNL     1       6.051 -22.858   4.025  1.00  0.00     0.293 HD
ENDBRANCH  17  20
ENDBRANCH   1  12
BRANCH   2  22
ATOM     22  O   UNL     1       4.745 -16.556   6.060  1.00  0.00    -0.502 OA
ATOM     23  H   UNL     1       5.546 -16.669   5.451  1.00  0.00     0.293 HD
ENDBRANCH   2  22
BRANCH   6  24
ATOM     24  O   UNL     1       4.975 -14.688  11.043  1.00  0.00    -0.507 OA
ATOM     25  H   UNL     1       4.165 -14.119  11.236  1.00  0.00     0.293 HD
ENDBRANCH   6  24
BRANCH   8  26
ATOM     26  O   UNL     1       5.055 -18.820  13.488  1.00  0.00    -0.508 OA
ATOM     27  H   UNL     1       5.935 -19.180  13.839  1.00  0.00     0.293 HD
ENDBRANCH   8  26
TORSDOF 6
ENDMDL
MODEL 6
REMARK VINA RESULT:    -5.055      2.060      6.582
REMARK INTER + INTRA:          -5.636
REMARK INTER:                  -5.501
REMARK INTRA:                  -0.135
REMARK UNBOUND:                 0.453
REMARK SMILES O=c1c(O)c(-c2ccc(O)c(O)c2)oc2cc(O)cc(O)c12
REMARK SMILES IDX 5 1 3 2 2 3 1 4 22 5 20 6 19 7 17 8 16 9 15 10 14 11 6 12
REMARK SMILES IDX 7 13 8 14 9 15 13 16 11 17 10 18 12 20 4 22 21 24 18 26
REMARK H PARENT 10 19 12 21 4 23 21 25 18 27
REMARK Flexibility Score: inf
ROOT
ATOM      1  C   UNL     1       3.989 -13.462   5.657  1.00  0.00     0.180 A 
ATOM      2  C   UNL     1       3.570 -14.038   4.445  1.00  0.00     0.208 A 
ATOM      3  C   UNL     1       3.573 -15.437   4.320  1.00  0.00     0.238 A 
ATOM      4  O   UNL     1       3.145 -15.949   3.253  1.00  0.00    -0.285 OA
ATOM      5  C   UNL     1       4.008 -16.241   5.400  1.00  0.00     0.111 A 
ATOM      6  C   UNL     1       4.090 -17.665   5.370  1.00  0.00     0.134 A 
ATOM      7  C   UNL     1       4.412 -18.365   6.540  1.00  0.00     0.093 A 
ATOM      8  C   UNL     1       4.717 -17.687   7.722  1.00  0.00     0.123 A 
ATOM      9  C   UNL     1       4.698 -16.295   7.746  1.00  0.00     0.094 A 
ATOM     10  C   UNL     1       4.346 -15.571   6.606  1.00  0.00     0.146 A 
ATOM     11  O   UNL     1       4.329 -14.245   6.675  1.00  0.00    -0.452 OA
ENDROOT
BRANCH   1  12
ATOM     12  C   UNL     1       4.038 -11.995   5.857  1.00  0.00     0.025 A 
ATOM     13  C   UNL     1       2.875 -11.209   5.790  1.00  0.00     0.016 A 
ATOM     14  C   UNL     1       2.948  -9.824   5.959  1.00  0.00     0.051 A 
ATOM     15  C   UNL     1       4.184  -9.203   6.183  1.00  0.00     0.157 A 
ATOM     16  C   UNL     1       5.277 -11.366   6.061  1.00  0.00     0.062 A 
ATOM     17  C   UNL     1       5.355  -9.980   6.230  1.00  0.00     0.158 A 
BRANCH  15  18
ATOM     18  O   UNL     1       4.255  -7.821   6.352  1.00  0.00    -0.504 OA
ATOM     19  H   UNL     1       5.144  -7.338   6.400  1.00  0.00     0.293 HD
ENDBRANCH  15  18
BRANCH  17  20
ATOM     20  O   UNL     1       6.601  -9.392   6.444  1.00  0.00    -0.504 OA
ATOM     21  H   UNL     1       6.934  -9.159   7.372  1.00  0.00     0.293 HD
ENDBRANCH  17  20
ENDBRANCH   1  12
BRANCH   2  22
ATOM     22  O   UNL     1       3.122 -13.228   3.399  1.00  0.00    -0.502 OA
ATOM     23  H   UNL     1       2.140 -13.124   3.173  1.00  0.00     0.293 HD
ENDBRANCH   2  22
BRANCH   6  24
ATOM     24  O   UNL     1       3.896 -18.434   4.218  1.00  0.00    -0.507 OA
ATOM     25  H   UNL     1       4.535 -19.139   3.884  1.00  0.00     0.293 HD
ENDBRANCH   6  24
BRANCH   8  26
ATOM     26  O   UNL     1       5.051 -18.390   8.879  1.00  0.00    -0.508 OA
ATOM     27  H   UNL     1       6.010 -18.642   9.087  1.00  0.00     0.293 HD
ENDBRANCH   8  26
TORSDOF 6
ENDMDL
MODEL 7
REMARK VINA RESULT:    -5.050      4.714      9.846
REMARK INTER + INTRA:          -5.630
REMARK INTER:                  -5.335
REMARK INTRA:                  -0.295
REMARK UNBOUND:                 0.453
REMARK SMILES O=c1c(O)c(-c2ccc(O)c(O)c2)oc2cc(O)cc(O)c12
REMARK SMILES IDX 5 1 3 2 2 3 1 4 22 5 20 6 19 7 17 8 16 9 15 10 14 11 6 12
REMARK SMILES IDX 7 13 8 14 9 15 13 16 11 17 10 18 12 20 4 22 21 24 18 26
REMARK H PARENT 10 19 12 21 4 23 21 25 18 27
REMARK Flexibility Score: inf
ROOT
ATOM      1  C   UNL     1       5.224  -7.345   5.164  1.00  0.00     0.180 A 
ATOM      2  C   UNL     1       4.335  -7.471   4.083  1.00  0.00     0.208 A 
ATOM      3  C   UNL     1       3.768  -8.726   3.811  1.00  0.00     0.238 A 
ATOM      4  O   UNL     1       2.931  -8.821   2.875  1.00  0.00    -0.285 OA
ATOM      5  C   UNL     1       4.108  -9.842   4.612  1.00  0.00     0.111 A 
ATOM      6  C   UNL     1       3.624 -11.169   4.403  1.00  0.00     0.134 A 
ATOM      7  C   UNL     1       3.924 -12.169   5.335  1.00  0.00     0.093 A 
ATOM      8  C   UNL     1       4.743 -11.906   6.435  1.00  0.00     0.123 A 
ATOM      9  C   UNL     1       5.270 -10.629   6.616  1.00  0.00     0.094 A 
ATOM     10  C   UNL     1       4.959  -9.601   5.723  1.00  0.00     0.146 A 
ATOM     11  O   UNL     1       5.472  -8.396   5.938  1.00  0.00    -0.452 OA
ENDROOT
BRANCH   1  12
ATOM     12  C   UNL     1       5.882  -6.061   5.499  1.00  0.00     0.025 A 
ATOM     13  C   UNL     1       5.209  -5.061   6.221  1.00  0.00     0.016 A 
ATOM     14  C   UNL     1       5.841  -3.848   6.505  1.00  0.00     0.051 A 
ATOM     15  C   UNL     1       7.148  -3.610   6.060  1.00  0.00     0.157 A 
ATOM     16  C   UNL     1       7.184  -5.810   5.037  1.00  0.00     0.062 A 
ATOM     17  C   UNL     1       7.821  -4.597   5.319  1.00  0.00     0.158 A 
BRANCH  15  18
ATOM     18  O   UNL     1       7.777  -2.400   6.346  1.00  0.00    -0.504 OA
ATOM     19  H   UNL     1       7.749  -1.622   5.697  1.00  0.00     0.293 HD
ENDBRANCH  15  18
BRANCH  17  20
ATOM     20  O   UNL     1       9.120  -4.389   4.855  1.00  0.00    -0.504 OA
ATOM     21  H   UNL     1       9.673  -5.136   4.452  1.00  0.00     0.293 HD
ENDBRANCH  17  20
ENDBRANCH   1  12
BRANCH   2  22
ATOM     22  O   UNL     1       3.995  -6.352   3.318  1.00  0.00    -0.502 OA
ATOM     23  H   UNL     1       3.607  -6.427   2.385  1.00  0.00     0.293 HD
ENDBRANCH   2  22
BRANCH   6  24
ATOM     24  O   UNL     1       2.875 -11.560   3.289  1.00  0.00    -0.507 OA
ATOM     25  H   UNL     1       3.010 -11.207   2.353  1.00  0.00     0.293 HD
ENDBRANCH   6  24
BRANCH   8  26
ATOM     26  O   UNL     1       5.050 -12.911   7.351  1.00  0.00    -0.508 OA
ATOM     27  H   UNL     1       5.644 -13.692   7.100  1.00  0.00     0.293 HD
ENDBRANCH   8  26
TORSDOF 6
ENDMDL
MODEL 8
REMARK VINA RESULT:    -4.751      1.513      7.279
REMARK INTER + INTRA:          -5.270
REMARK INTER:                  -5.737
REMARK INTRA:                   0.467
REMARK UNBOUND:                 0.453
REMARK SMILES O=c1c(O)c(-c2ccc(O)c(O)c2)oc2cc(O)cc(O)c12
REMARK SMILES IDX 5 1 3 2 2 3 1 4 22 5 20 6 19 7 17 8 16 9 15 10 14 11 6 12
REMARK SMILES IDX 7 13 8 14 9 15 13 16 11 17 10 18 12 20 4 22 21 24 18 26
REMARK H PARENT 10 19 12 21 4 23 21 25 18 27
REMARK Flexibility Score: inf
ROOT
ATOM      1  C   UNL     1       4.299 -15.983   7.532  1.00  0.00     0.180 A 
ATOM      2  C   UNL     1       4.946 -15.514   8.689  1.00  0.00     0.208 A 
ATOM      3  C   UNL     1       5.019 -16.350   9.814  1.00  0.00     0.238 A 
ATOM      4  O   UNL     1       5.648 -15.946  10.827  1.00  0.00    -0.285 OA
ATOM      5  C   UNL     1       4.431 -17.637   9.776  1.00  0.00     0.111 A 
ATOM      6  C   UNL     1       4.410 -18.552  10.871  1.00  0.00     0.134 A 
ATOM      7  C   UNL     1       3.915 -19.848  10.679  1.00  0.00     0.093 A 
ATOM      8  C   UNL     1       3.380 -20.240   9.450  1.00  0.00     0.123 A 
ATOM      9  C   UNL     1       3.341 -19.335   8.392  1.00  0.00     0.094 A 
ATOM     10  C   UNL     1       3.861 -18.047   8.542  1.00  0.00     0.146 A 
ATOM     11  O   UNL     1       3.815 -17.219   7.505  1.00  0.00    -0.452 OA
ENDROOT
BRANCH   1  12
ATOM     12  C   UNL     1       4.159 -15.151   6.315  1.00  0.00     0.025 A 
ATOM     13  C   UNL     1       3.867 -15.725   5.066  1.00  0.00     0.016 A 
ATOM     14  C   UNL     1       3.763 -14.924   3.926  1.00  0.00     0.051 A 
ATOM     15  C   UNL     1       3.963 -13.540   4.015  1.00  0.00     0.157 A 
ATOM     16  C   UNL     1       4.379 -13.766   6.395  1.00  0.00     0.062 A 
ATOM     17  C   UNL     1       4.276 -12.959   5.256  1.00  0.00     0.158 A 
BRANCH  15  18
ATOM     18  O   UNL     1       3.857 -12.742   2.877  1.00  0.00    -0.504 OA
ATOM     19  H   UNL     1       3.008 -12.716   2.325  1.00  0.00     0.293 HD
ENDBRANCH  15  18
BRANCH  17  20
ATOM     20  O   UNL     1       4.488 -11.586   5.377  1.00  0.00    -0.504 OA
ATOM     21  H   UNL     1       4.974 -11.184   6.170  1.00  0.00     0.293 HD
ENDBRANCH  17  20
ENDBRANCH   1  12
BRANCH   2  22
ATOM     22  O   UNL     1       5.540 -14.249   8.698  1.00  0.00    -0.502 OA
ATOM     23  H   UNL     1       5.303 -13.531   8.025  1.00  0.00     0.293 HD
ENDBRANCH   2  22
BRANCH   6  24
ATOM     24  O   UNL     1       4.834 -18.232  12.164  1.00  0.00    -0.507 OA
ATOM     25  H   UNL     1       5.649 -17.678  12.380  1.00  0.00     0.293 HD
ENDBRANCH   6  24
BRANCH   8  26
ATOM     26  O   UNL     1       2.875 -21.527   9.272  1.00  0.00    -0.508 OA
ATOM     27  H   UNL     1       1.923 -21.684   8.963  1.00  0.00     0.293 HD
ENDBRANCH   8  26
TORSDOF 6
ENDMDL
MODEL 9
REMARK VINA RESULT:    -4.655      4.296      9.360
REMARK INTER + INTRA:          -5.154
REMARK INTER:                  -5.132
REMARK INTRA:                  -0.022
REMARK UNBOUND:                 0.453
REMARK SMILES O=c1c(O)c(-c2ccc(O)c(O)c2)oc2cc(O)cc(O)c12
REMARK SMILES IDX 5 1 3 2 2 3 1 4 22 5 20 6 19 7 17 8 16 9 15 10 14 11 6 12
REMARK SMILES IDX 7 13 8 14 9 15 13 16 11 17 10 18 12 20 4 22 21 24 18 26
REMARK H PARENT 10 19 12 21 4 23 21 25 18 27
REMARK Flexibility Score: inf
ROOT
ATOM      1  C   UNL     1       4.956  -7.877   5.329  1.00  0.00     0.180 A 
ATOM      2  C   UNL     1       4.133  -8.042   4.202  1.00  0.00     0.208 A 
ATOM      3  C   UNL     1       3.657  -9.325   3.889  1.00  0.00     0.238 A 
ATOM      4  O   UNL     1       2.875  -9.457   2.911  1.00  0.00    -0.285 OA
ATOM      5  C   UNL     1       4.021 -10.429   4.696  1.00  0.00     0.111 A 
ATOM      6  C   UNL     1       3.629 -11.779   4.449  1.00  0.00     0.134 A 
ATOM      7  C   UNL     1       3.941 -12.772   5.386  1.00  0.00     0.093 A 
ATOM      8  C   UNL     1       4.686 -12.474   6.529  1.00  0.00     0.123 A 
ATOM      9  C   UNL     1       5.125 -11.171   6.749  1.00  0.00     0.094 A 
ATOM     10  C   UNL     1       4.799 -10.152   5.851  1.00  0.00     0.146 A 
ATOM     11  O   UNL     1       5.227  -8.921   6.104  1.00  0.00    -0.452 OA
ENDROOT
BRANCH   1  12
ATOM     12  C   UNL     1       5.518  -6.560   5.710  1.00  0.00     0.025 A 
ATOM     13  C   UNL     1       6.896  -6.387   5.922  1.00  0.00     0.016 A 
ATOM     14  C   UNL     1       7.401  -5.141   6.303  1.00  0.00     0.051 A 
ATOM     15  C   UNL     1       6.536  -4.055   6.491  1.00  0.00     0.157 A 
ATOM     16  C   UNL     1       4.652  -5.474   5.919  1.00  0.00     0.062 A 
ATOM     17  C   UNL     1       5.154  -4.225   6.301  1.00  0.00     0.158 A 
BRANCH  15  18
ATOM     18  O   UNL     1       7.042  -2.813   6.870  1.00  0.00    -0.504 OA
ATOM     19  H   UNL     1       7.518  -2.682   7.754  1.00  0.00     0.293 HD
ENDBRANCH  15  18
BRANCH  17  20
ATOM     20  O   UNL     1       4.265  -3.166   6.487  1.00  0.00    -0.504 OA
ATOM     21  H   UNL     1       3.919  -2.908   7.404  1.00  0.00     0.293 HD
ENDBRANCH  17  20
ENDBRANCH   1  12
BRANCH   2  22
ATOM     22  O   UNL     1       3.765  -6.935   3.432  1.00  0.00    -0.502 OA
ATOM     23  H   UNL     1       4.039  -5.990   3.671  1.00  0.00     0.293 HD
ENDBRANCH   2  22
BRANCH   6  24
ATOM     24  O   UNL     1       2.963 -12.199   3.294  1.00  0.00    -0.507 OA
ATOM     25  H   UNL     1       1.966 -12.137   3.152  1.00  0.00     0.293 HD
ENDBRANCH   6  24
BRANCH   8  26
ATOM     26  O   UNL     1       5.006 -13.471   7.449  1.00  0.00    -0.508 OA
ATOM     27  H   UNL     1       4.779 -13.376   8.433  1.00  0.00     0.293 HD
ENDBRANCH   8  26
TORSDOF 6
ENDMDL
