MODEL 1
REMARK VINA RESULT:    -3.861      0.000      0.000
REMARK INTER + INTRA:          -4.493
REMARK INTER:                  -4.425
REMARK INTRA:                  -0.067
REMARK UNBOUND:                -0.067
REMARK SMILES CC(C)[C@H]([NH3+])C(=O)[O-]
REMARK SMILES IDX 4 1 5 2 6 6 7 7 8 8 2 9 1 10 3 11
REMARK H PARENT 5 3 5 4 5 5
REMARK Flexibility Score: inf
ROOT
ATOM      1  C   UNL     1     -33.773   8.818  12.966  1.00  0.00     0.230 C 
ENDROOT
BRANCH   1   2
ATOM      2  N   UNL     1     -34.510   7.668  13.512  1.00  0.00    -0.350 N 
ATOM      3  H   UNL     1     -33.910   6.813  13.457  1.00  0.00     0.345 HD
ATOM      4  H   UNL     1     -34.774   7.822  14.512  1.00  0.00     0.345 HD
ATOM      5  H   UNL     1     -35.372   7.486  12.950  1.00  0.00     0.345 HD
ENDBRANCH   1   2
BRANCH   1   6
ATOM      6  C   UNL     1     -34.312   9.201  11.609  1.00  0.00     0.099 C 
ATOM      7  O   UNL     1     -34.762  10.361  11.417  1.00  0.00    -0.544 OA
ATOM      8  O   UNL     1     -34.271   8.302  10.549  1.00  0.00    -0.544 OA
ENDBRANCH   1   6
BRANCH   1   9
ATOM      9  C   UNL     1     -32.233   8.583  12.907  1.00  0.00     0.047 C 
ATOM     10  C   UNL     1     -31.469   9.878  12.592  1.00  0.00     0.014 C 
ATOM     11  C   UNL     1     -31.662   7.923  14.172  1.00  0.00     0.014 C 
ENDBRANCH   1   9
TORSDOF 3
ENDMDL
MODEL 2
REMARK VINA RESULT:    -3.825      7.062      7.959
REMARK INTER + INTRA:          -4.451
REMARK INTER:                  -4.396
REMARK INTRA:                  -0.055
REMARK UNBOUND:                -0.067
REMARK SMILES CC(C)[C@H]([NH3+])C(=O)[O-]
REMARK SMILES IDX 4 1 5 2 6 6 7 7 8 8 2 9 1 10 3 11
REMARK H PARENT 5 3 5 4 5 5
REMARK Flexibility Score: inf
ROOT
ATOM      1  C   UNL     1     -26.730  12.144  14.354  1.00  0.00     0.230 C 
ENDROOT
BRANCH   1   2
ATOM      2  N   UNL     1     -25.466  11.656  14.927  1.00  0.00    -0.350 N 
ATOM      3  H   UNL     1     -25.625  11.356  15.916  1.00  0.00     0.345 HD
ATOM      4  H   UNL     1     -25.092  10.840  14.391  1.00  0.00     0.345 HD
ATOM      5  H   UNL     1     -24.752  12.419  14.940  1.00  0.00     0.345 HD
ENDBRANCH   1   2
BRANCH   1   6
ATOM      6  C   UNL     1     -26.819  13.647  14.460  1.00  0.00     0.099 C 
ATOM      7  O   UNL     1     -27.053  14.335  13.432  1.00  0.00    -0.544 OA
ATOM      8  O   UNL     1     -26.696  14.281  15.691  1.00  0.00    -0.544 OA
ENDBRANCH   1   6
BRANCH   1   9
ATOM      9  C   UNL     1     -27.986  11.467  14.983  1.00  0.00     0.047 C 
ATOM     10  C   UNL     1     -29.245  11.698  14.134  1.00  0.00     0.014 C 
ATOM     11  C   UNL     1     -27.801   9.967  15.263  1.00  0.00     0.014 C 
ENDBRANCH   1   9
TORSDOF 3
ENDMDL
MODEL 3
REMARK VINA RESULT:    -3.755     13.293     14.082
REMARK INTER + INTRA:          -4.372
REMARK INTER:                  -4.313
REMARK INTRA:                  -0.059
REMARK UNBOUND:                -0.067
REMARK SMILES CC(C)[C@H]([NH3+])C(=O)[O-]
REMARK SMILES IDX 4 1 5 2 6 6 7 7 8 8 2 9 1 10 3 11
REMARK H PARENT 5 3 5 4 5 5
REMARK Flexibility Score: inf
ROOT
ATOM      1  C   UNL     1     -21.775  10.016  18.990  1.00  0.00     0.230 C 
ENDROOT
BRANCH   1   2
ATOM      2  N   UNL     1     -22.998   9.214  18.830  1.00  0.00    -0.350 N 
ATOM      3  H   UNL     1     -23.787   9.838  18.543  1.00  0.00     0.345 HD
ATOM      4  H   UNL     1     -22.879   8.476  18.100  1.00  0.00     0.345 HD
ATOM      5  H   UNL     1     -23.262   8.767  19.736  1.00  0.00     0.345 HD
ENDBRANCH   1   2
BRANCH   1   6
ATOM      6  C   UNL     1     -20.700   9.545  18.041  1.00  0.00     0.099 C 
ATOM      7  O   UNL     1     -20.791   9.802  16.812  1.00  0.00    -0.544 OA
ATOM      8  O   UNL     1     -19.579   8.873  18.516  1.00  0.00    -0.544 OA
ENDBRANCH   1   6
BRANCH   1   9
ATOM      9  C   UNL     1     -21.250  10.041  20.458  1.00  0.00     0.047 C 
ATOM     10  C   UNL     1     -20.701  11.423  20.845  1.00  0.00     0.014 C 
ATOM     11  C   UNL     1     -22.287   9.573  21.490  1.00  0.00     0.014 C 
ENDBRANCH   1   9
TORSDOF 3
ENDMDL
MODEL 4
REMARK VINA RESULT:    -3.719     15.093     15.663
REMARK INTER + INTRA:          -4.330
REMARK INTER:                  -4.344
REMARK INTRA:                   0.013
REMARK UNBOUND:                -0.067
REMARK SMILES CC(C)[C@H]([NH3+])C(=O)[O-]
REMARK SMILES IDX 4 1 5 2 6 6 7 7 8 8 2 9 1 10 3 11
REMARK H PARENT 5 3 5 4 5 5
REMARK Flexibility Score: inf
ROOT
ATOM      1  C   UNL     1     -20.106  13.322  20.125  1.00  0.00     0.230 C 
ENDROOT
BRANCH   1   2
ATOM      2  N   UNL     1     -19.180  14.382  19.699  1.00  0.00    -0.350 N 
ATOM      3  H   UNL     1     -19.644  14.980  18.977  1.00  0.00     0.345 HD
ATOM      4  H   UNL     1     -18.900  14.991  20.501  1.00  0.00     0.345 HD
ATOM      5  H   UNL     1     -18.325  13.967  19.264  1.00  0.00     0.345 HD
ENDBRANCH   1   2
BRANCH   1   6
ATOM      6  C   UNL     1     -20.355  12.347  19.001  1.00  0.00     0.099 C 
ATOM      7  O   UNL     1     -19.526  12.251  18.058  1.00  0.00    -0.544 OA
ATOM      8  O   UNL     1     -21.467  11.513  19.017  1.00  0.00    -0.544 OA
ENDBRANCH   1   6
BRANCH   1   9
ATOM      9  C   UNL     1     -21.451  13.876  20.688  1.00  0.00     0.047 C 
ATOM     10  C   UNL     1     -21.909  13.106  21.935  1.00  0.00     0.014 C 
ATOM     11  C   UNL     1     -21.421  15.385  20.977  1.00  0.00     0.014 C 
ENDBRANCH   1   9
TORSDOF 3
ENDMDL
MODEL 5
REMARK VINA RESULT:    -3.715     14.294     14.749
REMARK INTER + INTRA:          -4.326
REMARK INTER:                  -4.267
REMARK INTRA:                  -0.059
REMARK UNBOUND:                -0.067
REMARK SMILES CC(C)[C@H]([NH3+])C(=O)[O-]
REMARK SMILES IDX 4 1 5 2 6 6 7 7 8 8 2 9 1 10 3 11
REMARK H PARENT 5 3 5 4 5 5
REMARK Flexibility Score: inf
ROOT
ATOM      1  C   UNL     1     -20.408  11.127  17.165  1.00  0.00     0.230 C 
ENDROOT
BRANCH   1   2
ATOM      2  N   UNL     1     -20.465   9.963  16.269  1.00  0.00    -0.350 N 
ATOM      3  H   UNL     1     -19.648   9.987  15.616  1.00  0.00     0.345 HD
ATOM      4  H   UNL     1     -20.432   9.065  16.804  1.00  0.00     0.345 HD
ATOM      5  H   UNL     1     -21.333   9.990  15.689  1.00  0.00     0.345 HD
ENDBRANCH   1   2
BRANCH   1   6
ATOM      6  C   UNL     1     -19.362  12.110  16.699  1.00  0.00     0.099 C 
ATOM      7  O   UNL     1     -18.876  12.941  17.510  1.00  0.00    -0.544 OA
ATOM      8  O   UNL     1     -18.889  12.077  15.392  1.00  0.00    -0.544 OA
ENDBRANCH   1   6
BRANCH   1   9
ATOM      9  C   UNL     1     -20.179  10.738  18.658  1.00  0.00     0.047 C 
ATOM     10  C   UNL     1     -21.433  10.980  19.511  1.00  0.00     0.014 C 
ATOM     11  C   UNL     1     -19.677   9.299  18.848  1.00  0.00     0.014 C 
ENDBRANCH   1   9
TORSDOF 3
ENDMDL
MODEL 6
REMARK VINA RESULT:    -3.679      5.426      6.239
REMARK INTER + INTRA:          -4.284
REMARK INTER:                  -4.299
REMARK INTRA:                   0.015
REMARK UNBOUND:                -0.067
REMARK SMILES CC(C)[C@H]([NH3+])C(=O)[O-]
REMARK SMILES IDX 4 1 5 2 6 6 7 7 8 8 2 9 1 10 3 11
REMARK H PARENT 5 3 5 4 5 5
REMARK Flexibility Score: inf
ROOT
ATOM      1  C   UNL     1     -28.481  11.614  14.902  1.00  0.00     0.230 C 
ENDROOT
BRANCH   1   2
ATOM      2  N   UNL     1     -28.476  10.167  15.164  1.00  0.00    -0.350 N 
ATOM      3  H   UNL     1     -27.675   9.931  15.795  1.00  0.00     0.345 HD
ATOM      4  H   UNL     1     -29.361   9.858  15.625  1.00  0.00     0.345 HD
ATOM      5  H   UNL     1     -28.343   9.635  14.275  1.00  0.00     0.345 HD
ENDBRANCH   1   2
BRANCH   1   6
ATOM      6  C   UNL     1     -29.659  11.996  14.039  1.00  0.00     0.099 C 
ATOM      7  O   UNL     1     -30.059  13.189  14.015  1.00  0.00    -0.544 OA
ATOM      8  O   UNL     1     -30.280  11.053  13.227  1.00  0.00    -0.544 OA
ENDBRANCH   1   6
BRANCH   1   9
ATOM      9  C   UNL     1     -27.146  12.126  14.279  1.00  0.00     0.047 C 
ATOM     10  C   UNL     1     -26.807  13.550  14.745  1.00  0.00     0.014 C 
ATOM     11  C   UNL     1     -25.954  11.189  14.523  1.00  0.00     0.014 C 
ENDBRANCH   1   9
TORSDOF 3
ENDMDL
MODEL 7
REMARK VINA RESULT:    -3.650      7.703      8.202
REMARK INTER + INTRA:          -4.251
REMARK INTER:                  -4.175
REMARK INTRA:                  -0.075
REMARK UNBOUND:                -0.067
REMARK SMILES CC(C)[C@H]([NH3+])C(=O)[O-]
REMARK SMILES IDX 4 1 5 2 6 6 7 7 8 8 2 9 1 10 3 11
REMARK H PARENT 5 3 5 4 5 5
REMARK Flexibility Score: inf
ROOT
ATOM      1  C   UNL     1     -36.227   2.451  14.066  1.00  0.00     0.230 C 
ENDROOT
BRANCH   1   2
ATOM      2  N   UNL     1     -34.978   2.475  14.842  1.00  0.00    -0.350 N 
ATOM      3  H   UNL     1     -35.049   1.798  15.637  1.00  0.00     0.345 HD
ATOM      4  H   UNL     1     -34.156   2.208  14.254  1.00  0.00     0.345 HD
ATOM      5  H   UNL     1     -34.820   3.424  15.250  1.00  0.00     0.345 HD
ENDBRANCH   1   2
BRANCH   1   6
ATOM      6  C   UNL     1     -37.325   3.181  14.799  1.00  0.00     0.099 C 
ATOM      7  O   UNL     1     -37.130   3.594  15.972  1.00  0.00    -0.544 OA
ATOM      8  O   UNL     1     -38.538   3.451  14.175  1.00  0.00    -0.544 OA
ENDBRANCH   1   6
BRANCH   1   9
ATOM      9  C   UNL     1     -36.679   1.008  13.682  1.00  0.00     0.047 C 
ATOM     10  C   UNL     1     -35.558   0.225  12.983  1.00  0.00     0.014 C 
ATOM     11  C   UNL     1     -37.232   0.201  14.867  1.00  0.00     0.014 C 
ENDBRANCH   1   9
TORSDOF 3
ENDMDL
MODEL 8
REMARK VINA RESULT:    -3.640      2.386      3.127
REMARK INTER + INTRA:          -4.240
REMARK INTER:                  -4.213
REMARK INTRA:                  -0.027
REMARK UNBOUND:                -0.067
REMARK SMILES CC(C)[C@H]([NH3+])C(=O)[O-]
REMARK SMILES IDX 4 1 5 2 6 6 7 7 8 8 2 9 1 10 3 11
REMARK H PARENT 5 3 5 4 5 5
REMARK Flexibility Score: inf
ROOT
ATOM      1  C   UNL     1     -31.950   8.809  12.626  1.00  0.00     0.230 C 
ENDROOT
BRANCH   1   2
ATOM      2  N   UNL     1     -31.348   8.145  13.792  1.00  0.00    -0.350 N 
ATOM      3  H   UNL     1     -30.790   8.841  14.338  1.00  0.00     0.345 HD
ATOM      4  H   UNL     1     -32.077   7.740  14.421  1.00  0.00     0.345 HD
ATOM      5  H   UNL     1     -30.695   7.389  13.484  1.00  0.00     0.345 HD
ENDBRANCH   1   2
BRANCH   1   6
ATOM      6  C   UNL     1     -31.249  10.113  12.333  1.00  0.00     0.099 C 
ATOM      7  O   UNL     1     -30.556  10.667  13.225  1.00  0.00    -0.544 OA
ATOM      8  O   UNL     1     -31.319  10.688  11.069  1.00  0.00    -0.544 OA
ENDBRANCH   1   6
BRANCH   1   9
ATOM      9  C   UNL     1     -33.487   9.025  12.774  1.00  0.00     0.047 C 
ATOM     10  C   UNL     1     -34.222   8.840  11.437  1.00  0.00     0.014 C 
ATOM     11  C   UNL     1     -34.131   8.148  13.859  1.00  0.00     0.014 C 
ENDBRANCH   1   9
TORSDOF 3
ENDMDL
MODEL 9
REMARK VINA RESULT:    -3.638     15.004     15.639
REMARK INTER + INTRA:          -4.237
REMARK INTER:                  -4.191
REMARK INTRA:                  -0.046
REMARK UNBOUND:                -0.067
REMARK SMILES CC(C)[C@H]([NH3+])C(=O)[O-]
REMARK SMILES IDX 4 1 5 2 6 6 7 7 8 8 2 9 1 10 3 11
REMARK H PARENT 5 3 5 4 5 5
REMARK Flexibility Score: inf
ROOT
ATOM      1  C   UNL     1     -21.476  11.137  20.950  1.00  0.00     0.230 C 
ENDROOT
BRANCH   1   2
ATOM      2  N   UNL     1     -22.649  10.291  21.216  1.00  0.00    -0.350 N 
ATOM      3  H   UNL     1     -23.290  10.315  20.389  1.00  0.00     0.345 HD
ATOM      4  H   UNL     1     -22.374   9.299  21.392  1.00  0.00     0.345 HD
ATOM      5  H   UNL     1     -23.182  10.655  22.038  1.00  0.00     0.345 HD
ENDBRANCH   1   2
BRANCH   1   6
ATOM      6  C   UNL     1     -20.204  10.331  21.047  1.00  0.00     0.099 C 
ATOM      7  O   UNL     1     -19.821   9.642  20.066  1.00  0.00    -0.544 OA
ATOM      8  O   UNL     1     -19.419  10.379  22.194  1.00  0.00    -0.544 OA
ENDBRANCH   1   6
BRANCH   1   9
ATOM      9  C   UNL     1     -21.409  12.395  21.869  1.00  0.00     0.047 C 
ATOM     10  C   UNL     1     -21.790  13.676  21.113  1.00  0.00     0.014 C 
ATOM     11  C   UNL     1     -22.246  12.266  23.151  1.00  0.00     0.014 C 
ENDBRANCH   1   9
TORSDOF 3
ENDMDL
