MODEL 1
REMARK VINA RESULT:    -2.765      0.000      0.000
REMARK INTER + INTRA:          -4.294
REMARK INTER:                  -4.059
REMARK INTRA:                  -0.235
REMARK UNBOUND:                -0.235
REMARK SMILES O=C([O-])CCCCCCCC(=O)[O-]
REMARK SMILES IDX 7 1 6 2 5 3 4 4 2 5 1 6 3 7 8 8 9 9 10 10 11 11 12 12 13 13
REMARK H PARENT
REMARK Flexibility Score: inf
ROOT
ATOM      1  C   UNL     1      74.906  91.766  79.114  1.00  0.00     0.000 C 
ENDROOT
BRANCH   1   2
ATOM      2  C   UNL     1      75.607  91.116  77.907  1.00  0.00     0.000 C 
BRANCH   2   3
ATOM      3  C   UNL     1      75.547  91.996  76.647  1.00  0.00     0.006 C 
BRANCH   3   4
ATOM      4  C   UNL     1      76.324  91.397  75.468  1.00  0.00     0.053 C 
BRANCH   4   5
ATOM      5  C   UNL     1      75.436  91.260  74.272  1.00  0.00     0.041 C 
ATOM      6  O   UNL     1      75.468  92.125  73.357  1.00  0.00    -0.550 OA
ATOM      7  O   UNL     1      74.535  90.206  74.190  1.00  0.00    -0.550 OA
ENDBRANCH   4   5
ENDBRANCH   3   4
ENDBRANCH   2   3
ENDBRANCH   1   2
BRANCH   1   8
ATOM      8  C   UNL     1      74.236  90.732  80.034  1.00  0.00     0.000 C 
BRANCH   8   9
ATOM      9  C   UNL     1      72.947  91.265  80.683  1.00  0.00     0.006 C 
BRANCH   9  10
ATOM     10  C   UNL     1      71.875  90.174  80.820  1.00  0.00     0.053 C 
BRANCH  10  11
ATOM     11  C   UNL     1      72.206  89.199  81.908  1.00  0.00     0.041 C 
ATOM     12  O   UNL     1      72.110  87.962  81.699  1.00  0.00    -0.550 OA
ATOM     13  O   UNL     1      72.590  89.658  83.161  1.00  0.00    -0.550 OA
ENDBRANCH  10  11
ENDBRANCH   9  10
ENDBRANCH   8   9
ENDBRANCH   1   8
TORSDOF 8
ENDMDL
MODEL 2
REMARK VINA RESULT:    -2.758      1.372      6.662
REMARK INTER + INTRA:          -4.283
REMARK INTER:                  -3.912
REMARK INTRA:                  -0.371
REMARK UNBOUND:                -0.235
REMARK SMILES O=C([O-])CCCCCCCC(=O)[O-]
REMARK SMILES IDX 7 1 6 2 5 3 4 4 2 5 1 6 3 7 8 8 9 9 10 10 11 11 12 12 13 13
REMARK H PARENT
REMARK Flexibility Score: inf
ROOT
ATOM      1  C   UNL     1      75.684  90.723  77.952  1.00  0.00     0.000 C 
ENDROOT
BRANCH   1   2
ATOM      2  C   UNL     1      75.502  91.957  78.854  1.00  0.00     0.000 C 
BRANCH   2   3
ATOM      3  C   UNL     1      74.344  91.792  79.851  1.00  0.00     0.006 C 
BRANCH   3   4
ATOM      4  C   UNL     1      74.108  90.330  80.250  1.00  0.00     0.053 C 
BRANCH   4   5
ATOM      5  C   UNL     1      72.686  90.125  80.664  1.00  0.00     0.041 C 
ATOM      6  O   UNL     1      72.169  88.977  80.609  1.00  0.00    -0.550 OA
ATOM      7  O   UNL     1      71.913  91.207  81.064  1.00  0.00    -0.550 OA
ENDBRANCH   4   5
ENDBRANCH   3   4
ENDBRANCH   2   3
ENDBRANCH   1   2
BRANCH   1   8
ATOM      8  C   UNL     1      76.135  91.094  76.529  1.00  0.00     0.000 C 
BRANCH   8   9
ATOM      9  C   UNL     1      75.151  92.044  75.824  1.00  0.00     0.006 C 
BRANCH   9  10
ATOM     10  C   UNL     1      75.222  91.919  74.296  1.00  0.00     0.053 C 
BRANCH  10  11
ATOM     11  C   UNL     1      74.058  91.156  73.742  1.00  0.00     0.041 C 
ATOM     12  O   UNL     1      72.992  91.756  73.447  1.00  0.00    -0.550 OA
ATOM     13  O   UNL     1      74.142  89.779  73.579  1.00  0.00    -0.550 OA
ENDBRANCH  10  11
ENDBRANCH   9  10
ENDBRANCH   8   9
ENDBRANCH   1   8
TORSDOF 8
ENDMDL
MODEL 3
REMARK VINA RESULT:    -2.702      1.240      2.006
REMARK INTER + INTRA:          -4.202
REMARK INTER:                  -3.730
REMARK INTRA:                  -0.471
REMARK UNBOUND:                -0.235
REMARK SMILES O=C([O-])CCCCCCCC(=O)[O-]
REMARK SMILES IDX 7 1 6 2 5 3 4 4 2 5 1 6 3 7 8 8 9 9 10 10 11 11 12 12 13 13
REMARK H PARENT
REMARK Flexibility Score: inf
ROOT
ATOM      1  C   UNL     1      75.936  90.261  77.945  1.00  0.00     0.000 C 
ENDROOT
BRANCH   1   2
ATOM      2  C   UNL     1      76.352  90.391  76.469  1.00  0.00     0.000 C 
BRANCH   2   3
ATOM      3  C   UNL     1      76.083  91.795  75.902  1.00  0.00     0.006 C 
BRANCH   3   4
ATOM      4  C   UNL     1      74.792  91.864  75.078  1.00  0.00     0.053 C 
BRANCH   4   5
ATOM      5  C   UNL     1      74.928  91.060  73.825  1.00  0.00     0.041 C 
ATOM      6  O   UNL     1      74.123  90.121  73.583  1.00  0.00    -0.550 OA
ATOM      7  O   UNL     1      75.974  91.311  72.946  1.00  0.00    -0.550 OA
ENDBRANCH   4   5
ENDBRANCH   3   4
ENDBRANCH   2   3
ENDBRANCH   1   2
BRANCH   1   8
ATOM      8  C   UNL     1      75.835  91.622  78.652  1.00  0.00     0.000 C 
BRANCH   8   9
ATOM      9  C   UNL     1      74.669  91.684  79.654  1.00  0.00     0.006 C 
BRANCH   9  10
ATOM     10  C   UNL     1      74.305  90.298  80.204  1.00  0.00     0.053 C 
BRANCH  10  11
ATOM     11  C   UNL     1      72.857  90.209  80.580  1.00  0.00     0.041 C 
ATOM     12  O   UNL     1      72.267  89.097  80.562  1.00  0.00    -0.550 OA
ATOM     13  O   UNL     1      72.154  91.357  80.921  1.00  0.00    -0.550 OA
ENDBRANCH  10  11
ENDBRANCH   9  10
ENDBRANCH   8   9
ENDBRANCH   1   8
TORSDOF 8
ENDMDL
MODEL 4
REMARK VINA RESULT:    -2.669     10.688     13.857
REMARK INTER + INTRA:          -4.152
REMARK INTER:                  -3.481
REMARK INTRA:                  -0.672
REMARK UNBOUND:                -0.235
REMARK SMILES O=C([O-])CCCCCCCC(=O)[O-]
REMARK SMILES IDX 7 1 6 2 5 3 4 4 2 5 1 6 3 7 8 8 9 9 10 10 11 11 12 12 13 13
REMARK H PARENT
REMARK Flexibility Score: inf
ROOT
ATOM      1  C   UNL     1      73.872  88.588  92.720  1.00  0.00     0.000 C 
ENDROOT
BRANCH   1   2
ATOM      2  C   UNL     1      74.122  90.106  92.671  1.00  0.00     0.000 C 
BRANCH   2   3
ATOM      3  C   UNL     1      75.542  90.485  93.125  1.00  0.00     0.006 C 
BRANCH   3   4
ATOM      4  C   UNL     1      76.569  90.405  91.989  1.00  0.00     0.053 C 
BRANCH   4   5
ATOM      5  C   UNL     1      77.617  89.385  92.304  1.00  0.00     0.041 C 
ATOM      6  O   UNL     1      77.291  88.188  92.519  1.00  0.00    -0.550 OA
ATOM      7  O   UNL     1      78.949  89.764  92.410  1.00  0.00    -0.550 OA
ENDBRANCH   4   5
ENDBRANCH   3   4
ENDBRANCH   2   3
ENDBRANCH   1   2
BRANCH   1   8
ATOM      8  C   UNL     1      73.420  88.020  91.365  1.00  0.00     0.000 C 
BRANCH   8   9
ATOM      9  C   UNL     1      74.553  87.289  90.622  1.00  0.00     0.006 C 
BRANCH   9  10
ATOM     10  C   UNL     1      74.921  87.984  89.304  1.00  0.00     0.053 C 
BRANCH  10  11
ATOM     11  C   UNL     1      74.290  87.312  88.123  1.00  0.00     0.041 C 
ATOM     12  O   UNL     1      73.490  87.947  87.387  1.00  0.00    -0.550 OA
ATOM     13  O   UNL     1      74.564  85.977  87.852  1.00  0.00    -0.550 OA
ENDBRANCH  10  11
ENDBRANCH   9  10
ENDBRANCH   8   9
ENDBRANCH   1   8
TORSDOF 8
ENDMDL
MODEL 5
REMARK VINA RESULT:    -2.658     11.982     14.146
REMARK INTER + INTRA:          -4.136
REMARK INTER:                  -3.724
REMARK INTRA:                  -0.412
REMARK UNBOUND:                -0.235
REMARK SMILES O=C([O-])CCCCCCCC(=O)[O-]
REMARK SMILES IDX 7 1 6 2 5 3 4 4 2 5 1 6 3 7 8 8 9 9 10 10 11 11 12 12 13 13
REMARK H PARENT
REMARK Flexibility Score: inf
ROOT
ATOM      1  C   UNL     1      74.244  89.112  92.162  1.00  0.00     0.000 C 
ENDROOT
BRANCH   1   2
ATOM      2  C   UNL     1      73.365  88.001  92.763  1.00  0.00     0.000 C 
BRANCH   2   3
ATOM      3  C   UNL     1      73.000  86.917  91.736  1.00  0.00     0.006 C 
BRANCH   3   4
ATOM      4  C   UNL     1      72.622  87.500  90.368  1.00  0.00     0.053 C 
BRANCH   4   5
ATOM      5  C   UNL     1      73.502  86.935  89.299  1.00  0.00     0.041 C 
ATOM      6  O   UNL     1      73.194  85.855  88.729  1.00  0.00    -0.550 OA
ATOM      7  O   UNL     1      74.690  87.573  88.965  1.00  0.00    -0.550 OA
ENDBRANCH   4   5
ENDBRANCH   3   4
ENDBRANCH   2   3
ENDBRANCH   1   2
BRANCH   1   8
ATOM      8  C   UNL     1      74.331  90.351  93.068  1.00  0.00     0.000 C 
BRANCH   8   9
ATOM      9  C   UNL     1      75.694  91.059  92.975  1.00  0.00     0.006 C 
BRANCH   9  10
ATOM     10  C   UNL     1      76.628  90.386  91.960  1.00  0.00     0.053 C 
BRANCH  10  11
ATOM     11  C   UNL     1      77.838  89.797  92.617  1.00  0.00     0.041 C 
ATOM     12  O   UNL     1      78.905  90.461  92.688  1.00  0.00    -0.550 OA
ATOM     13  O   UNL     1      77.796  88.505  93.125  1.00  0.00    -0.550 OA
ENDBRANCH  10  11
ENDBRANCH   9  10
ENDBRANCH   8   9
ENDBRANCH   1   8
TORSDOF 8
ENDMDL
MODEL 6
REMARK VINA RESULT:    -2.622      4.340      6.250
REMARK INTER + INTRA:          -4.084
REMARK INTER:                  -3.611
REMARK INTRA:                  -0.473
REMARK UNBOUND:                -0.235
REMARK SMILES O=C([O-])CCCCCCCC(=O)[O-]
REMARK SMILES IDX 7 1 6 2 5 3 4 4 2 5 1 6 3 7 8 8 9 9 10 10 11 11 12 12 13 13
REMARK H PARENT
REMARK Flexibility Score: inf
ROOT
ATOM      1  C   UNL     1      74.315  89.860  73.088  1.00  0.00     0.000 C 
ENDROOT
BRANCH   1   2
ATOM      2  C   UNL     1      75.579  90.713  72.875  1.00  0.00     0.000 C 
BRANCH   2   3
ATOM      3  C   UNL     1      75.657  91.903  73.846  1.00  0.00     0.006 C 
BRANCH   3   4
ATOM      4  C   UNL     1      74.842  91.679  75.125  1.00  0.00     0.053 C 
BRANCH   4   5
ATOM      5  C   UNL     1      75.750  91.551  76.307  1.00  0.00     0.041 C 
ATOM      6  O   UNL     1      76.956  91.904  76.220  1.00  0.00    -0.550 OA
ATOM      7  O   UNL     1      75.280  90.995  77.490  1.00  0.00    -0.550 OA
ENDBRANCH   4   5
ENDBRANCH   3   4
ENDBRANCH   2   3
ENDBRANCH   1   2
BRANCH   1   8
ATOM      8  C   UNL     1      74.620  88.354  73.129  1.00  0.00     0.000 C 
BRANCH   8   9
ATOM      9  C   UNL     1      74.928  87.849  74.549  1.00  0.00     0.006 C 
BRANCH   9  10
ATOM     10  C   UNL     1      75.577  86.458  74.541  1.00  0.00     0.053 C 
BRANCH  10  11
ATOM     11  C   UNL     1      74.581  85.375  74.820  1.00  0.00     0.041 C 
ATOM     12  O   UNL     1      73.864  85.426  75.853  1.00  0.00    -0.550 OA
ATOM     13  O   UNL     1      74.466  84.294  73.955  1.00  0.00    -0.550 OA
ENDBRANCH  10  11
ENDBRANCH   9  10
ENDBRANCH   8   9
ENDBRANCH   1   8
TORSDOF 8
ENDMDL
MODEL 7
REMARK VINA RESULT:    -2.605     13.166     14.451
REMARK INTER + INTRA:          -4.058
REMARK INTER:                  -3.669
REMARK INTRA:                  -0.390
REMARK UNBOUND:                -0.235
REMARK SMILES O=C([O-])CCCCCCCC(=O)[O-]
REMARK SMILES IDX 7 1 6 2 5 3 4 4 2 5 1 6 3 7 8 8 9 9 10 10 11 11 12 12 13 13
REMARK H PARENT
REMARK Flexibility Score: inf
ROOT
ATOM      1  C   UNL     1      74.202  89.225  92.173  1.00  0.00     0.000 C 
ENDROOT
BRANCH   1   2
ATOM      2  C   UNL     1      74.588  90.530  92.894  1.00  0.00     0.000 C 
BRANCH   2   3
ATOM      3  C   UNL     1      76.007  91.002  92.539  1.00  0.00     0.006 C 
BRANCH   3   4
ATOM      4  C   UNL     1      76.828  89.924  91.819  1.00  0.00     0.053 C 
BRANCH   4   5
ATOM      5  C   UNL     1      78.104  89.662  92.555  1.00  0.00     0.041 C 
ATOM      6  O   UNL     1      78.836  90.621  92.915  1.00  0.00    -0.550 OA
ATOM      7  O   UNL     1      78.511  88.357  92.799  1.00  0.00    -0.550 OA
ENDBRANCH   4   5
ENDBRANCH   3   4
ENDBRANCH   2   3
ENDBRANCH   1   2
BRANCH   1   8
ATOM      8  C   UNL     1      73.595  88.182  93.125  1.00  0.00     0.000 C 
BRANCH   8   9
ATOM      9  C   UNL     1      72.631  87.218  92.411  1.00  0.00     0.006 C 
BRANCH   9  10
ATOM     10  C   UNL     1      72.871  87.178  90.895  1.00  0.00     0.053 C 
BRANCH  10  11
ATOM     11  C   UNL     1      73.129  85.786  90.406  1.00  0.00     0.041 C 
ATOM     12  O   UNL     1      72.965  84.805  91.177  1.00  0.00    -0.550 OA
ATOM     13  O   UNL     1      73.578  85.575  89.109  1.00  0.00    -0.550 OA
ENDBRANCH  10  11
ENDBRANCH   9  10
ENDBRANCH   8   9
ENDBRANCH   1   8
TORSDOF 8
ENDMDL
MODEL 8
REMARK VINA RESULT:    -2.567      9.534     13.496
REMARK INTER + INTRA:          -4.003
REMARK INTER:                  -3.328
REMARK INTRA:                  -0.675
REMARK UNBOUND:                -0.235
REMARK SMILES O=C([O-])CCCCCCCC(=O)[O-]
REMARK SMILES IDX 7 1 6 2 5 3 4 4 2 5 1 6 3 7 8 8 9 9 10 10 11 11 12 12 13 13
REMARK H PARENT
REMARK Flexibility Score: inf
ROOT
ATOM      1  C   UNL     1      72.492  86.772  91.572  1.00  0.00     0.000 C 
ENDROOT
BRANCH   1   2
ATOM      2  C   UNL     1      73.016  87.660  92.715  1.00  0.00     0.000 C 
BRANCH   2   3
ATOM      3  C   UNL     1      73.822  88.865  92.202  1.00  0.00     0.006 C 
BRANCH   3   4
ATOM      4  C   UNL     1      75.231  88.935  92.803  1.00  0.00     0.053 C 
BRANCH   4   5
ATOM      5  C   UNL     1      76.085  87.834  92.259  1.00  0.00     0.041 C 
ATOM      6  O   UNL     1      76.273  87.731  91.018  1.00  0.00    -0.550 OA
ATOM      7  O   UNL     1      76.633  86.889  93.117  1.00  0.00    -0.550 OA
ENDBRANCH   4   5
ENDBRANCH   3   4
ENDBRANCH   2   3
ENDBRANCH   1   2
BRANCH   1   8
ATOM      8  C   UNL     1      72.566  87.467  90.203  1.00  0.00     0.000 C 
BRANCH   8   9
ATOM      9  C   UNL     1      73.407  86.680  89.183  1.00  0.00     0.006 C 
BRANCH   9  10
ATOM     10  C   UNL     1      74.094  87.602  88.165  1.00  0.00     0.053 C 
BRANCH  10  11
ATOM     11  C   UNL     1      73.404  87.580  86.836  1.00  0.00     0.041 C 
ATOM     12  O   UNL     1      73.945  87.010  85.853  1.00  0.00    -0.550 OA
ATOM     13  O   UNL     1      72.179  88.213  86.676  1.00  0.00    -0.550 OA
ENDBRANCH  10  11
ENDBRANCH   9  10
ENDBRANCH   8   9
ENDBRANCH   1   8
TORSDOF 8
ENDMDL
MODEL 9
REMARK VINA RESULT:    -2.566      2.876      4.548
REMARK INTER + INTRA:          -4.002
REMARK INTER:                  -3.534
REMARK INTRA:                  -0.468
REMARK UNBOUND:                -0.235
REMARK SMILES O=C([O-])CCCCCCCC(=O)[O-]
REMARK SMILES IDX 7 1 6 2 5 3 4 4 2 5 1 6 3 7 8 8 9 9 10 10 11 11 12 12 13 13
REMARK H PARENT
REMARK Flexibility Score: inf
ROOT
ATOM      1  C   UNL     1      75.231  87.840  75.122  1.00  0.00     0.000 C 
ENDROOT
BRANCH   1   2
ATOM      2  C   UNL     1      74.856  87.772  73.631  1.00  0.00     0.000 C 
BRANCH   2   3
ATOM      3  C   UNL     1      75.077  89.110  72.906  1.00  0.00     0.006 C 
BRANCH   3   4
ATOM      4  C   UNL     1      73.817  89.983  72.875  1.00  0.00     0.053 C 
BRANCH   4   5
ATOM      5  C   UNL     1      74.130  91.370  73.341  1.00  0.00     0.041 C 
ATOM      6  O   UNL     1      75.289  91.841  73.193  1.00  0.00    -0.550 OA
ATOM      7  O   UNL     1      73.159  92.125  73.984  1.00  0.00    -0.550 OA
ENDBRANCH   4   5
ENDBRANCH   3   4
ENDBRANCH   2   3
ENDBRANCH   1   2
BRANCH   1   8
ATOM      8  C   UNL     1      76.306  88.901  75.413  1.00  0.00     0.000 C 
BRANCH   8   9
ATOM      9  C   UNL     1      75.779  90.054  76.286  1.00  0.00     0.006 C 
BRANCH   9  10
ATOM     10  C   UNL     1      76.500  90.131  77.638  1.00  0.00     0.053 C 
BRANCH  10  11
ATOM     11  C   UNL     1      75.561  90.472  78.754  1.00  0.00     0.041 C 
ATOM     12  O   UNL     1      75.086  91.634  78.848  1.00  0.00    -0.550 OA
ATOM     13  O   UNL     1      75.233  89.514  79.706  1.00  0.00    -0.550 OA
ENDBRANCH  10  11
ENDBRANCH   9  10
ENDBRANCH   8   9
ENDBRANCH   1   8
TORSDOF 8
ENDMDL
