MODEL 1
REMARK VINA RESULT:    -3.121      0.000      0.000
REMARK INTER + INTRA:          -5.661
REMARK INTER:                  -4.764
REMARK INTRA:                  -0.897
REMARK UNBOUND:                -0.897
REMARK SMILES CCCCCCCCCCC(=O)[O-]
REMARK SMILES IDX 7 1 8 2 9 3 10 4 11 5 12 6 13 7 6 8 5 9 4 10 3 11 2 12 1 13
REMARK H PARENT
REMARK Flexibility Score: inf
ROOT
ATOM      1  C   UNL     1      -5.222  12.440  -4.547  1.00  0.00     0.000 C 
ENDROOT
BRANCH   1   2
ATOM      2  C   UNL     1      -3.810  12.271  -3.961  1.00  0.00     0.000 C 
BRANCH   2   3
ATOM      3  C   UNL     1      -3.468  10.803  -3.658  1.00  0.00     0.006 C 
BRANCH   3   4
ATOM      4  C   UNL     1      -4.242   9.820  -4.546  1.00  0.00     0.053 C 
BRANCH   4   5
ATOM      5  C   UNL     1      -3.295   8.979  -5.344  1.00  0.00     0.041 C 
ATOM      6  O   UNL     1      -2.194   9.455  -5.727  1.00  0.00    -0.550 OA
ATOM      7  O   UNL     1      -3.606   7.655  -5.622  1.00  0.00    -0.550 OA
ENDBRANCH   4   5
ENDBRANCH   3   4
ENDBRANCH   2   3
ENDBRANCH   1   2
BRANCH   1   8
ATOM      8  C   UNL     1      -6.120  13.334  -3.677  1.00  0.00     0.000 C 
BRANCH   8   9
ATOM      9  C   UNL     1      -5.377  13.923  -2.468  1.00  0.00    -0.000 C 
BRANCH   9  10
ATOM     10  C   UNL     1      -6.185  13.728  -1.179  1.00  0.00    -0.000 C 
BRANCH  10  11
ATOM     11  C   UNL     1      -5.262  13.458   0.016  1.00  0.00    -0.000 C 
BRANCH  11  12
ATOM     12  C   UNL     1      -4.115  12.520  -0.377  1.00  0.00    -0.003 C 
ATOM     13  C   UNL     1      -2.759  13.160  -0.093  1.00  0.00     0.004 C 
ENDBRANCH  11  12
ENDBRANCH  10  11
ENDBRANCH   9  10
ENDBRANCH   8   9
ENDBRANCH   1   8
TORSDOF 9
ENDMDL
MODEL 2
REMARK VINA RESULT:    -3.097      3.415      6.152
REMARK INTER + INTRA:          -5.624
REMARK INTER:                  -4.973
REMARK INTRA:                  -0.650
REMARK UNBOUND:                -0.897
REMARK SMILES CCCCCCCCCCC(=O)[O-]
REMARK SMILES IDX 7 1 8 2 9 3 10 4 11 5 12 6 13 7 6 8 5 9 4 10 3 11 2 12 1 13
REMARK H PARENT
REMARK Flexibility Score: inf
ROOT
ATOM      1  C   UNL     1      -4.804  11.742  -4.334  1.00  0.00     0.000 C 
ENDROOT
BRANCH   1   2
ATOM      2  C   UNL     1      -5.337  12.903  -3.477  1.00  0.00     0.000 C 
BRANCH   2   3
ATOM      3  C   UNL     1      -4.754  12.901  -2.055  1.00  0.00     0.006 C 
BRANCH   3   4
ATOM      4  C   UNL     1      -5.710  13.513  -1.022  1.00  0.00     0.053 C 
BRANCH   4   5
ATOM      5  C   UNL     1      -5.091  13.489   0.341  1.00  0.00     0.041 C 
ATOM      6  O   UNL     1      -5.810  13.309   1.359  1.00  0.00    -0.550 OA
ATOM      7  O   UNL     1      -3.715  13.617   0.482  1.00  0.00    -0.550 OA
ENDBRANCH   4   5
ENDBRANCH   3   4
ENDBRANCH   2   3
ENDBRANCH   1   2
BRANCH   1   8
ATOM      8  C   UNL     1      -3.708  10.935  -3.620  1.00  0.00     0.000 C 
BRANCH   8   9
ATOM      9  C   UNL     1      -2.462  10.723  -4.495  1.00  0.00    -0.000 C 
BRANCH   9  10
ATOM     10  C   UNL     1      -2.793   9.858  -5.718  1.00  0.00    -0.000 C 
BRANCH  10  11
ATOM     11  C   UNL     1      -3.421   8.525  -5.297  1.00  0.00    -0.000 C 
BRANCH  11  12
ATOM     12  C   UNL     1      -4.785   8.324  -5.967  1.00  0.00    -0.003 C 
ATOM     13  C   UNL     1      -5.896   8.196  -4.928  1.00  0.00     0.004 C 
ENDBRANCH  11  12
ENDBRANCH  10  11
ENDBRANCH   9  10
ENDBRANCH   8   9
ENDBRANCH   1   8
TORSDOF 9
ENDMDL
MODEL 3
REMARK VINA RESULT:    -3.036      3.484      5.244
REMARK INTER + INTRA:          -5.530
REMARK INTER:                  -4.230
REMARK INTRA:                  -1.300
REMARK UNBOUND:                -0.897
REMARK SMILES CCCCCCCCCCC(=O)[O-]
REMARK SMILES IDX 7 1 8 2 9 3 10 4 11 5 12 6 13 7 6 8 5 9 4 10 3 11 2 12 1 13
REMARK H PARENT
REMARK Flexibility Score: inf
ROOT
ATOM      1  C   UNL     1      -3.819   9.638  -4.314  1.00  0.00     0.000 C 
ENDROOT
BRANCH   1   2
ATOM      2  C   UNL     1      -2.997   9.125  -5.509  1.00  0.00     0.000 C 
BRANCH   2   3
ATOM      3  C   UNL     1      -3.360   7.683  -5.898  1.00  0.00     0.006 C 
BRANCH   3   4
ATOM      4  C   UNL     1      -3.470   7.489  -7.416  1.00  0.00     0.053 C 
BRANCH   4   5
ATOM      5  C   UNL     1      -2.256   6.793  -7.944  1.00  0.00     0.041 C 
ATOM      6  O   UNL     1      -1.252   7.460  -8.310  1.00  0.00    -0.550 OA
ATOM      7  O   UNL     1      -2.212   5.405  -7.985  1.00  0.00    -0.550 OA
ENDBRANCH   4   5
ENDBRANCH   3   4
ENDBRANCH   2   3
ENDBRANCH   1   2
BRANCH   1   8
ATOM      8  C   UNL     1      -4.636  10.895  -4.655  1.00  0.00     0.000 C 
BRANCH   8   9
ATOM      9  C   UNL     1      -5.429  10.749  -5.963  1.00  0.00    -0.000 C 
BRANCH   9  10
ATOM     10  C   UNL     1      -6.764  10.033  -5.718  1.00  0.00    -0.000 C 
BRANCH  10  11
ATOM     11  C   UNL     1      -6.987   8.917  -6.745  1.00  0.00    -0.000 C 
BRANCH  11  12
ATOM     12  C   UNL     1      -7.211   7.569  -6.052  1.00  0.00    -0.003 C 
ATOM     13  C   UNL     1      -6.869   7.649  -4.567  1.00  0.00     0.004 C 
ENDBRANCH  11  12
ENDBRANCH  10  11
ENDBRANCH   9  10
ENDBRANCH   8   9
ENDBRANCH   1   8
TORSDOF 9
ENDMDL
MODEL 4
REMARK VINA RESULT:    -3.015      3.270      6.195
REMARK INTER + INTRA:          -5.498
REMARK INTER:                  -4.954
REMARK INTRA:                  -0.545
REMARK UNBOUND:                -0.897
REMARK SMILES CCCCCCCCCCC(=O)[O-]
REMARK SMILES IDX 7 1 8 2 9 3 10 4 11 5 12 6 13 7 6 8 5 9 4 10 3 11 2 12 1 13
REMARK H PARENT
REMARK Flexibility Score: inf
ROOT
ATOM      1  C   UNL     1      -4.177  11.915  -2.825  1.00  0.00     0.000 C 
ENDROOT
BRANCH   1   2
ATOM      2  C   UNL     1      -5.070  13.163  -2.721  1.00  0.00     0.000 C 
BRANCH   2   3
ATOM      3  C   UNL     1      -5.476  13.479  -1.273  1.00  0.00     0.006 C 
BRANCH   3   4
ATOM      4  C   UNL     1      -4.532  12.848  -0.242  1.00  0.00     0.053 C 
BRANCH   4   5
ATOM      5  C   UNL     1      -3.497  13.837   0.195  1.00  0.00     0.041 C 
ATOM      6  O   UNL     1      -3.617  14.434   1.297  1.00  0.00    -0.550 OA
ATOM      7  O   UNL     1      -2.375  14.062  -0.592  1.00  0.00    -0.550 OA
ENDBRANCH   4   5
ENDBRANCH   3   4
ENDBRANCH   2   3
ENDBRANCH   1   2
BRANCH   1   8
ATOM      8  C   UNL     1      -2.881  12.179  -3.608  1.00  0.00     0.000 C 
BRANCH   8   9
ATOM      9  C   UNL     1      -2.493  11.008  -4.525  1.00  0.00    -0.000 C 
BRANCH   9  10
ATOM     10  C   UNL     1      -3.330   9.762  -4.207  1.00  0.00    -0.000 C 
BRANCH  10  11
ATOM     11  C   UNL     1      -3.939   9.167  -5.483  1.00  0.00    -0.000 C 
BRANCH  11  12
ATOM     12  C   UNL     1      -3.429   7.742  -5.722  1.00  0.00    -0.003 C 
ATOM     13  C   UNL     1      -2.738   7.623  -7.077  1.00  0.00     0.004 C 
ENDBRANCH  11  12
ENDBRANCH  10  11
ENDBRANCH   9  10
ENDBRANCH   8   9
ENDBRANCH   1   8
TORSDOF 9
ENDMDL
MODEL 5
REMARK VINA RESULT:    -2.973      1.702      2.824
REMARK INTER + INTRA:          -5.434
REMARK INTER:                  -4.935
REMARK INTRA:                  -0.499
REMARK UNBOUND:                -0.897
REMARK SMILES CCCCCCCCCCC(=O)[O-]
REMARK SMILES IDX 7 1 8 2 9 3 10 4 11 5 12 6 13 7 6 8 5 9 4 10 3 11 2 12 1 13
REMARK H PARENT
REMARK Flexibility Score: inf
ROOT
ATOM      1  C   UNL     1      -3.702  10.130  -3.849  1.00  0.00     0.000 C 
ENDROOT
BRANCH   1   2
ATOM      2  C   UNL     1      -4.784   9.848  -4.906  1.00  0.00     0.000 C 
BRANCH   2   3
ATOM      3  C   UNL     1      -4.787   8.383  -5.370  1.00  0.00     0.006 C 
BRANCH   3   4
ATOM      4  C   UNL     1      -3.378   7.847  -5.652  1.00  0.00     0.053 C 
BRANCH   4   5
ATOM      5  C   UNL     1      -3.204   7.574  -7.113  1.00  0.00     0.041 C 
ATOM      6  O   UNL     1      -2.526   6.585  -7.496  1.00  0.00    -0.550 OA
ATOM      7  O   UNL     1      -3.833   8.382  -8.051  1.00  0.00    -0.550 OA
ENDBRANCH   4   5
ENDBRANCH   3   4
ENDBRANCH   2   3
ENDBRANCH   1   2
BRANCH   1   8
ATOM      8  C   UNL     1      -2.809  11.323  -4.223  1.00  0.00     0.000 C 
BRANCH   8   9
ATOM      9  C   UNL     1      -2.818  12.428  -3.154  1.00  0.00    -0.000 C 
BRANCH   9  10
ATOM     10  C   UNL     1      -4.100  12.367  -2.314  1.00  0.00    -0.000 C 
BRANCH  10  11
ATOM     11  C   UNL     1      -3.778  12.407  -0.815  1.00  0.00    -0.000 C 
BRANCH  11  12
ATOM     12  C   UNL     1      -4.898  13.101  -0.031  1.00  0.00    -0.003 C 
ATOM     13  C   UNL     1      -5.955  13.674  -0.970  1.00  0.00     0.004 C 
ENDBRANCH  11  12
ENDBRANCH  10  11
ENDBRANCH   9  10
ENDBRANCH   8   9
ENDBRANCH   1   8
TORSDOF 9
ENDMDL
MODEL 6
REMARK VINA RESULT:    -2.953      1.844      2.338
REMARK INTER + INTRA:          -5.404
REMARK INTER:                  -4.644
REMARK INTRA:                  -0.760
REMARK UNBOUND:                -0.897
REMARK SMILES CCCCCCCCCCC(=O)[O-]
REMARK SMILES IDX 7 1 8 2 9 3 10 4 11 5 12 6 13 7 6 8 5 9 4 10 3 11 2 12 1 13
REMARK H PARENT
REMARK Flexibility Score: inf
ROOT
ATOM      1  C   UNL     1      -5.713  12.727  -3.997  1.00  0.00     0.000 C 
ENDROOT
BRANCH   1   2
ATOM      2  C   UNL     1      -4.919  11.654  -4.762  1.00  0.00     0.000 C 
BRANCH   2   3
ATOM      3  C   UNL     1      -3.848  10.980  -3.890  1.00  0.00     0.006 C 
BRANCH   3   4
ATOM      4  C   UNL     1      -2.585  10.613  -4.681  1.00  0.00     0.053 C 
BRANCH   4   5
ATOM      5  C   UNL     1      -1.512  11.631  -4.452  1.00  0.00     0.041 C 
ATOM      6  O   UNL     1      -1.763  12.683  -3.807  1.00  0.00    -0.550 OA
ATOM      7  O   UNL     1      -0.222  11.395  -4.909  1.00  0.00    -0.550 OA
ENDBRANCH   4   5
ENDBRANCH   3   4
ENDBRANCH   2   3
ENDBRANCH   1   2
BRANCH   1   8
ATOM      8  C   UNL     1      -4.922  13.318  -2.818  1.00  0.00     0.000 C 
BRANCH   8   9
ATOM      9  C   UNL     1      -5.824  13.716  -1.640  1.00  0.00    -0.000 C 
BRANCH   9  10
ATOM     10  C   UNL     1      -5.178  13.337  -0.301  1.00  0.00    -0.000 C 
BRANCH  10  11
ATOM     11  C   UNL     1      -3.919  12.489  -0.518  1.00  0.00    -0.000 C 
BRANCH  11  12
ATOM     12  C   UNL     1      -2.668  13.227  -0.027  1.00  0.00    -0.003 C 
ATOM     13  C   UNL     1      -3.038  14.520   0.694  1.00  0.00     0.004 C 
ENDBRANCH  11  12
ENDBRANCH  10  11
ENDBRANCH   9  10
ENDBRANCH   8   9
ENDBRANCH   1   8
TORSDOF 9
ENDMDL
MODEL 7
REMARK VINA RESULT:    -2.952     12.995     14.488
REMARK INTER + INTRA:          -5.402
REMARK INTER:                  -4.578
REMARK INTRA:                  -0.825
REMARK UNBOUND:                -0.897
REMARK SMILES CCCCCCCCCCC(=O)[O-]
REMARK SMILES IDX 7 1 8 2 9 3 10 4 11 5 12 6 13 7 6 8 5 9 4 10 3 11 2 12 1 13
REMARK H PARENT
REMARK Flexibility Score: inf
ROOT
ATOM      1  C   UNL     1       8.461   6.841   1.284  1.00  0.00     0.000 C 
ENDROOT
BRANCH   1   2
ATOM      2  C   UNL     1       9.319   6.729   0.011  1.00  0.00     0.000 C 
BRANCH   2   3
ATOM      3  C   UNL     1      10.431   5.676   0.141  1.00  0.00     0.006 C 
BRANCH   3   4
ATOM      4  C   UNL     1      10.120   4.613   1.203  1.00  0.00     0.053 C 
BRANCH   4   5
ATOM      5  C   UNL     1       9.603   3.366   0.558  1.00  0.00     0.041 C 
ATOM      6  O   UNL     1       8.964   2.520   1.238  1.00  0.00    -0.550 OA
ATOM      7  O   UNL     1       9.783   3.160  -0.803  1.00  0.00    -0.550 OA
ENDBRANCH   4   5
ENDBRANCH   3   4
ENDBRANCH   2   3
ENDBRANCH   1   2
BRANCH   1   8
ATOM      8  C   UNL     1       8.861   8.037   2.162  1.00  0.00     0.000 C 
BRANCH   8   9
ATOM      9  C   UNL     1       7.650   8.734   2.802  1.00  0.00    -0.000 C 
BRANCH   9  10
ATOM     10  C   UNL     1       6.511   8.895   1.787  1.00  0.00    -0.000 C 
BRANCH  10  11
ATOM     11  C   UNL     1       6.725  10.134   0.909  1.00  0.00    -0.000 C 
BRANCH  11  12
ATOM     12  C   UNL     1       6.037   9.971  -0.450  1.00  0.00    -0.003 C 
ATOM     13  C   UNL     1       6.935   9.230  -1.437  1.00  0.00     0.004 C 
ENDBRANCH  11  12
ENDBRANCH  10  11
ENDBRANCH   9  10
ENDBRANCH   8   9
ENDBRANCH   1   8
TORSDOF 9
ENDMDL
MODEL 8
REMARK VINA RESULT:    -2.883     12.490     13.993
REMARK INTER + INTRA:          -5.297
REMARK INTER:                  -3.948
REMARK INTRA:                  -1.349
REMARK UNBOUND:                -0.897
REMARK SMILES CCCCCCCCCCC(=O)[O-]
REMARK SMILES IDX 7 1 8 2 9 3 10 4 11 5 12 6 13 7 6 8 5 9 4 10 3 11 2 12 1 13
REMARK H PARENT
REMARK Flexibility Score: inf
ROOT
ATOM      1  C   UNL     1       8.771   8.747  -0.847  1.00  0.00     0.000 C 
ENDROOT
BRANCH   1   2
ATOM      2  C   UNL     1       9.919   8.850   0.171  1.00  0.00     0.000 C 
BRANCH   2   3
ATOM      3  C   UNL     1       9.843   7.766   1.258  1.00  0.00     0.006 C 
BRANCH   3   4
ATOM      4  C   UNL     1       8.868   6.636   0.900  1.00  0.00     0.053 C 
BRANCH   4   5
ATOM      5  C   UNL     1       9.618   5.395   0.533  1.00  0.00     0.041 C 
ATOM      6  O   UNL     1       9.331   4.297   1.077  1.00  0.00    -0.550 OA
ATOM      7  O   UNL     1      10.601   5.441  -0.448  1.00  0.00    -0.550 OA
ENDBRANCH   4   5
ENDBRANCH   3   4
ENDBRANCH   2   3
ENDBRANCH   1   2
BRANCH   1   8
ATOM      8  C   UNL     1       7.723   9.859  -0.670  1.00  0.00     0.000 C 
BRANCH   8   9
ATOM      9  C   UNL     1       6.419   9.348  -0.038  1.00  0.00    -0.000 C 
BRANCH   9  10
ATOM     10  C   UNL     1       6.469   9.462   1.491  1.00  0.00    -0.000 C 
BRANCH  10  11
ATOM     11  C   UNL     1       7.080  10.800   1.925  1.00  0.00    -0.000 C 
BRANCH  11  12
ATOM     12  C   UNL     1       7.946  10.627   3.178  1.00  0.00    -0.003 C 
ATOM     13  C   UNL     1       7.731   9.256   3.812  1.00  0.00     0.004 C 
ENDBRANCH  11  12
ENDBRANCH  10  11
ENDBRANCH   9  10
ENDBRANCH   8   9
ENDBRANCH   1   8
TORSDOF 9
ENDMDL
MODEL 9
REMARK VINA RESULT:    -2.816      4.881      7.098
REMARK INTER + INTRA:          -5.195
REMARK INTER:                  -4.743
REMARK INTRA:                  -0.453
REMARK UNBOUND:                -0.897
REMARK SMILES CCCCCCCCCCC(=O)[O-]
REMARK SMILES IDX 7 1 8 2 9 3 10 4 11 5 12 6 13 7 6 8 5 9 4 10 3 11 2 12 1 13
REMARK H PARENT
REMARK Flexibility Score: inf
ROOT
ATOM      1  C   UNL     1      -5.795  13.597  -0.956  1.00  0.00     0.000 C 
ENDROOT
BRANCH   1   2
ATOM      2  C   UNL     1      -6.799  14.301  -0.027  1.00  0.00     0.000 C 
BRANCH   2   3
ATOM      3  C   UNL     1      -6.500  14.052   1.460  1.00  0.00     0.006 C 
BRANCH   3   4
ATOM      4  C   UNL     1      -7.769  14.011   2.321  1.00  0.00     0.053 C 
BRANCH   4   5
ATOM      5  C   UNL     1      -7.604  13.043   3.451  1.00  0.00     0.041 C 
ATOM      6  O   UNL     1      -6.849  12.044   3.323  1.00  0.00    -0.550 OA
ATOM      7  O   UNL     1      -8.244  13.272   4.662  1.00  0.00    -0.550 OA
ENDBRANCH   4   5
ENDBRANCH   3   4
ENDBRANCH   2   3
ENDBRANCH   1   2
BRANCH   1   8
ATOM      8  C   UNL     1      -4.679  12.876  -0.183  1.00  0.00     0.000 C 
BRANCH   8   9
ATOM      9  C   UNL     1      -3.567  12.347  -1.102  1.00  0.00    -0.000 C 
BRANCH   9  10
ATOM     10  C   UNL     1      -3.930  12.556  -2.578  1.00  0.00    -0.000 C 
BRANCH  10  11
ATOM     11  C   UNL     1      -3.546  11.333  -3.419  1.00  0.00    -0.000 C 
BRANCH  11  12
ATOM     12  C   UNL     1      -4.675  10.953  -4.383  1.00  0.00    -0.003 C 
ATOM     13  C   UNL     1      -4.635   9.465  -4.720  1.00  0.00     0.004 C 
ENDBRANCH  11  12
ENDBRANCH  10  11
ENDBRANCH   9  10
ENDBRANCH   8   9
ENDBRANCH   1   8
TORSDOF 9
ENDMDL
