MODEL 1
REMARK VINA RESULT:    -5.258      0.000      0.000
REMARK INTER + INTRA:          -5.258
REMARK INTER:                  -5.258
REMARK INTRA:                   0.000
REMARK UNBOUND:                 0.000
REMARK SMILES CC1(C)[C@H]2CC[C@]1(C)C(=O)C2
REMARK SMILES IDX 1 1 2 2 4 3 5 4 6 5 7 6 9 7 10 8 11 9 8 10 3 11
REMARK H PARENT
REMARK Flexibility Score: inf
ROOT
ATOM      1  C   UNL     1     103.521 133.099  50.124  1.00  0.00     0.012 C 
ATOM      2  C   UNL     1     103.157 133.945  51.384  1.00  0.00    -0.020 C 
ATOM      3  C   UNL     1     101.918 133.418  52.148  1.00  0.00     0.003 C 
ATOM      4  C   UNL     1     101.688 134.515  53.223  1.00  0.00     0.005 C 
ATOM      5  C   UNL     1     102.073 135.818  52.479  1.00  0.00     0.015 C 
ATOM      6  C   UNL     1     102.485 135.301  51.080  1.00  0.00     0.032 C 
ATOM      7  C   UNL     1     101.196 134.837  50.447  1.00  0.00     0.139 C 
ATOM      8  O   UNL     1     100.560 135.434  49.593  1.00  0.00    -0.299 OA
ATOM      9  C   UNL     1     100.765 133.568  51.115  1.00  0.00     0.080 C 
ATOM     10  C   UNL     1     103.298 136.293  50.241  1.00  0.00     0.020 C 
ATOM     11  C   UNL     1     104.449 134.016  52.254  1.00  0.00     0.012 C 
ENDROOT
TORSDOF 0
ENDMDL
MODEL 2
REMARK VINA RESULT:    -5.245      1.513      3.276
REMARK INTER + INTRA:          -5.245
REMARK INTER:                  -5.245
REMARK INTRA:                   0.000
REMARK UNBOUND:                 0.000
REMARK SMILES CC1(C)[C@H]2CC[C@]1(C)C(=O)C2
REMARK SMILES IDX 1 1 2 2 4 3 5 4 6 5 7 6 9 7 10 8 11 9 8 10 3 11
REMARK H PARENT
REMARK Flexibility Score: inf
ROOT
ATOM      1  C   UNL     1     102.283 134.484  53.258  1.00  0.00     0.012 C 
ATOM      2  C   UNL     1     102.817 133.427  52.241  1.00  0.00    -0.020 C 
ATOM      3  C   UNL     1     102.852 133.936  50.780  1.00  0.00     0.003 C 
ATOM      4  C   UNL     1     103.249 132.661  49.985  1.00  0.00     0.005 C 
ATOM      5  C   UNL     1     102.528 131.529  50.759  1.00  0.00     0.015 C 
ATOM      6  C   UNL     1     101.822 132.297  51.902  1.00  0.00     0.032 C 
ATOM      7  C   UNL     1     100.730 133.083  51.220  1.00  0.00     0.139 C 
ATOM      8  O   UNL     1      99.540 132.806  51.217  1.00  0.00    -0.299 OA
ATOM      9  C   UNL     1     101.356 134.207  50.454  1.00  0.00     0.080 C 
ATOM     10  C   UNL     1     101.357 131.422  53.072  1.00  0.00     0.020 C 
ATOM     11  C   UNL     1     104.204 132.961  52.779  1.00  0.00     0.012 C 
ENDROOT
TORSDOF 0
ENDMDL
MODEL 3
REMARK VINA RESULT:    -5.199      2.462      3.850
REMARK INTER + INTRA:          -5.199
REMARK INTER:                  -5.199
REMARK INTRA:                   0.000
REMARK UNBOUND:                 0.000
REMARK SMILES CC1(C)[C@H]2CC[C@]1(C)C(=O)C2
REMARK SMILES IDX 1 1 2 2 4 3 5 4 6 5 7 6 9 7 10 8 11 9 8 10 3 11
REMARK H PARENT
REMARK Flexibility Score: inf
ROOT
ATOM      1  C   UNL     1     103.980 133.271  51.839  1.00  0.00     0.012 C 
ATOM      2  C   UNL     1     102.618 132.592  51.491  1.00  0.00    -0.020 C 
ATOM      3  C   UNL     1     101.416 133.567  51.512  1.00  0.00     0.003 C 
ATOM      4  C   UNL     1     100.204 132.618  51.306  1.00  0.00     0.005 C 
ATOM      5  C   UNL     1     100.624 131.343  52.080  1.00  0.00     0.015 C 
ATOM      6  C   UNL     1     102.024 131.720  52.618  1.00  0.00     0.032 C 
ATOM      7  C   UNL     1     101.762 132.768  53.672  1.00  0.00     0.139 C 
ATOM      8  O   UNL     1     101.790 132.593  54.880  1.00  0.00    -0.299 OA
ATOM      9  C   UNL     1     101.357 134.039  52.992  1.00  0.00     0.080 C 
ATOM     10  C   UNL     1     102.875 130.532  53.083  1.00  0.00     0.020 C 
ATOM     11  C   UNL     1     102.822 131.874  50.123  1.00  0.00     0.012 C 
ENDROOT
TORSDOF 0
ENDMDL
MODEL 4
REMARK VINA RESULT:    -5.170      1.897      3.287
REMARK INTER + INTRA:          -5.170
REMARK INTER:                  -5.170
REMARK INTRA:                   0.000
REMARK UNBOUND:                 0.000
REMARK SMILES CC1(C)[C@H]2CC[C@]1(C)C(=O)C2
REMARK SMILES IDX 1 1 2 2 4 3 5 4 6 5 7 6 9 7 10 8 11 9 8 10 3 11
REMARK H PARENT
REMARK Flexibility Score: inf
ROOT
ATOM      1  C   UNL     1     102.522 130.962  52.579  1.00  0.00     0.012 C 
ATOM      2  C   UNL     1     102.514 132.068  51.478  1.00  0.00    -0.020 C 
ATOM      3  C   UNL     1     103.568 133.178  51.705  1.00  0.00     0.003 C 
ATOM      4  C   UNL     1     103.229 134.204  50.590  1.00  0.00     0.005 C 
ATOM      5  C   UNL     1     101.684 134.128  50.505  1.00  0.00     0.015 C 
ATOM      6  C   UNL     1     101.338 133.064  51.572  1.00  0.00     0.032 C 
ATOM      7  C   UNL     1     101.641 133.729  52.892  1.00  0.00     0.139 C 
ATOM      8  O   UNL     1     100.819 134.189  53.669  1.00  0.00    -0.299 OA
ATOM      9  C   UNL     1     103.127 133.828  53.047  1.00  0.00     0.080 C 
ATOM     10  C   UNL     1      99.929 132.470  51.454  1.00  0.00     0.020 C 
ATOM     11  C   UNL     1     102.661 131.330  50.113  1.00  0.00     0.012 C 
ENDROOT
TORSDOF 0
ENDMDL
MODEL 5
REMARK VINA RESULT:    -5.153      1.722      3.088
REMARK INTER + INTRA:          -5.153
REMARK INTER:                  -5.153
REMARK INTRA:                   0.000
REMARK UNBOUND:                 0.000
REMARK SMILES CC1(C)[C@H]2CC[C@]1(C)C(=O)C2
REMARK SMILES IDX 1 1 2 2 4 3 5 4 6 5 7 6 9 7 10 8 11 9 8 10 3 11
REMARK H PARENT
REMARK Flexibility Score: inf
ROOT
ATOM      1  C   UNL     1     101.034 134.747  50.097  1.00  0.00     0.012 C 
ATOM      2  C   UNL     1     102.215 134.561  51.099  1.00  0.00    -0.020 C 
ATOM      3  C   UNL     1     103.449 133.862  50.480  1.00  0.00     0.003 C 
ATOM      4  C   UNL     1     104.377 133.658  51.709  1.00  0.00     0.005 C 
ATOM      5  C   UNL     1     103.377 133.358  52.855  1.00  0.00     0.015 C 
ATOM      6  C   UNL     1     102.008 133.440  52.140  1.00  0.00     0.032 C 
ATOM      7  C   UNL     1     101.972 132.229  51.240  1.00  0.00     0.139 C 
ATOM      8  O   UNL     1     101.347 131.200  51.446  1.00  0.00    -0.299 OA
ATOM      9  C   UNL     1     102.914 132.453  50.097  1.00  0.00     0.080 C 
ATOM     10  C   UNL     1     100.803 133.589  53.075  1.00  0.00     0.020 C 
ATOM     11  C   UNL     1     102.520 135.973  51.686  1.00  0.00     0.012 C 
ENDROOT
TORSDOF 0
ENDMDL
MODEL 6
REMARK VINA RESULT:    -5.142      1.637      2.117
REMARK INTER + INTRA:          -5.142
REMARK INTER:                  -5.142
REMARK INTRA:                   0.000
REMARK UNBOUND:                 0.000
REMARK SMILES CC1(C)[C@H]2CC[C@]1(C)C(=O)C2
REMARK SMILES IDX 1 1 2 2 4 3 5 4 6 5 7 6 9 7 10 8 11 9 8 10 3 11
REMARK H PARENT
REMARK Flexibility Score: inf
ROOT
ATOM      1  C   UNL     1     102.899 132.001  50.071  1.00  0.00     0.012 C 
ATOM      2  C   UNL     1     102.808 132.818  51.398  1.00  0.00    -0.020 C 
ATOM      3  C   UNL     1     102.502 131.950  52.642  1.00  0.00     0.003 C 
ATOM      4  C   UNL     1     102.303 133.011  53.758  1.00  0.00     0.005 C 
ATOM      5  C   UNL     1     101.610 134.178  53.009  1.00  0.00     0.015 C 
ATOM      6  C   UNL     1     101.513 133.641  51.562  1.00  0.00     0.032 C 
ATOM      7  C   UNL     1     100.488 132.535  51.630  1.00  0.00     0.139 C 
ATOM      8  O   UNL     1      99.329 132.607  51.251  1.00  0.00    -0.299 OA
ATOM      9  C   UNL     1     101.094 131.364  52.338  1.00  0.00     0.080 C 
ATOM     10  C   UNL     1     101.243 134.710  50.497  1.00  0.00     0.020 C 
ATOM     11  C   UNL     1     104.136 133.628  51.506  1.00  0.00     0.012 C 
ENDROOT
TORSDOF 0
ENDMDL
MODEL 7
REMARK VINA RESULT:    -5.129      1.688      2.874
REMARK INTER + INTRA:          -5.129
REMARK INTER:                  -5.129
REMARK INTRA:                   0.000
REMARK UNBOUND:                 0.000
REMARK SMILES CC1(C)[C@H]2CC[C@]1(C)C(=O)C2
REMARK SMILES IDX 1 1 2 2 4 3 5 4 6 5 7 6 9 7 10 8 11 9 8 10 3 11
REMARK H PARENT
REMARK Flexibility Score: inf
ROOT
ATOM      1  C   UNL     1     100.561 131.355  52.219  1.00  0.00     0.012 C 
ATOM      2  C   UNL     1     102.011 131.870  52.475  1.00  0.00    -0.020 C 
ATOM      3  C   UNL     1     102.070 133.161  53.327  1.00  0.00     0.003 C 
ATOM      4  C   UNL     1     103.577 133.533  53.280  1.00  0.00     0.005 C 
ATOM      5  C   UNL     1     103.994 133.118  51.846  1.00  0.00     0.015 C 
ATOM      6  C   UNL     1     102.678 132.553  51.261  1.00  0.00     0.032 C 
ATOM      7  C   UNL     1     101.784 133.756  51.093  1.00  0.00     0.139 C 
ATOM      8  O   UNL     1     101.533 134.323  50.041  1.00  0.00    -0.299 OA
ATOM      9  C   UNL     1     101.332 134.210  52.447  1.00  0.00     0.080 C 
ATOM     10  C   UNL     1     102.850 131.693  50.004  1.00  0.00     0.020 C 
ATOM     11  C   UNL     1     102.800 130.675  53.090  1.00  0.00     0.012 C 
ENDROOT
TORSDOF 0
ENDMDL
MODEL 8
REMARK VINA RESULT:    -5.121      1.532      2.946
REMARK INTER + INTRA:          -5.121
REMARK INTER:                  -5.121
REMARK INTRA:                   0.000
REMARK UNBOUND:                 0.000
REMARK SMILES CC1(C)[C@H]2CC[C@]1(C)C(=O)C2
REMARK SMILES IDX 1 1 2 2 4 3 5 4 6 5 7 6 9 7 10 8 11 9 8 10 3 11
REMARK H PARENT
REMARK Flexibility Score: inf
ROOT
ATOM      1  C   UNL     1     103.344 133.233  52.631  1.00  0.00     0.012 C 
ATOM      2  C   UNL     1     103.002 134.186  51.444  1.00  0.00    -0.020 C 
ATOM      3  C   UNL     1     103.771 135.528  51.484  1.00  0.00     0.003 C 
ATOM      4  C   UNL     1     103.128 136.326  50.317  1.00  0.00     0.005 C 
ATOM      5  C   UNL     1     101.643 135.884  50.370  1.00  0.00     0.015 C 
ATOM      6  C   UNL     1     101.629 134.885  51.550  1.00  0.00     0.032 C 
ATOM      7  C   UNL     1     101.846 135.735  52.778  1.00  0.00     0.139 C 
ATOM      8  O   UNL     1     100.987 136.069  53.580  1.00  0.00    -0.299 OA
ATOM      9  C   UNL     1     103.271 136.194  52.798  1.00  0.00     0.080 C 
ATOM     10  C   UNL     1     100.400 133.970  51.604  1.00  0.00     0.020 C 
ATOM     11  C   UNL     1     103.237 133.365  50.139  1.00  0.00     0.012 C 
ENDROOT
TORSDOF 0
ENDMDL
MODEL 9
REMARK VINA RESULT:    -5.112      1.759      3.176
REMARK INTER + INTRA:          -5.112
REMARK INTER:                  -5.112
REMARK INTRA:                   0.000
REMARK UNBOUND:                 0.000
REMARK SMILES CC1(C)[C@H]2CC[C@]1(C)C(=O)C2
REMARK SMILES IDX 1 1 2 2 4 3 5 4 6 5 7 6 9 7 10 8 11 9 8 10 3 11
REMARK H PARENT
REMARK Flexibility Score: inf
ROOT
ATOM      1  C   UNL     1     103.340 136.357  50.141  1.00  0.00     0.012 C 
ATOM      2  C   UNL     1     102.184 135.544  50.801  1.00  0.00    -0.020 C 
ATOM      3  C   UNL     1     101.866 135.984  52.250  1.00  0.00     0.003 C 
ATOM      4  C   UNL     1     100.826 134.924  52.708  1.00  0.00     0.005 C 
ATOM      5  C   UNL     1     101.320 133.630  52.014  1.00  0.00     0.015 C 
ATOM      6  C   UNL     1     102.569 134.115  51.241  1.00  0.00     0.032 C 
ATOM      7  C   UNL     1     103.589 134.419  52.310  1.00  0.00     0.139 C 
ATOM      8  O   UNL     1     104.545 133.720  52.609  1.00  0.00    -0.299 OA
ATOM      9  C   UNL     1     103.179 135.671  53.022  1.00  0.00     0.080 C 
ATOM     10  C   UNL     1     103.050 133.166  50.137  1.00  0.00     0.020 C 
ATOM     11  C   UNL     1     100.967 135.643  49.832  1.00  0.00     0.012 C 
ENDROOT
TORSDOF 0
ENDMDL
