MODEL 1
REMARK VINA RESULT:    -5.601      0.000      0.000
REMARK INTER + INTRA:          -5.928
REMARK INTER:                  -5.928
REMARK INTRA:                   0.000
REMARK UNBOUND:                 0.000
REMARK SMILES Cc1cc(O)c(C)c(C)c1O
REMARK SMILES IDX 1 1 2 2 3 3 4 4 6 5 8 6 10 7 9 8 7 9 11 10 5 12
REMARK H PARENT 11 11 5 13
REMARK Flexibility Score: inf
ROOT
ATOM      1  C   UNL     1      -9.944  -2.533  -9.819  1.00  0.00     0.048 C 
ATOM      2  C   UNL     1     -11.088  -1.556  -9.836  1.00  0.00    -0.005 A 
ATOM      3  C   UNL     1     -10.837  -0.206  -9.570  1.00  0.00     0.053 A 
ATOM      4  C   UNL     1     -11.865   0.736  -9.585  1.00  0.00     0.119 A 
ATOM      5  C   UNL     1     -13.186   0.340  -9.898  1.00  0.00    -0.003 A 
ATOM      6  C   UNL     1     -13.466  -1.038 -10.107  1.00  0.00    -0.002 A 
ATOM      7  C   UNL     1     -12.408  -1.978 -10.102  1.00  0.00     0.121 A 
ATOM      8  C   UNL     1     -14.879  -1.513 -10.364  1.00  0.00     0.049 C 
ATOM      9  C   UNL     1     -14.274   1.390  -9.969  1.00  0.00     0.049 C 
ENDROOT
BRANCH   7  10
ATOM     10  O   UNL     1     -12.689  -3.323 -10.364  1.00  0.00    -0.507 OA
ATOM     11  H   UNL     1     -12.427  -3.792 -11.221  1.00  0.00     0.293 HD
ENDBRANCH   7  10
BRANCH   4  12
ATOM     12  O   UNL     1     -11.535   2.059  -9.278  1.00  0.00    -0.508 OA
ATOM     13  H   UNL     1     -10.706   2.525  -9.625  1.00  0.00     0.293 HD
ENDBRANCH   4  12
TORSDOF 2
ENDMDL
MODEL 2
REMARK VINA RESULT:    -5.426      1.519      3.026
REMARK INTER + INTRA:          -5.744
REMARK INTER:                  -5.744
REMARK INTRA:                   0.000
REMARK UNBOUND:                 0.000
REMARK SMILES Cc1cc(O)c(C)c(C)c1O
REMARK SMILES IDX 1 1 2 2 3 3 4 4 6 5 8 6 10 7 9 8 7 9 11 10 5 12
REMARK H PARENT 11 11 5 13
REMARK Flexibility Score: inf
ROOT
ATOM      1  C   UNL     1     -15.058  -2.775 -10.399  1.00  0.00     0.048 C 
ATOM      2  C   UNL     1     -14.271  -1.514 -10.162  1.00  0.00    -0.005 A 
ATOM      3  C   UNL     1     -14.943  -0.355  -9.758  1.00  0.00     0.053 A 
ATOM      4  C   UNL     1     -14.253   0.832  -9.518  1.00  0.00     0.119 A 
ATOM      5  C   UNL     1     -12.847   0.877  -9.656  1.00  0.00    -0.003 A 
ATOM      6  C   UNL     1     -12.159  -0.276 -10.127  1.00  0.00    -0.002 A 
ATOM      7  C   UNL     1     -12.874  -1.476 -10.353  1.00  0.00     0.121 A 
ATOM      8  C   UNL     1     -10.666  -0.245 -10.366  1.00  0.00     0.049 C 
ATOM      9  C   UNL     1     -12.112   2.159  -9.330  1.00  0.00     0.049 C 
ENDROOT
BRANCH   7  10
ATOM     10  O   UNL     1     -12.177  -2.617 -10.764  1.00  0.00    -0.507 OA
ATOM     11  H   UNL     1     -12.042  -3.431 -10.178  1.00  0.00     0.293 HD
ENDBRANCH   7  10
BRANCH   4  12
ATOM     12  O   UNL     1     -15.003   1.952  -9.148  1.00  0.00    -0.508 OA
ATOM     13  H   UNL     1     -15.887   1.898  -8.660  1.00  0.00     0.293 HD
ENDBRANCH   4  12
TORSDOF 2
ENDMDL
MODEL 3
REMARK VINA RESULT:    -5.225     17.180     18.070
REMARK INTER + INTRA:          -5.530
REMARK INTER:                  -5.530
REMARK INTRA:                   0.000
REMARK UNBOUND:                 0.000
REMARK SMILES Cc1cc(O)c(C)c(C)c1O
REMARK SMILES IDX 1 1 2 2 3 3 4 4 6 5 8 6 10 7 9 8 7 9 11 10 5 12
REMARK H PARENT 11 11 5 13
REMARK Flexibility Score: inf
ROOT
ATOM      1  C   UNL     1     -11.314   3.487   9.125  1.00  0.00     0.048 C 
ATOM      2  C   UNL     1     -10.754   4.419   8.084  1.00  0.00    -0.005 A 
ATOM      3  C   UNL     1      -9.990   5.518   8.491  1.00  0.00     0.053 A 
ATOM      4  C   UNL     1      -9.444   6.401   7.561  1.00  0.00     0.119 A 
ATOM      5  C   UNL     1      -9.635   6.183   6.177  1.00  0.00    -0.003 A 
ATOM      6  C   UNL     1     -10.462   5.106   5.752  1.00  0.00    -0.002 A 
ATOM      7  C   UNL     1     -10.997   4.212   6.710  1.00  0.00     0.121 A 
ATOM      8  C   UNL     1     -10.757   4.887   4.285  1.00  0.00     0.049 C 
ATOM      9  C   UNL     1      -8.980   7.119   5.184  1.00  0.00     0.049 C 
ENDROOT
BRANCH   7  10
ATOM     10  O   UNL     1     -11.764   3.126   6.275  1.00  0.00    -0.507 OA
ATOM     11  H   UNL     1     -11.944   2.924   5.299  1.00  0.00     0.293 HD
ENDBRANCH   7  10
BRANCH   4  12
ATOM     12  O   UNL     1      -8.719   7.490   8.052  1.00  0.00    -0.508 OA
ATOM     13  H   UNL     1      -8.603   7.688   9.037  1.00  0.00     0.293 HD
ENDBRANCH   4  12
TORSDOF 2
ENDMDL
MODEL 4
REMARK VINA RESULT:    -5.107      1.840      3.544
REMARK INTER + INTRA:          -5.406
REMARK INTER:                  -5.406
REMARK INTRA:                   0.000
REMARK UNBOUND:                 0.000
REMARK SMILES Cc1cc(O)c(C)c(C)c1O
REMARK SMILES IDX 1 1 2 2 3 3 4 4 6 5 8 6 10 7 9 8 7 9 11 10 5 12
REMARK H PARENT 11 11 5 13
REMARK Flexibility Score: inf
ROOT
ATOM      1  C   UNL     1     -12.565   3.412  -8.986  1.00  0.00     0.048 C 
ATOM      2  C   UNL     1     -12.594   1.959  -9.377  1.00  0.00    -0.005 A 
ATOM      3  C   UNL     1     -11.389   1.300  -9.643  1.00  0.00     0.053 A 
ATOM      4  C   UNL     1     -11.367  -0.048  -9.999  1.00  0.00     0.119 A 
ATOM      5  C   UNL     1     -12.573  -0.782 -10.072  1.00  0.00    -0.003 A 
ATOM      6  C   UNL     1     -13.809  -0.109  -9.867  1.00  0.00    -0.002 A 
ATOM      7  C   UNL     1     -13.811   1.256  -9.494  1.00  0.00     0.121 A 
ATOM      8  C   UNL     1     -15.125  -0.840 -10.017  1.00  0.00     0.049 C 
ATOM      9  C   UNL     1     -12.520  -2.259 -10.399  1.00  0.00     0.049 C 
ENDROOT
BRANCH   7  10
ATOM     10  O   UNL     1     -15.031   1.892  -9.242  1.00  0.00    -0.507 OA
ATOM     11  H   UNL     1     -15.729   1.530  -8.604  1.00  0.00     0.293 HD
ENDBRANCH   7  10
BRANCH   4  12
ATOM     12  O   UNL     1     -10.125  -0.623 -10.277  1.00  0.00    -0.508 OA
ATOM     13  H   UNL     1      -9.303  -0.487  -9.704  1.00  0.00     0.293 HD
ENDBRANCH   4  12
TORSDOF 2
ENDMDL
MODEL 5
REMARK VINA RESULT:    -4.886      3.505      4.803
REMARK INTER + INTRA:          -5.172
REMARK INTER:                  -5.172
REMARK INTRA:                   0.000
REMARK UNBOUND:                 0.000
REMARK SMILES Cc1cc(O)c(C)c(C)c1O
REMARK SMILES IDX 1 1 2 2 3 3 4 4 6 5 8 6 10 7 9 8 7 9 11 10 5 12
REMARK H PARENT 11 11 5 13
REMARK Flexibility Score: inf
ROOT
ATOM      1  C   UNL     1      -7.974  -3.569  -8.154  1.00  0.00     0.048 C 
ATOM      2  C   UNL     1      -9.418  -3.912  -8.408  1.00  0.00    -0.005 A 
ATOM      3  C   UNL     1     -10.125  -3.203  -9.385  1.00  0.00     0.053 A 
ATOM      4  C   UNL     1     -11.461  -3.493  -9.660  1.00  0.00     0.119 A 
ATOM      5  C   UNL     1     -12.119  -4.535  -8.968  1.00  0.00    -0.003 A 
ATOM      6  C   UNL     1     -11.430  -5.221  -7.929  1.00  0.00    -0.002 A 
ATOM      7  C   UNL     1     -10.071  -4.922  -7.673  1.00  0.00     0.121 A 
ATOM      8  C   UNL     1     -12.124  -6.286  -7.110  1.00  0.00     0.049 C 
ATOM      9  C   UNL     1     -13.549  -4.874  -9.329  1.00  0.00     0.049 C 
ENDROOT
BRANCH   7  10
ATOM     10  O   UNL     1      -9.390  -5.642  -6.685  1.00  0.00    -0.507 OA
ATOM     11  H   UNL     1      -9.662  -5.648  -5.710  1.00  0.00     0.293 HD
ENDBRANCH   7  10
BRANCH   4  12
ATOM     12  O   UNL     1     -12.104  -2.717 -10.629  1.00  0.00    -0.508 OA
ATOM     13  H   UNL     1     -12.962  -2.208 -10.461  1.00  0.00     0.293 HD
ENDBRANCH   4  12
TORSDOF 2
ENDMDL
MODEL 6
REMARK VINA RESULT:    -4.812      2.831      4.786
REMARK INTER + INTRA:          -5.093
REMARK INTER:                  -5.093
REMARK INTRA:                   0.000
REMARK UNBOUND:                 0.000
REMARK SMILES Cc1cc(O)c(C)c(C)c1O
REMARK SMILES IDX 1 1 2 2 3 3 4 4 6 5 8 6 10 7 9 8 7 9 11 10 5 12
REMARK H PARENT 11 11 5 13
REMARK Flexibility Score: inf
ROOT
ATOM      1  C   UNL     1     -10.678  -0.961  -9.991  1.00  0.00     0.048 C 
ATOM      2  C   UNL     1     -10.696  -2.351  -9.414  1.00  0.00    -0.005 A 
ATOM      3  C   UNL     1      -9.615  -2.782  -8.638  1.00  0.00     0.053 A 
ATOM      4  C   UNL     1      -9.594  -4.058  -8.076  1.00  0.00     0.119 A 
ATOM      5  C   UNL     1     -10.688  -4.934  -8.262  1.00  0.00    -0.003 A 
ATOM      6  C   UNL     1     -11.765  -4.531  -9.100  1.00  0.00    -0.002 A 
ATOM      7  C   UNL     1     -11.775  -3.228  -9.651  1.00  0.00     0.121 A 
ATOM      8  C   UNL     1     -12.915  -5.470  -9.390  1.00  0.00     0.049 C 
ATOM      9  C   UNL     1     -10.671  -6.290  -7.590  1.00  0.00     0.049 C 
ENDROOT
BRANCH   7  10
ATOM     10  O   UNL     1     -12.866  -2.826 -10.429  1.00  0.00    -0.507 OA
ATOM     11  H   UNL     1     -13.064  -1.860 -10.657  1.00  0.00     0.293 HD
ENDBRANCH   7  10
BRANCH   4  12
ATOM     12  O   UNL     1      -8.463  -4.422  -7.341  1.00  0.00    -0.508 OA
ATOM     13  H   UNL     1      -8.311  -5.350  -6.969  1.00  0.00     0.293 HD
ENDBRANCH   4  12
TORSDOF 2
ENDMDL
MODEL 7
REMARK VINA RESULT:    -4.796      3.017      4.400
REMARK INTER + INTRA:          -5.077
REMARK INTER:                  -5.077
REMARK INTRA:                   0.000
REMARK UNBOUND:                 0.000
REMARK SMILES Cc1cc(O)c(C)c(C)c1O
REMARK SMILES IDX 1 1 2 2 3 3 4 4 6 5 8 6 10 7 9 8 7 9 11 10 5 12
REMARK H PARENT 11 11 5 13
REMARK Flexibility Score: inf
ROOT
ATOM      1  C   UNL     1     -10.265  -7.157  -8.505  1.00  0.00     0.048 C 
ATOM      2  C   UNL     1     -10.291  -5.665  -8.703  1.00  0.00    -0.005 A 
ATOM      3  C   UNL     1      -9.185  -4.905  -8.308  1.00  0.00     0.053 A 
ATOM      4  C   UNL     1      -9.161  -3.522  -8.481  1.00  0.00     0.119 A 
ATOM      5  C   UNL     1     -10.255  -2.863  -9.088  1.00  0.00    -0.003 A 
ATOM      6  C   UNL     1     -11.411  -3.615  -9.436  1.00  0.00    -0.002 A 
ATOM      7  C   UNL     1     -11.412  -5.019  -9.265  1.00  0.00     0.121 A 
ATOM      8  C   UNL     1     -12.633  -2.936 -10.012  1.00  0.00     0.049 C 
ATOM      9  C   UNL     1     -10.180  -1.369  -9.322  1.00  0.00     0.049 C 
ENDROOT
BRANCH   7  10
ATOM     10  O   UNL     1     -12.534  -5.753  -9.663  1.00  0.00    -0.507 OA
ATOM     11  H   UNL     1     -13.460  -5.354  -9.754  1.00  0.00     0.293 HD
ENDBRANCH   7  10
BRANCH   4  12
ATOM     12  O   UNL     1      -8.031  -2.833  -8.031  1.00  0.00    -0.508 OA
ATOM     13  H   UNL     1      -7.408  -2.319  -8.640  1.00  0.00     0.293 HD
ENDBRANCH   4  12
TORSDOF 2
ENDMDL
MODEL 8
REMARK VINA RESULT:    -4.782      4.925      5.876
REMARK INTER + INTRA:          -5.062
REMARK INTER:                  -5.062
REMARK INTRA:                   0.000
REMARK UNBOUND:                 0.000
REMARK SMILES Cc1cc(O)c(C)c(C)c1O
REMARK SMILES IDX 1 1 2 2 3 3 4 4 6 5 8 6 10 7 9 8 7 9 11 10 5 12
REMARK H PARENT 11 11 5 13
REMARK Flexibility Score: inf
ROOT
ATOM      1  C   UNL     1      -8.673  -3.640  -8.196  1.00  0.00     0.048 C 
ATOM      2  C   UNL     1      -9.892  -4.445  -7.836  1.00  0.00    -0.005 A 
ATOM      3  C   UNL     1     -10.114  -4.787  -6.497  1.00  0.00     0.053 A 
ATOM      4  C   UNL     1     -11.235  -5.523  -6.117  1.00  0.00     0.119 A 
ATOM      5  C   UNL     1     -12.187  -5.918  -7.085  1.00  0.00    -0.003 A 
ATOM      6  C   UNL     1     -11.942  -5.632  -8.457  1.00  0.00    -0.002 A 
ATOM      7  C   UNL     1     -10.806  -4.872  -8.822  1.00  0.00     0.121 A 
ATOM      8  C   UNL     1     -12.894  -6.108  -9.531  1.00  0.00     0.049 C 
ATOM      9  C   UNL     1     -13.428  -6.662  -6.640  1.00  0.00     0.049 C 
ENDROOT
BRANCH   7  10
ATOM     10  O   UNL     1     -10.605  -4.551 -10.169  1.00  0.00    -0.507 OA
ATOM     11  H   UNL     1      -9.721  -4.226 -10.541  1.00  0.00     0.293 HD
ENDBRANCH   7  10
BRANCH   4  12
ATOM     12  O   UNL     1     -11.366  -5.849  -4.765  1.00  0.00    -0.508 OA
ATOM     13  H   UNL     1     -12.136  -5.540  -4.186  1.00  0.00     0.293 HD
ENDBRANCH   4  12
TORSDOF 2
ENDMDL
MODEL 9
REMARK VINA RESULT:    -4.737     17.050     18.207
REMARK INTER + INTRA:          -5.013
REMARK INTER:                  -5.013
REMARK INTRA:                   0.000
REMARK UNBOUND:                 0.000
REMARK SMILES Cc1cc(O)c(C)c(C)c1O
REMARK SMILES IDX 1 1 2 2 3 3 4 4 6 5 8 6 10 7 9 8 7 9 11 10 5 12
REMARK H PARENT 11 11 5 13
REMARK Flexibility Score: inf
ROOT
ATOM      1  C   UNL     1      -8.480   8.204   5.642  1.00  0.00     0.048 C 
ATOM      2  C   UNL     1      -9.325   7.016   6.016  1.00  0.00    -0.005 A 
ATOM      3  C   UNL     1     -10.027   6.335   5.015  1.00  0.00     0.053 A 
ATOM      4  C   UNL     1     -10.813   5.224   5.315  1.00  0.00     0.119 A 
ATOM      5  C   UNL     1     -10.894   4.748   6.644  1.00  0.00    -0.003 A 
ATOM      6  C   UNL     1     -10.237   5.468   7.679  1.00  0.00    -0.002 A 
ATOM      7  C   UNL     1      -9.432   6.586   7.355  1.00  0.00     0.121 A 
ATOM      8  C   UNL     1     -10.366   5.039   9.124  1.00  0.00     0.049 C 
ATOM      9  C   UNL     1     -11.704   3.502   6.935  1.00  0.00     0.049 C 
ENDROOT
BRANCH   7  10
ATOM     10  O   UNL     1      -8.748   7.252   8.377  1.00  0.00    -0.507 OA
ATOM     11  H   UNL     1      -8.020   6.824   8.934  1.00  0.00     0.293 HD
ENDBRANCH   7  10
BRANCH   4  12
ATOM     12  O   UNL     1     -11.507   4.620   4.262  1.00  0.00    -0.508 OA
ATOM     13  H   UNL     1     -12.515   4.617   4.183  1.00  0.00     0.293 HD
ENDBRANCH   4  12
TORSDOF 2
ENDMDL
