MODEL 1
REMARK VINA RESULT:    -4.861      0.000      0.000
REMARK INTER + INTRA:          -5.878
REMARK INTER:                  -5.571
REMARK INTRA:                  -0.308
REMARK UNBOUND:                -0.308
REMARK SMILES COc1ccc(C(C)=O)c(O)c1
REMARK SMILES IDX 6 1 10 2 12 3 3 4 4 5 5 6 7 7 8 8 9 9 11 10 2 12 1 13
REMARK H PARENT 11 11
REMARK Flexibility Score: inf
ROOT
ATOM      1  C   UNL     1     128.892 129.340 117.396  1.00  0.00     0.059 A 
ATOM      2  C   UNL     1     129.866 129.262 116.373  1.00  0.00     0.130 A 
ATOM      3  C   UNL     1     129.469 129.273 115.027  1.00  0.00     0.093 A 
ATOM      4  C   UNL     1     128.119 129.342 114.676  1.00  0.00     0.122 A 
ATOM      5  C   UNL     1     127.149 129.401 115.690  1.00  0.00     0.047 A 
ATOM      6  C   UNL     1     127.533 129.396 117.032  1.00  0.00     0.019 A 
ENDROOT
BRANCH   1   7
ATOM      7  C   UNL     1     129.247 129.350 118.840  1.00  0.00     0.163 C 
ATOM      8  C   UNL     1     128.403 130.037 119.872  1.00  0.00     0.093 C 
ATOM      9  O   UNL     1     130.294 128.762 119.224  1.00  0.00    -0.294 OA
ENDBRANCH   1   7
BRANCH   2  10
ATOM     10  O   UNL     1     131.221 129.151 116.682  1.00  0.00    -0.507 OA
ATOM     11  H   UNL     1     131.931 129.644 116.153  1.00  0.00     0.293 HD
ENDBRANCH   2  10
BRANCH   4  12
ATOM     12  O   UNL     1     127.784 129.349 113.313  1.00  0.00    -0.497 OA
ATOM     13  C   UNL     1     126.848 130.244 112.719  1.00  0.00     0.278 C 
ENDBRANCH   4  12
TORSDOF 3
ENDMDL
MODEL 2
REMARK VINA RESULT:    -4.765      1.761      2.404
REMARK INTER + INTRA:          -5.769
REMARK INTER:                  -5.469
REMARK INTRA:                  -0.300
REMARK UNBOUND:                -0.308
REMARK SMILES COc1ccc(C(C)=O)c(O)c1
REMARK SMILES IDX 6 1 10 2 12 3 3 4 4 5 5 6 7 7 8 8 9 9 11 10 2 12 1 13
REMARK H PARENT 11 11
REMARK Flexibility Score: inf
ROOT
ATOM      1  C   UNL     1     128.892 129.397 117.460  1.00  0.00     0.059 A 
ATOM      2  C   UNL     1     127.746 129.305 116.636  1.00  0.00     0.130 A 
ATOM      3  C   UNL     1     127.892 129.216 115.243  1.00  0.00     0.093 A 
ATOM      4  C   UNL     1     129.157 129.235 114.649  1.00  0.00     0.122 A 
ATOM      5  C   UNL     1     130.294 129.345 115.465  1.00  0.00     0.047 A 
ATOM      6  C   UNL     1     130.161 129.428 116.852  1.00  0.00     0.019 A 
ENDROOT
BRANCH   1   7
ATOM      7  C   UNL     1     128.807 129.476 118.943  1.00  0.00     0.163 C 
ATOM      8  C   UNL     1     129.911 129.001 119.839  1.00  0.00     0.093 C 
ATOM      9  O   UNL     1     127.773 129.959 119.478  1.00  0.00    -0.294 OA
ENDBRANCH   1   7
BRANCH   2  10
ATOM     10  O   UNL     1     126.465 129.323 117.186  1.00  0.00    -0.507 OA
ATOM     11  H   UNL     1     126.211 128.725 117.965  1.00  0.00     0.293 HD
ENDBRANCH   2  10
BRANCH   4  12
ATOM     12  O   UNL     1     129.238 129.144 113.252  1.00  0.00    -0.497 OA
ATOM     13  C   UNL     1     128.630 128.117 112.475  1.00  0.00     0.278 C 
ENDBRANCH   4  12
TORSDOF 3
ENDMDL
MODEL 3
REMARK VINA RESULT:    -4.632      1.147      4.535
REMARK INTER + INTRA:          -5.617
REMARK INTER:                  -5.274
REMARK INTRA:                  -0.343
REMARK UNBOUND:                -0.308
REMARK SMILES COc1ccc(C(C)=O)c(O)c1
REMARK SMILES IDX 6 1 10 2 12 3 3 4 4 5 5 6 7 7 8 8 9 9 11 10 2 12 1 13
REMARK H PARENT 11 11
REMARK Flexibility Score: inf
ROOT
ATOM      1  C   UNL     1     128.241 129.258 115.122  1.00  0.00     0.059 A 
ATOM      2  C   UNL     1     129.456 129.314 115.843  1.00  0.00     0.130 A 
ATOM      3  C   UNL     1     129.435 129.459 117.239  1.00  0.00     0.093 A 
ATOM      4  C   UNL     1     128.228 129.568 117.933  1.00  0.00     0.122 A 
ATOM      5  C   UNL     1     127.020 129.531 117.216  1.00  0.00     0.047 A 
ATOM      6  C   UNL     1     127.030 129.381 115.828  1.00  0.00     0.019 A 
ENDROOT
BRANCH   1   7
ATOM      7  C   UNL     1     128.194 129.088 113.645  1.00  0.00     0.163 C 
ATOM      8  C   UNL     1     127.342 129.950 112.763  1.00  0.00     0.093 C 
ATOM      9  O   UNL     1     128.892 128.189 113.103  1.00  0.00    -0.294 OA
ENDBRANCH   1   7
BRANCH   2  10
ATOM     10  O   UNL     1     130.683 129.250 115.184  1.00  0.00    -0.507 OA
ATOM     11  H   UNL     1     130.876 129.807 114.360  1.00  0.00     0.293 HD
ENDBRANCH   2  10
BRANCH   4  12
ATOM     12  O   UNL     1     128.271 129.712 119.328  1.00  0.00    -0.497 OA
ATOM     13  C   UNL     1     129.354 129.284 120.147  1.00  0.00     0.278 C 
ENDBRANCH   4  12
TORSDOF 3
ENDMDL
MODEL 4
REMARK VINA RESULT:    -4.068      6.281      9.987
REMARK INTER + INTRA:          -4.970
REMARK INTER:                  -4.636
REMARK INTRA:                  -0.334
REMARK UNBOUND:                -0.308
REMARK SMILES COc1ccc(C(C)=O)c(O)c1
REMARK SMILES IDX 6 1 10 2 12 3 3 4 4 5 5 6 7 7 8 8 9 9 11 10 2 12 1 13
REMARK H PARENT 11 11
REMARK Flexibility Score: inf
ROOT
ATOM      1  C   UNL     1     121.143 132.009 110.854  1.00  0.00     0.059 A 
ATOM      2  C   UNL     1     121.015 132.063 112.262  1.00  0.00     0.130 A 
ATOM      3  C   UNL     1     122.163 132.040 113.070  1.00  0.00     0.093 A 
ATOM      4  C   UNL     1     123.438 131.946 112.506  1.00  0.00     0.122 A 
ATOM      5  C   UNL     1     123.565 131.873 111.110  1.00  0.00     0.047 A 
ATOM      6  C   UNL     1     122.431 131.901 110.296  1.00  0.00     0.019 A 
ENDROOT
BRANCH   1   7
ATOM      7  C   UNL     1     119.969 132.047 109.942  1.00  0.00     0.163 C 
ATOM      8  C   UNL     1     119.944 132.881 108.697  1.00  0.00     0.093 C 
ATOM      9  O   UNL     1     118.950 131.357 110.216  1.00  0.00    -0.294 OA
ENDBRANCH   1   7
BRANCH   2  10
ATOM     10  O   UNL     1     119.760 132.118 112.865  1.00  0.00    -0.507 OA
ATOM     11  H   UNL     1     119.650 132.317 113.853  1.00  0.00     0.293 HD
ENDBRANCH   2  10
BRANCH   4  12
ATOM     12  O   UNL     1     124.546 131.926 113.365  1.00  0.00    -0.497 OA
ATOM     13  C   UNL     1     125.542 130.907 113.370  1.00  0.00     0.278 C 
ENDBRANCH   4  12
TORSDOF 3
ENDMDL
MODEL 5
REMARK VINA RESULT:    -3.929      6.593      8.554
REMARK INTER + INTRA:          -4.811
REMARK INTER:                  -4.477
REMARK INTRA:                  -0.334
REMARK UNBOUND:                -0.308
REMARK SMILES COc1ccc(C(C)=O)c(O)c1
REMARK SMILES IDX 6 1 10 2 12 3 3 4 4 5 5 6 7 7 8 8 9 9 11 10 2 12 1 13
REMARK H PARENT 11 11
REMARK Flexibility Score: inf
ROOT
ATOM      1  C   UNL     1     123.830 132.314 111.756  1.00  0.00     0.059 A 
ATOM      2  C   UNL     1     122.918 131.658 112.616  1.00  0.00     0.130 A 
ATOM      3  C   UNL     1     121.537 131.814 112.420  1.00  0.00     0.093 A 
ATOM      4  C   UNL     1     121.042 132.625 111.396  1.00  0.00     0.122 A 
ATOM      5  C   UNL     1     121.947 133.291 110.553  1.00  0.00     0.047 A 
ATOM      6  C   UNL     1     123.323 133.139 110.735  1.00  0.00     0.019 A 
ENDROOT
BRANCH   1   7
ATOM      7  C   UNL     1     125.304 132.176 111.899  1.00  0.00     0.163 C 
ATOM      8  C   UNL     1     126.221 133.361 111.961  1.00  0.00     0.093 C 
ATOM      9  O   UNL     1     125.814 131.026 111.972  1.00  0.00    -0.294 OA
ENDBRANCH   1   7
BRANCH   2  10
ATOM     10  O   UNL     1     123.371 130.873 113.675  1.00  0.00    -0.507 OA
ATOM     11  H   UNL     1     122.750 130.253 114.183  1.00  0.00     0.293 HD
ENDBRANCH   2  10
BRANCH   4  12
ATOM     12  O   UNL     1     119.652 132.743 111.251  1.00  0.00    -0.497 OA
ATOM     13  C   UNL     1     118.875 132.000 110.317  1.00  0.00     0.278 C 
ENDBRANCH   4  12
TORSDOF 3
ENDMDL
MODEL 6
REMARK VINA RESULT:    -3.877      6.215      9.720
REMARK INTER + INTRA:          -4.751
REMARK INTER:                  -4.414
REMARK INTRA:                  -0.337
REMARK UNBOUND:                -0.308
REMARK SMILES COc1ccc(C(C)=O)c(O)c1
REMARK SMILES IDX 6 1 10 2 12 3 3 4 4 5 5 6 7 7 8 8 9 9 11 10 2 12 1 13
REMARK H PARENT 11 11
REMARK Flexibility Score: inf
ROOT
ATOM      1  C   UNL     1     121.289 132.662 111.303  1.00  0.00     0.059 A 
ATOM      2  C   UNL     1     122.479 133.215 110.774  1.00  0.00     0.130 A 
ATOM      3  C   UNL     1     123.697 133.027 111.446  1.00  0.00     0.093 A 
ATOM      4  C   UNL     1     123.753 132.313 112.646  1.00  0.00     0.122 A 
ATOM      5  C   UNL     1     122.570 131.779 113.182  1.00  0.00     0.047 A 
ATOM      6  C   UNL     1     121.354 131.956 112.518  1.00  0.00     0.019 A 
ENDROOT
BRANCH   1   7
ATOM      7  C   UNL     1     119.971 132.811 110.631  1.00  0.00     0.163 C 
ATOM      8  C   UNL     1     119.077 131.641 110.345  1.00  0.00     0.093 C 
ATOM      9  O   UNL     1     119.578 133.958 110.285  1.00  0.00    -0.294 OA
ENDBRANCH   1   7
BRANCH   2  10
ATOM     10  O   UNL     1     122.459 133.968 109.601  1.00  0.00    -0.507 OA
ATOM     11  H   UNL     1     122.338 133.535 108.692  1.00  0.00     0.293 HD
ENDBRANCH   2  10
BRANCH   4  12
ATOM     12  O   UNL     1     124.999 132.159 113.272  1.00  0.00    -0.497 OA
ATOM     13  C   UNL     1     125.582 130.903 113.606  1.00  0.00     0.278 C 
ENDBRANCH   4  12
TORSDOF 3
ENDMDL
MODEL 7
REMARK VINA RESULT:    -3.866      6.471      8.402
REMARK INTER + INTRA:          -4.739
REMARK INTER:                  -4.408
REMARK INTRA:                  -0.330
REMARK UNBOUND:                -0.308
REMARK SMILES COc1ccc(C(C)=O)c(O)c1
REMARK SMILES IDX 6 1 10 2 12 3 3 4 4 5 5 6 7 7 8 8 9 9 11 10 2 12 1 13
REMARK H PARENT 11 11
REMARK Flexibility Score: inf
ROOT
ATOM      1  C   UNL     1     122.885 132.654 111.910  1.00  0.00     0.059 A 
ATOM      2  C   UNL     1     123.802 131.984 112.753  1.00  0.00     0.130 A 
ATOM      3  C   UNL     1     125.151 132.370 112.766  1.00  0.00     0.093 A 
ATOM      4  C   UNL     1     125.613 133.400 111.943  1.00  0.00     0.122 A 
ATOM      5  C   UNL     1     124.707 134.054 111.092  1.00  0.00     0.047 A 
ATOM      6  C   UNL     1     123.362 133.682 111.075  1.00  0.00     0.019 A 
ENDROOT
BRANCH   1   7
ATOM      7  C   UNL     1     121.440 132.305 111.861  1.00  0.00     0.163 C 
ATOM      8  C   UNL     1     120.756 131.884 110.596  1.00  0.00     0.093 C 
ATOM      9  O   UNL     1     120.754 132.362 112.918  1.00  0.00    -0.294 OA
ENDBRANCH   1   7
BRANCH   2  10
ATOM     10  O   UNL     1     123.389 130.925 113.560  1.00  0.00    -0.507 OA
ATOM     11  H   UNL     1     122.823 130.167 113.197  1.00  0.00     0.293 HD
ENDBRANCH   2  10
BRANCH   4  12
ATOM     12  O   UNL     1     126.973 133.740 112.000  1.00  0.00    -0.497 OA
ATOM     13  C   UNL     1     127.585 134.745 111.197  1.00  0.00     0.278 C 
ENDBRANCH   4  12
TORSDOF 3
ENDMDL
MODEL 8
REMARK VINA RESULT:    -3.809      8.030      9.891
REMARK INTER + INTRA:          -4.673
REMARK INTER:                  -4.333
REMARK INTRA:                  -0.340
REMARK UNBOUND:                -0.308
REMARK SMILES COc1ccc(C(C)=O)c(O)c1
REMARK SMILES IDX 6 1 10 2 12 3 3 4 4 5 5 6 7 7 8 8 9 9 11 10 2 12 1 13
REMARK H PARENT 11 11
REMARK Flexibility Score: inf
ROOT
ATOM      1  C   UNL     1     136.857 127.199 110.880  1.00  0.00     0.059 A 
ATOM      2  C   UNL     1     136.934 126.554 112.137  1.00  0.00     0.130 A 
ATOM      3  C   UNL     1     135.798 126.483 112.957  1.00  0.00     0.093 A 
ATOM      4  C   UNL     1     134.588 127.058 112.562  1.00  0.00     0.122 A 
ATOM      5  C   UNL     1     134.515 127.715 111.323  1.00  0.00     0.047 A 
ATOM      6  C   UNL     1     135.637 127.786 110.496  1.00  0.00     0.019 A 
ENDROOT
BRANCH   1   7
ATOM      7  C   UNL     1     138.019 127.293 109.956  1.00  0.00     0.163 C 
ATOM      8  C   UNL     1     137.936 126.887 108.515  1.00  0.00     0.093 C 
ATOM      9  O   UNL     1     139.120 127.730 110.389  1.00  0.00    -0.294 OA
ENDBRANCH   1   7
BRANCH   2  10
ATOM     10  O   UNL     1     138.134 126.002 112.585  1.00  0.00    -0.507 OA
ATOM     11  H   UNL     1     138.876 126.578 112.966  1.00  0.00     0.293 HD
ENDBRANCH   2  10
BRANCH   4  12
ATOM     12  O   UNL     1     133.488 126.955 113.426  1.00  0.00    -0.497 OA
ATOM     13  C   UNL     1     132.488 127.959 113.578  1.00  0.00     0.278 C 
ENDBRANCH   4  12
TORSDOF 3
ENDMDL
MODEL 9
REMARK VINA RESULT:    -3.802      5.476      8.266
REMARK INTER + INTRA:          -4.666
REMARK INTER:                  -4.349
REMARK INTRA:                  -0.316
REMARK UNBOUND:                -0.308
REMARK SMILES COc1ccc(C(C)=O)c(O)c1
REMARK SMILES IDX 6 1 10 2 12 3 3 4 4 5 5 6 7 7 8 8 9 9 11 10 2 12 1 13
REMARK H PARENT 11 11
REMARK Flexibility Score: inf
ROOT
ATOM      1  C   UNL     1     123.710 132.002 112.359  1.00  0.00     0.059 A 
ATOM      2  C   UNL     1     123.326 131.950 110.998  1.00  0.00     0.130 A 
ATOM      3  C   UNL     1     121.973 132.070 110.648  1.00  0.00     0.093 A 
ATOM      4  C   UNL     1     120.987 132.221 111.626  1.00  0.00     0.122 A 
ATOM      5  C   UNL     1     121.364 132.254 112.979  1.00  0.00     0.047 A 
ATOM      6  C   UNL     1     122.709 132.142 113.338  1.00  0.00     0.019 A 
ENDROOT
BRANCH   1   7
ATOM      7  C   UNL     1     125.128 131.899 112.795  1.00  0.00     0.163 C 
ATOM      8  C   UNL     1     125.625 130.779 113.660  1.00  0.00     0.093 C 
ATOM      9  O   UNL     1     125.953 132.780 112.430  1.00  0.00    -0.294 OA
ENDBRANCH   1   7
BRANCH   2  10
ATOM     10  O   UNL     1     124.275 131.760 109.994  1.00  0.00    -0.507 OA
ATOM     11  H   UNL     1     124.067 131.226 109.158  1.00  0.00     0.293 HD
ENDBRANCH   2  10
BRANCH   4  12
ATOM     12  O   UNL     1     119.651 132.334 111.215  1.00  0.00    -0.497 OA
ATOM     13  C   UNL     1     119.148 131.849 109.974  1.00  0.00     0.278 C 
ENDBRANCH   4  12
TORSDOF 3
ENDMDL
