MODEL 1
REMARK VINA RESULT:    -8.384      0.000      0.000
REMARK INTER + INTRA:         -10.073
REMARK INTER:                  -9.854
REMARK INTRA:                  -0.219
REMARK UNBOUND:                -0.219
REMARK SMILES O=c1c(O)c(-c2ccc(O)c(O)c2)oc2cc(O)ccc12
REMARK SMILES IDX 5 1 3 2 2 3 1 4 21 5 15 6 14 7 16 8 17 9 19 10 20 11 6 12
REMARK SMILES IDX 7 13 8 14 9 15 13 16 11 17 10 18 12 20 4 22 18 24
REMARK H PARENT 10 19 12 21 4 23 18 25
REMARK Flexibility Score: inf
ROOT
ATOM      1  C   UNL     1     140.148 -16.972  79.564  1.00  0.00     0.180 A 
ATOM      2  C   UNL     1     139.924 -18.112  78.765  1.00  0.00     0.208 A 
ATOM      3  C   UNL     1     139.745 -19.355  79.392  1.00  0.00     0.235 A 
ATOM      4  O   UNL     1     139.531 -20.387  78.699  1.00  0.00    -0.285 OA
ATOM      5  C   UNL     1     139.814 -19.437  80.792  1.00  0.00     0.069 A 
ATOM      6  C   UNL     1     140.067 -18.254  81.520  1.00  0.00     0.142 A 
ATOM      7  O   UNL     1     140.222 -17.096  80.888  1.00  0.00    -0.452 OA
ATOM      8  C   UNL     1     140.153 -18.297  82.916  1.00  0.00     0.094 A 
ATOM      9  C   UNL     1     139.988 -19.508  83.597  1.00  0.00     0.119 A 
ATOM     10  C   UNL     1     139.735 -20.684  82.876  1.00  0.00     0.047 A 
ATOM     11  C   UNL     1     139.648 -20.652  81.482  1.00  0.00     0.020 A 
ENDROOT
BRANCH   1  12
ATOM     12  C   UNL     1     140.329 -15.625  78.978  1.00  0.00     0.025 A 
ATOM     13  C   UNL     1     141.567 -14.975  79.108  1.00  0.00     0.016 A 
ATOM     14  C   UNL     1     141.752 -13.695  78.582  1.00  0.00     0.051 A 
ATOM     15  C   UNL     1     140.703 -13.038  77.933  1.00  0.00     0.157 A 
ATOM     16  C   UNL     1     139.268 -14.953  78.344  1.00  0.00     0.062 A 
ATOM     17  C   UNL     1     139.452 -13.666  77.818  1.00  0.00     0.158 A 
BRANCH  15  18
ATOM     18  O   UNL     1     140.919 -11.760  77.416  1.00  0.00    -0.504 OA
ATOM     19  H   UNL     1     141.305 -11.613  76.491  1.00  0.00     0.293 HD
ENDBRANCH  15  18
BRANCH  17  20
ATOM     20  O   UNL     1     138.397 -13.011  77.185  1.00  0.00    -0.504 OA
ATOM     21  H   UNL     1     138.559 -12.277  76.505  1.00  0.00     0.293 HD
ENDBRANCH  17  20
ENDBRANCH   1  12
BRANCH   2  22
ATOM     22  O   UNL     1     139.909 -18.007  77.372  1.00  0.00    -0.502 OA
ATOM     23  H   UNL     1     139.872 -18.820  76.768  1.00  0.00     0.293 HD
ENDBRANCH   2  22
BRANCH   9  24
ATOM     24  O   UNL     1     140.076 -19.532  84.986  1.00  0.00    -0.508 OA
ATOM     25  H   UNL     1     139.387 -20.014  85.553  1.00  0.00     0.293 HD
ENDBRANCH   9  24
TORSDOF 5
ENDMDL
MODEL 2
REMARK VINA RESULT:    -8.346      2.612      4.192
REMARK INTER + INTRA:         -10.028
REMARK INTER:                  -9.714
REMARK INTRA:                  -0.314
REMARK UNBOUND:                -0.219
REMARK SMILES O=c1c(O)c(-c2ccc(O)c(O)c2)oc2cc(O)ccc12
REMARK SMILES IDX 5 1 3 2 2 3 1 4 21 5 15 6 14 7 16 8 17 9 19 10 20 11 6 12
REMARK SMILES IDX 7 13 8 14 9 15 13 16 11 17 10 18 12 20 4 22 18 24
REMARK H PARENT 10 19 12 21 4 23 18 25
REMARK Flexibility Score: inf
ROOT
ATOM      1  C   UNL     1     139.266 -18.367  79.415  1.00  0.00     0.180 A 
ATOM      2  C   UNL     1     139.393 -17.099  80.017  1.00  0.00     0.208 A 
ATOM      3  C   UNL     1     139.728 -17.025  81.379  1.00  0.00     0.235 A 
ATOM      4  O   UNL     1     139.859 -15.901  81.936  1.00  0.00    -0.285 OA
ATOM      5  C   UNL     1     139.907 -18.209  82.110  1.00  0.00     0.069 A 
ATOM      6  C   UNL     1     139.738 -19.441  81.440  1.00  0.00     0.142 A 
ATOM      7  O   UNL     1     139.429 -19.467  80.148  1.00  0.00    -0.452 OA
ATOM      8  C   UNL     1     139.898 -20.644  82.137  1.00  0.00     0.094 A 
ATOM      9  C   UNL     1     140.227 -20.634  83.496  1.00  0.00     0.119 A 
ATOM     10  C   UNL     1     140.397 -19.412  84.164  1.00  0.00     0.047 A 
ATOM     11  C   UNL     1     140.239 -18.206  83.477  1.00  0.00     0.020 A 
ENDROOT
BRANCH   1  12
ATOM     12  C   UNL     1     138.934 -18.528  77.982  1.00  0.00     0.025 A 
ATOM     13  C   UNL     1     139.969 -18.615  77.038  1.00  0.00     0.016 A 
ATOM     14  C   UNL     1     139.678 -18.746  75.678  1.00  0.00     0.051 A 
ATOM     15  C   UNL     1     138.351 -18.775  75.239  1.00  0.00     0.157 A 
ATOM     16  C   UNL     1     137.599 -18.536  77.536  1.00  0.00     0.062 A 
ATOM     17  C   UNL     1     137.306 -18.665  76.170  1.00  0.00     0.158 A 
BRANCH  15  18
ATOM     18  O   UNL     1     138.091 -18.909  73.875  1.00  0.00    -0.504 OA
ATOM     19  H   UNL     1     138.716 -18.536  73.169  1.00  0.00     0.293 HD
ENDBRANCH  15  18
BRANCH  17  20
ATOM     20  O   UNL     1     135.980 -18.678  75.738  1.00  0.00    -0.504 OA
ATOM     21  H   UNL     1     135.258 -18.158  76.223  1.00  0.00     0.293 HD
ENDBRANCH  17  20
ENDBRANCH   1  12
BRANCH   2  22
ATOM     22  O   UNL     1     139.162 -15.937  79.276  1.00  0.00    -0.502 OA
ATOM     23  H   UNL     1     138.259 -15.479  79.254  1.00  0.00     0.293 HD
ENDBRANCH   2  22
BRANCH   9  24
ATOM     24  O   UNL     1     140.384 -21.840  84.175  1.00  0.00    -0.508 OA
ATOM     25  H   UNL     1     139.853 -22.050  85.013  1.00  0.00     0.293 HD
ENDBRANCH   9  24
TORSDOF 5
ENDMDL
MODEL 3
REMARK VINA RESULT:    -8.327      2.650      4.245
REMARK INTER + INTRA:         -10.006
REMARK INTER:                  -9.717
REMARK INTRA:                  -0.289
REMARK UNBOUND:                -0.219
REMARK SMILES O=c1c(O)c(-c2ccc(O)c(O)c2)oc2cc(O)ccc12
REMARK SMILES IDX 5 1 3 2 2 3 1 4 21 5 15 6 14 7 16 8 17 9 19 10 20 11 6 12
REMARK SMILES IDX 7 13 8 14 9 15 13 16 11 17 10 18 12 20 4 22 18 24
REMARK H PARENT 10 19 12 21 4 23 18 25
REMARK Flexibility Score: inf
ROOT
ATOM      1  C   UNL     1     139.442 -18.199  79.607  1.00  0.00     0.180 A 
ATOM      2  C   UNL     1     139.372 -16.954  80.265  1.00  0.00     0.208 A 
ATOM      3  C   UNL     1     139.604 -16.904  81.649  1.00  0.00     0.235 A 
ATOM      4  O   UNL     1     139.558 -15.801  82.257  1.00  0.00    -0.285 OA
ATOM      5  C   UNL     1     139.878 -18.092  82.344  1.00  0.00     0.069 A 
ATOM      6  C   UNL     1     139.906 -19.303  81.618  1.00  0.00     0.142 A 
ATOM      7  O   UNL     1     139.690 -19.304  80.307  1.00  0.00    -0.452 OA
ATOM      8  C   UNL     1     140.166 -20.509  82.277  1.00  0.00     0.094 A 
ATOM      9  C   UNL     1     140.401 -20.523  83.656  1.00  0.00     0.119 A 
ATOM     10  C   UNL     1     140.375 -19.323  84.380  1.00  0.00     0.047 A 
ATOM     11  C   UNL     1     140.115 -18.113  83.731  1.00  0.00     0.020 A 
ENDROOT
BRANCH   1  12
ATOM     12  C   UNL     1     139.227 -18.330  78.148  1.00  0.00     0.025 A 
ATOM     13  C   UNL     1     137.918 -18.384  77.645  1.00  0.00     0.016 A 
ATOM     14  C   UNL     1     137.692 -18.529  76.274  1.00  0.00     0.051 A 
ATOM     15  C   UNL     1     138.768 -18.639  75.388  1.00  0.00     0.157 A 
ATOM     16  C   UNL     1     140.308 -18.462  77.258  1.00  0.00     0.062 A 
ATOM     17  C   UNL     1     140.082 -18.611  75.881  1.00  0.00     0.158 A 
BRANCH  15  18
ATOM     18  O   UNL     1     138.511 -18.781  74.024  1.00  0.00    -0.504 OA
ATOM     19  H   UNL     1     137.921 -19.521  73.662  1.00  0.00     0.293 HD
ENDBRANCH  15  18
BRANCH  17  20
ATOM     20  O   UNL     1     141.160 -18.734  75.005  1.00  0.00    -0.504 OA
ATOM     21  H   UNL     1     141.675 -19.602  74.916  1.00  0.00     0.293 HD
ENDBRANCH  17  20
ENDBRANCH   1  12
BRANCH   2  22
ATOM     22  O   UNL     1     139.049 -15.795  79.554  1.00  0.00    -0.502 OA
ATOM     23  H   UNL     1     139.503 -14.907  79.730  1.00  0.00     0.293 HD
ENDBRANCH   2  22
BRANCH   9  24
ATOM     24  O   UNL     1     140.659 -21.733  84.296  1.00  0.00    -0.508 OA
ATOM     25  H   UNL     1     140.333 -21.914  85.239  1.00  0.00     0.293 HD
ENDBRANCH   9  24
TORSDOF 5
ENDMDL
MODEL 4
REMARK VINA RESULT:    -8.074      2.265      6.997
REMARK INTER + INTRA:          -9.709
REMARK INTER:                  -9.883
REMARK INTRA:                   0.175
REMARK UNBOUND:                -0.219
REMARK SMILES O=c1c(O)c(-c2ccc(O)c(O)c2)oc2cc(O)ccc12
REMARK SMILES IDX 5 1 3 2 2 3 1 4 21 5 15 6 14 7 16 8 17 9 19 10 20 11 6 12
REMARK SMILES IDX 7 13 8 14 9 15 13 16 11 17 10 18 12 20 4 22 18 24
REMARK H PARENT 10 19 12 21 4 23 18 25
REMARK Flexibility Score: inf
ROOT
ATOM      1  C   UNL     1     140.104 -18.604  80.684  1.00  0.00     0.180 A 
ATOM      2  C   UNL     1     139.625 -17.284  80.561  1.00  0.00     0.208 A 
ATOM      3  C   UNL     1     139.611 -16.683  79.293  1.00  0.00     0.235 A 
ATOM      4  O   UNL     1     139.175 -15.507  79.157  1.00  0.00    -0.285 OA
ATOM      5  C   UNL     1     140.092 -17.399  78.186  1.00  0.00     0.069 A 
ATOM      6  C   UNL     1     140.579 -18.708  78.395  1.00  0.00     0.142 A 
ATOM      7  O   UNL     1     140.567 -19.243  79.611  1.00  0.00    -0.452 OA
ATOM      8  C   UNL     1     141.077 -19.449  77.318  1.00  0.00     0.094 A 
ATOM      9  C   UNL     1     141.092 -18.901  76.031  1.00  0.00     0.119 A 
ATOM     10  C   UNL     1     140.608 -17.603  75.820  1.00  0.00     0.047 A 
ATOM     11  C   UNL     1     140.111 -16.853  76.889  1.00  0.00     0.020 A 
ENDROOT
BRANCH   1  12
ATOM     12  C   UNL     1     140.134 -19.313  81.984  1.00  0.00     0.025 A 
ATOM     13  C   UNL     1     140.539 -18.623  83.137  1.00  0.00     0.016 A 
ATOM     14  C   UNL     1     140.595 -19.277  84.370  1.00  0.00     0.051 A 
ATOM     15  C   UNL     1     140.264 -20.632  84.467  1.00  0.00     0.157 A 
ATOM     16  C   UNL     1     139.822 -20.681  82.079  1.00  0.00     0.062 A 
ATOM     17  C   UNL     1     139.880 -21.340  83.317  1.00  0.00     0.158 A 
BRANCH  15  18
ATOM     18  O   UNL     1     140.327 -21.258  85.712  1.00  0.00    -0.504 OA
ATOM     19  H   UNL     1     139.501 -21.620  86.174  1.00  0.00     0.293 HD
ENDBRANCH  15  18
BRANCH  17  20
ATOM     20  O   UNL     1     139.563 -22.694  83.403  1.00  0.00    -0.504 OA
ATOM     21  H   UNL     1     140.184 -23.358  83.853  1.00  0.00     0.293 HD
ENDBRANCH  17  20
ENDBRANCH   1  12
BRANCH   2  22
ATOM     22  O   UNL     1     139.197 -16.579  81.690  1.00  0.00    -0.502 OA
ATOM     23  H   UNL     1     138.270 -16.177  81.758  1.00  0.00     0.293 HD
ENDBRANCH   2  22
BRANCH   9  24
ATOM     24  O   UNL     1     141.590 -19.654  74.970  1.00  0.00    -0.508 OA
ATOM     25  H   UNL     1     141.396 -20.646  74.886  1.00  0.00     0.293 HD
ENDBRANCH   9  24
TORSDOF 5
ENDMDL
MODEL 5
REMARK VINA RESULT:    -8.001      2.557      3.381
REMARK INTER + INTRA:          -9.624
REMARK INTER:                  -9.571
REMARK INTRA:                  -0.053
REMARK UNBOUND:                -0.219
REMARK SMILES O=c1c(O)c(-c2ccc(O)c(O)c2)oc2cc(O)ccc12
REMARK SMILES IDX 5 1 3 2 2 3 1 4 21 5 15 6 14 7 16 8 17 9 19 10 20 11 6 12
REMARK SMILES IDX 7 13 8 14 9 15 13 16 11 17 10 18 12 20 4 22 18 24
REMARK H PARENT 10 19 12 21 4 23 18 25
REMARK Flexibility Score: inf
ROOT
ATOM      1  C   UNL     1     139.323 -17.433  77.570  1.00  0.00     0.180 A 
ATOM      2  C   UNL     1     138.722 -17.689  76.320  1.00  0.00     0.208 A 
ATOM      3  C   UNL     1     138.048 -18.905  76.129  1.00  0.00     0.235 A 
ATOM      4  O   UNL     1     137.493 -19.152  75.024  1.00  0.00    -0.285 OA
ATOM      5  C   UNL     1     138.007 -19.842  77.173  1.00  0.00     0.069 A 
ATOM      6  C   UNL     1     138.655 -19.522  78.386  1.00  0.00     0.142 A 
ATOM      7  O   UNL     1     139.274 -18.355  78.529  1.00  0.00    -0.452 OA
ATOM      8  C   UNL     1     138.644 -20.434  79.447  1.00  0.00     0.094 A 
ATOM      9  C   UNL     1     137.992 -21.664  79.314  1.00  0.00     0.119 A 
ATOM     10  C   UNL     1     137.347 -21.985  78.111  1.00  0.00     0.047 A 
ATOM     11  C   UNL     1     137.353 -21.081  77.045  1.00  0.00     0.020 A 
ENDROOT
BRANCH   1  12
ATOM     12  C   UNL     1     140.036 -16.167  77.855  1.00  0.00     0.025 A 
ATOM     13  C   UNL     1     141.329 -16.211  78.400  1.00  0.00     0.016 A 
ATOM     14  C   UNL     1     142.012 -15.029  78.697  1.00  0.00     0.051 A 
ATOM     15  C   UNL     1     141.410 -13.788  78.469  1.00  0.00     0.157 A 
ATOM     16  C   UNL     1     139.424 -14.918  77.646  1.00  0.00     0.062 A 
ATOM     17  C   UNL     1     140.108 -13.731  77.946  1.00  0.00     0.158 A 
BRANCH  15  18
ATOM     18  O   UNL     1     142.117 -12.625  78.773  1.00  0.00    -0.504 OA
ATOM     19  H   UNL     1     143.130 -12.597  78.774  1.00  0.00     0.293 HD
ENDBRANCH  15  18
BRANCH  17  20
ATOM     20  O   UNL     1     139.495 -12.497  77.730  1.00  0.00    -0.504 OA
ATOM     21  H   UNL     1     138.831 -12.359  76.977  1.00  0.00     0.293 HD
ENDBRANCH  17  20
ENDBRANCH   1  12
BRANCH   2  22
ATOM     22  O   UNL     1     138.822 -16.758  75.284  1.00  0.00    -0.502 OA
ATOM     23  H   UNL     1     139.583 -16.769  74.615  1.00  0.00     0.293 HD
ENDBRANCH   2  22
BRANCH   9  24
ATOM     24  O   UNL     1     137.991 -22.560  80.380  1.00  0.00    -0.508 OA
ATOM     25  H   UNL     1     137.129 -22.856  80.823  1.00  0.00     0.293 HD
ENDBRANCH   9  24
TORSDOF 5
ENDMDL
MODEL 6
REMARK VINA RESULT:    -7.763      2.670      6.789
REMARK INTER + INTRA:          -9.344
REMARK INTER:                  -9.703
REMARK INTRA:                   0.360
REMARK UNBOUND:                -0.219
REMARK SMILES O=c1c(O)c(-c2ccc(O)c(O)c2)oc2cc(O)ccc12
REMARK SMILES IDX 5 1 3 2 2 3 1 4 21 5 15 6 14 7 16 8 17 9 19 10 20 11 6 12
REMARK SMILES IDX 7 13 8 14 9 15 13 16 11 17 10 18 12 20 4 22 18 24
REMARK H PARENT 10 19 12 21 4 23 18 25
REMARK Flexibility Score: inf
ROOT
ATOM      1  C   UNL     1     139.753 -19.687  80.100  1.00  0.00     0.180 A 
ATOM      2  C   UNL     1     138.956 -20.596  79.374  1.00  0.00     0.208 A 
ATOM      3  C   UNL     1     138.874 -20.460  77.979  1.00  0.00     0.235 A 
ATOM      4  O   UNL     1     138.177 -21.268  77.307  1.00  0.00    -0.285 OA
ATOM      5  C   UNL     1     139.566 -19.416  77.346  1.00  0.00     0.069 A 
ATOM      6  C   UNL     1     140.323 -18.532  78.146  1.00  0.00     0.142 A 
ATOM      7  O   UNL     1     140.381 -18.701  79.462  1.00  0.00    -0.452 OA
ATOM      8  C   UNL     1     141.018 -17.473  77.553  1.00  0.00     0.094 A 
ATOM      9  C   UNL     1     140.970 -17.285  76.167  1.00  0.00     0.119 A 
ATOM     10  C   UNL     1     140.221 -18.162  75.370  1.00  0.00     0.047 A 
ATOM     11  C   UNL     1     139.522 -19.222  75.953  1.00  0.00     0.020 A 
ENDROOT
BRANCH   1  12
ATOM     12  C   UNL     1     139.905 -19.775  81.570  1.00  0.00     0.025 A 
ATOM     13  C   UNL     1     140.385 -18.664  82.282  1.00  0.00     0.016 A 
ATOM     14  C   UNL     1     140.556 -18.732  83.667  1.00  0.00     0.051 A 
ATOM     15  C   UNL     1     140.266 -19.911  84.359  1.00  0.00     0.157 A 
ATOM     16  C   UNL     1     139.633 -20.967  82.265  1.00  0.00     0.062 A 
ATOM     17  C   UNL     1     139.806 -21.037  83.655  1.00  0.00     0.158 A 
BRANCH  15  18
ATOM     18  O   UNL     1     140.444 -19.948  85.741  1.00  0.00    -0.504 OA
ATOM     19  H   UNL     1     140.453 -20.819  86.260  1.00  0.00     0.293 HD
ENDBRANCH  15  18
BRANCH  17  20
ATOM     20  O   UNL     1     139.529 -22.221  84.336  1.00  0.00    -0.504 OA
ATOM     21  H   UNL     1     139.295 -23.075  83.843  1.00  0.00     0.293 HD
ENDBRANCH  17  20
ENDBRANCH   1  12
BRANCH   2  22
ATOM     22  O   UNL     1     138.240 -21.595  80.037  1.00  0.00    -0.502 OA
ATOM     23  H   UNL     1     138.107 -21.591  81.041  1.00  0.00     0.293 HD
ENDBRANCH   2  22
BRANCH   9  24
ATOM     24  O   UNL     1     141.669 -16.226  75.594  1.00  0.00    -0.508 OA
ATOM     25  H   UNL     1     141.192 -15.481  75.099  1.00  0.00     0.293 HD
ENDBRANCH   9  24
TORSDOF 5
ENDMDL
MODEL 7
REMARK VINA RESULT:    -7.756      2.762      3.621
REMARK INTER + INTRA:          -9.335
REMARK INTER:                  -9.021
REMARK INTRA:                  -0.314
REMARK UNBOUND:                -0.219
REMARK SMILES O=c1c(O)c(-c2ccc(O)c(O)c2)oc2cc(O)ccc12
REMARK SMILES IDX 5 1 3 2 2 3 1 4 21 5 15 6 14 7 16 8 17 9 19 10 20 11 6 12
REMARK SMILES IDX 7 13 8 14 9 15 13 16 11 17 10 18 12 20 4 22 18 24
REMARK H PARENT 10 19 12 21 4 23 18 25
REMARK Flexibility Score: inf
ROOT
ATOM      1  C   UNL     1     138.893 -20.123  78.882  1.00  0.00     0.180 A 
ATOM      2  C   UNL     1     137.898 -20.972  78.356  1.00  0.00     0.208 A 
ATOM      3  C   UNL     1     137.306 -21.925  79.199  1.00  0.00     0.235 A 
ATOM      4  O   UNL     1     136.406 -22.689  78.755  1.00  0.00    -0.285 OA
ATOM      5  C   UNL     1     137.729 -22.023  80.534  1.00  0.00     0.069 A 
ATOM      6  C   UNL     1     138.748 -21.153  80.979  1.00  0.00     0.142 A 
ATOM      7  O   UNL     1     139.277 -20.259  80.150  1.00  0.00    -0.452 OA
ATOM      8  C   UNL     1     139.205 -21.227  82.299  1.00  0.00     0.094 A 
ATOM      9  C   UNL     1     138.655 -22.160  83.185  1.00  0.00     0.119 A 
ATOM     10  C   UNL     1     137.643 -23.025  82.747  1.00  0.00     0.047 A 
ATOM     11  C   UNL     1     137.180 -22.959  81.429  1.00  0.00     0.020 A 
ENDROOT
BRANCH   1  12
ATOM     12  C   UNL     1     139.552 -19.081  78.062  1.00  0.00     0.025 A 
ATOM     13  C   UNL     1     140.825 -19.328  77.525  1.00  0.00     0.016 A 
ATOM     14  C   UNL     1     141.474 -18.352  76.766  1.00  0.00     0.051 A 
ATOM     15  C   UNL     1     140.871 -17.111  76.545  1.00  0.00     0.157 A 
ATOM     16  C   UNL     1     138.955 -17.824  77.857  1.00  0.00     0.062 A 
ATOM     17  C   UNL     1     139.608 -16.842  77.097  1.00  0.00     0.158 A 
BRANCH  15  18
ATOM     18  O   UNL     1     141.543 -16.156  75.781  1.00  0.00    -0.504 OA
ATOM     19  H   UNL     1     141.059 -15.558  75.122  1.00  0.00     0.293 HD
ENDBRANCH  15  18
BRANCH  17  20
ATOM     20  O   UNL     1     139.007 -15.601  76.893  1.00  0.00    -0.504 OA
ATOM     21  H   UNL     1     139.134 -15.084  76.030  1.00  0.00     0.293 HD
ENDBRANCH  17  20
ENDBRANCH   1  12
BRANCH   2  22
ATOM     22  O   UNL     1     137.531 -20.884  77.011  1.00  0.00    -0.502 OA
ATOM     23  H   UNL     1     138.215 -20.851  76.264  1.00  0.00     0.293 HD
ENDBRANCH   2  22
BRANCH   9  24
ATOM     24  O   UNL     1     139.121 -22.219  84.496  1.00  0.00    -0.508 OA
ATOM     25  H   UNL     1     139.646 -21.456  84.907  1.00  0.00     0.293 HD
ENDBRANCH   9  24
TORSDOF 5
ENDMDL
MODEL 8
REMARK VINA RESULT:    -7.737      1.450      6.785
REMARK INTER + INTRA:          -9.313
REMARK INTER:                  -9.741
REMARK INTRA:                   0.429
REMARK UNBOUND:                -0.219
REMARK SMILES O=c1c(O)c(-c2ccc(O)c(O)c2)oc2cc(O)ccc12
REMARK SMILES IDX 5 1 3 2 2 3 1 4 21 5 15 6 14 7 16 8 17 9 19 10 20 11 6 12
REMARK SMILES IDX 7 13 8 14 9 15 13 16 11 17 10 18 12 20 4 22 18 24
REMARK H PARENT 10 19 12 21 4 23 18 25
REMARK Flexibility Score: inf
ROOT
ATOM      1  C   UNL     1     139.928 -18.840  80.739  1.00  0.00     0.180 A 
ATOM      2  C   UNL     1     139.427 -19.492  79.594  1.00  0.00     0.208 A 
ATOM      3  C   UNL     1     139.387 -18.792  78.378  1.00  0.00     0.235 A 
ATOM      4  O   UNL     1     138.954 -19.358  77.337  1.00  0.00    -0.285 OA
ATOM      5  C   UNL     1     139.825 -17.459  78.335  1.00  0.00     0.069 A 
ATOM      6  C   UNL     1     140.290 -16.868  79.531  1.00  0.00     0.142 A 
ATOM      7  O   UNL     1     140.319 -17.569  80.659  1.00  0.00    -0.452 OA
ATOM      8  C   UNL     1     140.725 -15.539  79.531  1.00  0.00     0.094 A 
ATOM      9  C   UNL     1     140.705 -14.789  78.350  1.00  0.00     0.119 A 
ATOM     10  C   UNL     1     140.245 -15.373  77.161  1.00  0.00     0.047 A 
ATOM     11  C   UNL     1     139.807 -16.700  77.151  1.00  0.00     0.020 A 
ENDROOT
BRANCH   1  12
ATOM     12  C   UNL     1     140.019 -19.516  82.053  1.00  0.00     0.025 A 
ATOM     13  C   UNL     1     140.327 -18.763  83.197  1.00  0.00     0.016 A 
ATOM     14  C   UNL     1     140.439 -19.384  84.443  1.00  0.00     0.051 A 
ATOM     15  C   UNL     1     140.260 -20.765  84.564  1.00  0.00     0.157 A 
ATOM     16  C   UNL     1     139.860 -20.908  82.173  1.00  0.00     0.062 A 
ATOM     17  C   UNL     1     139.974 -21.533  83.424  1.00  0.00     0.158 A 
BRANCH  15  18
ATOM     18  O   UNL     1     140.375 -21.356  85.822  1.00  0.00    -0.504 OA
ATOM     19  H   UNL     1     139.573 -21.497  86.425  1.00  0.00     0.293 HD
ENDBRANCH  15  18
BRANCH  17  20
ATOM     20  O   UNL     1     139.809 -22.913  83.534  1.00  0.00    -0.504 OA
ATOM     21  H   UNL     1     140.603 -23.539  83.596  1.00  0.00     0.293 HD
ENDBRANCH  17  20
ENDBRANCH   1  12
BRANCH   2  22
ATOM     22  O   UNL     1     138.953 -20.804  79.678  1.00  0.00    -0.502 OA
ATOM     23  H   UNL     1     139.541 -21.606  79.485  1.00  0.00     0.293 HD
ENDBRANCH   2  22
BRANCH   9  24
ATOM     24  O   UNL     1     141.142 -13.467  78.368  1.00  0.00    -0.508 OA
ATOM     25  H   UNL     1     141.122 -12.913  79.217  1.00  0.00     0.293 HD
ENDBRANCH   9  24
TORSDOF 5
ENDMDL
MODEL 9
REMARK VINA RESULT:    -7.454      2.640      4.330
REMARK INTER + INTRA:          -8.981
REMARK INTER:                  -8.670
REMARK INTRA:                  -0.310
REMARK UNBOUND:                -0.219
REMARK SMILES O=c1c(O)c(-c2ccc(O)c(O)c2)oc2cc(O)ccc12
REMARK SMILES IDX 5 1 3 2 2 3 1 4 21 5 15 6 14 7 16 8 17 9 19 10 20 11 6 12
REMARK SMILES IDX 7 13 8 14 9 15 13 16 11 17 10 18 12 20 4 22 18 24
REMARK H PARENT 10 19 12 21 4 23 18 25
REMARK Flexibility Score: inf
ROOT
ATOM      1  C   UNL     1     139.400 -19.755  79.426  1.00  0.00     0.180 A 
ATOM      2  C   UNL     1     139.725 -19.627  80.792  1.00  0.00     0.208 A 
ATOM      3  C   UNL     1     139.215 -20.567  81.701  1.00  0.00     0.235 A 
ATOM      4  O   UNL     1     139.502 -20.479  82.926  1.00  0.00    -0.285 OA
ATOM      5  C   UNL     1     138.382 -21.596  81.235  1.00  0.00     0.069 A 
ATOM      6  C   UNL     1     138.084 -21.642  79.855  1.00  0.00     0.142 A 
ATOM      7  O   UNL     1     138.594 -20.737  79.027  1.00  0.00    -0.452 OA
ATOM      8  C   UNL     1     137.249 -22.646  79.354  1.00  0.00     0.094 A 
ATOM      9  C   UNL     1     136.708 -23.609  80.212  1.00  0.00     0.119 A 
ATOM     10  C   UNL     1     137.003 -23.566  81.582  1.00  0.00     0.047 A 
ATOM     11  C   UNL     1     137.835 -22.566  82.093  1.00  0.00     0.020 A 
ENDROOT
BRANCH   1  12
ATOM     12  C   UNL     1     139.913 -18.815  78.404  1.00  0.00     0.025 A 
ATOM     13  C   UNL     1     141.104 -19.115  77.724  1.00  0.00     0.016 A 
ATOM     14  C   UNL     1     141.617 -18.232  76.771  1.00  0.00     0.051 A 
ATOM     15  C   UNL     1     140.958 -17.031  76.493  1.00  0.00     0.157 A 
ATOM     16  C   UNL     1     139.262 -17.596  78.138  1.00  0.00     0.062 A 
ATOM     17  C   UNL     1     139.778 -16.707  77.183  1.00  0.00     0.158 A 
BRANCH  15  18
ATOM     18  O   UNL     1     141.492 -16.170  75.535  1.00  0.00    -0.504 OA
ATOM     19  H   UNL     1     141.534 -16.418  74.553  1.00  0.00     0.293 HD
ENDBRANCH  15  18
BRANCH  17  20
ATOM     20  O   UNL     1     139.123 -15.505  76.921  1.00  0.00    -0.504 OA
ATOM     21  H   UNL     1     138.615 -15.353  76.057  1.00  0.00     0.293 HD
ENDBRANCH  17  20
ENDBRANCH   1  12
BRANCH   2  22
ATOM     22  O   UNL     1     140.517 -18.564  81.233  1.00  0.00    -0.502 OA
ATOM     23  H   UNL     1     140.868 -17.851  80.604  1.00  0.00     0.293 HD
ENDBRANCH   2  22
BRANCH   9  24
ATOM     24  O   UNL     1     135.879 -24.602  79.695  1.00  0.00    -0.508 OA
ATOM     25  H   UNL     1     135.357 -24.464  78.837  1.00  0.00     0.293 HD
ENDBRANCH   9  24
TORSDOF 5
ENDMDL
