MODEL 1
REMARK VINA RESULT:     0.102      0.000      0.000
REMARK INTER + INTRA:           0.105
REMARK INTER:                   0.105
REMARK INTRA:                   0.000
REMARK UNBOUND:                 0.000
REMARK SMILES O=c1ccc2cc(O)ccc2o1
REMARK SMILES IDX 9 1 10 2 11 3 5 4 4 5 3 6 2 7 1 8 12 9 6 10 7 11 8 12
REMARK H PARENT 8 13
REMARK Flexibility Score: inf
ROOT
ATOM      1  C   UNL     1      -2.005   0.513   2.587  1.00  0.00     0.050 A 
ATOM      2  C   UNL     1      -2.412  -0.024   1.361  1.00  0.00     0.052 A 
ATOM      3  C   UNL     1      -3.543  -0.845   1.295  1.00  0.00     0.138 A 
ATOM      4  C   UNL     1      -4.273  -1.128   2.471  1.00  0.00     0.021 A 
ATOM      5  C   UNL     1      -5.400  -1.950   2.374  1.00  0.00     0.019 A 
ATOM      6  C   UNL     1      -5.767  -2.464   1.131  1.00  0.00     0.094 A 
ATOM      7  C   UNL     1      -4.997  -2.139   0.008  1.00  0.00     0.336 A 
ATOM      8  O   UNL     1      -5.313  -2.593  -1.122  1.00  0.00    -0.246 OA
ATOM      9  O   UNL     1      -3.929  -1.354   0.128  1.00  0.00    -0.423 OA
ATOM     10  C   UNL     1      -3.861  -0.588   3.697  1.00  0.00     0.058 A 
ATOM     11  C   UNL     1      -2.724   0.234   3.755  1.00  0.00     0.116 A 
ENDROOT
BRANCH  11  12
ATOM     12  O   UNL     1      -2.303   0.778   4.966  1.00  0.00    -0.508 OA
ATOM     13  H   UNL     1      -2.156   1.775   5.076  1.00  0.00     0.293 HD
ENDBRANCH  11  12
TORSDOF 1
ENDMDL
MODEL 2
REMARK VINA RESULT:     0.132      1.310      4.268
REMARK INTER + INTRA:           0.136
REMARK INTER:                   0.136
REMARK INTRA:                   0.000
REMARK UNBOUND:                 0.000
REMARK SMILES O=c1ccc2cc(O)ccc2o1
REMARK SMILES IDX 9 1 10 2 11 3 5 4 4 5 3 6 2 7 1 8 12 9 6 10 7 11 8 12
REMARK H PARENT 8 13
REMARK Flexibility Score: inf
ROOT
ATOM      1  C   UNL     1      -4.948  -1.920  -0.055  1.00  0.00     0.050 A 
ATOM      2  C   UNL     1      -3.807  -1.145   0.186  1.00  0.00     0.052 A 
ATOM      3  C   UNL     1      -3.457  -0.801   1.496  1.00  0.00     0.138 A 
ATOM      4  C   UNL     1      -4.257  -1.239   2.573  1.00  0.00     0.021 A 
ATOM      5  C   UNL     1      -3.881  -0.881   3.872  1.00  0.00     0.019 A 
ATOM      6  C   UNL     1      -2.737  -0.108   4.064  1.00  0.00     0.094 A 
ATOM      7  C   UNL     1      -1.991   0.290   2.948  1.00  0.00     0.336 A 
ATOM      8  O   UNL     1      -0.956   0.988   3.100  1.00  0.00    -0.246 OA
ATOM      9  O   UNL     1      -2.372  -0.065   1.723  1.00  0.00    -0.423 OA
ATOM     10  C   UNL     1      -5.399  -2.015   2.327  1.00  0.00     0.058 A 
ATOM     11  C   UNL     1      -5.744  -2.355   1.010  1.00  0.00     0.116 A 
ENDROOT
BRANCH  11  12
ATOM     12  O   UNL     1      -6.875  -3.125   0.750  1.00  0.00    -0.508 OA
ATOM     13  H   UNL     1      -7.753  -2.700   0.471  1.00  0.00     0.293 HD
ENDBRANCH  11  12
TORSDOF 1
ENDMDL
MODEL 3
REMARK VINA RESULT:     1.698      1.310      2.124
REMARK INTER + INTRA:           1.747
REMARK INTER:                   1.747
REMARK INTRA:                   0.000
REMARK UNBOUND:                 0.000
REMARK SMILES O=c1ccc2cc(O)ccc2o1
REMARK SMILES IDX 9 1 10 2 11 3 5 4 4 5 3 6 2 7 1 8 12 9 6 10 7 11 8 12
REMARK H PARENT 8 13
REMARK Flexibility Score: inf
ROOT
ATOM      1  C   UNL     1      -2.821  -0.181   4.123  1.00  0.00     0.050 A 
ATOM      2  C   UNL     1      -3.942  -0.972   3.851  1.00  0.00     0.052 A 
ATOM      3  C   UNL     1      -4.259  -1.308   2.530  1.00  0.00     0.138 A 
ATOM      4  C   UNL     1      -3.443  -0.848   1.474  1.00  0.00     0.021 A 
ATOM      5  C   UNL     1      -3.784  -1.201   0.165  1.00  0.00     0.019 A 
ATOM      6  C   UNL     1      -4.912  -1.990  -0.059  1.00  0.00     0.094 A 
ATOM      7  C   UNL     1      -5.673  -2.411   1.037  1.00  0.00     0.336 A 
ATOM      8  O   UNL     1      -6.694  -3.124   0.855  1.00  0.00    -0.246 OA
ATOM      9  O   UNL     1      -5.326  -2.061   2.273  1.00  0.00    -0.423 OA
ATOM     10  C   UNL     1      -2.320  -0.055   1.752  1.00  0.00     0.058 A 
ATOM     11  C   UNL     1      -2.009   0.279   3.079  1.00  0.00     0.116 A 
ENDROOT
BRANCH  11  12
ATOM     12  O   UNL     1      -0.897   1.064   3.371  1.00  0.00    -0.508 OA
ATOM     13  H   UNL     1      -0.517   1.118   4.309  1.00  0.00     0.293 HD
ENDBRANCH  11  12
TORSDOF 1
ENDMDL
