MODEL 1
REMARK VINA RESULT:    -4.728      0.000      0.000
REMARK INTER + INTRA:          -6.554
REMARK INTER:                  -6.110
REMARK INTRA:                  -0.443
REMARK UNBOUND:                -0.443
REMARK SMILES C=CC(=O)CCCCC
REMARK SMILES IDX 6 1 7 2 8 3 9 4 5 5 3 6 4 7 2 8 1 9
REMARK H PARENT
REMARK Flexibility Score: inf
ROOT
ATOM      1  C   UNL     1      -7.460  30.954  23.753  1.00  0.00     0.008 C 
ENDROOT
BRANCH   1   2
ATOM      2  C   UNL     1      -7.110  29.900  22.695  1.00  0.00     0.000 C 
BRANCH   2   3
ATOM      3  C   UNL     1      -8.373  29.373  22.006  1.00  0.00    -0.003 C 
ATOM      4  C   UNL     1      -8.557  27.879  22.259  1.00  0.00     0.004 C 
ENDBRANCH   2   3
ENDBRANCH   1   2
BRANCH   1   5
ATOM      5  C   UNL     1      -8.565  31.896  23.249  1.00  0.00     0.080 C 
BRANCH   5   6
ATOM      6  C   UNL     1      -8.029  33.064  22.454  1.00  0.00     0.155 C 
ATOM      7  O   UNL     1      -7.524  34.055  23.048  1.00  0.00    -0.295 OA
BRANCH   6   8
ATOM      8  C   UNL     1      -8.076  33.089  20.978  1.00  0.00     0.039 C 
ATOM      9  C   UNL     1      -7.006  32.907  20.202  1.00  0.00     0.012 C 
ENDBRANCH   6   8
ENDBRANCH   5   6
ENDBRANCH   1   5
TORSDOF 5
ENDMDL
MODEL 2
REMARK VINA RESULT:    -4.592     16.027     17.054
REMARK INTER + INTRA:          -6.378
REMARK INTER:                  -5.836
REMARK INTRA:                  -0.541
REMARK UNBOUND:                -0.443
REMARK SMILES C=CC(=O)CCCCC
REMARK SMILES IDX 6 1 7 2 8 3 9 4 5 5 3 6 4 7 2 8 1 9
REMARK H PARENT
REMARK Flexibility Score: inf
ROOT
ATOM      1  C   UNL     1       8.002  33.020  28.170  1.00  0.00     0.008 C 
ENDROOT
BRANCH   1   2
ATOM      2  C   UNL     1       9.263  32.841  29.024  1.00  0.00     0.000 C 
BRANCH   2   3
ATOM      3  C   UNL     1      10.125  31.689  28.495  1.00  0.00    -0.003 C 
ATOM      4  C   UNL     1      10.111  31.646  26.969  1.00  0.00     0.004 C 
ENDBRANCH   2   3
ENDBRANCH   1   2
BRANCH   1   5
ATOM      5  C   UNL     1       6.823  32.228  28.755  1.00  0.00     0.080 C 
BRANCH   5   6
ATOM      6  C   UNL     1       6.280  31.187  27.803  1.00  0.00     0.155 C 
ATOM      7  O   UNL     1       5.712  31.542  26.734  1.00  0.00    -0.295 OA
BRANCH   6   8
ATOM      8  C   UNL     1       6.390  29.741  28.084  1.00  0.00     0.039 C 
ATOM      9  C   UNL     1       7.215  29.228  28.998  1.00  0.00     0.012 C 
ENDBRANCH   6   8
ENDBRANCH   5   6
ENDBRANCH   1   5
TORSDOF 5
ENDMDL
MODEL 3
REMARK VINA RESULT:    -4.511      1.700      3.809
REMARK INTER + INTRA:          -6.273
REMARK INTER:                  -5.735
REMARK INTRA:                  -0.538
REMARK UNBOUND:                -0.443
REMARK SMILES C=CC(=O)CCCCC
REMARK SMILES IDX 6 1 7 2 8 3 9 4 5 5 3 6 4 7 2 8 1 9
REMARK H PARENT
REMARK Flexibility Score: inf
ROOT
ATOM      1  C   UNL     1      -7.548  33.986  23.494  1.00  0.00     0.008 C 
ENDROOT
BRANCH   1   2
ATOM      2  C   UNL     1      -7.564  34.497  22.048  1.00  0.00     0.000 C 
BRANCH   2   3
ATOM      3  C   UNL     1      -8.139  33.440  21.099  1.00  0.00    -0.003 C 
ATOM      4  C   UNL     1      -7.096  32.991  20.078  1.00  0.00     0.004 C 
ENDBRANCH   2   3
ENDBRANCH   1   2
BRANCH   1   5
ATOM      5  C   UNL     1      -8.592  32.877  23.699  1.00  0.00     0.080 C 
BRANCH   5   6
ATOM      6  C   UNL     1      -8.026  31.650  24.375  1.00  0.00     0.155 C 
ATOM      7  O   UNL     1      -8.382  31.353  25.548  1.00  0.00    -0.295 OA
BRANCH   6   8
ATOM      8  C   UNL     1      -7.053  30.767  23.700  1.00  0.00     0.039 C 
ATOM      9  C   UNL     1      -7.339  30.047  22.614  1.00  0.00     0.012 C 
ENDBRANCH   6   8
ENDBRANCH   5   6
ENDBRANCH   1   5
TORSDOF 5
ENDMDL
MODEL 4
REMARK VINA RESULT:    -4.472      1.614      3.821
REMARK INTER + INTRA:          -6.222
REMARK INTER:                  -5.719
REMARK INTRA:                  -0.503
REMARK UNBOUND:                -0.443
REMARK SMILES C=CC(=O)CCCCC
REMARK SMILES IDX 6 1 7 2 8 3 9 4 5 5 3 6 4 7 2 8 1 9
REMARK H PARENT
REMARK Flexibility Score: inf
ROOT
ATOM      1  C   UNL     1      -9.126  32.641  23.113  1.00  0.00     0.008 C 
ENDROOT
BRANCH   1   2
ATOM      2  C   UNL     1      -9.069  32.800  21.588  1.00  0.00     0.000 C 
BRANCH   2   3
ATOM      3  C   UNL     1      -7.832  33.602  21.167  1.00  0.00    -0.003 C 
ATOM      4  C   UNL     1      -7.115  32.934  19.997  1.00  0.00     0.004 C 
ENDBRANCH   2   3
ENDBRANCH   1   2
BRANCH   1   5
ATOM      5  C   UNL     1      -7.735  32.336  23.688  1.00  0.00     0.080 C 
BRANCH   5   6
ATOM      6  C   UNL     1      -7.512  30.864  23.949  1.00  0.00     0.155 C 
ATOM      7  O   UNL     1      -7.749  30.380  25.089  1.00  0.00    -0.295 OA
BRANCH   6   8
ATOM      8  C   UNL     1      -7.017  29.952  22.897  1.00  0.00     0.039 C 
ATOM      9  C   UNL     1      -7.791  29.075  22.256  1.00  0.00     0.012 C 
ENDBRANCH   6   8
ENDBRANCH   5   6
ENDBRANCH   1   5
TORSDOF 5
ENDMDL
MODEL 5
REMARK VINA RESULT:    -4.429      1.572      2.043
REMARK INTER + INTRA:          -6.167
REMARK INTER:                  -5.901
REMARK INTRA:                  -0.266
REMARK UNBOUND:                -0.443
REMARK SMILES C=CC(=O)CCCCC
REMARK SMILES IDX 6 1 7 2 8 3 9 4 5 5 3 6 4 7 2 8 1 9
REMARK H PARENT
REMARK Flexibility Score: inf
ROOT
ATOM      1  C   UNL     1      -7.284  30.994  21.860  1.00  0.00     0.008 C 
ENDROOT
BRANCH   1   2
ATOM      2  C   UNL     1      -7.579  30.383  23.235  1.00  0.00     0.000 C 
BRANCH   2   3
ATOM      3  C   UNL     1      -8.698  29.340  23.143  1.00  0.00    -0.003 C 
ATOM      4  C   UNL     1      -8.366  28.265  22.111  1.00  0.00     0.004 C 
ENDBRANCH   2   3
ENDBRANCH   1   2
BRANCH   1   5
ATOM      5  C   UNL     1      -8.293  32.101  21.519  1.00  0.00     0.080 C 
BRANCH   5   6
ATOM      6  C   UNL     1      -7.636  33.368  21.022  1.00  0.00     0.155 C 
ATOM      7  O   UNL     1      -7.109  33.399  19.876  1.00  0.00    -0.295 OA
BRANCH   6   8
ATOM      8  C   UNL     1      -7.587  34.595  21.843  1.00  0.00     0.039 C 
ATOM      9  C   UNL     1      -7.797  34.610  23.160  1.00  0.00     0.012 C 
ENDBRANCH   6   8
ENDBRANCH   5   6
ENDBRANCH   1   5
TORSDOF 5
ENDMDL
MODEL 6
REMARK VINA RESULT:    -4.317      1.647      4.220
REMARK INTER + INTRA:          -6.022
REMARK INTER:                  -5.732
REMARK INTRA:                  -0.289
REMARK UNBOUND:                -0.443
REMARK SMILES C=CC(=O)CCCCC
REMARK SMILES IDX 6 1 7 2 8 3 9 4 5 5 3 6 4 7 2 8 1 9
REMARK H PARENT
REMARK Flexibility Score: inf
ROOT
ATOM      1  C   UNL     1      -7.432  32.373  21.003  1.00  0.00     0.008 C 
ENDROOT
BRANCH   1   2
ATOM      2  C   UNL     1      -7.532  33.898  21.136  1.00  0.00     0.000 C 
BRANCH   2   3
ATOM      3  C   UNL     1      -8.235  34.290  22.439  1.00  0.00    -0.003 C 
ATOM      4  C   UNL     1      -7.270  34.249  23.621  1.00  0.00     0.004 C 
ENDBRANCH   2   3
ENDBRANCH   1   2
BRANCH   1   5
ATOM      5  C   UNL     1      -8.762  31.700  21.374  1.00  0.00     0.080 C 
BRANCH   5   6
ATOM      6  C   UNL     1      -8.629  30.716  22.514  1.00  0.00     0.155 C 
ATOM      7  O   UNL     1      -9.150  30.972  23.634  1.00  0.00    -0.295 OA
BRANCH   6   8
ATOM      8  C   UNL     1      -7.897  29.442  22.363  1.00  0.00     0.039 C 
ATOM      9  C   UNL     1      -8.471  28.304  21.969  1.00  0.00     0.012 C 
ENDBRANCH   6   8
ENDBRANCH   5   6
ENDBRANCH   1   5
TORSDOF 5
ENDMDL
MODEL 7
REMARK VINA RESULT:    -4.228      2.622      4.111
REMARK INTER + INTRA:          -5.907
REMARK INTER:                  -5.557
REMARK INTRA:                  -0.350
REMARK UNBOUND:                -0.443
REMARK SMILES C=CC(=O)CCCCC
REMARK SMILES IDX 6 1 7 2 8 3 9 4 5 5 3 6 4 7 2 8 1 9
REMARK H PARENT
REMARK Flexibility Score: inf
ROOT
ATOM      1  C   UNL     1      -7.561  32.537  23.639  1.00  0.00     0.008 C 
ENDROOT
BRANCH   1   2
ATOM      2  C   UNL     1      -8.377  32.539  22.341  1.00  0.00     0.000 C 
BRANCH   2   3
ATOM      3  C   UNL     1      -7.897  33.643  21.393  1.00  0.00    -0.003 C 
ATOM      4  C   UNL     1      -7.184  33.055  20.178  1.00  0.00     0.004 C 
ENDBRANCH   2   3
ENDBRANCH   1   2
BRANCH   1   5
ATOM      5  C   UNL     1      -8.481  32.468  24.868  1.00  0.00     0.080 C 
BRANCH   5   6
ATOM      6  C   UNL     1      -8.261  33.607  25.836  1.00  0.00     0.155 C 
ATOM      7  O   UNL     1      -8.236  33.387  27.078  1.00  0.00    -0.295 OA
BRANCH   6   8
ATOM      8  C   UNL     1      -8.072  34.997  25.374  1.00  0.00     0.039 C 
ATOM      9  C   UNL     1      -9.054  35.749  24.876  1.00  0.00     0.012 C 
ENDBRANCH   6   8
ENDBRANCH   5   6
ENDBRANCH   1   5
TORSDOF 5
ENDMDL
MODEL 8
REMARK VINA RESULT:    -4.191      2.120      4.388
REMARK INTER + INTRA:          -5.860
REMARK INTER:                  -5.523
REMARK INTRA:                  -0.337
REMARK UNBOUND:                -0.443
REMARK SMILES C=CC(=O)CCCCC
REMARK SMILES IDX 6 1 7 2 8 3 9 4 5 5 3 6 4 7 2 8 1 9
REMARK H PARENT
REMARK Flexibility Score: inf
ROOT
ATOM      1  C   UNL     1      -7.862  34.402  21.843  1.00  0.00     0.008 C 
ENDROOT
BRANCH   1   2
ATOM      2  C   UNL     1      -7.371  34.419  23.296  1.00  0.00     0.000 C 
BRANCH   2   3
ATOM      3  C   UNL     1      -8.494  34.836  24.251  1.00  0.00    -0.003 C 
ATOM      4  C   UNL     1      -7.970  35.017  25.673  1.00  0.00     0.004 C 
ENDBRANCH   2   3
ENDBRANCH   1   2
BRANCH   1   5
ATOM      5  C   UNL     1      -7.677  33.013  21.214  1.00  0.00     0.080 C 
BRANCH   5   6
ATOM      6  C   UNL     1      -8.722  32.017  21.660  1.00  0.00     0.155 C 
ATOM      7  O   UNL     1      -9.936  32.356  21.716  1.00  0.00    -0.295 OA
BRANCH   6   8
ATOM      8  C   UNL     1      -8.369  30.634  22.042  1.00  0.00     0.039 C 
ATOM      9  C   UNL     1      -7.222  30.303  22.636  1.00  0.00     0.012 C 
ENDBRANCH   6   8
ENDBRANCH   5   6
ENDBRANCH   1   5
TORSDOF 5
ENDMDL
MODEL 9
REMARK VINA RESULT:    -4.137      1.692      2.752
REMARK INTER + INTRA:          -5.790
REMARK INTER:                  -5.310
REMARK INTRA:                  -0.481
REMARK UNBOUND:                -0.443
REMARK SMILES C=CC(=O)CCCCC
REMARK SMILES IDX 6 1 7 2 8 3 9 4 5 5 3 6 4 7 2 8 1 9
REMARK H PARENT
REMARK Flexibility Score: inf
ROOT
ATOM      1  C   UNL     1      -8.770  31.786  22.484  1.00  0.00     0.008 C 
ENDROOT
BRANCH   1   2
ATOM      2  C   UNL     1      -7.544  30.923  22.163  1.00  0.00     0.000 C 
BRANCH   2   3
ATOM      3  C   UNL     1      -6.891  30.398  23.447  1.00  0.00    -0.003 C 
ATOM      4  C   UNL     1      -7.822  30.563  24.646  1.00  0.00     0.004 C 
ENDBRANCH   2   3
ENDBRANCH   1   2
BRANCH   1   5
ATOM      5  C   UNL     1      -8.726  33.115  21.714  1.00  0.00     0.080 C 
BRANCH   5   6
ATOM      6  C   UNL     1      -7.885  34.167  22.398  1.00  0.00     0.155 C 
ATOM      7  O   UNL     1      -7.300  35.051  21.715  1.00  0.00    -0.295 OA
BRANCH   6   8
ATOM      8  C   UNL     1      -7.718  34.199  23.865  1.00  0.00     0.039 C 
ATOM      9  C   UNL     1      -8.559  34.825  24.690  1.00  0.00     0.012 C 
ENDBRANCH   6   8
ENDBRANCH   5   6
ENDBRANCH   1   5
TORSDOF 5
ENDMDL
