MODEL 1
REMARK VINA RESULT:    -8.073      0.000      0.000
REMARK INTER + INTRA:          -9.737
REMARK INTER:                  -9.724
REMARK INTRA:                  -0.013
REMARK UNBOUND:                -0.013
REMARK SMILES O=c1c(O)c(-c2ccc(O)c(O)c2)oc2cc(O)cc(O)c12
REMARK SMILES IDX 5 1 3 2 2 3 1 4 22 5 20 6 19 7 17 8 16 9 15 10 14 11 6 12
REMARK SMILES IDX 7 13 8 14 9 15 13 16 11 17 10 18 12 20 4 22 21 24 18 26
REMARK H PARENT 10 19 12 21 4 23 21 25 18 27
REMARK Flexibility Score: inf
ROOT
ATOM      1  C   UNL     1     -13.733 -30.603 -13.900  1.00  0.00     0.180 A 
ATOM      2  C   UNL     1     -13.974 -29.700 -14.949  1.00  0.00     0.208 A 
ATOM      3  C   UNL     1     -14.180 -28.344 -14.648  1.00  0.00     0.238 A 
ATOM      4  O   UNL     1     -14.451 -27.550 -15.586  1.00  0.00    -0.285 OA
ATOM      5  C   UNL     1     -14.125 -27.905 -13.302  1.00  0.00     0.111 A 
ATOM      6  C   UNL     1     -14.278 -26.548 -12.885  1.00  0.00     0.134 A 
ATOM      7  C   UNL     1     -14.336 -26.249 -11.518  1.00  0.00     0.093 A 
ATOM      8  C   UNL     1     -14.181 -27.245 -10.555  1.00  0.00     0.123 A 
ATOM      9  C   UNL     1     -13.969 -28.566 -10.953  1.00  0.00     0.094 A 
ATOM     10  C   UNL     1     -13.944 -28.902 -12.308  1.00  0.00     0.146 A 
ATOM     11  O   UNL     1     -13.752 -30.172 -12.644  1.00  0.00    -0.452 OA
ENDROOT
BRANCH   1  12
ATOM     12  C   UNL     1     -13.482 -32.042 -14.141  1.00  0.00     0.025 A 
ATOM     13  C   UNL     1     -14.361 -32.818 -14.913  1.00  0.00     0.016 A 
ATOM     14  C   UNL     1     -14.090 -34.167 -15.146  1.00  0.00     0.051 A 
ATOM     15  C   UNL     1     -12.937 -34.766 -14.627  1.00  0.00     0.157 A 
ATOM     16  C   UNL     1     -12.314 -32.634 -13.637  1.00  0.00     0.062 A 
ATOM     17  C   UNL     1     -12.034 -33.988 -13.865  1.00  0.00     0.158 A 
BRANCH  15  18
ATOM     18  O   UNL     1     -12.728 -36.120 -14.893  1.00  0.00    -0.504 OA
ATOM     19  H   UNL     1     -11.868 -36.497 -15.266  1.00  0.00     0.293 HD
ENDBRANCH  15  18
BRANCH  17  20
ATOM     20  O   UNL     1     -10.859 -34.511 -13.324  1.00  0.00    -0.504 OA
ATOM     21  H   UNL     1     -10.357 -35.295 -13.714  1.00  0.00     0.293 HD
ENDBRANCH  17  20
ENDBRANCH   1  12
BRANCH   2  22
ATOM     22  O   UNL     1     -14.046 -30.157 -16.268  1.00  0.00    -0.502 OA
ATOM     23  H   UNL     1     -13.538 -30.972 -16.590  1.00  0.00     0.293 HD
ENDBRANCH   2  22
BRANCH   6  24
ATOM     24  O   UNL     1     -14.351 -25.465 -13.765  1.00  0.00    -0.507 OA
ATOM     25  H   UNL     1     -15.036 -25.366 -14.499  1.00  0.00     0.293 HD
ENDBRANCH   6  24
BRANCH   8  26
ATOM     26  O   UNL     1     -14.227 -26.908  -9.204  1.00  0.00    -0.508 OA
ATOM     27  H   UNL     1     -13.817 -27.505  -8.495  1.00  0.00     0.293 HD
ENDBRANCH   8  26
TORSDOF 6
ENDMDL
MODEL 2
REMARK VINA RESULT:    -8.058      2.462      7.683
REMARK INTER + INTRA:          -9.719
REMARK INTER:                 -10.161
REMARK INTRA:                   0.442
REMARK UNBOUND:                -0.013
REMARK SMILES O=c1c(O)c(-c2ccc(O)c(O)c2)oc2cc(O)cc(O)c12
REMARK SMILES IDX 5 1 3 2 2 3 1 4 22 5 20 6 19 7 17 8 16 9 15 10 14 11 6 12
REMARK SMILES IDX 7 13 8 14 9 15 13 16 11 17 10 18 12 20 4 22 21 24 18 26
REMARK H PARENT 10 19 12 21 4 23 21 25 18 27
REMARK Flexibility Score: inf
ROOT
ATOM      1  C   UNL     1     -12.560 -28.572 -10.579  1.00  0.00     0.180 A 
ATOM      2  C   UNL     1     -11.440 -29.396 -10.375  1.00  0.00     0.208 A 
ATOM      3  C   UNL     1     -11.236 -30.492 -11.229  1.00  0.00     0.238 A 
ATOM      4  O   UNL     1     -10.263 -31.258 -11.008  1.00  0.00    -0.285 OA
ATOM      5  C   UNL     1     -12.144 -30.739 -12.288  1.00  0.00     0.111 A 
ATOM      6  C   UNL     1     -12.013 -31.796 -13.238  1.00  0.00     0.134 A 
ATOM      7  C   UNL     1     -13.040 -32.025 -14.162  1.00  0.00     0.093 A 
ATOM      8  C   UNL     1     -14.161 -31.197 -14.213  1.00  0.00     0.123 A 
ATOM      9  C   UNL     1     -14.271 -30.124 -13.327  1.00  0.00     0.094 A 
ATOM     10  C   UNL     1     -13.280 -29.892 -12.370  1.00  0.00     0.146 A 
ATOM     11  O   UNL     1     -13.428 -28.868 -11.539  1.00  0.00    -0.452 OA
ENDROOT
BRANCH   1  12
ATOM     12  C   UNL     1     -12.828 -27.384  -9.736  1.00  0.00     0.025 A 
ATOM     13  C   UNL     1     -11.883 -26.917  -8.809  1.00  0.00     0.016 A 
ATOM     14  C   UNL     1     -12.150 -25.782  -8.042  1.00  0.00     0.051 A 
ATOM     15  C   UNL     1     -13.353 -25.083  -8.192  1.00  0.00     0.157 A 
ATOM     16  C   UNL     1     -14.027 -26.674  -9.904  1.00  0.00     0.062 A 
ATOM     17  C   UNL     1     -14.303 -25.533  -9.139  1.00  0.00     0.158 A 
BRANCH  15  18
ATOM     18  O   UNL     1     -13.559 -23.958  -7.392  1.00  0.00    -0.504 OA
ATOM     19  H   UNL     1     -14.356 -23.834  -6.785  1.00  0.00     0.293 HD
ENDBRANCH  15  18
BRANCH  17  20
ATOM     20  O   UNL     1     -15.520 -24.884  -9.351  1.00  0.00    -0.504 OA
ATOM     21  H   UNL     1     -15.801 -24.486 -10.235  1.00  0.00     0.293 HD
ENDBRANCH  17  20
ENDBRANCH   1  12
BRANCH   2  22
ATOM     22  O   UNL     1     -10.568 -29.147  -9.312  1.00  0.00    -0.502 OA
ATOM     23  H   UNL     1      -9.621 -28.816  -9.450  1.00  0.00     0.293 HD
ENDBRANCH   2  22
BRANCH   6  24
ATOM     24  O   UNL     1     -10.891 -32.625 -13.334  1.00  0.00    -0.507 OA
ATOM     25  H   UNL     1     -10.452 -33.088 -12.553  1.00  0.00     0.293 HD
ENDBRANCH   6  24
BRANCH   8  26
ATOM     26  O   UNL     1     -15.156 -31.445 -15.156  1.00  0.00    -0.508 OA
ATOM     27  H   UNL     1     -15.390 -32.387 -15.446  1.00  0.00     0.293 HD
ENDBRANCH   8  26
TORSDOF 6
ENDMDL
MODEL 3
REMARK VINA RESULT:    -7.826      2.040      6.808
REMARK INTER + INTRA:          -9.440
REMARK INTER:                  -9.524
REMARK INTRA:                   0.084
REMARK UNBOUND:                -0.013
REMARK SMILES O=c1c(O)c(-c2ccc(O)c(O)c2)oc2cc(O)cc(O)c12
REMARK SMILES IDX 5 1 3 2 2 3 1 4 22 5 20 6 19 7 17 8 16 9 15 10 14 11 6 12
REMARK SMILES IDX 7 13 8 14 9 15 13 16 11 17 10 18 12 20 4 22 21 24 18 26
REMARK H PARENT 10 19 12 21 4 23 21 25 18 27
REMARK Flexibility Score: inf
ROOT
ATOM      1  C   UNL     1     -12.885 -29.023 -11.995  1.00  0.00     0.180 A 
ATOM      2  C   UNL     1     -13.982 -28.650 -12.789  1.00  0.00     0.208 A 
ATOM      3  C   UNL     1     -14.505 -29.575 -13.708  1.00  0.00     0.238 A 
ATOM      4  O   UNL     1     -15.452 -29.217 -14.455  1.00  0.00    -0.285 OA
ATOM      5  C   UNL     1     -13.934 -30.867 -13.807  1.00  0.00     0.111 A 
ATOM      6  C   UNL     1     -14.408 -31.898 -14.674  1.00  0.00     0.134 A 
ATOM      7  C   UNL     1     -13.686 -33.093 -14.785  1.00  0.00     0.093 A 
ATOM      8  C   UNL     1     -12.546 -33.320 -14.015  1.00  0.00     0.123 A 
ATOM      9  C   UNL     1     -12.109 -32.343 -13.120  1.00  0.00     0.094 A 
ATOM     10  C   UNL     1     -12.787 -31.126 -13.014  1.00  0.00     0.146 A 
ATOM     11  O   UNL     1     -12.331 -30.219 -12.158  1.00  0.00    -0.452 OA
ENDROOT
BRANCH   1  12
ATOM     12  C   UNL     1     -12.296 -28.112 -10.987  1.00  0.00     0.025 A 
ATOM     13  C   UNL     1     -10.910 -27.901 -10.914  1.00  0.00     0.016 A 
ATOM     14  C   UNL     1     -10.380 -27.019  -9.971  1.00  0.00     0.051 A 
ATOM     15  C   UNL     1     -11.217 -26.322  -9.093  1.00  0.00     0.157 A 
ATOM     16  C   UNL     1     -13.140 -27.398 -10.123  1.00  0.00     0.062 A 
ATOM     17  C   UNL     1     -12.617 -26.511  -9.173  1.00  0.00     0.158 A 
BRANCH  15  18
ATOM     18  O   UNL     1     -10.623 -25.458  -8.171  1.00  0.00    -0.504 OA
ATOM     19  H   UNL     1      -9.772 -24.944  -8.346  1.00  0.00     0.293 HD
ENDBRANCH  15  18
BRANCH  17  20
ATOM     20  O   UNL     1     -13.516 -25.844  -8.338  1.00  0.00    -0.504 OA
ATOM     21  H   UNL     1     -13.422 -25.791  -7.335  1.00  0.00     0.293 HD
ENDBRANCH  17  20
ENDBRANCH   1  12
BRANCH   2  22
ATOM     22  O   UNL     1     -14.517 -27.362 -12.690  1.00  0.00    -0.502 OA
ATOM     23  H   UNL     1     -14.994 -26.910 -13.461  1.00  0.00     0.293 HD
ENDBRANCH   2  22
BRANCH   6  24
ATOM     24  O   UNL     1     -15.587 -31.809 -15.421  1.00  0.00    -0.507 OA
ATOM     25  H   UNL     1     -15.650 -31.424 -16.351  1.00  0.00     0.293 HD
ENDBRANCH   6  24
BRANCH   8  26
ATOM     26  O   UNL     1     -11.862 -34.527 -14.139  1.00  0.00    -0.508 OA
ATOM     27  H   UNL     1     -11.699 -34.954 -15.044  1.00  0.00     0.293 HD
ENDBRANCH   8  26
TORSDOF 6
ENDMDL
MODEL 4
REMARK VINA RESULT:    -7.650      2.402      4.175
REMARK INTER + INTRA:          -9.228
REMARK INTER:                  -9.626
REMARK INTRA:                   0.397
REMARK UNBOUND:                -0.013
REMARK SMILES O=c1c(O)c(-c2ccc(O)c(O)c2)oc2cc(O)cc(O)c12
REMARK SMILES IDX 5 1 3 2 2 3 1 4 22 5 20 6 19 7 17 8 16 9 15 10 14 11 6 12
REMARK SMILES IDX 7 13 8 14 9 15 13 16 11 17 10 18 12 20 4 22 21 24 18 26
REMARK H PARENT 10 19 12 21 4 23 21 25 18 27
REMARK Flexibility Score: inf
ROOT
ATOM      1  C   UNL     1     -12.398 -29.379 -11.465  1.00  0.00     0.180 A 
ATOM      2  C   UNL     1     -11.174 -29.205 -10.798  1.00  0.00     0.208 A 
ATOM      3  C   UNL     1     -11.047 -28.164  -9.866  1.00  0.00     0.238 A 
ATOM      4  O   UNL     1      -9.931 -27.979  -9.312  1.00  0.00    -0.285 OA
ATOM      5  C   UNL     1     -12.152 -27.320  -9.597  1.00  0.00     0.111 A 
ATOM      6  C   UNL     1     -12.149 -26.259  -8.642  1.00  0.00     0.134 A 
ATOM      7  C   UNL     1     -13.256 -25.405  -8.555  1.00  0.00     0.093 A 
ATOM      8  C   UNL     1     -14.390 -25.613  -9.339  1.00  0.00     0.123 A 
ATOM      9  C   UNL     1     -14.427 -26.685 -10.234  1.00  0.00     0.094 A 
ATOM     10  C   UNL     1     -13.324 -27.530 -10.370  1.00  0.00     0.146 A 
ATOM     11  O   UNL     1     -13.395 -28.530 -11.240  1.00  0.00    -0.452 OA
ENDROOT
BRANCH   1  12
ATOM     12  C   UNL     1     -12.616 -30.469 -12.443  1.00  0.00     0.025 A 
ATOM     13  C   UNL     1     -11.735 -31.558 -12.531  1.00  0.00     0.016 A 
ATOM     14  C   UNL     1     -11.974 -32.586 -13.445  1.00  0.00     0.051 A 
ATOM     15  C   UNL     1     -13.098 -32.556 -14.278  1.00  0.00     0.157 A 
ATOM     16  C   UNL     1     -13.756 -30.447 -13.261  1.00  0.00     0.062 A 
ATOM     17  C   UNL     1     -14.004 -31.474 -14.182  1.00  0.00     0.158 A 
BRANCH  15  18
ATOM     18  O   UNL     1     -13.277 -33.613 -15.172  1.00  0.00    -0.504 OA
ATOM     19  H   UNL     1     -12.994 -33.588 -16.141  1.00  0.00     0.293 HD
ENDBRANCH  15  18
BRANCH  17  20
ATOM     20  O   UNL     1     -15.152 -31.379 -14.971  1.00  0.00    -0.504 OA
ATOM     21  H   UNL     1     -15.399 -30.564 -15.513  1.00  0.00     0.293 HD
ENDBRANCH  17  20
ENDBRANCH   1  12
BRANCH   2  22
ATOM     22  O   UNL     1     -10.089 -30.036 -11.093  1.00  0.00    -0.502 OA
ATOM     23  H   UNL     1      -9.984 -30.499 -11.988  1.00  0.00     0.293 HD
ENDBRANCH   2  22
BRANCH   6  24
ATOM     24  O   UNL     1     -11.104 -26.019  -7.745  1.00  0.00    -0.507 OA
ATOM     25  H   UNL     1     -10.666 -25.122  -7.601  1.00  0.00     0.293 HD
ENDBRANCH   6  24
BRANCH   8  26
ATOM     26  O   UNL     1     -15.480 -24.754  -9.214  1.00  0.00    -0.508 OA
ATOM     27  H   UNL     1     -16.275 -24.813  -9.839  1.00  0.00     0.293 HD
ENDBRANCH   8  26
TORSDOF 6
ENDMDL
MODEL 5
REMARK VINA RESULT:    -7.406      2.355      3.870
REMARK INTER + INTRA:          -8.935
REMARK INTER:                  -9.420
REMARK INTRA:                   0.485
REMARK UNBOUND:                -0.013
REMARK SMILES O=c1c(O)c(-c2ccc(O)c(O)c2)oc2cc(O)cc(O)c12
REMARK SMILES IDX 5 1 3 2 2 3 1 4 22 5 20 6 19 7 17 8 16 9 15 10 14 11 6 12
REMARK SMILES IDX 7 13 8 14 9 15 13 16 11 17 10 18 12 20 4 22 21 24 18 26
REMARK H PARENT 10 19 12 21 4 23 21 25 18 27
REMARK Flexibility Score: inf
ROOT
ATOM      1  C   UNL     1     -12.434 -29.412 -11.445  1.00  0.00     0.180 A 
ATOM      2  C   UNL     1     -11.201 -29.221 -10.800  1.00  0.00     0.208 A 
ATOM      3  C   UNL     1     -11.067 -28.165  -9.885  1.00  0.00     0.238 A 
ATOM      4  O   UNL     1      -9.944 -27.964  -9.352  1.00  0.00    -0.285 OA
ATOM      5  C   UNL     1     -12.174 -27.324  -9.612  1.00  0.00     0.111 A 
ATOM      6  C   UNL     1     -12.163 -26.249  -8.673  1.00  0.00     0.134 A 
ATOM      7  C   UNL     1     -13.275 -25.402  -8.581  1.00  0.00     0.093 A 
ATOM      8  C   UNL     1     -14.419 -25.628  -9.345  1.00  0.00     0.123 A 
ATOM      9  C   UNL     1     -14.462 -26.713 -10.223  1.00  0.00     0.094 A 
ATOM     10  C   UNL     1     -13.356 -27.554 -10.363  1.00  0.00     0.146 A 
ATOM     11  O   UNL     1     -13.433 -28.567 -11.217  1.00  0.00    -0.452 OA
ENDROOT
BRANCH   1  12
ATOM     12  C   UNL     1     -12.659 -30.519 -12.403  1.00  0.00     0.025 A 
ATOM     13  C   UNL     1     -13.751 -30.511 -13.285  1.00  0.00     0.016 A 
ATOM     14  C   UNL     1     -13.929 -31.554 -14.195  1.00  0.00     0.051 A 
ATOM     15  C   UNL     1     -13.020 -32.616 -14.254  1.00  0.00     0.157 A 
ATOM     16  C   UNL     1     -11.734 -31.571 -12.474  1.00  0.00     0.062 A 
ATOM     17  C   UNL     1     -11.904 -32.623 -13.384  1.00  0.00     0.158 A 
BRANCH  15  18
ATOM     18  O   UNL     1     -13.258 -33.629 -15.184  1.00  0.00    -0.504 OA
ATOM     19  H   UNL     1     -13.285 -33.484 -16.183  1.00  0.00     0.293 HD
ENDBRANCH  15  18
BRANCH  17  20
ATOM     20  O   UNL     1     -10.950 -33.641 -13.390  1.00  0.00    -0.504 OA
ATOM     21  H   UNL     1     -10.319 -33.829 -12.624  1.00  0.00     0.293 HD
ENDBRANCH  17  20
ENDBRANCH   1  12
BRANCH   2  22
ATOM     22  O   UNL     1     -10.115 -30.049 -11.099  1.00  0.00    -0.502 OA
ATOM     23  H   UNL     1      -9.154 -29.747 -10.992  1.00  0.00     0.293 HD
ENDBRANCH   2  22
BRANCH   6  24
ATOM     24  O   UNL     1     -11.106 -25.988  -7.796  1.00  0.00    -0.507 OA
ATOM     25  H   UNL     1     -10.678 -26.675  -7.194  1.00  0.00     0.293 HD
ENDBRANCH   6  24
BRANCH   8  26
ATOM     26  O   UNL     1     -15.512 -24.775  -9.216  1.00  0.00    -0.508 OA
ATOM     27  H   UNL     1     -15.470 -23.810  -9.519  1.00  0.00     0.293 HD
ENDBRANCH   8  26
TORSDOF 6
ENDMDL
MODEL 6
REMARK VINA RESULT:    -7.369      2.672      4.433
REMARK INTER + INTRA:          -8.890
REMARK INTER:                  -9.403
REMARK INTRA:                   0.513
REMARK UNBOUND:                -0.013
REMARK SMILES O=c1c(O)c(-c2ccc(O)c(O)c2)oc2cc(O)cc(O)c12
REMARK SMILES IDX 5 1 3 2 2 3 1 4 22 5 20 6 19 7 17 8 16 9 15 10 14 11 6 12
REMARK SMILES IDX 7 13 8 14 9 15 13 16 11 17 10 18 12 20 4 22 21 24 18 26
REMARK H PARENT 10 19 12 21 4 23 21 25 18 27
REMARK Flexibility Score: inf
ROOT
ATOM      1  C   UNL     1     -12.797 -29.235 -11.386  1.00  0.00     0.180 A 
ATOM      2  C   UNL     1     -11.554 -29.624 -10.857  1.00  0.00     0.208 A 
ATOM      3  C   UNL     1     -11.013 -28.899  -9.784  1.00  0.00     0.238 A 
ATOM      4  O   UNL     1      -9.875 -29.217  -9.350  1.00  0.00    -0.285 OA
ATOM      5  C   UNL     1     -11.730 -27.804  -9.241  1.00  0.00     0.111 A 
ATOM      6  C   UNL     1     -11.296 -27.023  -8.127  1.00  0.00     0.134 A 
ATOM      7  C   UNL     1     -12.021 -25.883  -7.759  1.00  0.00     0.093 A 
ATOM      8  C   UNL     1     -13.197 -25.532  -8.421  1.00  0.00     0.123 A 
ATOM      9  C   UNL     1     -13.663 -26.324  -9.473  1.00  0.00     0.094 A 
ATOM     10  C   UNL     1     -12.942 -27.446  -9.887  1.00  0.00     0.146 A 
ATOM     11  O   UNL     1     -13.413 -28.165 -10.898  1.00  0.00    -0.452 OA
ENDROOT
BRANCH   1  12
ATOM     12  C   UNL     1     -13.443 -29.966 -12.501  1.00  0.00     0.025 A 
ATOM     13  C   UNL     1     -14.549 -29.433 -13.179  1.00  0.00     0.016 A 
ATOM     14  C   UNL     1     -15.126 -30.130 -14.242  1.00  0.00     0.051 A 
ATOM     15  C   UNL     1     -14.607 -31.361 -14.657  1.00  0.00     0.157 A 
ATOM     16  C   UNL     1     -12.905 -31.190 -12.928  1.00  0.00     0.062 A 
ATOM     17  C   UNL     1     -13.478 -31.897 -13.993  1.00  0.00     0.158 A 
BRANCH  15  18
ATOM     18  O   UNL     1     -15.233 -32.009 -15.724  1.00  0.00    -0.504 OA
ATOM     19  H   UNL     1     -16.225 -32.188 -15.772  1.00  0.00     0.293 HD
ENDBRANCH  15  18
BRANCH  17  20
ATOM     20  O   UNL     1     -12.897 -33.113 -14.356  1.00  0.00    -0.504 OA
ATOM     21  H   UNL     1     -12.090 -33.198 -14.957  1.00  0.00     0.293 HD
ENDBRANCH  17  20
ENDBRANCH   1  12
BRANCH   2  22
ATOM     22  O   UNL     1     -10.854 -30.695 -11.421  1.00  0.00    -0.502 OA
ATOM     23  H   UNL     1      -9.982 -31.038 -11.036  1.00  0.00     0.293 HD
ENDBRANCH   2  22
BRANCH   6  24
ATOM     24  O   UNL     1     -10.185 -27.338  -7.339  1.00  0.00    -0.507 OA
ATOM     25  H   UNL     1      -9.236 -27.387  -7.679  1.00  0.00     0.293 HD
ENDBRANCH   6  24
BRANCH   8  26
ATOM     26  O   UNL     1     -13.902 -24.400  -8.017  1.00  0.00    -0.508 OA
ATOM     27  H   UNL     1     -13.446 -23.638  -7.530  1.00  0.00     0.293 HD
ENDBRANCH   8  26
TORSDOF 6
ENDMDL
MODEL 7
REMARK VINA RESULT:    -7.157      2.270      3.635
REMARK INTER + INTRA:          -8.635
REMARK INTER:                  -9.168
REMARK INTRA:                   0.533
REMARK UNBOUND:                -0.013
REMARK SMILES O=c1c(O)c(-c2ccc(O)c(O)c2)oc2cc(O)cc(O)c12
REMARK SMILES IDX 5 1 3 2 2 3 1 4 22 5 20 6 19 7 17 8 16 9 15 10 14 11 6 12
REMARK SMILES IDX 7 13 8 14 9 15 13 16 11 17 10 18 12 20 4 22 21 24 18 26
REMARK H PARENT 10 19 12 21 4 23 21 25 18 27
REMARK Flexibility Score: inf
ROOT
ATOM      1  C   UNL     1     -13.160 -29.593 -11.903  1.00  0.00     0.180 A 
ATOM      2  C   UNL     1     -14.093 -28.542 -11.915  1.00  0.00     0.208 A 
ATOM      3  C   UNL     1     -13.975 -27.516 -10.964  1.00  0.00     0.238 A 
ATOM      4  O   UNL     1     -14.845 -26.606 -10.944  1.00  0.00    -0.285 OA
ATOM      5  C   UNL     1     -12.916 -27.544 -10.024  1.00  0.00     0.111 A 
ATOM      6  C   UNL     1     -12.677 -26.537  -9.041  1.00  0.00     0.134 A 
ATOM      7  C   UNL     1     -11.679 -26.733  -8.079  1.00  0.00     0.093 A 
ATOM      8  C   UNL     1     -10.869 -27.869  -8.102  1.00  0.00     0.123 A 
ATOM      9  C   UNL     1     -11.056 -28.832  -9.096  1.00  0.00     0.094 A 
ATOM     10  C   UNL     1     -12.067 -28.681 -10.047  1.00  0.00     0.146 A 
ATOM     11  O   UNL     1     -12.218 -29.625 -10.967  1.00  0.00    -0.452 OA
ENDROOT
BRANCH   1  12
ATOM     12  C   UNL     1     -13.204 -30.697 -12.889  1.00  0.00     0.025 A 
ATOM     13  C   UNL     1     -12.201 -31.678 -12.933  1.00  0.00     0.016 A 
ATOM     14  C   UNL     1     -12.276 -32.722 -13.857  1.00  0.00     0.051 A 
ATOM     15  C   UNL     1     -13.355 -32.817 -14.743  1.00  0.00     0.157 A 
ATOM     16  C   UNL     1     -14.298 -30.802 -13.761  1.00  0.00     0.062 A 
ATOM     17  C   UNL     1     -14.383 -31.846 -14.691  1.00  0.00     0.158 A 
BRANCH  15  18
ATOM     18  O   UNL     1     -13.368 -33.884 -15.643  1.00  0.00    -0.504 OA
ATOM     19  H   UNL     1     -14.017 -33.965 -16.413  1.00  0.00     0.293 HD
ENDBRANCH  15  18
BRANCH  17  20
ATOM     20  O   UNL     1     -15.494 -31.880 -15.535  1.00  0.00    -0.504 OA
ATOM     21  H   UNL     1     -16.433 -32.083 -15.224  1.00  0.00     0.293 HD
ENDBRANCH  17  20
ENDBRANCH   1  12
BRANCH   2  22
ATOM     22  O   UNL     1     -15.143 -28.544 -12.838  1.00  0.00    -0.502 OA
ATOM     23  H   UNL     1     -14.992 -28.443 -13.834  1.00  0.00     0.293 HD
ENDBRANCH   2  22
BRANCH   6  24
ATOM     24  O   UNL     1     -13.368 -25.322  -8.984  1.00  0.00    -0.507 OA
ATOM     25  H   UNL     1     -14.372 -25.235  -8.936  1.00  0.00     0.293 HD
ENDBRANCH   6  24
BRANCH   8  26
ATOM     26  O   UNL     1      -9.875 -28.024  -7.139  1.00  0.00    -0.508 OA
ATOM     27  H   UNL     1     -10.071 -27.910  -6.152  1.00  0.00     0.293 HD
ENDBRANCH   8  26
TORSDOF 6
ENDMDL
MODEL 8
REMARK VINA RESULT:    -6.686      1.669      3.585
REMARK INTER + INTRA:          -8.066
REMARK INTER:                  -8.231
REMARK INTRA:                   0.164
REMARK UNBOUND:                -0.013
REMARK SMILES O=c1c(O)c(-c2ccc(O)c(O)c2)oc2cc(O)cc(O)c12
REMARK SMILES IDX 5 1 3 2 2 3 1 4 22 5 20 6 19 7 17 8 16 9 15 10 14 11 6 12
REMARK SMILES IDX 7 13 8 14 9 15 13 16 11 17 10 18 12 20 4 22 21 24 18 26
REMARK H PARENT 10 19 12 21 4 23 21 25 18 27
REMARK Flexibility Score: inf
ROOT
ATOM      1  C   UNL     1     -12.235 -30.283 -12.250  1.00  0.00     0.180 A 
ATOM      2  C   UNL     1     -12.032 -29.736 -10.972  1.00  0.00     0.208 A 
ATOM      3  C   UNL     1     -12.620 -28.500 -10.658  1.00  0.00     0.238 A 
ATOM      4  O   UNL     1     -12.389 -27.989  -9.531  1.00  0.00    -0.285 OA
ATOM      5  C   UNL     1     -13.418 -27.835 -11.621  1.00  0.00     0.111 A 
ATOM      6  C   UNL     1     -14.095 -26.598 -11.398  1.00  0.00     0.134 A 
ATOM      7  C   UNL     1     -14.748 -25.967 -12.464  1.00  0.00     0.093 A 
ATOM      8  C   UNL     1     -14.805 -26.558 -13.726  1.00  0.00     0.123 A 
ATOM      9  C   UNL     1     -14.198 -27.796 -13.939  1.00  0.00     0.094 A 
ATOM     10  C   UNL     1     -13.507 -28.433 -12.905  1.00  0.00     0.146 A 
ATOM     11  O   UNL     1     -12.933 -29.604 -13.153  1.00  0.00    -0.452 OA
ENDROOT
BRANCH   1  12
ATOM     12  C   UNL     1     -11.668 -31.593 -12.646  1.00  0.00     0.025 A 
ATOM     13  C   UNL     1     -10.378 -31.980 -12.251  1.00  0.00     0.016 A 
ATOM     14  C   UNL     1      -9.875 -33.230 -12.617  1.00  0.00     0.051 A 
ATOM     15  C   UNL     1     -10.648 -34.121 -13.369  1.00  0.00     0.157 A 
ATOM     16  C   UNL     1     -12.455 -32.492 -13.382  1.00  0.00     0.062 A 
ATOM     17  C   UNL     1     -11.958 -33.749 -13.754  1.00  0.00     0.158 A 
BRANCH  15  18
ATOM     18  O   UNL     1     -10.085 -35.353 -13.705  1.00  0.00    -0.504 OA
ATOM     19  H   UNL     1     -10.248 -36.208 -13.192  1.00  0.00     0.293 HD
ENDBRANCH  15  18
BRANCH  17  20
ATOM     20  O   UNL     1     -12.793 -34.586 -14.495  1.00  0.00    -0.504 OA
ATOM     21  H   UNL     1     -13.765 -34.753 -14.277  1.00  0.00     0.293 HD
ENDBRANCH  17  20
ENDBRANCH   1  12
BRANCH   2  22
ATOM     22  O   UNL     1     -11.223 -30.398 -10.044  1.00  0.00    -0.502 OA
ATOM     23  H   UNL     1     -11.604 -30.979  -9.306  1.00  0.00     0.293 HD
ENDBRANCH   2  22
BRANCH   6  24
ATOM     24  O   UNL     1     -14.178 -25.967 -10.154  1.00  0.00    -0.507 OA
ATOM     25  H   UNL     1     -14.343 -26.442  -9.279  1.00  0.00     0.293 HD
ENDBRANCH   6  24
BRANCH   8  26
ATOM     26  O   UNL     1     -15.478 -25.909 -14.759  1.00  0.00    -0.508 OA
ATOM     27  H   UNL     1     -16.417 -26.176 -15.030  1.00  0.00     0.293 HD
ENDBRANCH   8  26
TORSDOF 6
ENDMDL
MODEL 9
REMARK VINA RESULT:    -6.434      1.440      7.210
REMARK INTER + INTRA:          -7.764
REMARK INTER:                  -7.638
REMARK INTRA:                  -0.125
REMARK UNBOUND:                -0.013
REMARK SMILES O=c1c(O)c(-c2ccc(O)c(O)c2)oc2cc(O)cc(O)c12
REMARK SMILES IDX 5 1 3 2 2 3 1 4 22 5 20 6 19 7 17 8 16 9 15 10 14 11 6 12
REMARK SMILES IDX 7 13 8 14 9 15 13 16 11 17 10 18 12 20 4 22 21 24 18 26
REMARK H PARENT 10 19 12 21 4 23 21 25 18 27
REMARK Flexibility Score: inf
ROOT
ATOM      1  C   UNL     1     -13.206 -30.930 -13.610  1.00  0.00     0.180 A 
ATOM      2  C   UNL     1     -12.055 -31.468 -13.009  1.00  0.00     0.208 A 
ATOM      3  C   UNL     1     -11.717 -32.807 -13.261  1.00  0.00     0.238 A 
ATOM      4  O   UNL     1     -10.717 -33.299 -12.677  1.00  0.00    -0.285 OA
ATOM      5  C   UNL     1     -12.524 -33.587 -14.125  1.00  0.00     0.111 A 
ATOM      6  C   UNL     1     -12.254 -34.942 -14.484  1.00  0.00     0.134 A 
ATOM      7  C   UNL     1     -13.191 -35.656 -15.241  1.00  0.00     0.093 A 
ATOM      8  C   UNL     1     -14.356 -35.046 -15.707  1.00  0.00     0.123 A 
ATOM      9  C   UNL     1     -14.601 -33.704 -15.413  1.00  0.00     0.094 A 
ATOM     10  C   UNL     1     -13.703 -32.976 -14.629  1.00  0.00     0.146 A 
ATOM     11  O   UNL     1     -13.978 -31.705 -14.362  1.00  0.00    -0.452 OA
ENDROOT
BRANCH   1  12
ATOM     12  C   UNL     1     -13.613 -29.520 -13.412  1.00  0.00     0.025 A 
ATOM     13  C   UNL     1     -13.710 -28.629 -14.492  1.00  0.00     0.016 A 
ATOM     14  C   UNL     1     -14.118 -27.310 -14.283  1.00  0.00     0.051 A 
ATOM     15  C   UNL     1     -14.449 -26.858 -13.001  1.00  0.00     0.157 A 
ATOM     16  C   UNL     1     -13.965 -29.076 -12.128  1.00  0.00     0.062 A 
ATOM     17  C   UNL     1     -14.376 -27.754 -11.908  1.00  0.00     0.158 A 
BRANCH  15  18
ATOM     18  O   UNL     1     -14.846 -25.527 -12.860  1.00  0.00    -0.504 OA
ATOM     19  H   UNL     1     -15.159 -25.120 -11.990  1.00  0.00     0.293 HD
ENDBRANCH  15  18
BRANCH  17  20
ATOM     20  O   UNL     1     -14.699 -27.380 -10.603  1.00  0.00    -0.504 OA
ATOM     21  H   UNL     1     -14.218 -26.658 -10.087  1.00  0.00     0.293 HD
ENDBRANCH  17  20
ENDBRANCH   1  12
BRANCH   2  22
ATOM     22  O   UNL     1     -11.284 -30.688 -12.143  1.00  0.00    -0.502 OA
ATOM     23  H   UNL     1     -10.800 -31.078 -11.343  1.00  0.00     0.293 HD
ENDBRANCH   2  22
BRANCH   6  24
ATOM     24  O   UNL     1     -11.078 -35.619 -14.147  1.00  0.00    -0.507 OA
ATOM     25  H   UNL     1     -10.365 -35.892 -14.806  1.00  0.00     0.293 HD
ENDBRANCH   6  24
BRANCH   8  26
ATOM     26  O   UNL     1     -15.258 -35.782 -16.472  1.00  0.00    -0.508 OA
ATOM     27  H   UNL     1     -15.922 -36.417 -16.044  1.00  0.00     0.293 HD
ENDBRANCH   8  26
TORSDOF 6
ENDMDL
