MODEL 1
REMARK VINA RESULT:    -4.077      0.000      0.000
REMARK INTER + INTRA:          -5.158
REMARK INTER:                  -4.911
REMARK INTRA:                  -0.247
REMARK UNBOUND:                -0.247
REMARK SMILES C=CCc1ccc(O)c(OC)c1
REMARK SMILES IDX 9 1 7 2 6 3 5 4 4 5 12 6 10 7 11 8 8 9 3 11 2 12 1 13
REMARK H PARENT 8 10
REMARK Flexibility Score: inf
ROOT
ATOM      1  C   UNL     1      -1.290   6.917   0.327  1.00  0.00     0.160 A 
ATOM      2  C   UNL     1      -1.175   7.318   1.671  1.00  0.00     0.157 A 
ATOM      3  C   UNL     1      -0.573   8.540   1.988  1.00  0.00     0.050 A 
ATOM      4  C   UNL     1      -0.085   9.372   0.978  1.00  0.00     0.008 A 
ATOM      5  C   UNL     1      -0.203   8.993  -0.367  1.00  0.00    -0.040 A 
ATOM      6  C   UNL     1      -0.797   7.763  -0.688  1.00  0.00     0.054 A 
ENDROOT
BRANCH   1   7
ATOM      7  O   UNL     1      -1.893   5.684   0.038  1.00  0.00    -0.493 OA
ATOM      8  C   UNL     1      -3.287   5.499  -0.191  1.00  0.00     0.278 C 
ENDBRANCH   1   7
BRANCH   2   9
ATOM      9  O   UNL     1      -1.649   6.514   2.706  1.00  0.00    -0.504 OA
ATOM     10  H   UNL     1      -2.637   6.420   2.907  1.00  0.00     0.293 HD
ENDBRANCH   2   9
BRANCH   5  11
ATOM     11  C   UNL     1       0.352   9.878  -1.451  1.00  0.00     0.062 C 
BRANCH  11  12
ATOM     12  C   UNL     1       1.573   9.260  -2.073  1.00  0.00    -0.030 C 
ATOM     13  C   UNL     1       2.678   9.019  -1.363  1.00  0.00     0.004 C 
ENDBRANCH  11  12
ENDBRANCH   5  11
TORSDOF 4
ENDMDL
MODEL 2
REMARK VINA RESULT:    -3.807     13.328     14.685
REMARK INTER + INTRA:          -4.833
REMARK INTER:                  -4.607
REMARK INTRA:                  -0.226
REMARK UNBOUND:                -0.247
REMARK SMILES C=CCc1ccc(O)c(OC)c1
REMARK SMILES IDX 9 1 7 2 6 3 5 4 4 5 12 6 10 7 11 8 8 9 3 11 2 12 1 13
REMARK H PARENT 8 10
REMARK Flexibility Score: inf
ROOT
ATOM      1  C   UNL     1       1.873  -2.855  -7.344  1.00  0.00     0.160 A 
ATOM      2  C   UNL     1       2.965  -2.018  -7.050  1.00  0.00     0.157 A 
ATOM      3  C   UNL     1       4.206  -2.575  -6.723  1.00  0.00     0.050 A 
ATOM      4  C   UNL     1       4.372  -3.961  -6.688  1.00  0.00     0.008 A 
ATOM      5  C   UNL     1       3.298  -4.809  -6.990  1.00  0.00    -0.040 A 
ATOM      6  C   UNL     1       2.049  -4.254  -7.309  1.00  0.00     0.054 A 
ENDROOT
BRANCH   1   7
ATOM      7  O   UNL     1       0.638  -2.270  -7.663  1.00  0.00    -0.493 OA
ATOM      8  C   UNL     1       0.033  -2.310  -8.952  1.00  0.00     0.278 C 
ENDBRANCH   1   7
BRANCH   2   9
ATOM      9  O   UNL     1       2.836  -0.630  -7.074  1.00  0.00    -0.504 OA
ATOM     10  H   UNL     1       3.115  -0.076  -7.874  1.00  0.00     0.293 HD
ENDBRANCH   2   9
BRANCH   5  11
ATOM     11  C   UNL     1       3.474  -6.303  -6.921  1.00  0.00     0.062 C 
BRANCH  11  12
ATOM     12  C   UNL     1       4.383  -6.682  -5.786  1.00  0.00    -0.030 C 
ATOM     13  C   UNL     1       4.214  -7.814  -5.099  1.00  0.00     0.004 C 
ENDBRANCH  11  12
ENDBRANCH   5  11
TORSDOF 4
ENDMDL
MODEL 3
REMARK VINA RESULT:    -3.675      1.066      2.360
REMARK INTER + INTRA:          -4.674
REMARK INTER:                  -4.386
REMARK INTRA:                  -0.288
REMARK UNBOUND:                -0.247
REMARK SMILES C=CCc1ccc(O)c(OC)c1
REMARK SMILES IDX 9 1 7 2 6 3 5 4 4 5 12 6 10 7 11 8 8 9 3 11 2 12 1 13
REMARK H PARENT 8 10
REMARK Flexibility Score: inf
ROOT
ATOM      1  C   UNL     1      -1.064   7.439   1.518  1.00  0.00     0.160 A 
ATOM      2  C   UNL     1      -1.554   6.763   0.385  1.00  0.00     0.157 A 
ATOM      3  C   UNL     1      -1.152   7.158  -0.895  1.00  0.00     0.050 A 
ATOM      4  C   UNL     1      -0.263   8.222  -1.061  1.00  0.00     0.008 A 
ATOM      5  C   UNL     1       0.244   8.899   0.058  1.00  0.00    -0.040 A 
ATOM      6  C   UNL     1      -0.165   8.511   1.343  1.00  0.00     0.054 A 
ENDROOT
BRANCH   1   7
ATOM      7  O   UNL     1      -1.488   7.025   2.789  1.00  0.00    -0.493 OA
ATOM      8  C   UNL     1      -2.480   7.688   3.567  1.00  0.00     0.278 C 
ENDBRANCH   1   7
BRANCH   2   9
ATOM      9  O   UNL     1      -2.444   5.697   0.511  1.00  0.00    -0.504 OA
ATOM     10  H   UNL     1      -3.359   5.704   0.077  1.00  0.00     0.293 HD
ENDBRANCH   2   9
BRANCH   5  11
ATOM     11  C   UNL     1       1.179  10.065  -0.126  1.00  0.00     0.062 C 
BRANCH  11  12
ATOM     12  C   UNL     1       2.394   9.656  -0.913  1.00  0.00    -0.030 C 
ATOM     13  C   UNL     1       3.419   9.021  -0.341  1.00  0.00     0.004 C 
ENDBRANCH  11  12
ENDBRANCH   5  11
TORSDOF 4
ENDMDL
MODEL 4
REMARK VINA RESULT:    -3.641     14.233     15.553
REMARK INTER + INTRA:          -4.633
REMARK INTER:                  -4.408
REMARK INTRA:                  -0.225
REMARK UNBOUND:                -0.247
REMARK SMILES C=CCc1ccc(O)c(OC)c1
REMARK SMILES IDX 9 1 7 2 6 3 5 4 4 5 12 6 10 7 11 8 8 9 3 11 2 12 1 13
REMARK H PARENT 8 10
REMARK Flexibility Score: inf
ROOT
ATOM      1  C   UNL     1       4.414  -3.387  -6.637  1.00  0.00     0.160 A 
ATOM      2  C   UNL     1       5.449  -3.269  -5.691  1.00  0.00     0.157 A 
ATOM      3  C   UNL     1       5.860  -4.388  -4.959  1.00  0.00     0.050 A 
ATOM      4  C   UNL     1       5.252  -5.628  -5.161  1.00  0.00     0.008 A 
ATOM      5  C   UNL     1       4.227  -5.766  -6.108  1.00  0.00    -0.040 A 
ATOM      6  C   UNL     1       3.805  -4.643  -6.837  1.00  0.00     0.054 A 
ENDROOT
BRANCH   1   7
ATOM      7  O   UNL     1       4.018  -2.247  -7.352  1.00  0.00    -0.493 OA
ATOM      8  C   UNL     1       2.882  -1.448  -7.037  1.00  0.00     0.278 C 
ENDBRANCH   1   7
BRANCH   2   9
ATOM      9  O   UNL     1       6.080  -2.047  -5.461  1.00  0.00    -0.504 OA
ATOM     10  H   UNL     1       6.486  -1.809  -4.565  1.00  0.00     0.293 HD
ENDBRANCH   2   9
BRANCH   5  11
ATOM     11  C   UNL     1       3.553  -7.098  -6.301  1.00  0.00     0.062 C 
BRANCH  11  12
ATOM     12  C   UNL     1       3.959  -8.064  -5.222  1.00  0.00    -0.030 C 
ATOM     13  C   UNL     1       3.486  -9.311  -5.183  1.00  0.00     0.004 C 
ENDBRANCH  11  12
ENDBRANCH   5  11
TORSDOF 4
ENDMDL
MODEL 5
REMARK VINA RESULT:    -3.616      3.017      5.212
REMARK INTER + INTRA:          -4.603
REMARK INTER:                  -4.359
REMARK INTRA:                  -0.244
REMARK UNBOUND:                -0.247
REMARK SMILES C=CCc1ccc(O)c(OC)c1
REMARK SMILES IDX 9 1 7 2 6 3 5 4 4 5 12 6 10 7 11 8 8 9 3 11 2 12 1 13
REMARK H PARENT 8 10
REMARK Flexibility Score: inf
ROOT
ATOM      1  C   UNL     1      -3.042   6.678   0.946  1.00  0.00     0.160 A 
ATOM      2  C   UNL     1      -1.635   6.724   0.943  1.00  0.00     0.157 A 
ATOM      3  C   UNL     1      -0.946   7.160   2.079  1.00  0.00     0.050 A 
ATOM      4  C   UNL     1      -1.644   7.548   3.225  1.00  0.00     0.008 A 
ATOM      5  C   UNL     1      -3.045   7.496   3.249  1.00  0.00    -0.040 A 
ATOM      6  C   UNL     1      -3.740   7.070   2.107  1.00  0.00     0.054 A 
ENDROOT
BRANCH   1   7
ATOM      7  O   UNL     1      -3.707   6.242  -0.209  1.00  0.00    -0.493 OA
ATOM      8  C   UNL     1      -4.613   5.144  -0.256  1.00  0.00     0.278 C 
ENDBRANCH   1   7
BRANCH   2   9
ATOM      9  O   UNL     1      -0.904   6.346  -0.183  1.00  0.00    -0.504 OA
ATOM     10  H   UNL     1       0.107   6.387  -0.209  1.00  0.00     0.293 HD
ENDBRANCH   2   9
BRANCH   5  11
ATOM     11  C   UNL     1      -3.794   7.944   4.476  1.00  0.00     0.062 C 
BRANCH  11  12
ATOM     12  C   UNL     1      -4.161   6.768   5.338  1.00  0.00    -0.030 C 
ATOM     13  C   UNL     1      -3.400   6.389   6.368  1.00  0.00     0.004 C 
ENDBRANCH  11  12
ENDBRANCH   5  11
TORSDOF 4
ENDMDL
MODEL 6
REMARK VINA RESULT:    -3.588     14.559     16.057
REMARK INTER + INTRA:          -4.569
REMARK INTER:                  -4.360
REMARK INTRA:                  -0.209
REMARK UNBOUND:                -0.247
REMARK SMILES C=CCc1ccc(O)c(OC)c1
REMARK SMILES IDX 9 1 7 2 6 3 5 4 4 5 12 6 10 7 11 8 8 9 3 11 2 12 1 13
REMARK H PARENT 8 10
REMARK Flexibility Score: inf
ROOT
ATOM      1  C   UNL     1       5.670  -4.259  -5.271  1.00  0.00     0.160 A 
ATOM      2  C   UNL     1       4.944  -3.627  -6.297  1.00  0.00     0.157 A 
ATOM      3  C   UNL     1       3.946  -4.327  -6.983  1.00  0.00     0.050 A 
ATOM      4  C   UNL     1       3.660  -5.653  -6.655  1.00  0.00     0.008 A 
ATOM      5  C   UNL     1       4.365  -6.295  -5.627  1.00  0.00    -0.040 A 
ATOM      6  C   UNL     1       5.374  -5.599  -4.944  1.00  0.00     0.054 A 
ENDROOT
BRANCH   1   7
ATOM      7  O   UNL     1       6.669  -3.535  -4.603  1.00  0.00    -0.493 OA
ATOM      8  C   UNL     1       6.450  -2.726  -3.452  1.00  0.00     0.278 C 
ENDBRANCH   1   7
BRANCH   2   9
ATOM      9  O   UNL     1       5.203  -2.304  -6.653  1.00  0.00    -0.504 OA
ATOM     10  H   UNL     1       6.019  -1.806  -6.321  1.00  0.00     0.293 HD
ENDBRANCH   2   9
BRANCH   5  11
ATOM     11  C   UNL     1       4.074  -7.735  -5.297  1.00  0.00     0.062 C 
BRANCH  11  12
ATOM     12  C   UNL     1       2.949  -8.260  -6.146  1.00  0.00    -0.030 C 
ATOM     13  C   UNL     1       2.270  -9.359  -5.808  1.00  0.00     0.004 C 
ENDBRANCH  11  12
ENDBRANCH   5  11
TORSDOF 4
ENDMDL
MODEL 7
REMARK VINA RESULT:    -3.575      2.575      5.716
REMARK INTER + INTRA:          -4.554
REMARK INTER:                  -4.371
REMARK INTRA:                  -0.182
REMARK UNBOUND:                -0.247
REMARK SMILES C=CCc1ccc(O)c(OC)c1
REMARK SMILES IDX 9 1 7 2 6 3 5 4 4 5 12 6 10 7 11 8 8 9 3 11 2 12 1 13
REMARK H PARENT 8 10
REMARK Flexibility Score: inf
ROOT
ATOM      1  C   UNL     1      -2.130   7.101   0.583  1.00  0.00     0.160 A 
ATOM      2  C   UNL     1      -2.604   6.369  -0.521  1.00  0.00     0.157 A 
ATOM      3  C   UNL     1      -3.836   5.711  -0.448  1.00  0.00     0.050 A 
ATOM      4  C   UNL     1      -4.605   5.777   0.715  1.00  0.00     0.008 A 
ATOM      5  C   UNL     1      -4.154   6.513   1.820  1.00  0.00    -0.040 A 
ATOM      6  C   UNL     1      -2.913   7.165   1.754  1.00  0.00     0.054 A 
ENDROOT
BRANCH   1   7
ATOM      7  O   UNL     1      -0.888   7.747   0.485  1.00  0.00    -0.493 OA
ATOM      8  C   UNL     1      -0.341   8.606   1.480  1.00  0.00     0.278 C 
ENDBRANCH   1   7
BRANCH   2   9
ATOM      9  O   UNL     1      -1.863   6.279  -1.698  1.00  0.00    -0.504 OA
ATOM     10  H   UNL     1      -1.630   7.094  -2.253  1.00  0.00     0.293 HD
ENDBRANCH   2   9
BRANCH   5  11
ATOM     11  C   UNL     1      -4.973   6.557   3.083  1.00  0.00     0.062 C 
BRANCH  11  12
ATOM     12  C   UNL     1      -4.084   6.637   4.293  1.00  0.00    -0.030 C 
ATOM     13  C   UNL     1      -4.543   7.057   5.474  1.00  0.00     0.004 C 
ENDBRANCH  11  12
ENDBRANCH   5  11
TORSDOF 4
ENDMDL
MODEL 8
REMARK VINA RESULT:    -3.567      2.101      4.894
REMARK INTER + INTRA:          -4.544
REMARK INTER:                  -4.326
REMARK INTRA:                  -0.218
REMARK UNBOUND:                -0.247
REMARK SMILES C=CCc1ccc(O)c(OC)c1
REMARK SMILES IDX 9 1 7 2 6 3 5 4 4 5 12 6 10 7 11 8 8 9 3 11 2 12 1 13
REMARK H PARENT 8 10
REMARK Flexibility Score: inf
ROOT
ATOM      1  C   UNL     1      -0.909   7.686  -0.668  1.00  0.00     0.160 A 
ATOM      2  C   UNL     1      -1.933   6.842  -1.134  1.00  0.00     0.157 A 
ATOM      3  C   UNL     1      -2.830   6.263  -0.229  1.00  0.00     0.050 A 
ATOM      4  C   UNL     1      -2.719   6.520   1.139  1.00  0.00     0.008 A 
ATOM      5  C   UNL     1      -1.712   7.369   1.618  1.00  0.00    -0.040 A 
ATOM      6  C   UNL     1      -0.804   7.943   0.715  1.00  0.00     0.054 A 
ENDROOT
BRANCH   1   7
ATOM      7  O   UNL     1      -0.020   8.248  -1.597  1.00  0.00    -0.493 OA
ATOM      8  C   UNL     1       1.210   8.882  -1.259  1.00  0.00     0.278 C 
ENDBRANCH   1   7
BRANCH   2   9
ATOM      9  O   UNL     1      -2.074   6.561  -2.492  1.00  0.00    -0.504 OA
ATOM     10  H   UNL     1      -2.575   7.176  -3.121  1.00  0.00     0.293 HD
ENDBRANCH   2   9
BRANCH   5  11
ATOM     11  C   UNL     1      -1.577   7.619   3.097  1.00  0.00     0.062 C 
BRANCH  11  12
ATOM     12  C   UNL     1      -2.928   7.792   3.735  1.00  0.00    -0.030 C 
ATOM     13  C   UNL     1      -3.266   7.137   4.848  1.00  0.00     0.004 C 
ENDBRANCH  11  12
ENDBRANCH   5  11
TORSDOF 4
ENDMDL
MODEL 9
REMARK VINA RESULT:    -3.479      2.597      6.174
REMARK INTER + INTRA:          -4.437
REMARK INTER:                  -4.212
REMARK INTRA:                  -0.225
REMARK UNBOUND:                -0.247
REMARK SMILES C=CCc1ccc(O)c(OC)c1
REMARK SMILES IDX 9 1 7 2 6 3 5 4 4 5 12 6 10 7 11 8 8 9 3 11 2 12 1 13
REMARK H PARENT 8 10
REMARK Flexibility Score: inf
ROOT
ATOM      1  C   UNL     1      -2.260   7.078   1.545  1.00  0.00     0.160 A 
ATOM      2  C   UNL     1      -2.068   6.342   0.360  1.00  0.00     0.157 A 
ATOM      3  C   UNL     1      -3.121   5.597  -0.180  1.00  0.00     0.050 A 
ATOM      4  C   UNL     1      -4.369   5.579   0.446  1.00  0.00     0.008 A 
ATOM      5  C   UNL     1      -4.581   6.316   1.619  1.00  0.00    -0.040 A 
ATOM      6  C   UNL     1      -3.524   7.056   2.170  1.00  0.00     0.054 A 
ENDROOT
BRANCH   1   7
ATOM      7  O   UNL     1      -1.184   7.811   2.068  1.00  0.00    -0.493 OA
ATOM      8  C   UNL     1      -1.029   9.221   1.941  1.00  0.00     0.278 C 
ENDBRANCH   1   7
BRANCH   2   9
ATOM      9  O   UNL     1      -0.836   6.335  -0.292  1.00  0.00    -0.504 OA
ATOM     10  H   UNL     1      -0.073   5.737   0.001  1.00  0.00     0.293 HD
ENDBRANCH   2   9
BRANCH   5  11
ATOM     11  C   UNL     1      -5.919   6.270   2.308  1.00  0.00     0.062 C 
BRANCH  11  12
ATOM     12  C   UNL     1      -6.809   5.235   1.676  1.00  0.00    -0.030 C 
ATOM     13  C   UNL     1      -8.082   5.083   2.048  1.00  0.00     0.004 C 
ENDBRANCH  11  12
ENDBRANCH   5  11
TORSDOF 4
ENDMDL
