MODEL 1
REMARK VINA RESULT:    -4.561      0.000      0.000
REMARK INTER + INTRA:          -4.914
REMARK INTER:                  -4.828
REMARK INTRA:                  -0.087
REMARK UNBOUND:                -0.087
REMARK SMILES C=C(C)[C@H]1CC=C(C)C(=O)C1
REMARK SMILES IDX 8 1 7 2 6 3 5 4 4 5 11 6 9 7 10 8 2 9 1 10 3 11
REMARK H PARENT
REMARK Flexibility Score: inf
ROOT
ATOM      1  C   UNL     1      24.852  -4.443  57.505  1.00  0.00     0.048 C 
ATOM      2  C   UNL     1      25.088  -4.384  56.021  1.00  0.00    -0.012 C 
ATOM      3  C   UNL     1      24.436  -3.476  55.276  1.00  0.00    -0.019 C 
ATOM      4  C   UNL     1      24.621  -3.385  53.785  1.00  0.00     0.036 C 
ATOM      5  C   UNL     1      26.056  -3.772  53.380  1.00  0.00     0.025 C 
ATOM      6  C   UNL     1      26.406  -5.168  53.927  1.00  0.00     0.089 C 
ATOM      7  C   UNL     1      26.129  -5.243  55.403  1.00  0.00     0.158 C 
ATOM      8  O   UNL     1      26.768  -6.071  56.107  1.00  0.00    -0.295 OA
ENDROOT
BRANCH   5   9
ATOM      9  C   UNL     1      26.247  -3.703  51.871  1.00  0.00    -0.077 C 
ATOM     10  C   UNL     1      26.926  -2.681  51.325  1.00  0.00     0.008 C 
ATOM     11  C   UNL     1      25.689  -4.765  50.956  1.00  0.00     0.039 C 
ENDBRANCH   5   9
TORSDOF 1
ENDMDL
MODEL 2
REMARK VINA RESULT:    -4.338      1.567      2.387
REMARK INTER + INTRA:          -4.678
REMARK INTER:                  -4.589
REMARK INTRA:                  -0.089
REMARK UNBOUND:                -0.087
REMARK SMILES C=C(C)[C@H]1CC=C(C)C(=O)C1
REMARK SMILES IDX 8 1 7 2 6 3 5 4 4 5 11 6 9 7 10 8 2 9 1 10 3 11
REMARK H PARENT
REMARK Flexibility Score: inf
ROOT
ATOM      1  C   UNL     1      24.549  -4.447  57.731  1.00  0.00     0.048 C 
ATOM      2  C   UNL     1      25.045  -4.188  56.335  1.00  0.00    -0.012 C 
ATOM      3  C   UNL     1      25.771  -5.123  55.699  1.00  0.00    -0.019 C 
ATOM      4  C   UNL     1      26.308  -4.910  54.309  1.00  0.00     0.036 C 
ATOM      5  C   UNL     1      25.358  -4.027  53.478  1.00  0.00     0.025 C 
ATOM      6  C   UNL     1      25.084  -2.700  54.209  1.00  0.00     0.089 C 
ATOM      7  C   UNL     1      24.630  -2.956  55.619  1.00  0.00     0.158 C 
ATOM      8  O   UNL     1      23.919  -2.093  56.201  1.00  0.00    -0.295 OA
ENDROOT
BRANCH   5   9
ATOM      9  C   UNL     1      25.902  -3.789  52.077  1.00  0.00    -0.077 C 
ATOM     10  C   UNL     1      25.740  -4.722  51.123  1.00  0.00     0.008 C 
ATOM     11  C   UNL     1      26.628  -2.515  51.720  1.00  0.00     0.039 C 
ENDBRANCH   5   9
TORSDOF 1
ENDMDL
MODEL 3
REMARK VINA RESULT:    -4.298      1.365      4.319
REMARK INTER + INTRA:          -4.636
REMARK INTER:                  -4.539
REMARK INTRA:                  -0.097
REMARK UNBOUND:                -0.087
REMARK SMILES C=C(C)[C@H]1CC=C(C)C(=O)C1
REMARK SMILES IDX 8 1 7 2 6 3 5 4 4 5 11 6 9 7 10 8 2 9 1 10 3 11
REMARK H PARENT
REMARK Flexibility Score: inf
ROOT
ATOM      1  C   UNL     1      25.789  -4.344  51.090  1.00  0.00     0.048 C 
ATOM      2  C   UNL     1      25.758  -4.228  52.589  1.00  0.00    -0.012 C 
ATOM      3  C   UNL     1      24.791  -3.508  53.184  1.00  0.00    -0.019 C 
ATOM      4  C   UNL     1      24.724  -3.344  54.679  1.00  0.00     0.036 C 
ATOM      5  C   UNL     1      25.255  -4.598  55.399  1.00  0.00     0.025 C 
ATOM      6  C   UNL     1      26.677  -4.931  54.912  1.00  0.00     0.089 C 
ATOM      7  C   UNL     1      26.719  -5.005  53.411  1.00  0.00     0.158 C 
ATOM      8  O   UNL     1      27.605  -5.709  52.855  1.00  0.00    -0.295 OA
ENDROOT
BRANCH   5   9
ATOM      9  C   UNL     1      25.209  -4.433  56.911  1.00  0.00    -0.077 C 
ATOM     10  C   UNL     1      25.800  -5.340  57.706  1.00  0.00     0.008 C 
ATOM     11  C   UNL     1      24.511  -3.260  57.555  1.00  0.00     0.039 C 
ENDBRANCH   5   9
TORSDOF 1
ENDMDL
MODEL 4
REMARK VINA RESULT:    -4.292     10.486     11.635
REMARK INTER + INTRA:          -4.630
REMARK INTER:                  -4.532
REMARK INTRA:                  -0.098
REMARK UNBOUND:                -0.087
REMARK SMILES C=C(C)[C@H]1CC=C(C)C(=O)C1
REMARK SMILES IDX 8 1 7 2 6 3 5 4 4 5 11 6 9 7 10 8 2 9 1 10 3 11
REMARK H PARENT
REMARK Flexibility Score: inf
ROOT
ATOM      1  C   UNL     1      14.942  -0.917  60.048  1.00  0.00     0.048 C 
ATOM      2  C   UNL     1      15.329   0.004  58.923  1.00  0.00    -0.012 C 
ATOM      3  C   UNL     1      14.863   1.264  58.901  1.00  0.00    -0.019 C 
ATOM      4  C   UNL     1      15.202   2.222  57.790  1.00  0.00     0.036 C 
ATOM      5  C   UNL     1      16.615   1.952  57.238  1.00  0.00     0.025 C 
ATOM      6  C   UNL     1      16.746   0.481  56.802  1.00  0.00     0.089 C 
ATOM      7  C   UNL     1      16.318  -0.441  57.910  1.00  0.00     0.158 C 
ATOM      8  O   UNL     1      16.784  -1.611  57.950  1.00  0.00    -0.295 OA
ENDROOT
BRANCH   5   9
ATOM      9  C   UNL     1      16.960   2.903  56.101  1.00  0.00    -0.077 C 
ATOM     10  C   UNL     1      17.847   2.535  55.161  1.00  0.00     0.008 C 
ATOM     11  C   UNL     1      16.324   4.267  55.995  1.00  0.00     0.039 C 
ENDBRANCH   5   9
TORSDOF 1
ENDMDL
MODEL 5
REMARK VINA RESULT:    -4.268      9.856     11.065
REMARK INTER + INTRA:          -4.605
REMARK INTER:                  -4.508
REMARK INTRA:                  -0.097
REMARK UNBOUND:                -0.087
REMARK SMILES C=C(C)[C@H]1CC=C(C)C(=O)C1
REMARK SMILES IDX 8 1 7 2 6 3 5 4 4 5 11 6 9 7 10 8 2 9 1 10 3 11
REMARK H PARENT
REMARK Flexibility Score: inf
ROOT
ATOM      1  C   UNL     1      14.814  -1.001  61.375  1.00  0.00     0.048 C 
ATOM      2  C   UNL     1      15.281  -0.801  59.959  1.00  0.00    -0.012 C 
ATOM      3  C   UNL     1      14.819   0.237  59.242  1.00  0.00    -0.019 C 
ATOM      4  C   UNL     1      15.239   0.473  57.816  1.00  0.00     0.036 C 
ATOM      5  C   UNL     1      16.687   0.005  57.580  1.00  0.00     0.025 C 
ATOM      6  C   UNL     1      16.848  -1.467  58.000  1.00  0.00     0.089 C 
ATOM      7  C   UNL     1      16.341  -1.677  59.400  1.00  0.00     0.158 C 
ATOM      8  O   UNL     1      16.802  -2.631  60.083  1.00  0.00    -0.295 OA
ENDROOT
BRANCH   5   9
ATOM      9  C   UNL     1      17.114   0.222  56.136  1.00  0.00    -0.077 C 
ATOM     10  C   UNL     1      16.881  -0.728  55.215  1.00  0.00     0.008 C 
ATOM     11  C   UNL     1      17.802   1.493  55.699  1.00  0.00     0.039 C 
ENDBRANCH   5   9
TORSDOF 1
ENDMDL
MODEL 6
REMARK VINA RESULT:    -4.267      2.192      4.401
REMARK INTER + INTRA:          -4.604
REMARK INTER:                  -4.505
REMARK INTRA:                  -0.098
REMARK UNBOUND:                -0.087
REMARK SMILES C=C(C)[C@H]1CC=C(C)C(=O)C1
REMARK SMILES IDX 8 1 7 2 6 3 5 4 4 5 11 6 9 7 10 8 2 9 1 10 3 11
REMARK H PARENT
REMARK Flexibility Score: inf
ROOT
ATOM      1  C   UNL     1      29.425  -5.773  51.129  1.00  0.00     0.048 C 
ATOM      2  C   UNL     1      28.426  -5.289  52.143  1.00  0.00    -0.012 C 
ATOM      3  C   UNL     1      27.144  -5.107  51.785  1.00  0.00    -0.019 C 
ATOM      4  C   UNL     1      26.106  -4.607  52.754  1.00  0.00     0.036 C 
ATOM      5  C   UNL     1      26.407  -5.090  54.186  1.00  0.00     0.025 C 
ATOM      6  C   UNL     1      27.834  -4.684  54.597  1.00  0.00     0.089 C 
ATOM      7  C   UNL     1      28.830  -5.130  53.562  1.00  0.00     0.158 C 
ATOM      8  O   UNL     1      30.025  -5.334  53.909  1.00  0.00    -0.295 OA
ENDROOT
BRANCH   5   9
ATOM      9  C   UNL     1      25.374  -4.572  55.176  1.00  0.00    -0.077 C 
ATOM     10  C   UNL     1      24.431  -3.704  54.775  1.00  0.00     0.008 C 
ATOM     11  C   UNL     1      25.377  -5.013  56.620  1.00  0.00     0.039 C 
ENDBRANCH   5   9
TORSDOF 1
ENDMDL
MODEL 7
REMARK VINA RESULT:    -4.194     10.416     11.863
REMARK INTER + INTRA:          -4.526
REMARK INTER:                  -4.427
REMARK INTRA:                  -0.099
REMARK UNBOUND:                -0.087
REMARK SMILES C=C(C)[C@H]1CC=C(C)C(=O)C1
REMARK SMILES IDX 8 1 7 2 6 3 5 4 4 5 11 6 9 7 10 8 2 9 1 10 3 11
REMARK H PARENT
REMARK Flexibility Score: inf
ROOT
ATOM      1  C   UNL     1      14.725  -2.045  61.795  1.00  0.00     0.048 C 
ATOM      2  C   UNL     1      15.319  -1.399  60.574  1.00  0.00    -0.012 C 
ATOM      3  C   UNL     1      16.106  -2.117  59.754  1.00  0.00    -0.019 C 
ATOM      4  C   UNL     1      16.741  -1.516  58.529  1.00  0.00     0.036 C 
ATOM      5  C   UNL     1      15.841  -0.426  57.915  1.00  0.00     0.025 C 
ATOM      6  C   UNL     1      15.493   0.637  58.973  1.00  0.00     0.089 C 
ATOM      7  C   UNL     1      14.939  -0.011  60.212  1.00  0.00     0.158 C 
ATOM      8  O   UNL     1      14.173   0.653  60.962  1.00  0.00    -0.295 OA
ENDROOT
BRANCH   5   9
ATOM      9  C   UNL     1      16.484   0.201  56.687  1.00  0.00    -0.077 C 
ATOM     10  C   UNL     1      16.749   1.518  56.663  1.00  0.00     0.008 C 
ATOM     11  C   UNL     1      16.840  -0.626  55.475  1.00  0.00     0.039 C 
ENDBRANCH   5   9
TORSDOF 1
ENDMDL
MODEL 8
REMARK VINA RESULT:    -4.089      9.971     11.336
REMARK INTER + INTRA:          -4.415
REMARK INTER:                  -4.317
REMARK INTRA:                  -0.098
REMARK UNBOUND:                -0.087
REMARK SMILES C=C(C)[C@H]1CC=C(C)C(=O)C1
REMARK SMILES IDX 8 1 7 2 6 3 5 4 4 5 11 6 9 7 10 8 2 9 1 10 3 11
REMARK H PARENT
REMARK Flexibility Score: inf
ROOT
ATOM      1  C   UNL     1      17.945   2.310  54.686  1.00  0.00     0.048 C 
ATOM      2  C   UNL     1      17.588   1.423  55.846  1.00  0.00    -0.012 C 
ATOM      3  C   UNL     1      17.570   1.927  57.092  1.00  0.00    -0.019 C 
ATOM      4  C   UNL     1      17.238   1.080  58.291  1.00  0.00     0.036 C 
ATOM      5  C   UNL     1      16.220  -0.019  57.929  1.00  0.00     0.025 C 
ATOM      6  C   UNL     1      16.740  -0.859  56.747  1.00  0.00     0.089 C 
ATOM      7  C   UNL     1      17.139   0.030  55.602  1.00  0.00     0.158 C 
ATOM      8  O   UNL     1      17.120  -0.434  54.430  1.00  0.00    -0.295 OA
ENDROOT
BRANCH   5   9
ATOM      9  C   UNL     1      15.893  -0.893  59.131  1.00  0.00    -0.077 C 
ATOM     10  C   UNL     1      16.538  -2.058  59.313  1.00  0.00     0.008 C 
ATOM     11  C   UNL     1      14.851  -0.484  60.143  1.00  0.00     0.039 C 
ENDBRANCH   5   9
TORSDOF 1
ENDMDL
MODEL 9
REMARK VINA RESULT:    -4.077     10.063     11.350
REMARK INTER + INTRA:          -4.402
REMARK INTER:                  -4.304
REMARK INTRA:                  -0.098
REMARK UNBOUND:                -0.087
REMARK SMILES C=C(C)[C@H]1CC=C(C)C(=O)C1
REMARK SMILES IDX 8 1 7 2 6 3 5 4 4 5 11 6 9 7 10 8 2 9 1 10 3 11
REMARK H PARENT
REMARK Flexibility Score: inf
ROOT
ATOM      1  C   UNL     1      17.878  -2.180  63.154  1.00  0.00     0.048 C 
ATOM      2  C   UNL     1      17.453  -1.633  61.819  1.00  0.00    -0.012 C 
ATOM      3  C   UNL     1      18.378  -1.163  60.964  1.00  0.00    -0.019 C 
ATOM      4  C   UNL     1      18.007  -0.588  59.624  1.00  0.00     0.036 C 
ATOM      5  C   UNL     1      16.760  -1.286  59.047  1.00  0.00     0.025 C 
ATOM      6  C   UNL     1      15.597  -1.219  60.053  1.00  0.00     0.089 C 
ATOM      7  C   UNL     1      16.032  -1.725  61.401  1.00  0.00     0.158 C 
ATOM      8  O   UNL     1      15.169  -2.198  62.187  1.00  0.00    -0.295 OA
ENDROOT
BRANCH   5   9
ATOM      9  C   UNL     1      16.365  -0.697  57.700  1.00  0.00    -0.077 C 
ATOM     10  C   UNL     1      15.306   0.123  57.608  1.00  0.00     0.008 C 
ATOM     11  C   UNL     1      17.142  -1.011  56.445  1.00  0.00     0.039 C 
ENDBRANCH   5   9
TORSDOF 1
ENDMDL
