MODEL 1
REMARK VINA RESULT:    -0.553      0.000      0.000
REMARK INTER + INTRA:          -0.224
REMARK INTER:                  -0.860
REMARK INTRA:                   0.636
REMARK UNBOUND:                 0.636
REMARK SMILES C=C(C)[C@@H]1CC=C2C(=CC[C@@]3(C)[C@H]([C@@H](CCC=C(C)C)C(=O)[O-])[C@@H](O)C[C@@]23C)[C@]1(C)CCC(=O)[O-]
REMARK SMILES IDX 29 1 8 2 4 3 30 4 7 5 9 6 5 7 27 8 6 9 10 10 11 11 26 12
REMARK SMILES IDX 28 13 13 14 12 15 24 16 31 17 32 18 33 19 34 20 35 21 2 22
REMARK SMILES IDX 1 23 3 24 14 25 21 26 22 27 23 28 15 29 16 30 17 31 18 32
REMARK SMILES IDX 19 33 20 34 25 35
REMARK H PARENT 25 36
REMARK Flexibility Score: inf
ROOT
ATOM      1  C   UNL     1      96.507 111.403 110.165  1.00  0.00    -0.000 C 
ATOM      2  C   UNL     1      97.428 111.526 111.407  1.00  0.00    -0.042 C 
ATOM      3  C   UNL     1      95.489 110.261 110.535  1.00  0.00     0.028 C 
ATOM      4  C   UNL     1      97.308 111.047 108.875  1.00  0.00     0.017 C 
ATOM      5  C   UNL     1      96.784 111.624 112.750  1.00  0.00    -0.042 C 
ATOM      6  C   UNL     1      98.766 111.581 111.319  1.00  0.00    -0.022 C 
ATOM      7  C   UNL     1      94.656 110.660 111.769  1.00  0.00     0.036 C 
ATOM      8  C   UNL     1      97.530 112.302 113.911  1.00  0.00     0.001 C 
ATOM      9  C   UNL     1      95.489 111.241 112.879  1.00  0.00    -0.022 C 
ATOM     10  C   UNL     1      99.666 112.078 112.388  1.00  0.00     0.035 C 
ATOM     11  C   UNL     1      99.103 112.127 113.864  1.00  0.00    -0.014 C 
ATOM     12  C   UNL     1      97.363 113.824 113.824  1.00  0.00     0.044 C 
ATOM     13  C   UNL     1      96.934 111.840 115.290  1.00  0.00     0.017 C 
ATOM     14  C   UNL     1      99.658 113.448 114.551  1.00  0.00     0.034 C 
ATOM     15  C   UNL     1      99.535 110.790 114.536  1.00  0.00     0.013 C 
ATOM     16  C   UNL     1      98.442 114.383 114.749  1.00  0.00     0.119 C 
ENDROOT
BRANCH   1  17
ATOM     17  C   UNL     1      95.863 112.819 109.983  1.00  0.00     0.018 C 
BRANCH  17  18
ATOM     18  C   UNL     1      94.378 112.863 109.581  1.00  0.00     0.053 C 
BRANCH  18  19
ATOM     19  C   UNL     1      93.583 113.713 110.534  1.00  0.00     0.041 C 
ATOM     20  O   UNL     1      94.092 114.086 111.625  1.00  0.00    -0.550 OA
ATOM     21  O   UNL     1      92.246 113.988 110.270  1.00  0.00    -0.550 OA
ENDBRANCH  18  19
ENDBRANCH  17  18
ENDBRANCH   1  17
BRANCH   3  22
ATOM     22  C   UNL     1      94.650 109.663 109.386  1.00  0.00    -0.076 C 
ATOM     23  C   UNL     1      95.007 108.467 108.876  1.00  0.00     0.008 C 
ATOM     24  C   UNL     1      93.315 110.226 108.926  1.00  0.00     0.039 C 
ENDBRANCH   3  22
BRANCH  14  25
ATOM     25  C   UNL     1     100.664 113.304 115.747  1.00  0.00     0.042 C 
BRANCH  25  26
ATOM     26  C   UNL     1     102.146 113.338 115.433  1.00  0.00     0.045 C 
ATOM     27  O   UNL     1     102.963 113.627 116.351  1.00  0.00    -0.550 OA
ATOM     28  O   UNL     1     102.643 112.962 114.188  1.00  0.00    -0.550 OA
ENDBRANCH  25  26
BRANCH  25  29
ATOM     29  C   UNL     1     100.313 112.136 116.715  1.00  0.00     0.014 C 
BRANCH  29  30
ATOM     30  C   UNL     1     100.317 112.482 118.225  1.00  0.00     0.028 C 
BRANCH  30  31
ATOM     31  C   UNL     1     100.932 111.368 119.029  1.00  0.00    -0.028 C 
ATOM     32  C   UNL     1     100.503 110.086 119.031  1.00  0.00    -0.080 C 
ATOM     33  C   UNL     1      99.414 109.606 118.101  1.00  0.00     0.039 C 
ATOM     34  C   UNL     1     101.232 109.093 119.906  1.00  0.00     0.039 C 
ENDBRANCH  30  31
ENDBRANCH  29  30
ENDBRANCH  25  29
ENDBRANCH  14  25
BRANCH  16  35
ATOM     35  O   UNL     1      98.709 115.730 114.454  1.00  0.00    -0.393 OA
ATOM     36  H   UNL     1      97.889 116.262 114.546  1.00  0.00     0.210 HD
ENDBRANCH  16  35
TORSDOF 10
ENDMDL
MODEL 2
REMARK VINA RESULT:     0.114      4.118      9.909
REMARK INTER + INTRA:           0.814
REMARK INTER:                   1.939
REMARK INTRA:                  -1.125
REMARK UNBOUND:                 0.636
REMARK SMILES C=C(C)[C@@H]1CC=C2C(=CC[C@@]3(C)[C@H]([C@@H](CCC=C(C)C)C(=O)[O-])[C@@H](O)C[C@@]23C)[C@]1(C)CCC(=O)[O-]
REMARK SMILES IDX 29 1 8 2 4 3 30 4 7 5 9 6 5 7 27 8 6 9 10 10 11 11 26 12
REMARK SMILES IDX 28 13 13 14 12 15 24 16 31 17 32 18 33 19 34 20 35 21 2 22
REMARK SMILES IDX 1 23 3 24 14 25 21 26 22 27 23 28 15 29 16 30 17 31 18 32
REMARK SMILES IDX 19 33 20 34 25 35
REMARK H PARENT 25 36
REMARK Flexibility Score: inf
ROOT
ATOM      1  C   UNL     1      99.534 114.833 121.552  1.00  0.00    -0.000 C 
ATOM      2  C   UNL     1      99.878 114.109 120.225  1.00  0.00    -0.042 C 
ATOM      3  C   UNL     1     100.929 115.187 122.188  1.00  0.00     0.028 C 
ATOM      4  C   UNL     1      98.692 113.934 122.508  1.00  0.00     0.017 C 
ATOM      5  C   UNL     1     100.875 114.748 119.316  1.00  0.00    -0.042 C 
ATOM      6  C   UNL     1      99.296 112.959 119.850  1.00  0.00    -0.022 C 
ATOM      7  C   UNL     1     101.719 116.134 121.262  1.00  0.00     0.036 C 
ATOM      8  C   UNL     1     100.847 114.440 117.810  1.00  0.00     0.001 C 
ATOM      9  C   UNL     1     101.695 115.703 119.820  1.00  0.00    -0.022 C 
ATOM     10  C   UNL     1      99.281 112.428 118.465  1.00  0.00     0.035 C 
ATOM     11  C   UNL     1     100.364 112.976 117.453  1.00  0.00    -0.014 C 
ATOM     12  C   UNL     1      99.795 115.314 117.115  1.00  0.00     0.044 C 
ATOM     13  C   UNL     1     102.239 114.769 117.157  1.00  0.00     0.017 C 
ATOM     14  C   UNL     1      99.666 113.134 116.035  1.00  0.00     0.034 C 
ATOM     15  C   UNL     1     101.552 111.969 117.507  1.00  0.00     0.013 C 
ATOM     16  C   UNL     1      99.582 114.653 115.755  1.00  0.00     0.119 C 
ENDROOT
BRANCH   1  17
ATOM     17  C   UNL     1      98.671 116.074 121.137  1.00  0.00     0.018 C 
BRANCH  17  18
ATOM     18  C   UNL     1      97.689 116.623 122.187  1.00  0.00     0.053 C 
BRANCH  18  19
ATOM     19  C   UNL     1      98.278 117.797 122.919  1.00  0.00     0.041 C 
ATOM     20  O   UNL     1      99.135 118.530 122.356  1.00  0.00    -0.550 OA
ATOM     21  O   UNL     1      97.969 118.006 124.259  1.00  0.00    -0.550 OA
ENDBRANCH  18  19
ENDBRANCH  17  18
ENDBRANCH   1  17
BRANCH   3  22
ATOM     22  C   UNL     1     100.943 115.614 123.670  1.00  0.00    -0.076 C 
ATOM     23  C   UNL     1     101.476 116.809 123.997  1.00  0.00     0.008 C 
ATOM     24  C   UNL     1     100.204 114.875 124.774  1.00  0.00     0.039 C 
ENDBRANCH   3  22
BRANCH  14  25
ATOM     25  C   UNL     1     100.137 112.206 114.860  1.00  0.00     0.042 C 
BRANCH  25  26
ATOM     26  C   UNL     1     101.065 112.797 113.819  1.00  0.00     0.045 C 
ATOM     27  O   UNL     1     102.267 113.028 114.128  1.00  0.00    -0.550 OA
ATOM     28  O   UNL     1     100.660 113.001 112.503  1.00  0.00    -0.550 OA
ENDBRANCH  25  26
BRANCH  25  29
ATOM     29  C   UNL     1      98.976 111.404 114.201  1.00  0.00     0.014 C 
BRANCH  29  30
ATOM     30  C   UNL     1      97.753 112.237 113.743  1.00  0.00     0.028 C 
BRANCH  30  31
ATOM     31  C   UNL     1      96.871 111.435 112.823  1.00  0.00    -0.028 C 
ATOM     32  C   UNL     1      95.774 111.912 112.193  1.00  0.00    -0.080 C 
ATOM     33  C   UNL     1      95.389 113.372 112.250  1.00  0.00     0.039 C 
ATOM     34  C   UNL     1      94.996 110.967 111.307  1.00  0.00     0.039 C 
ENDBRANCH  30  31
ENDBRANCH  29  30
ENDBRANCH  25  29
ENDBRANCH  14  25
BRANCH  16  35
ATOM     35  O   UNL     1      98.365 115.058 115.184  1.00  0.00    -0.393 OA
ATOM     36  H   UNL     1      98.399 114.947 114.209  1.00  0.00     0.210 HD
ENDBRANCH  16  35
TORSDOF 10
ENDMDL
MODEL 3
REMARK VINA RESULT:     0.339      2.330      8.674
REMARK INTER + INTRA:           1.164
REMARK INTER:                   1.755
REMARK INTRA:                  -0.591
REMARK UNBOUND:                 0.636
REMARK SMILES C=C(C)[C@@H]1CC=C2C(=CC[C@@]3(C)[C@H]([C@@H](CCC=C(C)C)C(=O)[O-])[C@@H](O)C[C@@]23C)[C@]1(C)CCC(=O)[O-]
REMARK SMILES IDX 29 1 8 2 4 3 30 4 7 5 9 6 5 7 27 8 6 9 10 10 11 11 26 12
REMARK SMILES IDX 28 13 13 14 12 15 24 16 31 17 32 18 33 19 34 20 35 21 2 22
REMARK SMILES IDX 1 23 3 24 14 25 21 26 22 27 23 28 15 29 16 30 17 31 18 32
REMARK SMILES IDX 19 33 20 34 25 35
REMARK H PARENT 25 36
REMARK Flexibility Score: inf
ROOT
ATOM      1  C   UNL     1     100.027 113.237 117.494  1.00  0.00    -0.000 C 
ATOM      2  C   UNL     1      99.227 112.835 116.228  1.00  0.00    -0.042 C 
ATOM      3  C   UNL     1      99.548 112.230 118.605  1.00  0.00     0.028 C 
ATOM      4  C   UNL     1      99.752 114.713 117.917  1.00  0.00     0.017 C 
ATOM      5  C   UNL     1      99.199 111.393 115.845  1.00  0.00    -0.042 C 
ATOM      6  C   UNL     1      98.594 113.730 115.453  1.00  0.00    -0.022 C 
ATOM      7  C   UNL     1      99.891 110.782 118.205  1.00  0.00     0.036 C 
ATOM      8  C   UNL     1      98.952 110.993 114.381  1.00  0.00     0.001 C 
ATOM      9  C   UNL     1      99.539 110.467 116.776  1.00  0.00    -0.022 C 
ATOM     10  C   UNL     1      98.154 113.481 114.058  1.00  0.00     0.035 C 
ATOM     11  C   UNL     1      98.002 111.980 113.588  1.00  0.00    -0.014 C 
ATOM     12  C   UNL     1     100.261 111.082 113.585  1.00  0.00     0.044 C 
ATOM     13  C   UNL     1      98.449 109.507 114.296  1.00  0.00     0.017 C 
ATOM     14  C   UNL     1      98.515 111.887 112.087  1.00  0.00     0.034 C 
ATOM     15  C   UNL     1      96.505 111.609 113.808  1.00  0.00     0.013 C 
ATOM     16  C   UNL     1      99.824 111.062 112.122  1.00  0.00     0.119 C 
ENDROOT
BRANCH   1  17
ATOM     17  C   UNL     1     101.535 113.100 117.095  1.00  0.00     0.018 C 
BRANCH  17  18
ATOM     18  C   UNL     1     102.101 114.157 116.131  1.00  0.00     0.053 C 
BRANCH  18  19
ATOM     19  C   UNL     1     103.026 115.103 116.846  1.00  0.00     0.041 C 
ATOM     20  O   UNL     1     104.209 114.756 117.107  1.00  0.00    -0.550 OA
ATOM     21  O   UNL     1     102.544 116.316 117.327  1.00  0.00    -0.550 OA
ENDBRANCH  18  19
ENDBRANCH  17  18
ENDBRANCH   1  17
BRANCH   3  22
ATOM     22  C   UNL     1      99.902 112.570 120.068  1.00  0.00    -0.076 C 
ATOM     23  C   UNL     1     100.933 111.928 120.653  1.00  0.00     0.008 C 
ATOM     24  C   UNL     1      99.304 113.737 120.838  1.00  0.00     0.039 C 
ENDBRANCH   3  22
BRANCH  14  25
ATOM     25  C   UNL     1      97.476 111.553 110.959  1.00  0.00     0.042 C 
BRANCH  25  26
ATOM     26  C   UNL     1      98.012 111.206 109.585  1.00  0.00     0.045 C 
ATOM     27  O   UNL     1      97.388 110.367 108.876  1.00  0.00    -0.550 OA
ATOM     28  O   UNL     1      99.113 111.859 109.038  1.00  0.00    -0.550 OA
ENDBRANCH  25  26
BRANCH  25  29
ATOM     29  C   UNL     1      96.304 112.574 110.875  1.00  0.00     0.014 C 
BRANCH  29  30
ATOM     30  C   UNL     1      94.892 112.009 111.167  1.00  0.00     0.028 C 
BRANCH  30  31
ATOM     31  C   UNL     1      93.854 113.097 111.103  1.00  0.00    -0.028 C 
ATOM     32  C   UNL     1      92.954 113.252 110.106  1.00  0.00    -0.080 C 
ATOM     33  C   UNL     1      92.814 112.242 108.990  1.00  0.00     0.039 C 
ATOM     34  C   UNL     1      91.984 114.407 110.195  1.00  0.00     0.039 C 
ENDBRANCH  30  31
ENDBRANCH  29  30
ENDBRANCH  25  29
ENDBRANCH  14  25
BRANCH  16  35
ATOM     35  O   UNL     1     100.834 111.567 111.288  1.00  0.00    -0.393 OA
ATOM     36  H   UNL     1     101.250 112.353 111.704  1.00  0.00     0.210 HD
ENDBRANCH  16  35
TORSDOF 10
ENDMDL
MODEL 4
REMARK VINA RESULT:     0.961      4.117      9.952
REMARK INTER + INTRA:           2.131
REMARK INTER:                   2.679
REMARK INTRA:                  -0.548
REMARK UNBOUND:                 0.636
REMARK SMILES C=C(C)[C@@H]1CC=C2C(=CC[C@@]3(C)[C@H]([C@@H](CCC=C(C)C)C(=O)[O-])[C@@H](O)C[C@@]23C)[C@]1(C)CCC(=O)[O-]
REMARK SMILES IDX 29 1 8 2 4 3 30 4 7 5 9 6 5 7 27 8 6 9 10 10 11 11 26 12
REMARK SMILES IDX 28 13 13 14 12 15 24 16 31 17 32 18 33 19 34 20 35 21 2 22
REMARK SMILES IDX 1 23 3 24 14 25 21 26 22 27 23 28 15 29 16 30 17 31 18 32
REMARK SMILES IDX 19 33 20 34 25 35
REMARK H PARENT 25 36
REMARK Flexibility Score: inf
ROOT
ATOM      1  C   UNL     1      99.585 114.789 121.484  1.00  0.00    -0.000 C 
ATOM      2  C   UNL     1      99.994 114.148 120.133  1.00  0.00    -0.042 C 
ATOM      3  C   UNL     1     100.946 115.194 122.162  1.00  0.00     0.028 C 
ATOM      4  C   UNL     1      98.781 113.799 122.383  1.00  0.00     0.017 C 
ATOM      5  C   UNL     1     100.966 114.885 119.273  1.00  0.00    -0.042 C 
ATOM      6  C   UNL     1      99.486 112.985 119.695  1.00  0.00    -0.022 C 
ATOM      7  C   UNL     1     101.694 116.226 121.296  1.00  0.00     0.036 C 
ATOM      8  C   UNL     1     100.981 114.647 117.754  1.00  0.00     0.001 C 
ATOM      9  C   UNL     1     101.719 115.862 119.836  1.00  0.00    -0.022 C 
ATOM     10  C   UNL     1      99.526 112.519 118.287  1.00  0.00     0.035 C 
ATOM     11  C   UNL     1     100.592 113.175 117.323  1.00  0.00    -0.014 C 
ATOM     12  C   UNL     1      99.891 115.490 117.080  1.00  0.00     0.044 C 
ATOM     13  C   UNL     1     102.362 115.086 117.144  1.00  0.00     0.017 C 
ATOM     14  C   UNL     1      99.910 113.358 115.899  1.00  0.00     0.034 C 
ATOM     15  C   UNL     1     101.836 112.237 117.353  1.00  0.00     0.013 C 
ATOM     16  C   UNL     1      99.740 114.881 115.687  1.00  0.00     0.119 C 
ENDROOT
BRANCH   1  17
ATOM     17  C   UNL     1      98.657 115.995 121.109  1.00  0.00     0.018 C 
BRANCH  17  18
ATOM     18  C   UNL     1      97.698 116.502 122.200  1.00  0.00     0.053 C 
BRANCH  18  19
ATOM     19  C   UNL     1      98.318 117.623 122.989  1.00  0.00     0.041 C 
ATOM     20  O   UNL     1      97.993 117.805 124.193  1.00  0.00    -0.550 OA
ATOM     21  O   UNL     1      99.159 118.534 122.359  1.00  0.00    -0.550 OA
ENDBRANCH  18  19
ENDBRANCH  17  18
ENDBRANCH   1  17
BRANCH   3  22
ATOM     22  C   UNL     1     100.910 115.552 123.662  1.00  0.00    -0.076 C 
ATOM     23  C   UNL     1     101.477 116.705 124.069  1.00  0.00     0.008 C 
ATOM     24  C   UNL     1     100.090 114.797 124.697  1.00  0.00     0.039 C 
ENDBRANCH   3  22
BRANCH  14  25
ATOM     25  C   UNL     1     100.454 112.514 114.693  1.00  0.00     0.042 C 
BRANCH  25  26
ATOM     26  C   UNL     1     101.681 113.027 113.967  1.00  0.00     0.045 C 
ATOM     27  O   UNL     1     102.797 113.005 114.557  1.00  0.00    -0.550 OA
ATOM     28  O   UNL     1     101.634 113.428 112.636  1.00  0.00    -0.550 OA
ENDBRANCH  25  26
BRANCH  25  29
ATOM     29  C   UNL     1      99.343 112.072 113.695  1.00  0.00     0.014 C 
BRANCH  29  30
ATOM     30  C   UNL     1      99.762 111.022 112.637  1.00  0.00     0.028 C 
BRANCH  30  31
ATOM     31  C   UNL     1      99.165 111.345 111.293  1.00  0.00    -0.028 C 
ATOM     32  C   UNL     1      99.861 111.429 110.137  1.00  0.00    -0.080 C 
ATOM     33  C   UNL     1     101.326 111.068 110.056  1.00  0.00     0.039 C 
ATOM     34  C   UNL     1      99.104 111.772 108.875  1.00  0.00     0.039 C 
ENDBRANCH  30  31
ENDBRANCH  29  30
ENDBRANCH  25  29
ENDBRANCH  14  25
BRANCH  16  35
ATOM     35  O   UNL     1      98.511 115.240 115.112  1.00  0.00    -0.393 OA
ATOM     36  H   UNL     1      97.920 115.622 115.796  1.00  0.00     0.210 HD
ENDBRANCH  16  35
TORSDOF 10
ENDMDL
MODEL 5
REMARK VINA RESULT:     1.272      2.846      5.051
REMARK INTER + INTRA:           2.615
REMARK INTER:                   2.960
REMARK INTRA:                  -0.345
REMARK UNBOUND:                 0.636
REMARK SMILES C=C(C)[C@@H]1CC=C2C(=CC[C@@]3(C)[C@H]([C@@H](CCC=C(C)C)C(=O)[O-])[C@@H](O)C[C@@]23C)[C@]1(C)CCC(=O)[O-]
REMARK SMILES IDX 29 1 8 2 4 3 30 4 7 5 9 6 5 7 27 8 6 9 10 10 11 11 26 12
REMARK SMILES IDX 28 13 13 14 12 15 24 16 31 17 32 18 33 19 34 20 35 21 2 22
REMARK SMILES IDX 1 23 3 24 14 25 21 26 22 27 23 28 15 29 16 30 17 31 18 32
REMARK SMILES IDX 19 33 20 34 25 35
REMARK H PARENT 25 36
REMARK Flexibility Score: inf
ROOT
ATOM      1  C   UNL     1      98.362 111.670 112.824  1.00  0.00    -0.000 C 
ATOM      2  C   UNL     1      98.715 111.578 114.330  1.00  0.00    -0.042 C 
ATOM      3  C   UNL     1      96.951 112.367 112.787  1.00  0.00     0.028 C 
ATOM      4  C   UNL     1      98.313 110.266 112.146  1.00  0.00     0.017 C 
ATOM      5  C   UNL     1      98.565 112.808 115.162  1.00  0.00    -0.042 C 
ATOM      6  C   UNL     1      99.180 110.456 114.902  1.00  0.00    -0.022 C 
ATOM      7  C   UNL     1      97.031 113.781 113.395  1.00  0.00     0.036 C 
ATOM      8  C   UNL     1      99.396 112.973 116.445  1.00  0.00     0.001 C 
ATOM      9  C   UNL     1      97.800 113.822 114.688  1.00  0.00    -0.022 C 
ATOM     10  C   UNL     1      99.890 110.398 116.203  1.00  0.00     0.035 C 
ATOM     11  C   UNL     1      99.712 111.615 117.195  1.00  0.00    -0.014 C 
ATOM     12  C   UNL     1     100.796 113.494 116.099  1.00  0.00     0.044 C 
ATOM     13  C   UNL     1      98.725 114.024 117.402  1.00  0.00     0.017 C 
ATOM     14  C   UNL     1     101.113 111.879 117.896  1.00  0.00     0.034 C 
ATOM     15  C   UNL     1      98.547 111.224 118.154  1.00  0.00     0.013 C 
ATOM     16  C   UNL     1     101.625 113.235 117.355  1.00  0.00     0.119 C 
ENDROOT
BRANCH   1  17
ATOM     17  C   UNL     1      99.519 112.503 112.174  1.00  0.00     0.018 C 
BRANCH  17  18
ATOM     18  C   UNL     1     100.395 111.787 111.132  1.00  0.00     0.053 C 
BRANCH  18  19
ATOM     19  C   UNL     1     101.116 112.775 110.258  1.00  0.00     0.041 C 
ATOM     20  O   UNL     1     101.753 113.732 110.775  1.00  0.00    -0.550 OA
ATOM     21  O   UNL     1     100.983 112.707 108.875  1.00  0.00    -0.550 OA
ENDBRANCH  18  19
ENDBRANCH  17  18
ENDBRANCH   1  17
BRANCH   3  22
ATOM     22  C   UNL     1      96.166 112.306 111.460  1.00  0.00    -0.076 C 
ATOM     23  C   UNL     1      94.977 112.936 111.379  1.00  0.00     0.008 C 
ATOM     24  C   UNL     1      96.737 111.762 110.159  1.00  0.00     0.039 C 
ENDBRANCH   3  22
BRANCH  14  25
ATOM     25  C   UNL     1     101.241 111.618 119.439  1.00  0.00     0.042 C 
BRANCH  25  26
ATOM     26  C   UNL     1     101.508 110.199 119.896  1.00  0.00     0.045 C 
ATOM     27  O   UNL     1     101.030 109.238 119.230  1.00  0.00    -0.550 OA
ATOM     28  O   UNL     1     102.347 109.918 120.970  1.00  0.00    -0.550 OA
ENDBRANCH  25  26
BRANCH  25  29
ATOM     29  C   UNL     1     100.109 112.285 120.275  1.00  0.00     0.014 C 
BRANCH  29  30
ATOM     30  C   UNL     1     100.294 113.791 120.585  1.00  0.00     0.028 C 
BRANCH  30  31
ATOM     31  C   UNL     1      99.797 114.120 121.968  1.00  0.00    -0.028 C 
ATOM     32  C   UNL     1     100.323 115.069 122.774  1.00  0.00    -0.080 C 
ATOM     33  C   UNL     1     101.411 116.007 122.303  1.00  0.00     0.039 C 
ATOM     34  C   UNL     1      99.706 115.264 124.139  1.00  0.00     0.039 C 
ENDBRANCH  30  31
ENDBRANCH  29  30
ENDBRANCH  25  29
ENDBRANCH  14  25
BRANCH  16  35
ATOM     35  O   UNL     1     102.998 113.247 117.063  1.00  0.00    -0.393 OA
ATOM     36  H   UNL     1     103.202 112.566 116.385  1.00  0.00     0.210 HD
ENDBRANCH  16  35
TORSDOF 10
ENDMDL
MODEL 6
REMARK VINA RESULT:     1.544      4.224      9.607
REMARK INTER + INTRA:           3.037
REMARK INTER:                   4.468
REMARK INTRA:                  -1.431
REMARK UNBOUND:                 0.636
REMARK SMILES C=C(C)[C@@H]1CC=C2C(=CC[C@@]3(C)[C@H]([C@@H](CCC=C(C)C)C(=O)[O-])[C@@H](O)C[C@@]23C)[C@]1(C)CCC(=O)[O-]
REMARK SMILES IDX 29 1 8 2 4 3 30 4 7 5 9 6 5 7 27 8 6 9 10 10 11 11 26 12
REMARK SMILES IDX 28 13 13 14 12 15 24 16 31 17 32 18 33 19 34 20 35 21 2 22
REMARK SMILES IDX 1 23 3 24 14 25 21 26 22 27 23 28 15 29 16 30 17 31 18 32
REMARK SMILES IDX 19 33 20 34 25 35
REMARK H PARENT 25 36
REMARK Flexibility Score: inf
ROOT
ATOM      1  C   UNL     1      99.618 114.979 121.698  1.00  0.00    -0.000 C 
ATOM      2  C   UNL     1     100.030 114.267 120.384  1.00  0.00    -0.042 C 
ATOM      3  C   UNL     1     100.979 115.392 122.373  1.00  0.00     0.028 C 
ATOM      4  C   UNL     1      98.787 114.048 122.634  1.00  0.00     0.017 C 
ATOM      5  C   UNL     1     101.025 114.946 119.502  1.00  0.00    -0.042 C 
ATOM      6  C   UNL     1      99.507 113.093 119.997  1.00  0.00    -0.022 C 
ATOM      7  C   UNL     1     101.754 116.369 121.467  1.00  0.00     0.036 C 
ATOM      8  C   UNL     1     101.053 114.635 117.997  1.00  0.00     0.001 C 
ATOM      9  C   UNL     1     101.789 115.935 120.027  1.00  0.00    -0.022 C 
ATOM     10  C   UNL     1      99.553 112.560 118.613  1.00  0.00     0.035 C 
ATOM     11  C   UNL     1     100.641 113.150 117.631  1.00  0.00    -0.014 C 
ATOM     12  C   UNL     1      99.986 115.463 117.270  1.00  0.00     0.044 C 
ATOM     13  C   UNL     1     102.448 115.020 117.383  1.00  0.00     0.017 C 
ATOM     14  C   UNL     1      99.979 113.277 116.193  1.00  0.00     0.034 C 
ATOM     15  C   UNL     1     101.868 112.194 117.721  1.00  0.00     0.013 C 
ATOM     16  C   UNL     1      99.839 114.791 115.906  1.00  0.00     0.119 C 
ENDROOT
BRANCH   1  17
ATOM     17  C   UNL     1      98.717 116.182 121.256  1.00  0.00     0.018 C 
BRANCH  17  18
ATOM     18  C   UNL     1      97.750 116.754 122.308  1.00  0.00     0.053 C 
BRANCH  18  19
ATOM     19  C   UNL     1      98.338 117.963 122.983  1.00  0.00     0.041 C 
ATOM     20  O   UNL     1      97.956 118.290 124.139  1.00  0.00    -0.550 OA
ATOM     21  O   UNL     1      99.214 118.790 122.289  1.00  0.00    -0.550 OA
ENDBRANCH  18  19
ENDBRANCH  17  18
ENDBRANCH   1  17
BRANCH   3  22
ATOM     22  C   UNL     1     100.933 115.822 123.853  1.00  0.00    -0.076 C 
ATOM     23  C   UNL     1     101.406 117.039 124.192  1.00  0.00     0.008 C 
ATOM     24  C   UNL     1     100.193 115.055 124.939  1.00  0.00     0.039 C 
ENDBRANCH   3  22
BRANCH  14  25
ATOM     25  C   UNL     1     100.521 112.366 115.035  1.00  0.00     0.042 C 
BRANCH  25  26
ATOM     26  C   UNL     1     101.560 112.953 114.101  1.00  0.00     0.045 C 
ATOM     27  O   UNL     1     102.746 113.094 114.512  1.00  0.00    -0.550 OA
ATOM     28  O   UNL     1     101.272 113.249 112.772  1.00  0.00    -0.550 OA
ENDBRANCH  25  26
BRANCH  25  29
ATOM     29  C   UNL     1      99.397 111.630 114.248  1.00  0.00     0.014 C 
BRANCH  29  30
ATOM     30  C   UNL     1      98.781 110.393 114.946  1.00  0.00     0.028 C 
BRANCH  30  31
ATOM     31  C   UNL     1      99.701 109.865 116.014  1.00  0.00    -0.028 C 
ATOM     32  C   UNL     1      99.367 109.706 117.314  1.00  0.00    -0.080 C 
ATOM     33  C   UNL     1      97.958 109.927 117.812  1.00  0.00     0.039 C 
ATOM     34  C   UNL     1     100.419 109.168 118.257  1.00  0.00     0.039 C 
ENDBRANCH  30  31
ENDBRANCH  29  30
ENDBRANCH  25  29
ENDBRANCH  14  25
BRANCH  16  35
ATOM     35  O   UNL     1      98.623 115.143 115.300  1.00  0.00    -0.393 OA
ATOM     36  H   UNL     1      97.938 115.296 115.987  1.00  0.00     0.210 HD
ENDBRANCH  16  35
TORSDOF 10
ENDMDL
MODEL 7
REMARK VINA RESULT:     1.924      2.584      4.497
REMARK INTER + INTRA:           3.629
REMARK INTER:                   3.754
REMARK INTRA:                  -0.126
REMARK UNBOUND:                 0.636
REMARK SMILES C=C(C)[C@@H]1CC=C2C(=CC[C@@]3(C)[C@H]([C@@H](CCC=C(C)C)C(=O)[O-])[C@@H](O)C[C@@]23C)[C@]1(C)CCC(=O)[O-]
REMARK SMILES IDX 29 1 8 2 4 3 30 4 7 5 9 6 5 7 27 8 6 9 10 10 11 11 26 12
REMARK SMILES IDX 28 13 13 14 12 15 24 16 31 17 32 18 33 19 34 20 35 21 2 22
REMARK SMILES IDX 1 23 3 24 14 25 21 26 22 27 23 28 15 29 16 30 17 31 18 32
REMARK SMILES IDX 19 33 20 34 25 35
REMARK H PARENT 25 36
REMARK Flexibility Score: inf
ROOT
ATOM      1  C   UNL     1      96.923 111.557 112.377  1.00  0.00    -0.000 C 
ATOM      2  C   UNL     1      97.592 111.631 113.774  1.00  0.00    -0.042 C 
ATOM      3  C   UNL     1      95.723 112.573 112.454  1.00  0.00     0.028 C 
ATOM      4  C   UNL     1      96.420 110.118 112.044  1.00  0.00     0.017 C 
ATOM      5  C   UNL     1      97.904 112.981 114.330  1.00  0.00    -0.042 C 
ATOM      6  C   UNL     1      97.928 110.540 114.479  1.00  0.00    -0.022 C 
ATOM      7  C   UNL     1      96.242 114.001 112.713  1.00  0.00     0.036 C 
ATOM      8  C   UNL     1      99.029 113.142 115.366  1.00  0.00     0.001 C 
ATOM      9  C   UNL     1      97.283 114.062 113.798  1.00  0.00    -0.022 C 
ATOM     10  C   UNL     1      98.895 110.523 115.605  1.00  0.00     0.035 C 
ATOM     11  C   UNL     1      99.216 111.894 116.322  1.00  0.00    -0.014 C 
ATOM     12  C   UNL     1     100.387 113.224 114.658  1.00  0.00     0.044 C 
ATOM     13  C   UNL     1      98.839 114.474 116.179  1.00  0.00     0.017 C 
ATOM     14  C   UNL     1     100.766 111.906 116.672  1.00  0.00     0.034 C 
ATOM     15  C   UNL     1      98.253 111.978 117.544  1.00  0.00     0.013 C 
ATOM     16  C   UNL     1     101.413 112.977 115.762  1.00  0.00     0.119 C 
ENDROOT
BRANCH   1  17
ATOM     17  C   UNL     1      98.045 111.948 111.356  1.00  0.00     0.018 C 
BRANCH  17  18
ATOM     18  C   UNL     1      99.459 111.408 111.633  1.00  0.00     0.053 C 
BRANCH  18  19
ATOM     19  C   UNL     1     100.303 111.435 110.388  1.00  0.00     0.041 C 
ATOM     20  O   UNL     1     100.124 110.575 109.484  1.00  0.00    -0.550 OA
ATOM     21  O   UNL     1     101.361 112.331 110.285  1.00  0.00    -0.550 OA
ENDBRANCH  18  19
ENDBRANCH  17  18
ENDBRANCH   1  17
BRANCH   3  22
ATOM     22  C   UNL     1      94.655 112.492 111.344  1.00  0.00    -0.076 C 
ATOM     23  C   UNL     1      94.552 113.510 110.466  1.00  0.00     0.008 C 
ATOM     24  C   UNL     1      93.844 111.244 111.034  1.00  0.00     0.039 C 
ENDBRANCH   3  22
BRANCH  14  25
ATOM     25  C   UNL     1     101.194 111.883 118.183  1.00  0.00     0.042 C 
BRANCH  25  26
ATOM     26  C   UNL     1     101.072 110.573 118.932  1.00  0.00     0.045 C 
ATOM     27  O   UNL     1     100.306 109.676 118.482  1.00  0.00    -0.550 OA
ATOM     28  O   UNL     1     101.855 110.287 120.047  1.00  0.00    -0.550 OA
ENDBRANCH  25  26
BRANCH  25  29
ATOM     29  C   UNL     1     100.614 113.070 119.008  1.00  0.00     0.014 C 
BRANCH  29  30
ATOM     30  C   UNL     1     100.058 112.713 120.409  1.00  0.00     0.028 C 
BRANCH  30  31
ATOM     31  C   UNL     1      99.181 113.816 120.936  1.00  0.00    -0.028 C 
ATOM     32  C   UNL     1      99.275 114.357 122.171  1.00  0.00    -0.080 C 
ATOM     33  C   UNL     1     100.385 113.984 123.126  1.00  0.00     0.039 C 
ATOM     34  C   UNL     1      98.307 115.456 122.543  1.00  0.00     0.039 C 
ENDBRANCH  30  31
ENDBRANCH  29  30
ENDBRANCH  25  29
ENDBRANCH  14  25
BRANCH  16  35
ATOM     35  O   UNL     1     102.649 112.590 115.222  1.00  0.00    -0.393 OA
ATOM     36  H   UNL     1     103.369 112.779 115.864  1.00  0.00     0.210 HD
ENDBRANCH  16  35
TORSDOF 10
ENDMDL
MODEL 8
REMARK VINA RESULT:     2.047      4.069      6.849
REMARK INTER + INTRA:           3.820
REMARK INTER:                   4.912
REMARK INTRA:                  -1.091
REMARK UNBOUND:                 0.636
REMARK SMILES C=C(C)[C@@H]1CC=C2C(=CC[C@@]3(C)[C@H]([C@@H](CCC=C(C)C)C(=O)[O-])[C@@H](O)C[C@@]23C)[C@]1(C)CCC(=O)[O-]
REMARK SMILES IDX 29 1 8 2 4 3 30 4 7 5 9 6 5 7 27 8 6 9 10 10 11 11 26 12
REMARK SMILES IDX 28 13 13 14 12 15 24 16 31 17 32 18 33 19 34 20 35 21 2 22
REMARK SMILES IDX 1 23 3 24 14 25 21 26 22 27 23 28 15 29 16 30 17 31 18 32
REMARK SMILES IDX 19 33 20 34 25 35
REMARK H PARENT 25 36
REMARK Flexibility Score: inf
ROOT
ATOM      1  C   UNL     1      99.729 112.388 113.548  1.00  0.00    -0.000 C 
ATOM      2  C   UNL     1      99.819 113.100 114.923  1.00  0.00    -0.042 C 
ATOM      3  C   UNL     1     100.893 113.018 112.696  1.00  0.00     0.028 C 
ATOM      4  C   UNL     1      98.346 112.611 112.862  1.00  0.00     0.017 C 
ATOM      5  C   UNL     1     101.154 113.178 115.585  1.00  0.00    -0.042 C 
ATOM      6  C   UNL     1      98.748 113.611 115.549  1.00  0.00    -0.022 C 
ATOM      7  C   UNL     1     102.258 112.727 113.349  1.00  0.00     0.036 C 
ATOM      8  C   UNL     1     101.246 113.323 117.113  1.00  0.00     0.001 C 
ATOM      9  C   UNL     1     102.265 112.973 114.834  1.00  0.00    -0.022 C 
ATOM     10  C   UNL     1      98.690 113.944 116.994  1.00  0.00     0.035 C 
ATOM     11  C   UNL     1     100.057 114.143 117.761  1.00  0.00    -0.014 C 
ATOM     12  C   UNL     1     101.102 111.949 117.779  1.00  0.00     0.044 C 
ATOM     13  C   UNL     1     102.647 113.903 117.526  1.00  0.00     0.017 C 
ATOM     14  C   UNL     1      99.897 113.510 119.210  1.00  0.00     0.034 C 
ATOM     15  C   UNL     1     100.352 115.673 117.727  1.00  0.00     0.013 C 
ATOM     16  C   UNL     1     100.807 112.260 119.245  1.00  0.00     0.119 C 
ENDROOT
BRANCH   1  17
ATOM     17  C   UNL     1      99.898 110.862 113.857  1.00  0.00     0.018 C 
BRANCH  17  18
ATOM     18  C   UNL     1      98.697 110.141 114.493  1.00  0.00     0.053 C 
BRANCH  18  19
ATOM     19  C   UNL     1      99.061 109.556 115.830  1.00  0.00     0.041 C 
ATOM     20  O   UNL     1      99.196 108.310 115.960  1.00  0.00    -0.550 OA
ATOM     21  O   UNL     1      99.132 110.376 116.952  1.00  0.00    -0.550 OA
ENDBRANCH  18  19
ENDBRANCH  17  18
ENDBRANCH   1  17
BRANCH   3  22
ATOM     22  C   UNL     1     100.868 112.771 111.173  1.00  0.00    -0.076 C 
ATOM     23  C   UNL     1     101.324 113.737 110.351  1.00  0.00     0.008 C 
ATOM     24  C   UNL     1     100.564 111.424 110.535  1.00  0.00     0.039 C 
ENDBRANCH   3  22
BRANCH  14  25
ATOM     25  C   UNL     1      99.930 114.467 120.453  1.00  0.00     0.042 C 
BRANCH  25  26
ATOM     26  C   UNL     1     100.867 114.116 121.591  1.00  0.00     0.045 C 
ATOM     27  O   UNL     1     101.689 114.982 122.000  1.00  0.00    -0.550 OA
ATOM     28  O   UNL     1     100.780 112.903 122.267  1.00  0.00    -0.550 OA
ENDBRANCH  25  26
BRANCH  25  29
ATOM     29  C   UNL     1      98.515 114.852 120.977  1.00  0.00     0.014 C 
BRANCH  29  30
ATOM     30  C   UNL     1      98.415 115.171 122.489  1.00  0.00     0.028 C 
BRANCH  30  31
ATOM     31  C   UNL     1      97.982 116.595 122.710  1.00  0.00    -0.028 C 
ATOM     32  C   UNL     1      98.762 117.570 123.228  1.00  0.00    -0.080 C 
ATOM     33  C   UNL     1     100.227 117.351 123.525  1.00  0.00     0.039 C 
ATOM     34  C   UNL     1      98.164 118.949 123.390  1.00  0.00     0.039 C 
ENDBRANCH  30  31
ENDBRANCH  29  30
ENDBRANCH  25  29
ENDBRANCH  14  25
BRANCH  16  35
ATOM     35  O   UNL     1     100.227 111.155 119.887  1.00  0.00    -0.393 OA
ATOM     36  H   UNL     1     100.422 111.187 120.849  1.00  0.00     0.210 HD
ENDBRANCH  16  35
TORSDOF 10
ENDMDL
MODEL 9
REMARK VINA RESULT:     2.246      2.668      4.530
REMARK INTER + INTRA:           4.129
REMARK INTER:                   4.809
REMARK INTRA:                  -0.680
REMARK UNBOUND:                 0.636
REMARK SMILES C=C(C)[C@@H]1CC=C2C(=CC[C@@]3(C)[C@H]([C@@H](CCC=C(C)C)C(=O)[O-])[C@@H](O)C[C@@]23C)[C@]1(C)CCC(=O)[O-]
REMARK SMILES IDX 29 1 8 2 4 3 30 4 7 5 9 6 5 7 27 8 6 9 10 10 11 11 26 12
REMARK SMILES IDX 28 13 13 14 12 15 24 16 31 17 32 18 33 19 34 20 35 21 2 22
REMARK SMILES IDX 1 23 3 24 14 25 21 26 22 27 23 28 15 29 16 30 17 31 18 32
REMARK SMILES IDX 19 33 20 34 25 35
REMARK H PARENT 25 36
REMARK Flexibility Score: inf
ROOT
ATOM      1  C   UNL     1      98.996 111.482 112.042  1.00  0.00    -0.000 C 
ATOM      2  C   UNL     1      99.109 111.240 113.570  1.00  0.00    -0.042 C 
ATOM      3  C   UNL     1      97.451 111.615 111.772  1.00  0.00     0.028 C 
ATOM      4  C   UNL     1      99.613 110.312 111.216  1.00  0.00     0.017 C 
ATOM      5  C   UNL     1      98.356 112.150 114.481  1.00  0.00    -0.042 C 
ATOM      6  C   UNL     1      99.878 110.275 114.099  1.00  0.00    -0.022 C 
ATOM      7  C   UNL     1      96.871 112.819 112.540  1.00  0.00     0.036 C 
ATOM      8  C   UNL     1      98.836 112.358 115.927  1.00  0.00     0.001 C 
ATOM      9  C   UNL     1      97.342 112.889 113.968  1.00  0.00    -0.022 C 
ATOM     10  C   UNL     1     100.333 110.232 115.510  1.00  0.00     0.035 C 
ATOM     11  C   UNL     1      99.534 111.090 116.570  1.00  0.00    -0.014 C 
ATOM     12  C   UNL     1      99.956 113.406 115.962  1.00  0.00     0.044 C 
ATOM     13  C   UNL     1      97.661 112.893 116.824  1.00  0.00     0.017 C 
ATOM     14  C   UNL     1     100.586 111.705 117.589  1.00  0.00     0.034 C 
ATOM     15  C   UNL     1      98.478 110.130 117.195  1.00  0.00     0.013 C 
ATOM     16  C   UNL     1     100.605 113.230 117.333  1.00  0.00     0.119 C 
ENDROOT
BRANCH   1  17
ATOM     17  C   UNL     1      99.822 112.784 111.765  1.00  0.00     0.018 C 
BRANCH  17  18
ATOM     18  C   UNL     1     101.084 112.639 110.897  1.00  0.00     0.053 C 
BRANCH  18  19
ATOM     19  C   UNL     1     101.334 113.884 110.090  1.00  0.00     0.041 C 
ATOM     20  O   UNL     1     101.003 113.927 108.875  1.00  0.00    -0.550 OA
ATOM     21  O   UNL     1     102.039 114.944 110.649  1.00  0.00    -0.550 OA
ENDBRANCH  18  19
ENDBRANCH  17  18
ENDBRANCH   1  17
BRANCH   3  22
ATOM     22  C   UNL     1      96.980 111.527 110.306  1.00  0.00    -0.076 C 
ATOM     23  C   UNL     1      95.678 111.743 110.029  1.00  0.00     0.008 C 
ATOM     24  C   UNL     1      97.920 111.425 109.115  1.00  0.00     0.039 C 
ENDBRANCH   3  22
BRANCH  14  25
ATOM     25  C   UNL     1     100.554 111.220 119.082  1.00  0.00     0.042 C 
BRANCH  25  26
ATOM     26  C   UNL     1     100.251 112.248 120.153  1.00  0.00     0.045 C 
ATOM     27  O   UNL     1     100.814 112.147 121.278  1.00  0.00    -0.550 OA
ATOM     28  O   UNL     1      99.449 113.357 119.902  1.00  0.00    -0.550 OA
ENDBRANCH  25  26
BRANCH  25  29
ATOM     29  C   UNL     1     101.773 110.333 119.470  1.00  0.00     0.014 C 
BRANCH  29  30
ATOM     30  C   UNL     1     101.446 108.878 119.888  1.00  0.00     0.028 C 
BRANCH  30  31
ATOM     31  C   UNL     1     102.241 108.476 121.102  1.00  0.00    -0.028 C 
ATOM     32  C   UNL     1     103.427 107.828 121.071  1.00  0.00    -0.080 C 
ATOM     33  C   UNL     1     104.154 107.550 119.775  1.00  0.00     0.039 C 
ATOM     34  C   UNL     1     104.089 107.492 122.387  1.00  0.00     0.039 C 
ENDBRANCH  30  31
ENDBRANCH  29  30
ENDBRANCH  25  29
ENDBRANCH  14  25
BRANCH  16  35
ATOM     35  O   UNL     1     101.891 113.793 117.357  1.00  0.00    -0.393 OA
ATOM     36  H   UNL     1     102.424 113.379 118.070  1.00  0.00     0.210 HD
ENDBRANCH  16  35
TORSDOF 10
ENDMDL
