MODEL 1
REMARK VINA RESULT:    -2.586      0.000      0.000
REMARK INTER + INTRA:          -3.022
REMARK INTER:                  -2.964
REMARK INTRA:                  -0.058
REMARK UNBOUND:                -0.058
REMARK SMILES CC(C)[C@H]([NH3+])C(=O)[O-]
REMARK SMILES IDX 4 1 5 2 6 6 7 7 8 8 2 9 1 10 3 11
REMARK H PARENT 5 3 5 4 5 5
REMARK Flexibility Score: inf
ROOT
ATOM      1  C   UNL     1       1.011  29.245 -14.505  1.00  0.00     0.230 C 
ENDROOT
BRANCH   1   2
ATOM      2  N   UNL     1       0.511  28.055 -15.211  1.00  0.00    -0.350 N 
ATOM      3  H   UNL     1       0.986  27.196 -14.853  1.00  0.00     0.345 HD
ATOM      4  H   UNL     1      -0.513  27.937 -15.035  1.00  0.00     0.345 HD
ATOM      5  H   UNL     1       0.672  28.142 -16.242  1.00  0.00     0.345 HD
ENDBRANCH   1   2
BRANCH   1   6
ATOM      6  C   UNL     1       0.550  29.199 -13.068  1.00  0.00     0.099 C 
ATOM      7  O   UNL     1       0.510  28.103 -12.451  1.00  0.00    -0.544 OA
ATOM      8  O   UNL     1       0.170  30.367 -12.418  1.00  0.00    -0.544 OA
ENDBRANCH   1   6
BRANCH   1   9
ATOM      9  C   UNL     1       0.547  30.565 -15.192  1.00  0.00     0.047 C 
ATOM     10  C   UNL     1      -0.749  30.368 -15.995  1.00  0.00     0.014 C 
ATOM     11  C   UNL     1       1.638  31.121 -16.125  1.00  0.00     0.014 C 
ENDBRANCH   1   9
TORSDOF 3
ENDMDL
MODEL 2
REMARK VINA RESULT:    -2.522      1.795      2.194
REMARK INTER + INTRA:          -2.949
REMARK INTER:                  -3.057
REMARK INTRA:                   0.108
REMARK UNBOUND:                -0.058
REMARK SMILES CC(C)[C@H]([NH3+])C(=O)[O-]
REMARK SMILES IDX 4 1 5 2 6 6 7 7 8 8 2 9 1 10 3 11
REMARK H PARENT 5 3 5 4 5 5
REMARK Flexibility Score: inf
ROOT
ATOM      1  C   UNL     1       1.862  29.933 -14.944  1.00  0.00     0.230 C 
ENDROOT
BRANCH   1   2
ATOM      2  N   UNL     1       3.125  29.304 -15.360  1.00  0.00    -0.350 N 
ATOM      3  H   UNL     1       3.628  28.919 -14.529  1.00  0.00     0.345 HD
ATOM      4  H   UNL     1       2.932  28.501 -16.002  1.00  0.00     0.345 HD
ATOM      5  H   UNL     1       3.737  29.995 -15.853  1.00  0.00     0.345 HD
ENDBRANCH   1   2
BRANCH   1   6
ATOM      6  C   UNL     1       1.885  30.154 -13.451  1.00  0.00     0.099 C 
ATOM      7  O   UNL     1       2.766  29.599 -12.743  1.00  0.00    -0.544 OA
ATOM      8  O   UNL     1       0.938  30.973 -12.850  1.00  0.00    -0.544 OA
ENDBRANCH   1   6
BRANCH   1   9
ATOM      9  C   UNL     1       0.625  29.077 -15.355  1.00  0.00     0.047 C 
ATOM     10  C   UNL     1      -0.605  29.952 -15.649  1.00  0.00     0.014 C 
ATOM     11  C   UNL     1       0.266  28.055 -14.262  1.00  0.00     0.014 C 
ENDBRANCH   1   9
TORSDOF 3
ENDMDL
MODEL 3
REMARK VINA RESULT:    -2.509      2.316      2.989
REMARK INTER + INTRA:          -2.934
REMARK INTER:                  -2.858
REMARK INTRA:                  -0.077
REMARK UNBOUND:                -0.058
REMARK SMILES CC(C)[C@H]([NH3+])C(=O)[O-]
REMARK SMILES IDX 4 1 5 2 6 6 7 7 8 8 2 9 1 10 3 11
REMARK H PARENT 5 3 5 4 5 5
REMARK Flexibility Score: inf
ROOT
ATOM      1  C   UNL     1       1.828  29.593 -14.636  1.00  0.00     0.230 C 
ENDROOT
BRANCH   1   2
ATOM      2  N   UNL     1       2.000  30.758 -15.517  1.00  0.00    -0.350 N 
ATOM      3  H   UNL     1       2.786  31.356 -15.176  1.00  0.00     0.345 HD
ATOM      4  H   UNL     1       2.250  30.443 -16.483  1.00  0.00     0.345 HD
ATOM      5  H   UNL     1       1.121  31.323 -15.560  1.00  0.00     0.345 HD
ENDBRANCH   1   2
BRANCH   1   6
ATOM      6  C   UNL     1       0.577  28.848 -15.036  1.00  0.00     0.099 C 
ATOM      7  O   UNL     1      -0.124  29.260 -15.997  1.00  0.00    -0.544 OA
ATOM      8  O   UNL     1       0.194  27.703 -14.349  1.00  0.00    -0.544 OA
ENDBRANCH   1   6
BRANCH   1   9
ATOM      9  C   UNL     1       1.766  30.006 -13.134  1.00  0.00     0.047 C 
ATOM     10  C   UNL     1       0.559  30.912 -12.837  1.00  0.00     0.014 C 
ATOM     11  C   UNL     1       3.055  30.727 -12.701  1.00  0.00     0.014 C 
ENDBRANCH   1   9
TORSDOF 3
ENDMDL
MODEL 4
REMARK VINA RESULT:    -2.486      2.339      3.189
REMARK INTER + INTRA:          -2.908
REMARK INTER:                  -3.033
REMARK INTRA:                   0.125
REMARK UNBOUND:                -0.058
REMARK SMILES CC(C)[C@H]([NH3+])C(=O)[O-]
REMARK SMILES IDX 4 1 5 2 6 6 7 7 8 8 2 9 1 10 3 11
REMARK H PARENT 5 3 5 4 5 5
REMARK Flexibility Score: inf
ROOT
ATOM      1  C   UNL     1       0.110  28.994 -14.969  1.00  0.00     0.230 C 
ENDROOT
BRANCH   1   2
ATOM      2  N   UNL     1       0.981  28.168 -15.819  1.00  0.00    -0.350 N 
ATOM      3  H   UNL     1       1.305  27.325 -15.293  1.00  0.00     0.345 HD
ATOM      4  H   UNL     1       0.449  27.826 -16.653  1.00  0.00     0.345 HD
ATOM      5  H   UNL     1       1.809  28.718 -16.145  1.00  0.00     0.345 HD
ENDBRANCH   1   2
BRANCH   1   6
ATOM      6  C   UNL     1      -0.185  30.295 -15.676  1.00  0.00     0.099 C 
ATOM      7  O   UNL     1       0.757  30.999 -16.125  1.00  0.00    -0.544 OA
ATOM      8  O   UNL     1      -1.498  30.721 -15.838  1.00  0.00    -0.544 OA
ENDBRANCH   1   6
BRANCH   1   9
ATOM      9  C   UNL     1       0.746  29.258 -13.571  1.00  0.00     0.047 C 
ATOM     10  C   UNL     1       0.437  28.126 -12.576  1.00  0.00     0.014 C 
ATOM     11  C   UNL     1       0.258  30.594 -12.980  1.00  0.00     0.014 C 
ENDBRANCH   1   9
TORSDOF 3
ENDMDL
MODEL 5
REMARK VINA RESULT:    -2.433      2.264      2.817
REMARK INTER + INTRA:          -2.847
REMARK INTER:                  -2.996
REMARK INTRA:                   0.149
REMARK UNBOUND:                -0.058
REMARK SMILES CC(C)[C@H]([NH3+])C(=O)[O-]
REMARK SMILES IDX 4 1 5 2 6 6 7 7 8 8 2 9 1 10 3 11
REMARK H PARENT 5 3 5 4 5 5
REMARK Flexibility Score: inf
ROOT
ATOM      1  C   UNL     1       0.567  29.852 -13.389  1.00  0.00     0.230 C 
ENDROOT
BRANCH   1   2
ATOM      2  N   UNL     1       0.589  28.729 -12.439  1.00  0.00    -0.350 N 
ATOM      3  H   UNL     1       0.214  29.033 -11.512  1.00  0.00     0.345 HD
ATOM      4  H   UNL     1      -0.026  27.956 -12.782  1.00  0.00     0.345 HD
ATOM      5  H   UNL     1       1.562  28.363 -12.321  1.00  0.00     0.345 HD
ENDBRANCH   1   2
BRANCH   1   6
ATOM      6  C   UNL     1       0.299  29.323 -14.777  1.00  0.00     0.099 C 
ATOM      7  O   UNL     1       0.906  28.301 -15.193  1.00  0.00    -0.544 OA
ATOM      8  O   UNL     1      -0.620  29.957 -15.603  1.00  0.00    -0.544 OA
ENDBRANCH   1   6
BRANCH   1   9
ATOM      9  C   UNL     1       1.896  30.665 -13.356  1.00  0.00     0.047 C 
ATOM     10  C   UNL     1       2.323  31.123 -14.761  1.00  0.00     0.014 C 
ATOM     11  C   UNL     1       3.037  29.846 -12.726  1.00  0.00     0.014 C 
ENDBRANCH   1   9
TORSDOF 3
ENDMDL
MODEL 6
REMARK VINA RESULT:    -2.254      1.663      2.498
REMARK INTER + INTRA:          -2.642
REMARK INTER:                  -2.744
REMARK INTRA:                   0.102
REMARK UNBOUND:                -0.058
REMARK SMILES CC(C)[C@H]([NH3+])C(=O)[O-]
REMARK SMILES IDX 4 1 5 2 6 6 7 7 8 8 2 9 1 10 3 11
REMARK H PARENT 5 3 5 4 5 5
REMARK Flexibility Score: inf
ROOT
ATOM      1  C   UNL     1       0.841  29.146 -14.180  1.00  0.00     0.230 C 
ENDROOT
BRANCH   1   2
ATOM      2  N   UNL     1       0.545  28.156 -15.227  1.00  0.00    -0.350 N 
ATOM      3  H   UNL     1      -0.372  27.693 -15.038  1.00  0.00     0.345 HD
ATOM      4  H   UNL     1       0.466  28.630 -16.157  1.00  0.00     0.345 HD
ATOM      5  H   UNL     1       1.300  27.433 -15.277  1.00  0.00     0.345 HD
ENDBRANCH   1   2
BRANCH   1   6
ATOM      6  C   UNL     1      -0.136  30.291 -14.289  1.00  0.00     0.099 C 
ATOM      7  O   UNL     1      -0.754  30.495 -15.367  1.00  0.00    -0.544 OA
ATOM      8  O   UNL     1      -0.362  31.125 -13.200  1.00  0.00    -0.544 OA
ENDBRANCH   1   6
BRANCH   1   9
ATOM      9  C   UNL     1       2.309  29.663 -14.268  1.00  0.00     0.047 C 
ATOM     10  C   UNL     1       2.881  30.005 -12.882  1.00  0.00     0.014 C 
ATOM     11  C   UNL     1       2.410  30.903 -15.174  1.00  0.00     0.014 C 
ENDBRANCH   1   9
TORSDOF 3
ENDMDL
MODEL 7
REMARK VINA RESULT:    -2.203      2.192      3.032
REMARK INTER + INTRA:          -2.583
REMARK INTER:                  -2.707
REMARK INTRA:                   0.123
REMARK UNBOUND:                -0.058
REMARK SMILES CC(C)[C@H]([NH3+])C(=O)[O-]
REMARK SMILES IDX 4 1 5 2 6 6 7 7 8 8 2 9 1 10 3 11
REMARK H PARENT 5 3 5 4 5 5
REMARK Flexibility Score: inf
ROOT
ATOM      1  C   UNL     1       0.610  30.416 -15.072  1.00  0.00     0.230 C 
ENDROOT
BRANCH   1   2
ATOM      2  N   UNL     1      -0.825  30.634 -15.309  1.00  0.00    -0.350 N 
ATOM      3  H   UNL     1      -1.262  29.771 -15.704  1.00  0.00     0.345 HD
ATOM      4  H   UNL     1      -1.311  30.838 -14.405  1.00  0.00     0.345 HD
ATOM      5  H   UNL     1      -0.975  31.435 -15.964  1.00  0.00     0.345 HD
ENDBRANCH   1   2
BRANCH   1   6
ATOM      6  C   UNL     1       0.913  28.941 -15.181  1.00  0.00     0.099 C 
ATOM      7  O   UNL     1       0.190  28.101 -14.584  1.00  0.00    -0.544 OA
ATOM      8  O   UNL     1       1.989  28.502 -15.943  1.00  0.00    -0.544 OA
ENDBRANCH   1   6
BRANCH   1   9
ATOM      9  C   UNL     1       1.061  30.971 -13.687  1.00  0.00     0.047 C 
ATOM     10  C   UNL     1       2.173  30.113 -13.060  1.00  0.00     0.014 C 
ATOM     11  C   UNL     1      -0.124  31.054 -12.707  1.00  0.00     0.014 C 
ENDBRANCH   1   9
TORSDOF 3
ENDMDL
MODEL 8
REMARK VINA RESULT:    -1.773     10.553     11.122
REMARK INTER + INTRA:          -2.091
REMARK INTER:                  -2.044
REMARK INTRA:                  -0.047
REMARK UNBOUND:                -0.058
REMARK SMILES CC(C)[C@H]([NH3+])C(=O)[O-]
REMARK SMILES IDX 4 1 5 2 6 6 7 7 8 8 2 9 1 10 3 11
REMARK H PARENT 5 3 5 4 5 5
REMARK Flexibility Score: inf
ROOT
ATOM      1  C   UNL     1     -10.795  29.483 -13.676  1.00  0.00     0.230 C 
ENDROOT
BRANCH   1   2
ATOM      2  N   UNL     1     -12.080  30.000 -13.181  1.00  0.00    -0.350 N 
ATOM      3  H   UNL     1     -11.918  30.715 -12.435  1.00  0.00     0.345 HD
ATOM      4  H   UNL     1     -12.598  30.475 -13.956  1.00  0.00     0.345 HD
ATOM      5  H   UNL     1     -12.670  29.224 -12.802  1.00  0.00     0.345 HD
ENDBRANCH   1   2
BRANCH   1   6
ATOM      6  C   UNL     1      -9.703  29.849 -12.700  1.00  0.00     0.099 C 
ATOM      7  O   UNL     1      -9.994  30.375 -11.593  1.00  0.00    -0.544 OA
ATOM      8  O   UNL     1      -8.372  29.605 -13.015  1.00  0.00    -0.544 OA
ENDBRANCH   1   6
BRANCH   1   9
ATOM      9  C   UNL     1     -10.463  30.022 -15.101  1.00  0.00     0.047 C 
ATOM     10  C   UNL     1     -11.501  31.050 -15.582  1.00  0.00     0.014 C 
ATOM     11  C   UNL     1     -10.379  28.875 -16.125  1.00  0.00     0.014 C 
ENDBRANCH   1   9
TORSDOF 3
ENDMDL
MODEL 9
REMARK VINA RESULT:     0.321      2.446      3.190
REMARK INTER + INTRA:           0.309
REMARK INTER:                   0.358
REMARK INTRA:                  -0.049
REMARK UNBOUND:                -0.058
REMARK SMILES CC(C)[C@H]([NH3+])C(=O)[O-]
REMARK SMILES IDX 4 1 5 2 6 6 7 7 8 8 2 9 1 10 3 11
REMARK H PARENT 5 3 5 4 5 5
REMARK Flexibility Score: inf
ROOT
ATOM      1  C   UNL     1       0.923  29.468 -14.989  1.00  0.00     0.230 C 
ENDROOT
BRANCH   1   2
ATOM      2  N   UNL     1       0.487  28.118 -15.375  1.00  0.00    -0.350 N 
ATOM      3  H   UNL     1       0.828  27.415 -14.681  1.00  0.00     0.345 HD
ATOM      4  H   UNL     1      -0.558  28.065 -15.380  1.00  0.00     0.345 HD
ATOM      5  H   UNL     1       0.844  27.872 -16.327  1.00  0.00     0.345 HD
ENDBRANCH   1   2
BRANCH   1   6
ATOM      6  C   UNL     1       2.208  29.800 -15.709  1.00  0.00     0.099 C 
ATOM      7  O   UNL     1       2.958  28.877 -16.123  1.00  0.00    -0.544 OA
ATOM      8  O   UNL     1       2.569  31.125 -15.922  1.00  0.00    -0.544 OA
ENDBRANCH   1   6
BRANCH   1   9
ATOM      9  C   UNL     1       1.106  29.599 -13.446  1.00  0.00     0.047 C 
ATOM     10  C   UNL     1       0.503  28.401 -12.693  1.00  0.00     0.014 C 
ATOM     11  C   UNL     1       0.471  30.898 -12.917  1.00  0.00     0.014 C 
ENDBRANCH   1   9
TORSDOF 3
ENDMDL
