MODEL 1
REMARK VINA RESULT:    -4.506      0.000      0.000
REMARK INTER + INTRA:         -10.210
REMARK INTER:                  -7.930
REMARK INTRA:                  -2.279
REMARK UNBOUND:                -2.279
REMARK SMILES CCCCCCCCCCCCCCC(=O)[O-]
REMARK SMILES IDX 9 1 10 2 11 3 12 4 13 5 14 6 15 7 16 8 17 9 8 10 7 11 6 12
REMARK SMILES IDX 5 13 4 14 3 15 2 16 1 17
REMARK H PARENT
REMARK Flexibility Score: inf
ROOT
ATOM      1  C   UNL     1      61.468  28.446  24.626  1.00  0.00     0.000 C 
ENDROOT
BRANCH   1   2
ATOM      2  C   UNL     1      62.587  29.251  25.298  1.00  0.00     0.000 C 
BRANCH   2   3
ATOM      3  C   UNL     1      63.644  29.684  24.272  1.00  0.00     0.000 C 
BRANCH   3   4
ATOM      4  C   UNL     1      65.022  29.051  24.527  1.00  0.00     0.000 C 
BRANCH   4   5
ATOM      5  C   UNL     1      64.997  27.675  25.220  1.00  0.00     0.006 C 
BRANCH   5   6
ATOM      6  C   UNL     1      65.257  26.489  24.271  1.00  0.00     0.053 C 
BRANCH   6   7
ATOM      7  C   UNL     1      64.021  26.052  23.542  1.00  0.00     0.041 C 
ATOM      8  O   UNL     1      63.255  25.191  24.049  1.00  0.00    -0.550 OA
ATOM      9  O   UNL     1      63.738  26.565  22.282  1.00  0.00    -0.550 OA
ENDBRANCH   6   7
ENDBRANCH   5   6
ENDBRANCH   4   5
ENDBRANCH   3   4
ENDBRANCH   2   3
ENDBRANCH   1   2
BRANCH   1  10
ATOM     10  C   UNL     1      60.801  27.491  25.627  1.00  0.00     0.000 C 
BRANCH  10  11
ATOM     11  C   UNL     1      61.770  27.004  26.716  1.00  0.00    -0.000 C 
BRANCH  11  12
ATOM     12  C   UNL     1      61.165  27.081  28.126  1.00  0.00    -0.000 C 
BRANCH  12  13
ATOM     13  C   UNL     1      61.953  28.063  29.006  1.00  0.00    -0.000 C 
BRANCH  13  14
ATOM     14  C   UNL     1      61.476  29.517  28.850  1.00  0.00    -0.000 C 
BRANCH  14  15
ATOM     15  C   UNL     1      62.642  30.515  28.755  1.00  0.00    -0.000 C 
BRANCH  15  16
ATOM     16  C   UNL     1      63.998  29.819  28.559  1.00  0.00    -0.003 C 
ATOM     17  C   UNL     1      65.045  30.728  27.915  1.00  0.00     0.004 C 
ENDBRANCH  15  16
ENDBRANCH  14  15
ENDBRANCH  13  14
ENDBRANCH  12  13
ENDBRANCH  11  12
ENDBRANCH  10  11
ENDBRANCH   1  10
TORSDOF 13
ENDMDL
MODEL 2
REMARK VINA RESULT:    -4.388     11.534     13.568
REMARK INTER + INTRA:         -10.001
REMARK INTER:                  -8.598
REMARK INTRA:                  -1.403
REMARK UNBOUND:                -2.279
REMARK SMILES CCCCCCCCCCCCCCC(=O)[O-]
REMARK SMILES IDX 9 1 10 2 11 3 12 4 13 5 14 6 15 7 16 8 17 9 8 10 7 11 6 12
REMARK SMILES IDX 5 13 4 14 3 15 2 16 1 17
REMARK H PARENT
REMARK Flexibility Score: inf
ROOT
ATOM      1  C   UNL     1      63.674  31.311  11.452  1.00  0.00     0.000 C 
ENDROOT
BRANCH   1   2
ATOM      2  C   UNL     1      63.420  29.847  11.830  1.00  0.00     0.000 C 
BRANCH   2   3
ATOM      3  C   UNL     1      63.045  29.018  10.592  1.00  0.00     0.000 C 
BRANCH   3   4
ATOM      4  C   UNL     1      61.734  29.481   9.935  1.00  0.00     0.000 C 
BRANCH   4   5
ATOM      5  C   UNL     1      60.501  28.607  10.236  1.00  0.00     0.006 C 
BRANCH   5   6
ATOM      6  C   UNL     1      59.586  29.170  11.340  1.00  0.00     0.053 C 
BRANCH   6   7
ATOM      7  C   UNL     1      59.561  28.306  12.566  1.00  0.00     0.041 C 
ATOM      8  O   UNL     1      60.589  28.194  13.285  1.00  0.00    -0.550 OA
ATOM      9  O   UNL     1      58.415  27.592  12.892  1.00  0.00    -0.550 OA
ENDBRANCH   6   7
ENDBRANCH   5   6
ENDBRANCH   4   5
ENDBRANCH   3   4
ENDBRANCH   2   3
ENDBRANCH   1   2
BRANCH   1  10
ATOM     10  C   UNL     1      62.937  32.261  12.409  1.00  0.00     0.000 C 
BRANCH  10  11
ATOM     11  C   UNL     1      61.770  31.577  13.140  1.00  0.00    -0.000 C 
BRANCH  11  12
ATOM     12  C   UNL     1      60.491  32.427  13.140  1.00  0.00    -0.000 C 
BRANCH  12  13
ATOM     13  C   UNL     1      60.376  33.241  14.438  1.00  0.00    -0.000 C 
BRANCH  13  14
ATOM     14  C   UNL     1      60.940  32.497  15.659  1.00  0.00    -0.000 C 
BRANCH  14  15
ATOM     15  C   UNL     1      61.902  33.364  16.487  1.00  0.00    -0.000 C 
BRANCH  15  16
ATOM     16  C   UNL     1      61.165  34.299  17.459  1.00  0.00    -0.003 C 
ATOM     17  C   UNL     1      61.203  33.803  18.904  1.00  0.00     0.004 C 
ENDBRANCH  15  16
ENDBRANCH  14  15
ENDBRANCH  13  14
ENDBRANCH  12  13
ENDBRANCH  11  12
ENDBRANCH  10  11
ENDBRANCH   1  10
TORSDOF 13
ENDMDL
MODEL 3
REMARK VINA RESULT:    -4.388     11.483     14.150
REMARK INTER + INTRA:         -10.001
REMARK INTER:                  -8.161
REMARK INTRA:                  -1.840
REMARK UNBOUND:                -2.279
REMARK SMILES CCCCCCCCCCCCCCC(=O)[O-]
REMARK SMILES IDX 9 1 10 2 11 3 12 4 13 5 14 6 15 7 16 8 17 9 8 10 7 11 6 12
REMARK SMILES IDX 5 13 4 14 3 15 2 16 1 17
REMARK H PARENT
REMARK Flexibility Score: inf
ROOT
ATOM      1  C   UNL     1      62.534  30.874  13.975  1.00  0.00     0.000 C 
ENDROOT
BRANCH   1   2
ATOM      2  C   UNL     1      62.279  32.176  13.206  1.00  0.00     0.000 C 
BRANCH   2   3
ATOM      3  C   UNL     1      60.772  32.437  13.053  1.00  0.00     0.000 C 
BRANCH   3   4
ATOM      4  C   UNL     1      60.056  32.620  14.401  1.00  0.00     0.000 C 
BRANCH   4   5
ATOM      5  C   UNL     1      60.549  33.805  15.254  1.00  0.00     0.006 C 
BRANCH   5   6
ATOM      6  C   UNL     1      61.154  33.396  16.610  1.00  0.00     0.053 C 
BRANCH   6   7
ATOM      7  C   UNL     1      62.479  34.048  16.872  1.00  0.00     0.041 C 
ATOM      8  O   UNL     1      63.330  34.149  15.949  1.00  0.00    -0.550 OA
ATOM      9  O   UNL     1      62.790  34.506  18.146  1.00  0.00    -0.550 OA
ENDBRANCH   6   7
ENDBRANCH   5   6
ENDBRANCH   4   5
ENDBRANCH   3   4
ENDBRANCH   2   3
ENDBRANCH   1   2
BRANCH   1  10
ATOM     10  C   UNL     1      63.051  29.774  13.036  1.00  0.00     0.000 C 
BRANCH  10  11
ATOM     11  C   UNL     1      62.267  28.459  13.177  1.00  0.00    -0.000 C 
BRANCH  11  12
ATOM     12  C   UNL     1      60.820  28.679  13.643  1.00  0.00    -0.000 C 
BRANCH  12  13
ATOM     13  C   UNL     1      59.825  28.269  12.546  1.00  0.00    -0.000 C 
BRANCH  13  14
ATOM     14  C   UNL     1      59.617  29.367  11.490  1.00  0.00    -0.000 C 
BRANCH  14  15
ATOM     15  C   UNL     1      59.605  28.813  10.056  1.00  0.00    -0.000 C 
BRANCH  15  16
ATOM     16  C   UNL     1      60.914  28.096   9.690  1.00  0.00    -0.003 C 
ATOM     17  C   UNL     1      62.079  29.062   9.471  1.00  0.00     0.004 C 
ENDBRANCH  15  16
ENDBRANCH  14  15
ENDBRANCH  13  14
ENDBRANCH  12  13
ENDBRANCH  11  12
ENDBRANCH  10  11
ENDBRANCH   1  10
TORSDOF 13
ENDMDL
MODEL 4
REMARK VINA RESULT:    -4.353     12.491     15.001
REMARK INTER + INTRA:          -9.941
REMARK INTER:                  -7.826
REMARK INTRA:                  -2.115
REMARK UNBOUND:                -2.279
REMARK SMILES CCCCCCCCCCCCCCC(=O)[O-]
REMARK SMILES IDX 9 1 10 2 11 3 12 4 13 5 14 6 15 7 16 8 17 9 8 10 7 11 6 12
REMARK SMILES IDX 5 13 4 14 3 15 2 16 1 17
REMARK H PARENT
REMARK Flexibility Score: inf
ROOT
ATOM      1  C   UNL     1      64.276  31.295   9.580  1.00  0.00     0.000 C 
ENDROOT
BRANCH   1   2
ATOM      2  C   UNL     1      64.286  31.067  11.096  1.00  0.00     0.000 C 
BRANCH   2   3
ATOM      3  C   UNL     1      63.751  32.300  11.840  1.00  0.00     0.000 C 
BRANCH   3   4
ATOM      4  C   UNL     1      62.342  32.087  12.418  1.00  0.00     0.000 C 
BRANCH   4   5
ATOM      5  C   UNL     1      62.180  32.445  13.909  1.00  0.00     0.006 C 
BRANCH   5   6
ATOM      6  C   UNL     1      60.786  32.985  14.278  1.00  0.00     0.053 C 
BRANCH   6   7
ATOM      7  C   UNL     1      59.893  31.929  14.860  1.00  0.00     0.041 C 
ATOM      8  O   UNL     1      58.712  31.796  14.444  1.00  0.00    -0.550 OA
ATOM      9  O   UNL     1      60.352  31.120  15.892  1.00  0.00    -0.550 OA
ENDBRANCH   6   7
ENDBRANCH   5   6
ENDBRANCH   4   5
ENDBRANCH   3   4
ENDBRANCH   2   3
ENDBRANCH   1   2
BRANCH   1  10
ATOM     10  C   UNL     1      63.374  30.270   8.875  1.00  0.00     0.000 C 
BRANCH  10  11
ATOM     11  C   UNL     1      63.149  29.003   9.716  1.00  0.00    -0.000 C 
BRANCH  11  12
ATOM     12  C   UNL     1      61.685  28.536   9.705  1.00  0.00    -0.000 C 
BRANCH  12  13
ATOM     13  C   UNL     1      60.732  29.724   9.907  1.00  0.00    -0.000 C 
BRANCH  13  14
ATOM     14  C   UNL     1      59.855  29.576  11.161  1.00  0.00    -0.000 C 
BRANCH  14  15
ATOM     15  C   UNL     1      60.212  28.330  11.988  1.00  0.00    -0.000 C 
BRANCH  15  16
ATOM     16  C   UNL     1      60.811  28.684  13.358  1.00  0.00    -0.003 C 
ATOM     17  C   UNL     1      62.338  28.614  13.374  1.00  0.00     0.004 C 
ENDBRANCH  15  16
ENDBRANCH  14  15
ENDBRANCH  13  14
ENDBRANCH  12  13
ENDBRANCH  11  12
ENDBRANCH  10  11
ENDBRANCH   1  10
TORSDOF 13
ENDMDL
MODEL 5
REMARK VINA RESULT:    -4.327      1.363      3.048
REMARK INTER + INTRA:          -9.894
REMARK INTER:                  -7.677
REMARK INTRA:                  -2.217
REMARK UNBOUND:                -2.279
REMARK SMILES CCCCCCCCCCCCCCC(=O)[O-]
REMARK SMILES IDX 9 1 10 2 11 3 12 4 13 5 14 6 15 7 16 8 17 9 8 10 7 11 6 12
REMARK SMILES IDX 5 13 4 14 3 15 2 16 1 17
REMARK H PARENT
REMARK Flexibility Score: inf
ROOT
ATOM      1  C   UNL     1      62.265  29.736  25.190  1.00  0.00     0.000 C 
ENDROOT
BRANCH   1   2
ATOM      2  C   UNL     1      62.229  28.516  24.262  1.00  0.00     0.000 C 
BRANCH   2   3
ATOM      3  C   UNL     1      61.823  27.251  25.033  1.00  0.00     0.000 C 
BRANCH   3   4
ATOM      4  C   UNL     1      63.026  26.382  25.436  1.00  0.00     0.000 C 
BRANCH   4   5
ATOM      5  C   UNL     1      63.699  25.612  24.282  1.00  0.00     0.006 C 
BRANCH   5   6
ATOM      6  C   UNL     1      65.188  25.953  24.083  1.00  0.00     0.053 C 
BRANCH   6   7
ATOM      7  C   UNL     1      65.508  26.341  22.670  1.00  0.00     0.041 C 
ATOM      8  O   UNL     1      66.229  25.596  21.955  1.00  0.00    -0.550 OA
ATOM      9  O   UNL     1      65.044  27.545  22.156  1.00  0.00    -0.550 OA
ENDBRANCH   6   7
ENDBRANCH   5   6
ENDBRANCH   4   5
ENDBRANCH   3   4
ENDBRANCH   2   3
ENDBRANCH   1   2
BRANCH   1  10
ATOM     10  C   UNL     1      63.569  30.528  25.006  1.00  0.00     0.000 C 
BRANCH  10  11
ATOM     11  C   UNL     1      64.816  29.630  25.034  1.00  0.00    -0.000 C 
BRANCH  11  12
ATOM     12  C   UNL     1      65.208  29.203  26.457  1.00  0.00    -0.000 C 
BRANCH  12  13
ATOM     13  C   UNL     1      65.126  30.392  27.426  1.00  0.00    -0.000 C 
BRANCH  13  14
ATOM     14  C   UNL     1      64.361  30.056  28.717  1.00  0.00    -0.000 C 
BRANCH  14  15
ATOM     15  C   UNL     1      62.951  30.669  28.744  1.00  0.00    -0.000 C 
BRANCH  15  16
ATOM     16  C   UNL     1      61.846  29.602  28.776  1.00  0.00    -0.003 C 
ATOM     17  C   UNL     1      62.393  28.177  28.685  1.00  0.00     0.004 C 
ENDBRANCH  15  16
ENDBRANCH  14  15
ENDBRANCH  13  14
ENDBRANCH  12  13
ENDBRANCH  11  12
ENDBRANCH  10  11
ENDBRANCH   1  10
TORSDOF 13
ENDMDL
MODEL 6
REMARK VINA RESULT:    -4.318     11.431     14.201
REMARK INTER + INTRA:          -9.878
REMARK INTER:                  -8.452
REMARK INTRA:                  -1.426
REMARK UNBOUND:                -2.279
REMARK SMILES CCCCCCCCCCCCCCC(=O)[O-]
REMARK SMILES IDX 9 1 10 2 11 3 12 4 13 5 14 6 15 7 16 8 17 9 8 10 7 11 6 12
REMARK SMILES IDX 5 13 4 14 3 15 2 16 1 17
REMARK H PARENT
REMARK Flexibility Score: inf
ROOT
ATOM      1  C   UNL     1      62.117  32.086  12.771  1.00  0.00     0.000 C 
ENDROOT
BRANCH   1   2
ATOM      2  C   UNL     1      60.603  31.888  12.906  1.00  0.00     0.000 C 
BRANCH   2   3
ATOM      3  C   UNL     1      60.039  32.738  14.055  1.00  0.00     0.000 C 
BRANCH   3   4
ATOM      4  C   UNL     1      61.132  33.461  14.859  1.00  0.00     0.000 C 
BRANCH   4   5
ATOM      5  C   UNL     1      61.230  33.061  16.345  1.00  0.00     0.006 C 
BRANCH   5   6
ATOM      6  C   UNL     1      61.128  34.247  17.323  1.00  0.00     0.053 C 
BRANCH   6   7
ATOM      7  C   UNL     1      61.511  33.874  18.725  1.00  0.00     0.041 C 
ATOM      8  O   UNL     1      60.624  33.582  19.569  1.00  0.00    -0.550 OA
ATOM      9  O   UNL     1      62.846  33.890  19.110  1.00  0.00    -0.550 OA
ENDBRANCH   6   7
ENDBRANCH   5   6
ENDBRANCH   4   5
ENDBRANCH   3   4
ENDBRANCH   2   3
ENDBRANCH   1   2
BRANCH   1  10
ATOM     10  C   UNL     1      62.828  30.745  12.535  1.00  0.00     0.000 C 
BRANCH  10  11
ATOM     11  C   UNL     1      63.216  30.532  11.063  1.00  0.00    -0.000 C 
BRANCH  11  12
ATOM     12  C   UNL     1      63.032  29.077  10.605  1.00  0.00    -0.000 C 
BRANCH  12  13
ATOM     13  C   UNL     1      61.861  28.959   9.618  1.00  0.00    -0.000 C 
BRANCH  13  14
ATOM     14  C   UNL     1      60.682  28.153  10.187  1.00  0.00    -0.000 C 
BRANCH  14  15
ATOM     15  C   UNL     1      59.646  29.042  10.896  1.00  0.00    -0.000 C 
BRANCH  15  16
ATOM     16  C   UNL     1      59.254  28.500  12.279  1.00  0.00    -0.003 C 
ATOM     17  C   UNL     1      60.459  28.040  13.100  1.00  0.00     0.004 C 
ENDBRANCH  15  16
ENDBRANCH  14  15
ENDBRANCH  13  14
ENDBRANCH  12  13
ENDBRANCH  11  12
ENDBRANCH  10  11
ENDBRANCH   1  10
TORSDOF 13
ENDMDL
MODEL 7
REMARK VINA RESULT:    -4.301      0.977      3.079
REMARK INTER + INTRA:          -9.850
REMARK INTER:                  -7.720
REMARK INTRA:                  -2.129
REMARK UNBOUND:                -2.279
REMARK SMILES CCCCCCCCCCCCCCC(=O)[O-]
REMARK SMILES IDX 9 1 10 2 11 3 12 4 13 5 14 6 15 7 16 8 17 9 8 10 7 11 6 12
REMARK SMILES IDX 5 13 4 14 3 15 2 16 1 17
REMARK H PARENT
REMARK Flexibility Score: inf
ROOT
ATOM      1  C   UNL     1      63.434  30.485  26.808  1.00  0.00     0.000 C 
ENDROOT
BRANCH   1   2
ATOM      2  C   UNL     1      64.211  30.029  25.568  1.00  0.00     0.000 C 
BRANCH   2   3
ATOM      3  C   UNL     1      65.310  29.025  25.948  1.00  0.00     0.000 C 
BRANCH   3   4
ATOM      4  C   UNL     1      66.288  28.741  24.795  1.00  0.00     0.000 C 
BRANCH   4   5
ATOM      5  C   UNL     1      65.854  27.628  23.822  1.00  0.00     0.006 C 
BRANCH   5   6
ATOM      6  C   UNL     1      64.985  26.532  24.467  1.00  0.00     0.053 C 
BRANCH   6   7
ATOM      7  C   UNL     1      63.838  26.116  23.595  1.00  0.00     0.041 C 
ATOM      8  O   UNL     1      63.442  26.867  22.666  1.00  0.00    -0.550 OA
ATOM      9  O   UNL     1      63.178  24.917  23.837  1.00  0.00    -0.550 OA
ENDBRANCH   6   7
ENDBRANCH   5   6
ENDBRANCH   4   5
ENDBRANCH   3   4
ENDBRANCH   2   3
ENDBRANCH   1   2
BRANCH   1  10
ATOM     10  C   UNL     1      64.151  30.053  28.096  1.00  0.00     0.000 C 
BRANCH  10  11
ATOM     11  C   UNL     1      63.196  29.427  29.125  1.00  0.00    -0.000 C 
BRANCH  11  12
ATOM     12  C   UNL     1      61.717  29.612  28.750  1.00  0.00    -0.000 C 
BRANCH  12  13
ATOM     13  C   UNL     1      60.997  28.257  28.683  1.00  0.00    -0.000 C 
BRANCH  13  14
ATOM     14  C   UNL     1      61.944  27.096  28.340  1.00  0.00    -0.000 C 
BRANCH  14  15
ATOM     15  C   UNL     1      62.116  26.902  26.824  1.00  0.00    -0.000 C 
BRANCH  15  16
ATOM     16  C   UNL     1      60.824  27.191  26.043  1.00  0.00    -0.003 C 
ATOM     17  C   UNL     1      61.033  28.175  24.892  1.00  0.00     0.004 C 
ENDBRANCH  15  16
ENDBRANCH  14  15
ENDBRANCH  13  14
ENDBRANCH  12  13
ENDBRANCH  11  12
ENDBRANCH  10  11
ENDBRANCH   1  10
TORSDOF 13
ENDMDL
MODEL 8
REMARK VINA RESULT:    -4.295      1.527      3.459
REMARK INTER + INTRA:          -9.839
REMARK INTER:                  -8.003
REMARK INTRA:                  -1.836
REMARK UNBOUND:                -2.279
REMARK SMILES CCCCCCCCCCCCCCC(=O)[O-]
REMARK SMILES IDX 9 1 10 2 11 3 12 4 13 5 14 6 15 7 16 8 17 9 8 10 7 11 6 12
REMARK SMILES IDX 5 13 4 14 3 15 2 16 1 17
REMARK H PARENT
REMARK Flexibility Score: inf
ROOT
ATOM      1  C   UNL     1      65.224  29.620  27.149  1.00  0.00     0.000 C 
ENDROOT
BRANCH   1   2
ATOM      2  C   UNL     1      65.973  29.155  25.895  1.00  0.00     0.000 C 
BRANCH   2   3
ATOM      3  C   UNL     1      65.041  28.372  24.958  1.00  0.00     0.000 C 
BRANCH   3   4
ATOM      4  C   UNL     1      64.880  26.898  25.366  1.00  0.00     0.000 C 
BRANCH   4   5
ATOM      5  C   UNL     1      64.500  25.936  24.223  1.00  0.00     0.006 C 
BRANCH   5   6
ATOM      6  C   UNL     1      64.658  26.540  22.815  1.00  0.00     0.053 C 
BRANCH   6   7
ATOM      7  C   UNL     1      65.981  26.210  22.189  1.00  0.00     0.041 C 
ATOM      8  O   UNL     1      66.727  27.128  21.760  1.00  0.00    -0.550 OA
ATOM      9  O   UNL     1      66.370  24.884  22.042  1.00  0.00    -0.550 OA
ENDBRANCH   6   7
ENDBRANCH   5   6
ENDBRANCH   4   5
ENDBRANCH   3   4
ENDBRANCH   2   3
ENDBRANCH   1   2
BRANCH   1  10
ATOM     10  C   UNL     1      63.834  30.165  26.788  1.00  0.00     0.000 C 
BRANCH  10  11
ATOM     11  C   UNL     1      62.983  30.485  28.028  1.00  0.00    -0.000 C 
BRANCH  11  12
ATOM     12  C   UNL     1      62.655  29.236  28.861  1.00  0.00    -0.000 C 
BRANCH  12  13
ATOM     13  C   UNL     1      61.182  28.837  28.690  1.00  0.00    -0.000 C 
BRANCH  13  14
ATOM     14  C   UNL     1      61.005  27.350  28.341  1.00  0.00    -0.000 C 
BRANCH  14  15
ATOM     15  C   UNL     1      61.732  26.956  27.044  1.00  0.00    -0.000 C 
BRANCH  15  16
ATOM     16  C   UNL     1      60.852  27.137  25.798  1.00  0.00    -0.003 C 
ATOM     17  C   UNL     1      61.304  28.301  24.916  1.00  0.00     0.004 C 
ENDBRANCH  15  16
ENDBRANCH  14  15
ENDBRANCH  13  14
ENDBRANCH  12  13
ENDBRANCH  11  12
ENDBRANCH  10  11
ENDBRANCH   1  10
TORSDOF 13
ENDMDL
MODEL 9
REMARK VINA RESULT:    -4.224     11.709     14.367
REMARK INTER + INTRA:          -9.713
REMARK INTER:                  -8.088
REMARK INTRA:                  -1.625
REMARK UNBOUND:                -2.279
REMARK SMILES CCCCCCCCCCCCCCC(=O)[O-]
REMARK SMILES IDX 9 1 10 2 11 3 12 4 13 5 14 6 15 7 16 8 17 9 8 10 7 11 6 12
REMARK SMILES IDX 5 13 4 14 3 15 2 16 1 17
REMARK H PARENT
REMARK Flexibility Score: inf
ROOT
ATOM      1  C   UNL     1      62.332  30.186  13.920  1.00  0.00     0.000 C 
ENDROOT
BRANCH   1   2
ATOM      2  C   UNL     1      62.308  31.361  12.935  1.00  0.00     0.000 C 
BRANCH   2   3
ATOM      3  C   UNL     1      61.027  32.193  13.105  1.00  0.00     0.000 C 
BRANCH   3   4
ATOM      4  C   UNL     1      60.534  32.245  14.560  1.00  0.00     0.000 C 
BRANCH   4   5
ATOM      5  C   UNL     1      60.864  33.545  15.321  1.00  0.00     0.006 C 
BRANCH   5   6
ATOM      6  C   UNL     1      62.185  33.493  16.111  1.00  0.00     0.053 C 
BRANCH   6   7
ATOM      7  C   UNL     1      62.127  34.283  17.385  1.00  0.00     0.041 C 
ATOM      8  O   UNL     1      63.090  35.023  17.718  1.00  0.00    -0.550 OA
ATOM      9  O   UNL     1      61.027  34.169  18.226  1.00  0.00    -0.550 OA
ENDBRANCH   6   7
ENDBRANCH   5   6
ENDBRANCH   4   5
ENDBRANCH   3   4
ENDBRANCH   2   3
ENDBRANCH   1   2
BRANCH   1  10
ATOM     10  C   UNL     1      61.880  28.887  13.235  1.00  0.00     0.000 C 
BRANCH  10  11
ATOM     11  C   UNL     1      60.389  28.588  13.458  1.00  0.00    -0.000 C 
BRANCH  11  12
ATOM     12  C   UNL     1      59.650  28.251  12.154  1.00  0.00    -0.000 C 
BRANCH  12  13
ATOM     13  C   UNL     1      60.172  29.110  10.992  1.00  0.00    -0.000 C 
BRANCH  13  14
ATOM     14  C   UNL     1      60.718  28.267   9.827  1.00  0.00    -0.000 C 
BRANCH  14  15
ATOM     15  C   UNL     1      61.832  28.986   9.049  1.00  0.00    -0.000 C 
BRANCH  15  16
ATOM     16  C   UNL     1      63.170  28.989   9.805  1.00  0.00    -0.003 C 
ATOM     17  C   UNL     1      63.864  30.351   9.779  1.00  0.00     0.004 C 
ENDBRANCH  15  16
ENDBRANCH  14  15
ENDBRANCH  13  14
ENDBRANCH  12  13
ENDBRANCH  11  12
ENDBRANCH  10  11
ENDBRANCH   1  10
TORSDOF 13
ENDMDL
