MODEL 1
REMARK VINA RESULT:    -6.165      0.000      0.000
REMARK INTER + INTRA:          -7.855
REMARK INTER:                  -7.607
REMARK INTRA:                  -0.248
REMARK UNBOUND:                -0.248
REMARK SMILES COc1cc(C=O)ccc1OC(C)=O
REMARK SMILES IDX 10 1 3 2 4 3 5 4 8 5 9 6 11 7 12 8 13 9 14 10 2 11 1 12 6 13
REMARK SMILES IDX 7 14
REMARK H PARENT
REMARK Flexibility Score: inf
ROOT
ATOM      1  C   UNL     1      -4.050 -30.340 -52.440  1.00  0.00     0.172 A 
ATOM      2  C   UNL     1      -4.833 -31.187 -51.627  1.00  0.00     0.162 A 
ATOM      3  C   UNL     1      -4.261 -32.367 -51.111  1.00  0.00     0.062 A 
ATOM      4  C   UNL     1      -2.921 -32.687 -51.373  1.00  0.00     0.018 A 
ATOM      5  C   UNL     1      -2.145 -31.816 -52.153  1.00  0.00     0.015 A 
ATOM      6  C   UNL     1      -2.707 -30.649 -52.674  1.00  0.00     0.052 A 
ENDROOT
BRANCH   1   7
ATOM      7  O   UNL     1      -4.565 -29.161 -52.997  1.00  0.00    -0.423 OA
BRANCH   7   8
ATOM      8  C   UNL     1      -5.232 -29.094 -54.226  1.00  0.00     0.308 C 
ATOM      9  C   UNL     1      -5.869 -27.812 -54.644  1.00  0.00     0.139 C 
ATOM     10  O   UNL     1      -5.227 -30.074 -55.020  1.00  0.00    -0.252 OA
ENDBRANCH   7   8
ENDBRANCH   1   7
BRANCH   2  11
ATOM     11  O   UNL     1      -6.155 -30.815 -51.330  1.00  0.00    -0.493 OA
ATOM     12  C   UNL     1      -6.770 -30.957 -50.053  1.00  0.00     0.278 C 
ENDBRANCH   2  11
BRANCH   4  13
ATOM     13  C   UNL     1      -2.346 -33.927 -50.818  1.00  0.00     0.260 C 
ATOM     14  O   UNL     1      -1.559 -33.895 -49.835  1.00  0.00    -0.298 OA
ENDBRANCH   4  13
TORSDOF 4
ENDMDL
MODEL 2
REMARK VINA RESULT:    -6.152      1.017      2.498
REMARK INTER + INTRA:          -7.838
REMARK INTER:                  -7.579
REMARK INTRA:                  -0.259
REMARK UNBOUND:                -0.248
REMARK SMILES COc1cc(C=O)ccc1OC(C)=O
REMARK SMILES IDX 10 1 3 2 4 3 5 4 8 5 9 6 11 7 12 8 13 9 14 10 2 11 1 12 6 13
REMARK SMILES IDX 7 14
REMARK H PARENT
REMARK Flexibility Score: inf
ROOT
ATOM      1  C   UNL     1      -4.255 -30.292 -52.380  1.00  0.00     0.172 A 
ATOM      2  C   UNL     1      -2.861 -30.502 -52.357  1.00  0.00     0.162 A 
ATOM      3  C   UNL     1      -2.352 -31.687 -51.786  1.00  0.00     0.062 A 
ATOM      4  C   UNL     1      -3.219 -32.663 -51.273  1.00  0.00     0.018 A 
ATOM      5  C   UNL     1      -4.604 -32.456 -51.337  1.00  0.00     0.015 A 
ATOM      6  C   UNL     1      -5.115 -31.281 -51.893  1.00  0.00     0.052 A 
ENDROOT
BRANCH   1   7
ATOM      7  O   UNL     1      -4.823 -29.128 -52.918  1.00  0.00    -0.423 OA
BRANCH   7   8
ATOM      8  C   UNL     1      -5.329 -29.026 -54.220  1.00  0.00     0.308 C 
ATOM      9  C   UNL     1      -5.960 -27.749 -54.661  1.00  0.00     0.139 C 
ATOM     10  O   UNL     1      -5.180 -29.965 -55.048  1.00  0.00    -0.252 OA
ENDBRANCH   7   8
ENDBRANCH   1   7
BRANCH   2  11
ATOM     11  O   UNL     1      -2.016 -29.536 -52.930  1.00  0.00    -0.493 OA
ATOM     12  C   UNL     1      -1.044 -28.781 -52.214  1.00  0.00     0.278 C 
ENDBRANCH   2  11
BRANCH   4  13
ATOM     13  C   UNL     1      -2.661 -33.895 -50.684  1.00  0.00     0.260 C 
ATOM     14  O   UNL     1      -1.551 -33.886 -50.088  1.00  0.00    -0.298 OA
ENDBRANCH   4  13
TORSDOF 4
ENDMDL
MODEL 3
REMARK VINA RESULT:    -6.077      1.689      3.492
REMARK INTER + INTRA:          -7.745
REMARK INTER:                  -7.383
REMARK INTRA:                  -0.362
REMARK UNBOUND:                -0.248
REMARK SMILES COc1cc(C=O)ccc1OC(C)=O
REMARK SMILES IDX 10 1 3 2 4 3 5 4 8 5 9 6 11 7 12 8 13 9 14 10 2 11 1 12 6 13
REMARK SMILES IDX 7 14
REMARK H PARENT
REMARK Flexibility Score: inf
ROOT
ATOM      1  C   UNL     1      -4.743 -32.332 -51.671  1.00  0.00     0.172 A 
ATOM      2  C   UNL     1      -4.408 -31.974 -52.994  1.00  0.00     0.162 A 
ATOM      3  C   UNL     1      -3.111 -32.249 -53.475  1.00  0.00     0.062 A 
ATOM      4  C   UNL     1      -2.170 -32.898 -52.662  1.00  0.00     0.018 A 
ATOM      5  C   UNL     1      -2.529 -33.280 -51.362  1.00  0.00     0.015 A 
ATOM      6  C   UNL     1      -3.809 -33.004 -50.876  1.00  0.00     0.052 A 
ENDROOT
BRANCH   1   7
ATOM      7  O   UNL     1      -6.009 -32.072 -51.128  1.00  0.00    -0.423 OA
BRANCH   7   8
ATOM      8  C   UNL     1      -6.340 -30.913 -50.416  1.00  0.00     0.308 C 
ATOM      9  C   UNL     1      -7.305 -31.001 -49.283  1.00  0.00     0.139 C 
ATOM     10  O   UNL     1      -5.767 -29.817 -50.662  1.00  0.00    -0.252 OA
ENDBRANCH   7   8
ENDBRANCH   1   7
BRANCH   2  11
ATOM     11  O   UNL     1      -5.387 -31.380 -53.807  1.00  0.00    -0.493 OA
ATOM     12  C   UNL     1      -5.355 -30.029 -54.258  1.00  0.00     0.278 C 
ENDBRANCH   2  11
BRANCH   4  13
ATOM     13  C   UNL     1      -0.821 -33.176 -53.191  1.00  0.00     0.260 C 
ATOM     14  O   UNL     1       0.210 -32.899 -52.522  1.00  0.00    -0.298 OA
ENDBRANCH   4  13
TORSDOF 4
ENDMDL
MODEL 4
REMARK VINA RESULT:    -6.039      1.866      4.005
REMARK INTER + INTRA:          -7.698
REMARK INTER:                  -7.362
REMARK INTRA:                  -0.337
REMARK UNBOUND:                -0.248
REMARK SMILES COc1cc(C=O)ccc1OC(C)=O
REMARK SMILES IDX 10 1 3 2 4 3 5 4 8 5 9 6 11 7 12 8 13 9 14 10 2 11 1 12 6 13
REMARK SMILES IDX 7 14
REMARK H PARENT
REMARK Flexibility Score: inf
ROOT
ATOM      1  C   UNL     1      -5.217 -29.427 -51.795  1.00  0.00     0.172 A 
ATOM      2  C   UNL     1      -5.553 -30.738 -51.396  1.00  0.00     0.162 A 
ATOM      3  C   UNL     1      -6.328 -30.927 -50.233  1.00  0.00     0.062 A 
ATOM      4  C   UNL     1      -6.787 -29.827 -49.493  1.00  0.00     0.018 A 
ATOM      5  C   UNL     1      -6.475 -28.529 -49.923  1.00  0.00     0.015 A 
ATOM      6  C   UNL     1      -5.702 -28.335 -51.070  1.00  0.00     0.052 A 
ENDROOT
BRANCH   1   7
ATOM      7  O   UNL     1      -4.437 -29.174 -52.932  1.00  0.00    -0.423 OA
BRANCH   7   8
ATOM      8  C   UNL     1      -4.958 -28.924 -54.208  1.00  0.00     0.308 C 
ATOM      9  C   UNL     1      -5.138 -27.516 -54.662  1.00  0.00     0.139 C 
ATOM     10  O   UNL     1      -5.193 -29.871 -55.007  1.00  0.00    -0.252 OA
ENDBRANCH   7   8
ENDBRANCH   1   7
BRANCH   2  11
ATOM     11  O   UNL     1      -5.131 -31.820 -52.187  1.00  0.00    -0.493 OA
ATOM     12  C   UNL     1      -4.057 -32.695 -51.857  1.00  0.00     0.278 C 
ENDBRANCH   2  11
BRANCH   4  13
ATOM     13  C   UNL     1      -7.598 -30.053 -48.282  1.00  0.00     0.260 C 
ATOM     14  O   UNL     1      -8.855 -30.120 -48.344  1.00  0.00    -0.298 OA
ENDBRANCH   4  13
TORSDOF 4
ENDMDL
MODEL 5
REMARK VINA RESULT:    -5.883      2.351      5.099
REMARK INTER + INTRA:          -7.506
REMARK INTER:                  -7.273
REMARK INTRA:                  -0.233
REMARK UNBOUND:                -0.248
REMARK SMILES COc1cc(C=O)ccc1OC(C)=O
REMARK SMILES IDX 10 1 3 2 4 3 5 4 8 5 9 6 11 7 12 8 13 9 14 10 2 11 1 12 6 13
REMARK SMILES IDX 7 14
REMARK H PARENT
REMARK Flexibility Score: inf
ROOT
ATOM      1  C   UNL     1      -5.277 -30.707 -51.766  1.00  0.00     0.172 A 
ATOM      2  C   UNL     1      -4.895 -29.377 -52.039  1.00  0.00     0.162 A 
ATOM      3  C   UNL     1      -5.333 -28.346 -51.183  1.00  0.00     0.062 A 
ATOM      4  C   UNL     1      -6.116 -28.635 -50.056  1.00  0.00     0.018 A 
ATOM      5  C   UNL     1      -6.457 -29.967 -49.778  1.00  0.00     0.015 A 
ATOM      6  C   UNL     1      -6.033 -30.993 -50.625  1.00  0.00     0.052 A 
ENDROOT
BRANCH   1   7
ATOM      7  O   UNL     1      -4.888 -31.775 -52.587  1.00  0.00    -0.423 OA
BRANCH   7   8
ATOM      8  C   UNL     1      -3.612 -32.352 -52.580  1.00  0.00     0.308 C 
ATOM      9  C   UNL     1      -3.180 -33.159 -51.403  1.00  0.00     0.139 C 
ATOM     10  O   UNL     1      -2.860 -32.272 -53.590  1.00  0.00    -0.252 OA
ENDBRANCH   7   8
ENDBRANCH   1   7
BRANCH   2  11
ATOM     11  O   UNL     1      -4.061 -29.120 -53.140  1.00  0.00    -0.493 OA
ATOM     12  C   UNL     1      -3.365 -27.897 -53.361  1.00  0.00     0.278 C 
ENDBRANCH   2  11
BRANCH   4  13
ATOM     13  C   UNL     1      -6.558 -27.538 -49.175  1.00  0.00     0.260 C 
ATOM     14  O   UNL     1      -6.870 -26.412 -49.646  1.00  0.00    -0.298 OA
ENDBRANCH   4  13
TORSDOF 4
ENDMDL
MODEL 6
REMARK VINA RESULT:    -5.854      2.217      4.677
REMARK INTER + INTRA:          -7.471
REMARK INTER:                  -7.191
REMARK INTRA:                  -0.280
REMARK UNBOUND:                -0.248
REMARK SMILES COc1cc(C=O)ccc1OC(C)=O
REMARK SMILES IDX 10 1 3 2 4 3 5 4 8 5 9 6 11 7 12 8 13 9 14 10 2 11 1 12 6 13
REMARK SMILES IDX 7 14
REMARK H PARENT
REMARK Flexibility Score: inf
ROOT
ATOM      1  C   UNL     1      -4.288 -31.542 -52.587  1.00  0.00     0.172 A 
ATOM      2  C   UNL     1      -4.329 -30.140 -52.438  1.00  0.00     0.162 A 
ATOM      3  C   UNL     1      -5.212 -29.573 -51.496  1.00  0.00     0.062 A 
ATOM      4  C   UNL     1      -6.022 -30.389 -50.692  1.00  0.00     0.018 A 
ATOM      5  C   UNL     1      -5.943 -31.783 -50.826  1.00  0.00     0.015 A 
ATOM      6  C   UNL     1      -5.077 -32.351 -51.763  1.00  0.00     0.052 A 
ENDROOT
BRANCH   1   7
ATOM      7  O   UNL     1      -3.445 -32.166 -53.516  1.00  0.00    -0.423 OA
BRANCH   7   8
ATOM      8  C   UNL     1      -2.126 -32.553 -53.250  1.00  0.00     0.308 C 
ATOM      9  C   UNL     1      -1.866 -33.637 -52.260  1.00  0.00     0.139 C 
ATOM     10  O   UNL     1      -1.163 -32.059 -53.899  1.00  0.00    -0.252 OA
ENDBRANCH   7   8
ENDBRANCH   1   7
BRANCH   2  11
ATOM     11  O   UNL     1      -3.466 -29.347 -53.212  1.00  0.00    -0.493 OA
ATOM     12  C   UNL     1      -2.383 -28.582 -52.692  1.00  0.00     0.278 C 
ENDBRANCH   2  11
BRANCH   4  13
ATOM     13  C   UNL     1      -6.934 -29.770 -49.712  1.00  0.00     0.260 C 
ATOM     14  O   UNL     1      -6.968 -28.520 -49.554  1.00  0.00    -0.298 OA
ENDBRANCH   4  13
TORSDOF 4
ENDMDL
MODEL 7
REMARK VINA RESULT:    -5.727      1.452      1.907
REMARK INTER + INTRA:          -7.313
REMARK INTER:                  -7.013
REMARK INTRA:                  -0.301
REMARK UNBOUND:                -0.248
REMARK SMILES COc1cc(C=O)ccc1OC(C)=O
REMARK SMILES IDX 10 1 3 2 4 3 5 4 8 5 9 6 11 7 12 8 13 9 14 10 2 11 1 12 6 13
REMARK SMILES IDX 7 14
REMARK H PARENT
REMARK Flexibility Score: inf
ROOT
ATOM      1  C   UNL     1      -3.805 -29.632 -52.590  1.00  0.00     0.172 A 
ATOM      2  C   UNL     1      -3.711 -31.004 -52.276  1.00  0.00     0.162 A 
ATOM      3  C   UNL     1      -2.461 -31.543 -51.911  1.00  0.00     0.062 A 
ATOM      4  C   UNL     1      -1.324 -30.725 -51.830  1.00  0.00     0.018 A 
ATOM      5  C   UNL     1      -1.442 -29.355 -52.110  1.00  0.00     0.015 A 
ATOM      6  C   UNL     1      -2.675 -28.816 -52.480  1.00  0.00     0.052 A 
ENDROOT
BRANCH   1   7
ATOM      7  O   UNL     1      -5.015 -29.039 -52.976  1.00  0.00    -0.423 OA
BRANCH   7   8
ATOM      8  C   UNL     1      -5.468 -28.956 -54.299  1.00  0.00     0.308 C 
ATOM      9  C   UNL     1      -6.111 -27.698 -54.775  1.00  0.00     0.139 C 
ATOM     10  O   UNL     1      -5.259 -29.896 -55.114  1.00  0.00    -0.252 OA
ENDBRANCH   7   8
ENDBRANCH   1   7
BRANCH   2  11
ATOM     11  O   UNL     1      -4.875 -31.791 -52.307  1.00  0.00    -0.493 OA
ATOM     12  C   UNL     1      -5.690 -32.078 -51.175  1.00  0.00     0.278 C 
ENDBRANCH   2  11
BRANCH   4  13
ATOM     13  C   UNL     1      -0.029 -31.313 -51.442  1.00  0.00     0.260 C 
ATOM     14  O   UNL     1       0.142 -32.562 -51.435  1.00  0.00    -0.298 OA
ENDBRANCH   4  13
TORSDOF 4
ENDMDL
MODEL 8
REMARK VINA RESULT:    -5.716      2.147      4.351
REMARK INTER + INTRA:          -7.300
REMARK INTER:                  -6.905
REMARK INTRA:                  -0.395
REMARK UNBOUND:                -0.248
REMARK SMILES COc1cc(C=O)ccc1OC(C)=O
REMARK SMILES IDX 10 1 3 2 4 3 5 4 8 5 9 6 11 7 12 8 13 9 14 10 2 11 1 12 6 13
REMARK SMILES IDX 7 14
REMARK H PARENT
REMARK Flexibility Score: inf
ROOT
ATOM      1  C   UNL     1      -4.924 -29.430 -51.875  1.00  0.00     0.172 A 
ATOM      2  C   UNL     1      -5.221 -30.779 -51.591  1.00  0.00     0.162 A 
ATOM      3  C   UNL     1      -6.078 -31.084 -50.514  1.00  0.00     0.062 A 
ATOM      4  C   UNL     1      -6.657 -30.060 -49.748  1.00  0.00     0.018 A 
ATOM      5  C   UNL     1      -6.381 -28.723 -50.067  1.00  0.00     0.015 A 
ATOM      6  C   UNL     1      -5.526 -28.414 -51.127  1.00  0.00     0.052 A 
ENDROOT
BRANCH   1   7
ATOM      7  O   UNL     1      -4.067 -29.062 -52.922  1.00  0.00    -0.423 OA
BRANCH   7   8
ATOM      8  C   UNL     1      -2.754 -28.606 -52.744  1.00  0.00     0.308 C 
ATOM      9  C   UNL     1      -1.744 -29.509 -52.120  1.00  0.00     0.139 C 
ATOM     10  O   UNL     1      -2.396 -27.480 -53.183  1.00  0.00    -0.252 OA
ENDBRANCH   7   8
ENDBRANCH   1   7
BRANCH   2  11
ATOM     11  O   UNL     1      -4.676 -31.784 -52.409  1.00  0.00    -0.493 OA
ATOM     12  C   UNL     1      -3.675 -32.709 -51.998  1.00  0.00     0.278 C 
ENDBRANCH   2  11
BRANCH   4  13
ATOM     13  C   UNL     1      -7.553 -30.406 -48.629  1.00  0.00     0.260 C 
ATOM     14  O   UNL     1      -8.727 -29.952 -48.571  1.00  0.00    -0.298 OA
ENDBRANCH   4  13
TORSDOF 4
ENDMDL
MODEL 9
REMARK VINA RESULT:    -5.589      2.077      5.491
REMARK INTER + INTRA:          -7.143
REMARK INTER:                  -6.918
REMARK INTRA:                  -0.225
REMARK UNBOUND:                -0.248
REMARK SMILES COc1cc(C=O)ccc1OC(C)=O
REMARK SMILES IDX 10 1 3 2 4 3 5 4 8 5 9 6 11 7 12 8 13 9 14 10 2 11 1 12 6 13
REMARK SMILES IDX 7 14
REMARK H PARENT
REMARK Flexibility Score: inf
ROOT
ATOM      1  C   UNL     1      -3.904 -31.159 -53.091  1.00  0.00     0.172 A 
ATOM      2  C   UNL     1      -3.294 -29.932 -52.753  1.00  0.00     0.162 A 
ATOM      3  C   UNL     1      -3.835 -28.732 -53.260  1.00  0.00     0.062 A 
ATOM      4  C   UNL     1      -4.982 -28.748 -54.068  1.00  0.00     0.018 A 
ATOM      5  C   UNL     1      -5.597 -29.973 -54.364  1.00  0.00     0.015 A 
ATOM      6  C   UNL     1      -5.063 -31.166 -53.872  1.00  0.00     0.052 A 
ENDROOT
BRANCH   1   7
ATOM      7  O   UNL     1      -3.407 -32.386 -52.633  1.00  0.00    -0.423 OA
BRANCH   7   8
ATOM      8  C   UNL     1      -3.615 -32.892 -51.343  1.00  0.00     0.308 C 
ATOM      9  C   UNL     1      -2.624 -33.840 -50.760  1.00  0.00     0.139 C 
ATOM     10  O   UNL     1      -4.580 -32.488 -50.639  1.00  0.00    -0.252 OA
ENDBRANCH   7   8
ENDBRANCH   1   7
BRANCH   2  11
ATOM     11  O   UNL     1      -2.182 -29.937 -51.895  1.00  0.00    -0.493 OA
ATOM     12  C   UNL     1      -0.973 -29.222 -52.131  1.00  0.00     0.278 C 
ENDBRANCH   2  11
BRANCH   4  13
ATOM     13  C   UNL     1      -5.528 -27.478 -54.582  1.00  0.00     0.260 C 
ATOM     14  O   UNL     1      -6.740 -27.376 -54.908  1.00  0.00    -0.298 OA
ENDBRANCH   4  13
TORSDOF 4
ENDMDL
