MODEL 1
REMARK VINA RESULT:    -5.419      0.000      0.000
REMARK INTER + INTRA:          -6.344
REMARK INTER:                  -6.211
REMARK INTRA:                  -0.134
REMARK UNBOUND:                -0.134
REMARK SMILES O=C([O-])C=Cc1ccc(O)cc1
REMARK SMILES IDX 6 1 7 2 12 3 8 4 11 5 9 6 5 7 4 8 2 9 1 10 3 11 10 12
REMARK H PARENT 10 13
REMARK Flexibility Score: inf
ROOT
ATOM      1  C   UNL     1     -33.684  11.043 -35.522  1.00  0.00    -0.025 A 
ATOM      2  C   UNL     1     -33.885   9.824 -36.194  1.00  0.00     0.012 A 
ATOM      3  C   UNL     1     -34.107  12.237 -36.142  1.00  0.00     0.012 A 
ATOM      4  C   UNL     1     -34.516   9.794 -37.440  1.00  0.00     0.047 A 
ATOM      5  C   UNL     1     -34.736  12.202 -37.390  1.00  0.00     0.047 A 
ATOM      6  C   UNL     1     -34.945  10.980 -38.041  1.00  0.00     0.115 A 
ENDROOT
BRANCH   1   7
ATOM      7  C   UNL     1     -33.001  11.023 -34.205  1.00  0.00     0.010 C 
ATOM      8  C   UNL     1     -33.607  11.324 -33.048  1.00  0.00     0.025 C 
BRANCH   8   9
ATOM      9  C   UNL     1     -32.892  11.281 -31.762  1.00  0.00     0.064 C 
ATOM     10  O   UNL     1     -32.960  12.265 -30.981  1.00  0.00    -0.545 OA
ATOM     11  O   UNL     1     -32.142  10.169 -31.395  1.00  0.00    -0.545 OA
ENDBRANCH   8   9
ENDBRANCH   1   7
BRANCH   6  12
ATOM     12  O   UNL     1     -35.573  10.935 -39.284  1.00  0.00    -0.508 OA
ATOM     13  H   UNL     1     -35.801  11.781 -39.792  1.00  0.00     0.293 HD
ENDBRANCH   6  12
TORSDOF 3
ENDMDL
MODEL 2
REMARK VINA RESULT:    -5.407      0.094      1.683
REMARK INTER + INTRA:          -6.330
REMARK INTER:                  -6.195
REMARK INTRA:                  -0.136
REMARK UNBOUND:                -0.134
REMARK SMILES O=C([O-])C=Cc1ccc(O)cc1
REMARK SMILES IDX 6 1 7 2 12 3 8 4 11 5 9 6 5 7 4 8 2 9 1 10 3 11 10 12
REMARK H PARENT 10 13
REMARK Flexibility Score: inf
ROOT
ATOM      1  C   UNL     1     -33.645  11.032 -35.578  1.00  0.00    -0.025 A 
ATOM      2  C   UNL     1     -34.108  12.220 -36.171  1.00  0.00     0.012 A 
ATOM      3  C   UNL     1     -33.859   9.810 -36.248  1.00  0.00     0.012 A 
ATOM      4  C   UNL     1     -34.746  12.192 -37.414  1.00  0.00     0.047 A 
ATOM      5  C   UNL     1     -34.499   9.787 -37.491  1.00  0.00     0.047 A 
ATOM      6  C   UNL     1     -34.942  10.979 -38.079  1.00  0.00     0.115 A 
ENDROOT
BRANCH   1   7
ATOM      7  C   UNL     1     -32.982  11.113 -34.252  1.00  0.00     0.010 C 
ATOM      8  C   UNL     1     -33.647  11.146 -33.089  1.00  0.00     0.025 C 
BRANCH   8   9
ATOM      9  C   UNL     1     -32.947  11.216 -31.797  1.00  0.00     0.064 C 
ATOM     10  O   UNL     1     -32.208  10.262 -31.439  1.00  0.00    -0.545 OA
ATOM     11  O   UNL     1     -33.088  12.319 -30.962  1.00  0.00    -0.545 OA
ENDBRANCH   8   9
ENDBRANCH   1   7
BRANCH   6  12
ATOM     12  O   UNL     1     -35.579  10.967 -39.317  1.00  0.00    -0.508 OA
ATOM     13  H   UNL     1     -36.564  10.745 -39.404  1.00  0.00     0.293 HD
ENDBRANCH   6  12
TORSDOF 3
ENDMDL
MODEL 3
REMARK VINA RESULT:    -5.212      1.380      5.962
REMARK INTER + INTRA:          -6.108
REMARK INTER:                  -5.961
REMARK INTRA:                  -0.147
REMARK UNBOUND:                -0.134
REMARK SMILES O=C([O-])C=Cc1ccc(O)cc1
REMARK SMILES IDX 6 1 7 2 12 3 8 4 11 5 9 6 5 7 4 8 2 9 1 10 3 11 10 12
REMARK H PARENT 10 13
REMARK Flexibility Score: inf
ROOT
ATOM      1  C   UNL     1     -33.215  10.248 -33.925  1.00  0.00    -0.025 A 
ATOM      2  C   UNL     1     -33.815  11.437 -33.475  1.00  0.00     0.012 A 
ATOM      3  C   UNL     1     -32.347   9.554 -33.057  1.00  0.00     0.012 A 
ATOM      4  C   UNL     1     -33.574  11.910 -32.182  1.00  0.00     0.047 A 
ATOM      5  C   UNL     1     -32.108  10.032 -31.764  1.00  0.00     0.047 A 
ATOM      6  C   UNL     1     -32.724  11.210 -31.323  1.00  0.00     0.115 A 
ENDROOT
BRANCH   1   7
ATOM      7  C   UNL     1     -33.494   9.792 -35.310  1.00  0.00     0.010 C 
ATOM      8  C   UNL     1     -33.656  10.623 -36.348  1.00  0.00     0.025 C 
BRANCH   8   9
ATOM      9  C   UNL     1     -33.920  10.126 -37.708  1.00  0.00     0.064 C 
ATOM     10  O   UNL     1     -33.119   9.314 -38.239  1.00  0.00    -0.545 OA
ATOM     11  O   UNL     1     -35.042  10.539 -38.417  1.00  0.00    -0.545 OA
ENDBRANCH   8   9
ENDBRANCH   1   7
BRANCH   6  12
ATOM     12  O   UNL     1     -32.494  11.693 -30.037  1.00  0.00    -0.508 OA
ATOM     13  H   UNL     1     -33.181  12.260 -29.554  1.00  0.00     0.293 HD
ENDBRANCH   6  12
TORSDOF 3
ENDMDL
MODEL 4
REMARK VINA RESULT:    -5.168      1.496      5.833
REMARK INTER + INTRA:          -6.057
REMARK INTER:                  -5.921
REMARK INTRA:                  -0.136
REMARK UNBOUND:                -0.134
REMARK SMILES O=C([O-])C=Cc1ccc(O)cc1
REMARK SMILES IDX 6 1 7 2 12 3 8 4 11 5 9 6 5 7 4 8 2 9 1 10 3 11 10 12
REMARK H PARENT 10 13
REMARK Flexibility Score: inf
ROOT
ATOM      1  C   UNL     1     -33.133  10.199 -33.996  1.00  0.00    -0.025 A 
ATOM      2  C   UNL     1     -32.305   9.513 -33.091  1.00  0.00     0.012 A 
ATOM      3  C   UNL     1     -33.776  11.379 -33.567  1.00  0.00     0.012 A 
ATOM      4  C   UNL     1     -32.101  10.005 -31.799  1.00  0.00     0.047 A 
ATOM      5  C   UNL     1     -33.571  11.866 -32.272  1.00  0.00     0.047 A 
ATOM      6  C   UNL     1     -32.730  11.181 -31.386  1.00  0.00     0.115 A 
ENDROOT
BRANCH   1   7
ATOM      7  C   UNL     1     -33.325   9.632 -35.354  1.00  0.00     0.010 C 
ATOM      8  C   UNL     1     -33.479  10.377 -36.457  1.00  0.00     0.025 C 
BRANCH   8   9
ATOM      9  C   UNL     1     -33.656   9.771 -37.786  1.00  0.00     0.064 C 
ATOM     10  O   UNL     1     -32.725   9.086 -38.284  1.00  0.00    -0.545 OA
ATOM     11  O   UNL     1     -34.835   9.942 -38.501  1.00  0.00    -0.545 OA
ENDBRANCH   8   9
ENDBRANCH   1   7
BRANCH   6  12
ATOM     12  O   UNL     1     -32.518  11.660 -30.095  1.00  0.00    -0.508 OA
ATOM     13  H   UNL     1     -31.649  11.487 -29.603  1.00  0.00     0.293 HD
ENDBRANCH   6  12
TORSDOF 3
ENDMDL
MODEL 5
REMARK VINA RESULT:    -4.916      2.050      2.740
REMARK INTER + INTRA:          -5.768
REMARK INTER:                  -5.632
REMARK INTRA:                  -0.136
REMARK UNBOUND:                -0.134
REMARK SMILES O=C([O-])C=Cc1ccc(O)cc1
REMARK SMILES IDX 6 1 7 2 12 3 8 4 11 5 9 6 5 7 4 8 2 9 1 10 3 11 10 12
REMARK H PARENT 10 13
REMARK Flexibility Score: inf
ROOT
ATOM      1  C   UNL     1     -33.636  11.141 -33.203  1.00  0.00    -0.025 A 
ATOM      2  C   UNL     1     -33.981   9.779 -33.135  1.00  0.00     0.012 A 
ATOM      3  C   UNL     1     -33.457  11.733 -34.470  1.00  0.00     0.012 A 
ATOM      4  C   UNL     1     -34.169   9.034 -34.301  1.00  0.00     0.047 A 
ATOM      5  C   UNL     1     -33.644  10.982 -35.635  1.00  0.00     0.047 A 
ATOM      6  C   UNL     1     -34.004   9.631 -35.553  1.00  0.00     0.115 A 
ENDROOT
BRANCH   1   7
ATOM      7  C   UNL     1     -33.439  11.888 -31.936  1.00  0.00     0.010 C 
ATOM      8  C   UNL     1     -32.346  11.775 -31.168  1.00  0.00     0.025 C 
BRANCH   8   9
ATOM      9  C   UNL     1     -32.189  12.544 -29.923  1.00  0.00     0.064 C 
ATOM     10  O   UNL     1     -31.353  13.483 -29.876  1.00  0.00    -0.545 OA
ATOM     11  O   UNL     1     -32.948  12.249 -28.797  1.00  0.00    -0.545 OA
ENDBRANCH   8   9
ENDBRANCH   1   7
BRANCH   6  12
ATOM     12  O   UNL     1     -34.194   8.875 -36.708  1.00  0.00    -0.508 OA
ATOM     13  H   UNL     1     -34.967   8.226 -36.794  1.00  0.00     0.293 HD
ENDBRANCH   6  12
TORSDOF 3
ENDMDL
MODEL 6
REMARK VINA RESULT:    -4.677      1.323      6.118
REMARK INTER + INTRA:          -5.494
REMARK INTER:                  -5.356
REMARK INTRA:                  -0.138
REMARK UNBOUND:                -0.134
REMARK SMILES O=C([O-])C=Cc1ccc(O)cc1
REMARK SMILES IDX 6 1 7 2 12 3 8 4 11 5 9 6 5 7 4 8 2 9 1 10 3 11 10 12
REMARK H PARENT 10 13
REMARK Flexibility Score: inf
ROOT
ATOM      1  C   UNL     1     -34.007  10.260 -36.286  1.00  0.00    -0.025 A 
ATOM      2  C   UNL     1     -33.705  11.582 -35.914  1.00  0.00     0.012 A 
ATOM      3  C   UNL     1     -34.004   9.258 -35.294  1.00  0.00     0.012 A 
ATOM      4  C   UNL     1     -33.433  11.901 -34.581  1.00  0.00     0.047 A 
ATOM      5  C   UNL     1     -33.729   9.582 -33.961  1.00  0.00     0.047 A 
ATOM      6  C   UNL     1     -33.446  10.905 -33.601  1.00  0.00     0.115 A 
ENDROOT
BRANCH   1   7
ATOM      7  C   UNL     1     -34.280   9.970 -37.716  1.00  0.00     0.010 C 
ATOM      8  C   UNL     1     -35.372  10.394 -38.366  1.00  0.00     0.025 C 
BRANCH   8   9
ATOM      9  C   UNL     1     -35.596  10.091 -39.788  1.00  0.00     0.064 C 
ATOM     10  O   UNL     1     -35.463   8.909 -40.200  1.00  0.00    -0.545 OA
ATOM     11  O   UNL     1     -35.954  11.090 -40.687  1.00  0.00    -0.545 OA
ENDBRANCH   8   9
ENDBRANCH   1   7
BRANCH   6  12
ATOM     12  O   UNL     1     -33.173  11.239 -32.277  1.00  0.00    -0.508 OA
ATOM     13  H   UNL     1     -32.327  11.733 -32.019  1.00  0.00     0.293 HD
ENDBRANCH   6  12
TORSDOF 3
ENDMDL
MODEL 7
REMARK VINA RESULT:    -3.761     16.452     18.317
REMARK INTER + INTRA:          -4.445
REMARK INTER:                  -4.308
REMARK INTRA:                  -0.136
REMARK UNBOUND:                -0.134
REMARK SMILES O=C([O-])C=Cc1ccc(O)cc1
REMARK SMILES IDX 6 1 7 2 12 3 8 4 11 5 9 6 5 7 4 8 2 9 1 10 3 11 10 12
REMARK H PARENT 10 13
REMARK Flexibility Score: inf
ROOT
ATOM      1  C   UNL     1     -24.035  25.402 -31.002  1.00  0.00    -0.025 A 
ATOM      2  C   UNL     1     -23.924  26.790 -31.195  1.00  0.00     0.012 A 
ATOM      3  C   UNL     1     -23.127  24.762 -30.134  1.00  0.00     0.012 A 
ATOM      4  C   UNL     1     -22.948  27.527 -30.519  1.00  0.00     0.047 A 
ATOM      5  C   UNL     1     -22.150  25.503 -29.461  1.00  0.00     0.047 A 
ATOM      6  C   UNL     1     -22.061  26.888 -29.649  1.00  0.00     0.115 A 
ENDROOT
BRANCH   1   7
ATOM      7  C   UNL     1     -25.083  24.663 -31.751  1.00  0.00     0.010 C 
ATOM      8  C   UNL     1     -26.240  24.259 -31.209  1.00  0.00     0.025 C 
BRANCH   8   9
ATOM      9  C   UNL     1     -27.255  23.538 -31.992  1.00  0.00     0.064 C 
ATOM     10  O   UNL     1     -27.273  23.657 -33.245  1.00  0.00    -0.545 OA
ATOM     11  O   UNL     1     -28.197  22.725 -31.371  1.00  0.00    -0.545 OA
ENDBRANCH   8   9
ENDBRANCH   1   7
BRANCH   6  12
ATOM     12  O   UNL     1     -21.093  27.635 -28.982  1.00  0.00    -0.508 OA
ATOM     13  H   UNL     1     -20.492  27.217 -28.282  1.00  0.00     0.293 HD
ENDBRANCH   6  12
TORSDOF 3
ENDMDL
MODEL 8
REMARK VINA RESULT:    -3.495     17.371     18.418
REMARK INTER + INTRA:          -4.139
REMARK INTER:                  -4.003
REMARK INTRA:                  -0.137
REMARK UNBOUND:                -0.134
REMARK SMILES O=C([O-])C=Cc1ccc(O)cc1
REMARK SMILES IDX 6 1 7 2 12 3 8 4 11 5 9 6 5 7 4 8 2 9 1 10 3 11 10 12
REMARK H PARENT 10 13
REMARK Flexibility Score: inf
ROOT
ATOM      1  C   UNL     1     -23.764  25.614 -31.060  1.00  0.00    -0.025 A 
ATOM      2  C   UNL     1     -23.904  25.368 -32.437  1.00  0.00     0.012 A 
ATOM      3  C   UNL     1     -23.387  26.905 -30.636  1.00  0.00     0.012 A 
ATOM      4  C   UNL     1     -23.698  26.390 -33.367  1.00  0.00     0.047 A 
ATOM      5  C   UNL     1     -23.180  27.925 -31.571  1.00  0.00     0.047 A 
ATOM      6  C   UNL     1     -23.338  27.670 -32.939  1.00  0.00     0.115 A 
ENDROOT
BRANCH   1   7
ATOM      7  C   UNL     1     -23.985  24.494 -30.112  1.00  0.00     0.010 C 
ATOM      8  C   UNL     1     -23.116  24.149 -29.153  1.00  0.00     0.025 C 
BRANCH   8   9
ATOM      9  C   UNL     1     -23.381  23.035 -28.228  1.00  0.00     0.064 C 
ATOM     10  O   UNL     1     -22.752  21.954 -28.362  1.00  0.00    -0.545 OA
ATOM     11  O   UNL     1     -24.316  23.159 -27.206  1.00  0.00    -0.545 OA
ENDBRANCH   8   9
ENDBRANCH   1   7
BRANCH   6  12
ATOM     12  O   UNL     1     -23.136  28.679 -33.878  1.00  0.00    -0.508 OA
ATOM     13  H   UNL     1     -22.586  29.502 -33.660  1.00  0.00     0.293 HD
ENDBRANCH   6  12
TORSDOF 3
ENDMDL
