MODEL 1
REMARK VINA RESULT:    -3.834      0.000      0.000
REMARK INTER + INTRA:          -6.354
REMARK INTER:                  -5.627
REMARK INTRA:                  -0.727
REMARK UNBOUND:                -0.727
REMARK SMILES O=C([O-])CCCCCCCC(=O)[O-]
REMARK SMILES IDX 7 1 6 2 5 3 4 4 2 5 1 6 3 7 8 8 9 9 10 10 11 11 12 12 13 13
REMARK H PARENT
REMARK Flexibility Score: inf
ROOT
ATOM      1  C   UNL     1      26.696  27.265 -18.826  1.00  0.00     0.000 C 
ENDROOT
BRANCH   1   2
ATOM      2  C   UNL     1      27.197  28.106 -20.009  1.00  0.00     0.000 C 
BRANCH   2   3
ATOM      3  C   UNL     1      27.492  29.568 -19.628  1.00  0.00     0.006 C 
BRANCH   3   4
ATOM      4  C   UNL     1      28.267  29.725 -18.308  1.00  0.00     0.053 C 
BRANCH   4   5
ATOM      5  C   UNL     1      28.532  31.157 -17.957  1.00  0.00     0.041 C 
ATOM      6  O   UNL     1      29.692  31.530 -17.636  1.00  0.00    -0.550 OA
ATOM      7  O   UNL     1      27.504  32.089 -18.016  1.00  0.00    -0.550 OA
ENDBRANCH   4   5
ENDBRANCH   3   4
ENDBRANCH   2   3
ENDBRANCH   1   2
BRANCH   1   8
ATOM      8  C   UNL     1      25.180  27.045 -18.910  1.00  0.00     0.000 C 
BRANCH   8   9
ATOM      9  C   UNL     1      24.502  27.363 -17.573  1.00  0.00     0.006 C 
BRANCH   9  10
ATOM     10  C   UNL     1      25.534  27.775 -16.518  1.00  0.00     0.053 C 
BRANCH  10  11
ATOM     11  C   UNL     1      25.189  29.113 -15.943  1.00  0.00     0.041 C 
ATOM     12  O   UNL     1      25.137  30.127 -16.688  1.00  0.00    -0.550 OA
ATOM     13  O   UNL     1      24.879  29.232 -14.595  1.00  0.00    -0.550 OA
ENDBRANCH  10  11
ENDBRANCH   9  10
ENDBRANCH   8   9
ENDBRANCH   1   8
TORSDOF 8
ENDMDL
MODEL 2
REMARK VINA RESULT:    -3.832      0.121      4.101
REMARK INTER + INTRA:          -6.352
REMARK INTER:                  -5.629
REMARK INTRA:                  -0.722
REMARK UNBOUND:                -0.727
REMARK SMILES O=C([O-])CCCCCCCC(=O)[O-]
REMARK SMILES IDX 7 1 6 2 5 3 4 4 2 5 1 6 3 7 8 8 9 9 10 10 11 11 12 12 13 13
REMARK H PARENT
REMARK Flexibility Score: inf
ROOT
ATOM      1  C   UNL     1      26.661  27.256 -18.798  1.00  0.00     0.000 C 
ENDROOT
BRANCH   1   2
ATOM      2  C   UNL     1      25.138  27.095 -18.893  1.00  0.00     0.000 C 
BRANCH   2   3
ATOM      3  C   UNL     1      24.413  27.411 -17.571  1.00  0.00     0.006 C 
BRANCH   3   4
ATOM      4  C   UNL     1      25.361  27.732 -16.401  1.00  0.00     0.053 C 
BRANCH   4   5
ATOM      5  C   UNL     1      25.157  29.110 -15.851  1.00  0.00     0.041 C 
ATOM      6  O   UNL     1      25.181  30.111 -16.617  1.00  0.00    -0.550 OA
ATOM      7  O   UNL     1      24.909  29.289 -14.496  1.00  0.00    -0.550 OA
ENDBRANCH   4   5
ENDBRANCH   3   4
ENDBRANCH   2   3
ENDBRANCH   1   2
BRANCH   1   8
ATOM      8  C   UNL     1      27.205  28.056 -19.988  1.00  0.00     0.000 C 
BRANCH   8   9
ATOM      9  C   UNL     1      27.470  29.514 -19.597  1.00  0.00     0.006 C 
BRANCH   9  10
ATOM     10  C   UNL     1      28.252  29.598 -18.282  1.00  0.00     0.053 C 
BRANCH  10  11
ATOM     11  C   UNL     1      28.572  31.021 -17.953  1.00  0.00     0.041 C 
ATOM     12  O   UNL     1      29.745  31.349 -17.631  1.00  0.00    -0.550 OA
ATOM     13  O   UNL     1      27.587  31.996 -18.048  1.00  0.00    -0.550 OA
ENDBRANCH  10  11
ENDBRANCH   9  10
ENDBRANCH   8   9
ENDBRANCH   1   8
TORSDOF 8
ENDMDL
MODEL 3
REMARK VINA RESULT:    -3.802      0.894      4.440
REMARK INTER + INTRA:          -6.307
REMARK INTER:                  -5.711
REMARK INTRA:                  -0.596
REMARK UNBOUND:                -0.727
REMARK SMILES O=C([O-])CCCCCCCC(=O)[O-]
REMARK SMILES IDX 7 1 6 2 5 3 4 4 2 5 1 6 3 7 8 8 9 9 10 10 11 11 12 12 13 13
REMARK H PARENT
REMARK Flexibility Score: inf
ROOT
ATOM      1  C   UNL     1      27.501  28.201 -18.282  1.00  0.00     0.000 C 
ENDROOT
BRANCH   1   2
ATOM      2  C   UNL     1      26.391  27.141 -18.303  1.00  0.00     0.000 C 
BRANCH   2   3
ATOM      3  C   UNL     1      25.058  27.653 -17.726  1.00  0.00     0.006 C 
BRANCH   3   4
ATOM      4  C   UNL     1      25.017  27.694 -16.188  1.00  0.00     0.053 C 
BRANCH   4   5
ATOM      5  C   UNL     1      24.961  29.089 -15.646  1.00  0.00     0.041 C 
ATOM      6  O   UNL     1      25.127  29.301 -14.416  1.00  0.00    -0.550 OA
ATOM      7  O   UNL     1      24.756  30.161 -16.506  1.00  0.00    -0.550 OA
ENDBRANCH   4   5
ENDBRANCH   3   4
ENDBRANCH   2   3
ENDBRANCH   1   2
BRANCH   1   8
ATOM      8  C   UNL     1      27.591  28.930 -19.629  1.00  0.00     0.000 C 
BRANCH   8   9
ATOM      9  C   UNL     1      27.451  30.445 -19.445  1.00  0.00     0.006 C 
BRANCH   9  10
ATOM     10  C   UNL     1      27.759  30.855 -18.001  1.00  0.00     0.053 C 
BRANCH  10  11
ATOM     11  C   UNL     1      28.993  31.699 -17.948  1.00  0.00     0.041 C 
ATOM     12  O   UNL     1      30.054  31.238 -17.448  1.00  0.00    -0.550 OA
ATOM     13  O   UNL     1      28.988  32.975 -18.495  1.00  0.00    -0.550 OA
ENDBRANCH  10  11
ENDBRANCH   9  10
ENDBRANCH   8   9
ENDBRANCH   1   8
TORSDOF 8
ENDMDL
MODEL 4
REMARK VINA RESULT:    -3.714      1.318      2.139
REMARK INTER + INTRA:          -6.179
REMARK INTER:                  -5.661
REMARK INTRA:                  -0.518
REMARK UNBOUND:                -0.727
REMARK SMILES O=C([O-])CCCCCCCC(=O)[O-]
REMARK SMILES IDX 7 1 6 2 5 3 4 4 2 5 1 6 3 7 8 8 9 9 10 10 11 11 12 12 13 13
REMARK H PARENT
REMARK Flexibility Score: inf
ROOT
ATOM      1  C   UNL     1      27.936  28.794 -18.140  1.00  0.00     0.000 C 
ENDROOT
BRANCH   1   2
ATOM      2  C   UNL     1      27.324  30.102 -18.660  1.00  0.00     0.000 C 
BRANCH   2   3
ATOM      3  C   UNL     1      28.020  31.358 -18.104  1.00  0.00     0.006 C 
BRANCH   3   4
ATOM      4  C   UNL     1      29.396  31.082 -17.474  1.00  0.00     0.053 C 
BRANCH   4   5
ATOM      5  C   UNL     1      30.259  32.305 -17.408  1.00  0.00     0.041 C 
ATOM      6  O   UNL     1      30.279  33.122 -18.366  1.00  0.00    -0.550 OA
ATOM      7  O   UNL     1      31.019  32.559 -16.273  1.00  0.00    -0.550 OA
ENDBRANCH   4   5
ENDBRANCH   3   4
ENDBRANCH   2   3
ENDBRANCH   1   2
BRANCH   1   8
ATOM      8  C   UNL     1      26.973  27.617 -18.340  1.00  0.00     0.000 C 
BRANCH   8   9
ATOM      9  C   UNL     1      25.556  27.981 -17.883  1.00  0.00     0.006 C 
BRANCH   9  10
ATOM     10  C   UNL     1      25.385  27.742 -16.379  1.00  0.00     0.053 C 
BRANCH  10  11
ATOM     11  C   UNL     1      24.991  29.009 -15.689  1.00  0.00     0.041 C 
ATOM     12  O   UNL     1      25.002  29.076 -14.431  1.00  0.00    -0.550 OA
ATOM     13  O   UNL     1      24.657  30.132 -16.434  1.00  0.00    -0.550 OA
ENDBRANCH  10  11
ENDBRANCH   9  10
ENDBRANCH   8   9
ENDBRANCH   1   8
TORSDOF 8
ENDMDL
MODEL 5
REMARK VINA RESULT:    -3.466     22.146     23.111
REMARK INTER + INTRA:          -5.815
REMARK INTER:                  -5.456
REMARK INTRA:                  -0.358
REMARK UNBOUND:                -0.727
REMARK SMILES O=C([O-])CCCCCCCC(=O)[O-]
REMARK SMILES IDX 7 1 6 2 5 3 4 4 2 5 1 6 3 7 8 8 9 9 10 10 11 11 12 12 13 13
REMARK H PARENT
REMARK Flexibility Score: inf
ROOT
ATOM      1  C   UNL     1      35.009  14.800  -3.221  1.00  0.00     0.000 C 
ENDROOT
BRANCH   1   2
ATOM      2  C   UNL     1      36.158  15.041  -4.210  1.00  0.00     0.000 C 
BRANCH   2   3
ATOM      3  C   UNL     1      36.739  13.737  -4.788  1.00  0.00     0.006 C 
BRANCH   3   4
ATOM      4  C   UNL     1      37.946  13.190  -4.005  1.00  0.00     0.053 C 
BRANCH   4   5
ATOM      5  C   UNL     1      38.643  14.245  -3.203  1.00  0.00     0.041 C 
ATOM      6  O   UNL     1      38.435  14.344  -1.965  1.00  0.00    -0.550 OA
ATOM      7  O   UNL     1      39.549  15.101  -3.817  1.00  0.00    -0.550 OA
ENDBRANCH   4   5
ENDBRANCH   3   4
ENDBRANCH   2   3
ENDBRANCH   1   2
BRANCH   1   8
ATOM      8  C   UNL     1      34.256  13.506  -3.556  1.00  0.00     0.000 C 
BRANCH   8   9
ATOM      9  C   UNL     1      33.341  13.086  -2.400  1.00  0.00     0.006 C 
BRANCH   9  10
ATOM     10  C   UNL     1      33.320  14.152  -1.300  1.00  0.00     0.053 C 
BRANCH  10  11
ATOM     11  C   UNL     1      31.928  14.349  -0.789  1.00  0.00     0.041 C 
ATOM     12  O   UNL     1      31.485  15.512  -0.592  1.00  0.00    -0.550 OA
ATOM     13  O   UNL     1      31.103  13.253  -0.576  1.00  0.00    -0.550 OA
ENDBRANCH  10  11
ENDBRANCH   9  10
ENDBRANCH   8   9
ENDBRANCH   1   8
TORSDOF 8
ENDMDL
MODEL 6
REMARK VINA RESULT:    -3.430     22.043     23.609
REMARK INTER + INTRA:          -5.761
REMARK INTER:                  -5.432
REMARK INTRA:                  -0.329
REMARK UNBOUND:                -0.727
REMARK SMILES O=C([O-])CCCCCCCC(=O)[O-]
REMARK SMILES IDX 7 1 6 2 5 3 4 4 2 5 1 6 3 7 8 8 9 9 10 10 11 11 12 12 13 13
REMARK H PARENT
REMARK Flexibility Score: inf
ROOT
ATOM      1  C   UNL     1      35.016  14.761  -3.262  1.00  0.00     0.000 C 
ENDROOT
BRANCH   1   2
ATOM      2  C   UNL     1      34.289  13.436  -3.532  1.00  0.00     0.000 C 
BRANCH   2   3
ATOM      3  C   UNL     1      33.207  13.117  -2.484  1.00  0.00     0.006 C 
BRANCH   3   4
ATOM      4  C   UNL     1      33.229  14.050  -1.260  1.00  0.00     0.053 C 
BRANCH   4   5
ATOM      5  C   UNL     1      31.861  14.315  -0.708  1.00  0.00     0.041 C 
ATOM      6  O   UNL     1      31.470  15.497  -0.519  1.00  0.00    -0.550 OA
ATOM      7  O   UNL     1      31.005  13.257  -0.432  1.00  0.00    -0.550 OA
ENDBRANCH   4   5
ENDBRANCH   3   4
ENDBRANCH   2   3
ENDBRANCH   1   2
BRANCH   1   8
ATOM      8  C   UNL     1      36.029  15.069  -4.372  1.00  0.00     0.000 C 
BRANCH   8   9
ATOM      9  C   UNL     1      37.218  14.105  -4.316  1.00  0.00     0.006 C 
BRANCH   9  10
ATOM     10  C   UNL     1      38.067  14.350  -3.064  1.00  0.00     0.053 C 
BRANCH  10  11
ATOM     11  C   UNL     1      39.479  14.668  -3.443  1.00  0.00     0.041 C 
ATOM     12  O   UNL     1      40.177  13.818  -4.056  1.00  0.00    -0.550 OA
ATOM     13  O   UNL     1      40.009  15.921  -3.164  1.00  0.00    -0.550 OA
ENDBRANCH  10  11
ENDBRANCH   9  10
ENDBRANCH   8   9
ENDBRANCH   1   8
TORSDOF 8
ENDMDL
MODEL 7
REMARK VINA RESULT:    -3.371     13.923     15.438
REMARK INTER + INTRA:          -5.675
REMARK INTER:                  -5.312
REMARK INTRA:                  -0.362
REMARK UNBOUND:                -0.727
REMARK SMILES O=C([O-])CCCCCCCC(=O)[O-]
REMARK SMILES IDX 7 1 6 2 5 3 4 4 2 5 1 6 3 7 8 8 9 9 10 10 11 11 12 12 13 13
REMARK H PARENT
REMARK Flexibility Score: inf
ROOT
ATOM      1  C   UNL     1      33.525  14.122 -16.004  1.00  0.00     0.000 C 
ENDROOT
BRANCH   1   2
ATOM      2  C   UNL     1      32.294  14.054 -16.919  1.00  0.00     0.000 C 
BRANCH   2   3
ATOM      3  C   UNL     1      31.083  13.376 -16.251  1.00  0.00     0.006 C 
BRANCH   3   4
ATOM      4  C   UNL     1      30.310  14.291 -15.284  1.00  0.00     0.053 C 
BRANCH   4   5
ATOM      5  C   UNL     1      29.249  15.095 -15.969  1.00  0.00     0.041 C 
ATOM      6  O   UNL     1      28.880  14.798 -17.137  1.00  0.00    -0.550 OA
ATOM      7  O   UNL     1      28.643  16.155 -15.308  1.00  0.00    -0.550 OA
ENDBRANCH   4   5
ENDBRANCH   3   4
ENDBRANCH   2   3
ENDBRANCH   1   2
BRANCH   1   8
ATOM      8  C   UNL     1      34.665  14.899 -16.673  1.00  0.00     0.000 C 
BRANCH   8   9
ATOM      9  C   UNL     1      34.156  15.694 -17.881  1.00  0.00     0.006 C 
BRANCH   9  10
ATOM     10  C   UNL     1      34.639  17.146 -17.827  1.00  0.00     0.053 C 
BRANCH  10  11
ATOM     11  C   UNL     1      33.787  18.014 -18.698  1.00  0.00     0.041 C 
ATOM     12  O   UNL     1      33.475  17.635 -19.858  1.00  0.00    -0.550 OA
ATOM     13  O   UNL     1      33.296  19.219 -18.213  1.00  0.00    -0.550 OA
ENDBRANCH  10  11
ENDBRANCH   9  10
ENDBRANCH   8   9
ENDBRANCH   1   8
TORSDOF 8
ENDMDL
MODEL 8
REMARK VINA RESULT:    -3.342     14.013     14.894
REMARK INTER + INTRA:          -5.633
REMARK INTER:                  -5.219
REMARK INTRA:                  -0.414
REMARK UNBOUND:                -0.727
REMARK SMILES O=C([O-])CCCCCCCC(=O)[O-]
REMARK SMILES IDX 7 1 6 2 5 3 4 4 2 5 1 6 3 7 8 8 9 9 10 10 11 11 12 12 13 13
REMARK H PARENT
REMARK Flexibility Score: inf
ROOT
ATOM      1  C   UNL     1      33.727  14.013 -16.015  1.00  0.00     0.000 C 
ENDROOT
BRANCH   1   2
ATOM      2  C   UNL     1      34.695  14.982 -16.708  1.00  0.00     0.000 C 
BRANCH   2   3
ATOM      3  C   UNL     1      34.033  15.790 -17.839  1.00  0.00     0.006 C 
BRANCH   3   4
ATOM      4  C   UNL     1      34.595  17.214 -18.002  1.00  0.00     0.053 C 
BRANCH   4   5
ATOM      5  C   UNL     1      33.662  18.125 -18.739  1.00  0.00     0.041 C 
ATOM      6  O   UNL     1      33.203  17.792 -19.864  1.00  0.00    -0.550 OA
ATOM      7  O   UNL     1      33.272  19.331 -18.170  1.00  0.00    -0.550 OA
ENDBRANCH   4   5
ENDBRANCH   3   4
ENDBRANCH   2   3
ENDBRANCH   1   2
BRANCH   1   8
ATOM      8  C   UNL     1      32.696  13.462 -17.008  1.00  0.00     0.000 C 
BRANCH   8   9
ATOM      9  C   UNL     1      31.299  13.409 -16.378  1.00  0.00     0.006 C 
BRANCH   9  10
ATOM     10  C   UNL     1      30.543  14.721 -16.606  1.00  0.00     0.053 C 
BRANCH  10  11
ATOM     11  C   UNL     1      29.358  14.807 -15.697  1.00  0.00     0.041 C 
ATOM     12  O   UNL     1      28.956  15.927 -15.283  1.00  0.00    -0.550 OA
ATOM     13  O   UNL     1      28.666  13.655 -15.345  1.00  0.00    -0.550 OA
ENDBRANCH  10  11
ENDBRANCH   9  10
ENDBRANCH   8   9
ENDBRANCH   1   8
TORSDOF 8
ENDMDL
MODEL 9
REMARK VINA RESULT:    -3.327      2.140      3.285
REMARK INTER + INTRA:          -5.611
REMARK INTER:                  -4.687
REMARK INTRA:                  -0.924
REMARK UNBOUND:                -0.727
REMARK SMILES O=C([O-])CCCCCCCC(=O)[O-]
REMARK SMILES IDX 7 1 6 2 5 3 4 4 2 5 1 6 3 7 8 8 9 9 10 10 11 11 12 12 13 13
REMARK H PARENT
REMARK Flexibility Score: inf
ROOT
ATOM      1  C   UNL     1      28.164  29.512 -18.183  1.00  0.00     0.000 C 
ENDROOT
BRANCH   1   2
ATOM      2  C   UNL     1      28.111  31.046 -18.183  1.00  0.00     0.000 C 
BRANCH   2   3
ATOM      3  C   UNL     1      26.800  31.604 -18.768  1.00  0.00     0.006 C 
BRANCH   3   4
ATOM      4  C   UNL     1      25.781  32.050 -17.703  1.00  0.00     0.053 C 
BRANCH   4   5
ATOM      5  C   UNL     1      24.611  31.121 -17.596  1.00  0.00     0.041 C 
ATOM      6  O   UNL     1      24.211  30.483 -18.606  1.00  0.00    -0.550 OA
ATOM      7  O   UNL     1      23.980  30.935 -16.373  1.00  0.00    -0.550 OA
ENDBRANCH   4   5
ENDBRANCH   3   4
ENDBRANCH   2   3
ENDBRANCH   1   2
BRANCH   1   8
ATOM      8  C   UNL     1      27.352  28.933 -19.348  1.00  0.00     0.000 C 
BRANCH   8   9
ATOM      9  C   UNL     1      26.467  27.773 -18.879  1.00  0.00     0.006 C 
BRANCH   9  10
ATOM     10  C   UNL     1      26.555  27.592 -17.361  1.00  0.00     0.053 C 
BRANCH  10  11
ATOM     11  C   UNL     1      25.187  27.571 -16.756  1.00  0.00     0.041 C 
ATOM     12  O   UNL     1      25.021  27.908 -15.553  1.00  0.00    -0.550 OA
ATOM     13  O   UNL     1      24.088  27.225 -17.531  1.00  0.00    -0.550 OA
ENDBRANCH  10  11
ENDBRANCH   9  10
ENDBRANCH   8   9
ENDBRANCH   1   8
TORSDOF 8
ENDMDL
