MODEL 1
REMARK VINA RESULT:    -3.859      0.000      0.000
REMARK INTER + INTRA:          -6.167
REMARK INTER:                  -5.664
REMARK INTRA:                  -0.504
REMARK UNBOUND:                -0.504
REMARK SMILES O=C([O-])CCCCCCCC(=O)[O-]
REMARK SMILES IDX 7 1 6 2 5 3 4 4 2 5 1 6 3 7 8 8 9 9 10 10 11 11 12 12 13 13
REMARK H PARENT
REMARK Flexibility Score: inf
ROOT
ATOM      1  C   UNL     1      -5.047 -35.734  -9.702  1.00  0.00     0.000 C 
ENDROOT
BRANCH   1   2
ATOM      2  C   UNL     1      -4.870 -37.213  -9.327  1.00  0.00     0.000 C 
BRANCH   2   3
ATOM      3  C   UNL     1      -6.061 -38.086  -9.764  1.00  0.00     0.006 C 
BRANCH   3   4
ATOM      4  C   UNL     1      -5.663 -39.379 -10.494  1.00  0.00     0.053 C 
BRANCH   4   5
ATOM      5  C   UNL     1      -6.587 -39.690 -11.630  1.00  0.00     0.041 C 
ATOM      6  O   UNL     1      -7.560 -38.932 -11.881  1.00  0.00    -0.550 OA
ATOM      7  O   UNL     1      -6.354 -40.799 -12.434  1.00  0.00    -0.550 OA
ENDBRANCH   4   5
ENDBRANCH   3   4
ENDBRANCH   2   3
ENDBRANCH   1   2
BRANCH   1   8
ATOM      8  C   UNL     1      -5.584 -34.927  -8.515  1.00  0.00     0.000 C 
BRANCH   8   9
ATOM      9  C   UNL     1      -6.704 -33.974  -8.957  1.00  0.00     0.006 C 
BRANCH   9  10
ATOM     10  C   UNL     1      -7.433 -34.474 -10.211  1.00  0.00     0.053 C 
BRANCH  10  11
ATOM     11  C   UNL     1      -8.605 -35.340  -9.865  1.00  0.00     0.041 C 
ATOM     12  O   UNL     1      -9.098 -35.305  -8.708  1.00  0.00    -0.550 OA
ATOM     13  O   UNL     1      -9.175 -36.158 -10.832  1.00  0.00    -0.550 OA
ENDBRANCH  10  11
ENDBRANCH   9  10
ENDBRANCH   8   9
ENDBRANCH   1   8
TORSDOF 8
ENDMDL
MODEL 2
REMARK VINA RESULT:    -3.768      0.897      4.497
REMARK INTER + INTRA:          -6.034
REMARK INTER:                  -5.496
REMARK INTRA:                  -0.538
REMARK UNBOUND:                -0.504
REMARK SMILES O=C([O-])CCCCCCCC(=O)[O-]
REMARK SMILES IDX 7 1 6 2 5 3 4 4 2 5 1 6 3 7 8 8 9 9 10 10 11 11 12 12 13 13
REMARK H PARENT
REMARK Flexibility Score: inf
ROOT
ATOM      1  C   UNL     1      -5.235 -35.789  -8.570  1.00  0.00     0.000 C 
ENDROOT
BRANCH   1   2
ATOM      2  C   UNL     1      -5.620 -34.429  -9.171  1.00  0.00     0.000 C 
BRANCH   2   3
ATOM      3  C   UNL     1      -7.035 -33.977  -8.765  1.00  0.00     0.006 C 
BRANCH   3   4
ATOM      4  C   UNL     1      -8.003 -35.131  -8.456  1.00  0.00     0.053 C 
BRANCH   4   5
ATOM      5  C   UNL     1      -8.715 -35.612  -9.682  1.00  0.00     0.041 C 
ATOM      6  O   UNL     1      -8.586 -34.995 -10.772  1.00  0.00    -0.550 OA
ATOM      7  O   UNL     1      -9.494 -36.761  -9.630  1.00  0.00    -0.550 OA
ENDBRANCH   4   5
ENDBRANCH   3   4
ENDBRANCH   2   3
ENDBRANCH   1   2
BRANCH   1   8
ATOM      8  C   UNL     1      -5.031 -36.837  -9.670  1.00  0.00     0.000 C 
BRANCH   8   9
ATOM      9  C   UNL     1      -5.896 -38.080  -9.416  1.00  0.00     0.006 C 
BRANCH   9  10
ATOM     10  C   UNL     1      -5.485 -39.266 -10.298  1.00  0.00     0.053 C 
BRANCH  10  11
ATOM     11  C   UNL     1      -6.505 -39.552 -11.357  1.00  0.00     0.041 C 
ATOM     12  O   UNL     1      -6.404 -40.583 -12.071  1.00  0.00    -0.550 OA
ATOM     13  O   UNL     1      -7.586 -38.697 -11.531  1.00  0.00    -0.550 OA
ENDBRANCH  10  11
ENDBRANCH   9  10
ENDBRANCH   8   9
ENDBRANCH   1   8
TORSDOF 8
ENDMDL
MODEL 3
REMARK VINA RESULT:    -3.762      1.764      2.854
REMARK INTER + INTRA:          -6.025
REMARK INTER:                  -5.684
REMARK INTRA:                  -0.341
REMARK UNBOUND:                -0.504
REMARK SMILES O=C([O-])CCCCCCCC(=O)[O-]
REMARK SMILES IDX 7 1 6 2 5 3 4 4 2 5 1 6 3 7 8 8 9 9 10 10 11 11 12 12 13 13
REMARK H PARENT
REMARK Flexibility Score: inf
ROOT
ATOM      1  C   UNL     1      -5.491 -38.853 -10.113  1.00  0.00     0.000 C 
ENDROOT
BRANCH   1   2
ATOM      2  C   UNL     1      -6.343 -40.076  -9.745  1.00  0.00     0.000 C 
BRANCH   2   3
ATOM      3  C   UNL     1      -6.972 -40.757 -10.975  1.00  0.00     0.006 C 
BRANCH   3   4
ATOM      4  C   UNL     1      -6.478 -40.208 -12.323  1.00  0.00     0.053 C 
BRANCH   4   5
ATOM      5  C   UNL     1      -7.564 -39.504 -13.076  1.00  0.00     0.041 C 
ATOM      6  O   UNL     1      -7.550 -39.482 -14.335  1.00  0.00    -0.550 OA
ATOM      7  O   UNL     1      -8.609 -38.901 -12.388  1.00  0.00    -0.550 OA
ENDBRANCH   4   5
ENDBRANCH   3   4
ENDBRANCH   2   3
ENDBRANCH   1   2
BRANCH   1   8
ATOM      8  C   UNL     1      -5.946 -37.613  -9.335  1.00  0.00     0.000 C 
BRANCH   8   9
ATOM      9  C   UNL     1      -4.878 -36.511  -9.380  1.00  0.00     0.006 C 
BRANCH   9  10
ATOM     10  C   UNL     1      -5.265 -35.290  -8.535  1.00  0.00     0.053 C 
BRANCH  10  11
ATOM     11  C   UNL     1      -6.180 -34.365  -9.279  1.00  0.00     0.041 C 
ATOM     12  O   UNL     1      -6.789 -33.450  -8.667  1.00  0.00    -0.550 OA
ATOM     13  O   UNL     1      -6.330 -34.493 -10.654  1.00  0.00    -0.550 OA
ENDBRANCH  10  11
ENDBRANCH   9  10
ENDBRANCH   8   9
ENDBRANCH   1   8
TORSDOF 8
ENDMDL
MODEL 4
REMARK VINA RESULT:    -3.746      2.565      3.446
REMARK INTER + INTRA:          -6.001
REMARK INTER:                  -5.417
REMARK INTRA:                  -0.584
REMARK UNBOUND:                -0.504
REMARK SMILES O=C([O-])CCCCCCCC(=O)[O-]
REMARK SMILES IDX 7 1 6 2 5 3 4 4 2 5 1 6 3 7 8 8 9 9 10 10 11 11 12 12 13 13
REMARK H PARENT
REMARK Flexibility Score: inf
ROOT
ATOM      1  C   UNL     1      -8.141 -35.063 -10.221  1.00  0.00     0.000 C 
ENDROOT
BRANCH   1   2
ATOM      2  C   UNL     1      -8.489 -36.443  -9.644  1.00  0.00     0.000 C 
BRANCH   2   3
ATOM      3  C   UNL     1      -7.626 -37.572 -10.237  1.00  0.00     0.006 C 
BRANCH   3   4
ATOM      4  C   UNL     1      -7.327 -38.720  -9.259  1.00  0.00     0.053 C 
BRANCH   4   5
ATOM      5  C   UNL     1      -6.434 -39.758  -9.865  1.00  0.00     0.041 C 
ATOM      6  O   UNL     1      -5.694 -39.464 -10.841  1.00  0.00    -0.550 OA
ATOM      7  O   UNL     1      -6.394 -41.040  -9.333  1.00  0.00    -0.550 OA
ENDBRANCH   4   5
ENDBRANCH   3   4
ENDBRANCH   2   3
ENDBRANCH   1   2
BRANCH   1   8
ATOM      8  C   UNL     1      -6.632 -34.931 -10.458  1.00  0.00     0.000 C 
BRANCH   8   9
ATOM      9  C   UNL     1      -5.965 -34.128  -9.332  1.00  0.00     0.006 C 
BRANCH   9  10
ATOM     10  C   UNL     1      -5.417 -35.031  -8.218  1.00  0.00     0.053 C 
BRANCH  10  11
ATOM     11  C   UNL     1      -4.213 -35.801  -8.668  1.00  0.00     0.041 C 
ATOM     12  O   UNL     1      -4.344 -36.959  -9.143  1.00  0.00    -0.550 OA
ATOM     13  O   UNL     1      -2.952 -35.226  -8.595  1.00  0.00    -0.550 OA
ENDBRANCH  10  11
ENDBRANCH   9  10
ENDBRANCH   8   9
ENDBRANCH   1   8
TORSDOF 8
ENDMDL
MODEL 5
REMARK VINA RESULT:    -3.661      2.501      3.839
REMARK INTER + INTRA:          -5.876
REMARK INTER:                  -5.255
REMARK INTRA:                  -0.622
REMARK UNBOUND:                -0.504
REMARK SMILES O=C([O-])CCCCCCCC(=O)[O-]
REMARK SMILES IDX 7 1 6 2 5 3 4 4 2 5 1 6 3 7 8 8 9 9 10 10 11 11 12 12 13 13
REMARK H PARENT
REMARK Flexibility Score: inf
ROOT
ATOM      1  C   UNL     1      -8.244 -35.193  -8.931  1.00  0.00     0.000 C 
ENDROOT
BRANCH   1   2
ATOM      2  C   UNL     1      -9.605 -35.704  -9.428  1.00  0.00     0.000 C 
BRANCH   2   3
ATOM      3  C   UNL     1      -9.678 -35.812 -10.962  1.00  0.00     0.006 C 
BRANCH   3   4
ATOM      4  C   UNL     1      -9.921 -37.237 -11.485  1.00  0.00     0.053 C 
BRANCH   4   5
ATOM      5  C   UNL     1      -8.966 -38.225 -10.890  1.00  0.00     0.041 C 
ATOM      6  O   UNL     1      -9.398 -39.195 -10.213  1.00  0.00    -0.550 OA
ATOM      7  O   UNL     1      -7.601 -38.094 -11.112  1.00  0.00    -0.550 OA
ENDBRANCH   4   5
ENDBRANCH   3   4
ENDBRANCH   2   3
ENDBRANCH   1   2
BRANCH   1   8
ATOM      8  C   UNL     1      -7.440 -34.571 -10.078  1.00  0.00     0.000 C 
BRANCH   8   9
ATOM      9  C   UNL     1      -6.075 -34.067  -9.585  1.00  0.00     0.006 C 
BRANCH   9  10
ATOM     10  C   UNL     1      -5.550 -34.879  -8.395  1.00  0.00     0.053 C 
BRANCH  10  11
ATOM     11  C   UNL     1      -4.508 -35.871  -8.815  1.00  0.00     0.041 C 
ATOM     12  O   UNL     1      -3.289 -35.632  -8.613  1.00  0.00    -0.550 OA
ATOM     13  O   UNL     1      -4.886 -37.075  -9.395  1.00  0.00    -0.550 OA
ENDBRANCH  10  11
ENDBRANCH   9  10
ENDBRANCH   8   9
ENDBRANCH   1   8
TORSDOF 8
ENDMDL
MODEL 6
REMARK VINA RESULT:    -3.660      1.908      5.784
REMARK INTER + INTRA:          -5.875
REMARK INTER:                  -5.600
REMARK INTRA:                  -0.276
REMARK UNBOUND:                -0.504
REMARK SMILES O=C([O-])CCCCCCCC(=O)[O-]
REMARK SMILES IDX 7 1 6 2 5 3 4 4 2 5 1 6 3 7 8 8 9 9 10 10 11 11 12 12 13 13
REMARK H PARENT
REMARK Flexibility Score: inf
ROOT
ATOM      1  C   UNL     1      -5.418 -38.818 -10.066  1.00  0.00     0.000 C 
ENDROOT
BRANCH   1   2
ATOM      2  C   UNL     1      -5.824 -37.542  -9.313  1.00  0.00     0.000 C 
BRANCH   2   3
ATOM      3  C   UNL     1      -4.746 -36.445  -9.373  1.00  0.00     0.006 C 
BRANCH   3   4
ATOM      4  C   UNL     1      -5.092 -35.175  -8.580  1.00  0.00     0.053 C 
BRANCH   4   5
ATOM      5  C   UNL     1      -6.102 -34.326  -9.289  1.00  0.00     0.041 C 
ATOM      6  O   UNL     1      -6.794 -33.494  -8.645  1.00  0.00    -0.550 OA
ATOM      7  O   UNL     1      -6.255 -34.430 -10.666  1.00  0.00    -0.550 OA
ENDBRANCH   4   5
ENDBRANCH   3   4
ENDBRANCH   2   3
ENDBRANCH   1   2
BRANCH   1   8
ATOM      8  C   UNL     1      -6.299 -40.003  -9.653  1.00  0.00     0.000 C 
BRANCH   8   9
ATOM      9  C   UNL     1      -6.988 -40.630 -10.874  1.00  0.00     0.006 C 
BRANCH   9  10
ATOM     10  C   UNL     1      -6.477 -40.043 -12.196  1.00  0.00     0.053 C 
BRANCH  10  11
ATOM     11  C   UNL     1      -6.562 -41.035 -13.315  1.00  0.00     0.041 C 
ATOM     12  O   UNL     1      -6.846 -40.653 -14.480  1.00  0.00    -0.550 OA
ATOM     13  O   UNL     1      -6.292 -42.377 -13.078  1.00  0.00    -0.550 OA
ENDBRANCH  10  11
ENDBRANCH   9  10
ENDBRANCH   8   9
ENDBRANCH   1   8
TORSDOF 8
ENDMDL
MODEL 7
REMARK VINA RESULT:    -3.657      1.778      3.138
REMARK INTER + INTRA:          -5.871
REMARK INTER:                  -5.421
REMARK INTRA:                  -0.450
REMARK UNBOUND:                -0.504
REMARK SMILES O=C([O-])CCCCCCCC(=O)[O-]
REMARK SMILES IDX 7 1 6 2 5 3 4 4 2 5 1 6 3 7 8 8 9 9 10 10 11 11 12 12 13 13
REMARK H PARENT
REMARK Flexibility Score: inf
ROOT
ATOM      1  C   UNL     1      -5.219 -38.856 -10.169  1.00  0.00     0.000 C 
ENDROOT
BRANCH   1   2
ATOM      2  C   UNL     1      -6.203 -40.035 -10.141  1.00  0.00     0.000 C 
BRANCH   2   3
ATOM      3  C   UNL     1      -6.662 -40.463 -11.547  1.00  0.00     0.006 C 
BRANCH   3   4
ATOM      4  C   UNL     1      -7.460 -39.391 -12.306  1.00  0.00     0.053 C 
BRANCH   4   5
ATOM      5  C   UNL     1      -8.716 -39.009 -11.584  1.00  0.00     0.041 C 
ATOM      6  O   UNL     1      -9.605 -39.872 -11.361  1.00  0.00    -0.550 OA
ATOM      7  O   UNL     1      -8.889 -37.709 -11.129  1.00  0.00    -0.550 OA
ENDBRANCH   4   5
ENDBRANCH   3   4
ENDBRANCH   2   3
ENDBRANCH   1   2
BRANCH   1   8
ATOM      8  C   UNL     1      -5.769 -37.663  -9.378  1.00  0.00     0.000 C 
BRANCH   8   9
ATOM      9  C   UNL     1      -4.794 -36.478  -9.418  1.00  0.00     0.006 C 
BRANCH   9  10
ATOM     10  C   UNL     1      -5.265 -35.307  -8.546  1.00  0.00     0.053 C 
BRANCH  10  11
ATOM     11  C   UNL     1      -6.146 -34.364  -9.308  1.00  0.00     0.041 C 
ATOM     12  O   UNL     1      -6.258 -34.474 -10.557  1.00  0.00    -0.550 OA
ATOM     13  O   UNL     1      -6.869 -33.389  -8.635  1.00  0.00    -0.550 OA
ENDBRANCH  10  11
ENDBRANCH   9  10
ENDBRANCH   8   9
ENDBRANCH   1   8
TORSDOF 8
ENDMDL
MODEL 8
REMARK VINA RESULT:    -3.644      1.961      3.452
REMARK INTER + INTRA:          -5.852
REMARK INTER:                  -5.276
REMARK INTRA:                  -0.576
REMARK UNBOUND:                -0.504
REMARK SMILES O=C([O-])CCCCCCCC(=O)[O-]
REMARK SMILES IDX 7 1 6 2 5 3 4 4 2 5 1 6 3 7 8 8 9 9 10 10 11 11 12 12 13 13
REMARK H PARENT
REMARK Flexibility Score: inf
ROOT
ATOM      1  C   UNL     1      -7.035 -34.522 -10.344  1.00  0.00     0.000 C 
ENDROOT
BRANCH   1   2
ATOM      2  C   UNL     1      -6.023 -34.158  -9.248  1.00  0.00     0.000 C 
BRANCH   2   3
ATOM      3  C   UNL     1      -5.497 -35.391  -8.489  1.00  0.00     0.006 C 
BRANCH   3   4
ATOM      4  C   UNL     1      -4.744 -36.402  -9.370  1.00  0.00     0.053 C 
BRANCH   4   5
ATOM      5  C   UNL     1      -5.477 -37.703  -9.484  1.00  0.00     0.041 C 
ATOM      6  O   UNL     1      -5.015 -38.629 -10.200  1.00  0.00    -0.550 OA
ATOM      7  O   UNL     1      -6.652 -37.904  -8.772  1.00  0.00    -0.550 OA
ENDBRANCH   4   5
ENDBRANCH   3   4
ENDBRANCH   2   3
ENDBRANCH   1   2
BRANCH   1   8
ATOM      8  C   UNL     1      -8.350 -35.021  -9.734  1.00  0.00     0.000 C 
BRANCH   8   9
ATOM      9  C   UNL     1      -9.216 -35.725 -10.788  1.00  0.00     0.006 C 
BRANCH   9  10
ATOM     10  C   UNL     1      -9.759 -37.072 -10.292  1.00  0.00     0.053 C 
BRANCH  10  11
ATOM     11  C   UNL     1      -9.470 -38.179 -11.259  1.00  0.00     0.041 C 
ATOM     12  O   UNL     1      -9.747 -38.042 -12.479  1.00  0.00    -0.550 OA
ATOM     13  O   UNL     1      -8.862 -39.347 -10.818  1.00  0.00    -0.550 OA
ENDBRANCH  10  11
ENDBRANCH   9  10
ENDBRANCH   8   9
ENDBRANCH   1   8
TORSDOF 8
ENDMDL
MODEL 9
REMARK VINA RESULT:    -3.620      2.374      4.706
REMARK INTER + INTRA:          -5.817
REMARK INTER:                  -5.190
REMARK INTRA:                  -0.626
REMARK UNBOUND:                -0.504
REMARK SMILES O=C([O-])CCCCCCCC(=O)[O-]
REMARK SMILES IDX 7 1 6 2 5 3 4 4 2 5 1 6 3 7 8 8 9 9 10 10 11 11 12 12 13 13
REMARK H PARENT
REMARK Flexibility Score: inf
ROOT
ATOM      1  C   UNL     1      -8.263 -35.276  -9.106  1.00  0.00     0.000 C 
ENDROOT
BRANCH   1   2
ATOM      2  C   UNL     1      -7.309 -34.598 -10.102  1.00  0.00     0.000 C 
BRANCH   2   3
ATOM      3  C   UNL     1      -6.027 -34.067  -9.434  1.00  0.00     0.006 C 
BRANCH   3   4
ATOM      4  C   UNL     1      -5.510 -34.938  -8.277  1.00  0.00     0.053 C 
BRANCH   4   5
ATOM      5  C   UNL     1      -4.371 -35.815  -8.699  1.00  0.00     0.041 C 
ATOM      6  O   UNL     1      -3.190 -35.513  -8.385  1.00  0.00    -0.550 OA
ATOM      7  O   UNL     1      -4.618 -36.982  -9.411  1.00  0.00    -0.550 OA
ENDBRANCH   4   5
ENDBRANCH   3   4
ENDBRANCH   2   3
ENDBRANCH   1   2
BRANCH   1   8
ATOM      8  C   UNL     1      -8.889 -36.535  -9.717  1.00  0.00     0.000 C 
BRANCH   8   9
ATOM      9  C   UNL     1      -7.929 -37.730  -9.622  1.00  0.00     0.006 C 
BRANCH   9  10
ATOM     10  C   UNL     1      -7.584 -38.311 -10.999  1.00  0.00     0.053 C 
BRANCH  10  11
ATOM     11  C   UNL     1      -6.645 -39.473 -10.894  1.00  0.00     0.041 C 
ATOM     12  O   UNL     1      -6.255 -39.871  -9.766  1.00  0.00    -0.550 OA
ATOM     13  O   UNL     1      -6.230 -40.139 -12.041  1.00  0.00    -0.550 OA
ENDBRANCH  10  11
ENDBRANCH   9  10
ENDBRANCH   8   9
ENDBRANCH   1   8
TORSDOF 8
ENDMDL
