MODEL 1
REMARK VINA RESULT:    -3.777      0.000      0.000
REMARK INTER + INTRA:          -7.953
REMARK INTER:                  -6.426
REMARK INTRA:                  -1.526
REMARK UNBOUND:                -1.526
REMARK SMILES CCCCCCCCCCCCCC(=O)[O-]
REMARK SMILES IDX 8 1 9 2 10 3 11 4 12 5 13 6 14 7 15 8 16 9 7 10 6 11 5 12
REMARK SMILES IDX 4 13 3 14 2 15 1 16
REMARK H PARENT
REMARK Flexibility Score: inf
ROOT
ATOM      1  C   UNL     1      61.098  21.944  19.529  1.00  0.00     0.000 C 
ENDROOT
BRANCH   1   2
ATOM      2  C   UNL     1      60.401  22.289  20.851  1.00  0.00     0.000 C 
BRANCH   2   3
ATOM      3  C   UNL     1      60.131  21.024  21.679  1.00  0.00     0.000 C 
BRANCH   3   4
ATOM      4  C   UNL     1      59.507  21.348  23.052  1.00  0.00     0.000 C 
BRANCH   4   5
ATOM      5  C   UNL     1      58.711  22.664  23.073  1.00  0.00     0.006 C 
BRANCH   5   6
ATOM      6  C   UNL     1      57.456  22.588  23.951  1.00  0.00     0.053 C 
BRANCH   6   7
ATOM      7  C   UNL     1      56.269  22.193  23.130  1.00  0.00     0.041 C 
ATOM      8  O   UNL     1      55.890  22.918  22.174  1.00  0.00    -0.550 OA
ATOM      9  O   UNL     1      55.553  21.046  23.450  1.00  0.00    -0.550 OA
ENDBRANCH   6   7
ENDBRANCH   5   6
ENDBRANCH   4   5
ENDBRANCH   3   4
ENDBRANCH   2   3
ENDBRANCH   1   2
BRANCH   1  10
ATOM     10  C   UNL     1      62.599  22.248  19.601  1.00  0.00     0.000 C 
BRANCH  10  11
ATOM     11  C   UNL     1      63.367  21.088  20.246  1.00  0.00    -0.000 C 
BRANCH  11  12
ATOM     12  C   UNL     1      63.920  21.489  21.618  1.00  0.00    -0.000 C 
BRANCH  12  13
ATOM     13  C   UNL     1      64.081  23.013  21.722  1.00  0.00    -0.000 C 
BRANCH  13  14
ATOM     14  C   UNL     1      63.254  23.620  22.866  1.00  0.00    -0.000 C 
BRANCH  14  15
ATOM     15  C   UNL     1      62.440  24.844  22.425  1.00  0.00    -0.003 C 
ATOM     16  C   UNL     1      61.379  25.202  23.462  1.00  0.00     0.004 C 
ENDBRANCH  14  15
ENDBRANCH  13  14
ENDBRANCH  12  13
ENDBRANCH  11  12
ENDBRANCH  10  11
ENDBRANCH   1  10
TORSDOF 12
ENDMDL
MODEL 2
REMARK VINA RESULT:    -3.658      2.608      5.554
REMARK INTER + INTRA:          -7.750
REMARK INTER:                  -6.641
REMARK INTRA:                  -1.109
REMARK UNBOUND:                -1.526
REMARK SMILES CCCCCCCCCCCCCC(=O)[O-]
REMARK SMILES IDX 8 1 9 2 10 3 11 4 12 5 13 6 14 7 15 8 16 9 7 10 6 11 5 12
REMARK SMILES IDX 4 13 3 14 2 15 1 16
REMARK H PARENT
REMARK Flexibility Score: inf
ROOT
ATOM      1  C   UNL     1      60.987  22.015  19.805  1.00  0.00     0.000 C 
ENDROOT
BRANCH   1   2
ATOM      2  C   UNL     1      62.491  21.968  19.513  1.00  0.00     0.000 C 
BRANCH   2   3
ATOM      3  C   UNL     1      63.295  21.721  20.798  1.00  0.00     0.000 C 
BRANCH   3   4
ATOM      4  C   UNL     1      64.088  22.969  21.240  1.00  0.00     0.000 C 
BRANCH   4   5
ATOM      5  C   UNL     1      63.559  23.610  22.535  1.00  0.00     0.006 C 
BRANCH   5   6
ATOM      6  C   UNL     1      63.199  25.091  22.364  1.00  0.00     0.053 C 
BRANCH   6   7
ATOM      7  C   UNL     1      62.279  25.533  23.458  1.00  0.00     0.041 C 
ATOM      8  O   UNL     1      61.094  25.866  23.193  1.00  0.00    -0.550 OA
ATOM      9  O   UNL     1      62.744  25.621  24.764  1.00  0.00    -0.550 OA
ENDBRANCH   6   7
ENDBRANCH   5   6
ENDBRANCH   4   5
ENDBRANCH   3   4
ENDBRANCH   2   3
ENDBRANCH   1   2
BRANCH   1  10
ATOM     10  C   UNL     1      60.688  21.545  21.234  1.00  0.00     0.000 C 
BRANCH  10  11
ATOM     11  C   UNL     1      59.591  22.401  21.878  1.00  0.00    -0.000 C 
BRANCH  11  12
ATOM     12  C   UNL     1      59.804  22.522  23.391  1.00  0.00    -0.000 C 
BRANCH  12  13
ATOM     13  C   UNL     1      58.563  22.046  24.160  1.00  0.00    -0.000 C 
BRANCH  13  14
ATOM     14  C   UNL     1      57.258  22.636  23.602  1.00  0.00    -0.000 C 
BRANCH  14  15
ATOM     15  C   UNL     1      56.278  21.555  23.122  1.00  0.00    -0.003 C 
ATOM     16  C   UNL     1      54.835  21.952  23.418  1.00  0.00     0.004 C 
ENDBRANCH  14  15
ENDBRANCH  13  14
ENDBRANCH  12  13
ENDBRANCH  11  12
ENDBRANCH  10  11
ENDBRANCH   1  10
TORSDOF 12
ENDMDL
MODEL 3
REMARK VINA RESULT:    -3.628      1.212      3.185
REMARK INTER + INTRA:          -7.700
REMARK INTER:                  -6.289
REMARK INTRA:                  -1.411
REMARK UNBOUND:                -1.526
REMARK SMILES CCCCCCCCCCCCCC(=O)[O-]
REMARK SMILES IDX 8 1 9 2 10 3 11 4 12 5 13 6 14 7 15 8 16 9 7 10 6 11 5 12
REMARK SMILES IDX 4 13 3 14 2 15 1 16
REMARK H PARENT
REMARK Flexibility Score: inf
ROOT
ATOM      1  C   UNL     1      61.913  25.612  22.746  1.00  0.00     0.000 C 
ENDROOT
BRANCH   1   2
ATOM      2  C   UNL     1      61.162  24.927  23.894  1.00  0.00     0.000 C 
BRANCH   2   3
ATOM      3  C   UNL     1      60.272  23.791  23.370  1.00  0.00     0.000 C 
BRANCH   3   4
ATOM      4  C   UNL     1      60.228  22.590  24.340  1.00  0.00     0.000 C 
BRANCH   4   5
ATOM      5  C   UNL     1      58.865  21.878  24.378  1.00  0.00     0.006 C 
BRANCH   5   6
ATOM      6  C   UNL     1      57.705  22.786  23.950  1.00  0.00     0.053 C 
BRANCH   6   7
ATOM      7  C   UNL     1      56.803  22.065  22.998  1.00  0.00     0.041 C 
ATOM      8  O   UNL     1      57.049  20.875  22.670  1.00  0.00    -0.550 OA
ATOM      9  O   UNL     1      55.716  22.723  22.437  1.00  0.00    -0.550 OA
ENDBRANCH   6   7
ENDBRANCH   5   6
ENDBRANCH   4   5
ENDBRANCH   3   4
ENDBRANCH   2   3
ENDBRANCH   1   2
BRANCH   1  10
ATOM     10  C   UNL     1      63.429  25.564  22.972  1.00  0.00     0.000 C 
BRANCH  10  11
ATOM     11  C   UNL     1      64.104  24.607  21.981  1.00  0.00    -0.000 C 
BRANCH  11  12
ATOM     12  C   UNL     1      63.905  23.147  22.404  1.00  0.00    -0.000 C 
BRANCH  12  13
ATOM     13  C   UNL     1      63.624  22.256  21.185  1.00  0.00    -0.000 C 
BRANCH  13  14
ATOM     14  C   UNL     1      62.334  21.435  21.335  1.00  0.00    -0.000 C 
BRANCH  14  15
ATOM     15  C   UNL     1      61.262  21.824  20.307  1.00  0.00    -0.003 C 
ATOM     16  C   UNL     1      61.897  22.359  19.027  1.00  0.00     0.004 C 
ENDBRANCH  14  15
ENDBRANCH  13  14
ENDBRANCH  12  13
ENDBRANCH  11  12
ENDBRANCH  10  11
ENDBRANCH   1  10
TORSDOF 12
ENDMDL
MODEL 4
REMARK VINA RESULT:    -3.571      3.047      5.836
REMARK INTER + INTRA:          -7.603
REMARK INTER:                  -5.975
REMARK INTRA:                  -1.628
REMARK UNBOUND:                -1.526
REMARK SMILES CCCCCCCCCCCCCC(=O)[O-]
REMARK SMILES IDX 8 1 9 2 10 3 11 4 12 5 13 6 14 7 15 8 16 9 7 10 6 11 5 12
REMARK SMILES IDX 4 13 3 14 2 15 1 16
REMARK H PARENT
REMARK Flexibility Score: inf
ROOT
ATOM      1  C   UNL     1      60.393  24.642  24.289  1.00  0.00     0.000 C 
ENDROOT
BRANCH   1   2
ATOM      2  C   UNL     1      61.673  25.281  23.739  1.00  0.00     0.000 C 
BRANCH   2   3
ATOM      3  C   UNL     1      62.065  24.659  22.391  1.00  0.00     0.000 C 
BRANCH   3   4
ATOM      4  C   UNL     1      61.671  23.169  22.299  1.00  0.00     0.000 C 
BRANCH   4   5
ATOM      5  C   UNL     1      60.645  22.869  21.193  1.00  0.00     0.006 C 
BRANCH   5   6
ATOM      6  C   UNL     1      60.940  21.564  20.444  1.00  0.00     0.053 C 
BRANCH   6   7
ATOM      7  C   UNL     1      62.124  21.734  19.546  1.00  0.00     0.041 C 
ATOM      8  O   UNL     1      62.059  22.499  18.548  1.00  0.00    -0.550 OA
ATOM      9  O   UNL     1      63.287  21.013  19.785  1.00  0.00    -0.550 OA
ENDBRANCH   6   7
ENDBRANCH   5   6
ENDBRANCH   4   5
ENDBRANCH   3   4
ENDBRANCH   2   3
ENDBRANCH   1   2
BRANCH   1  10
ATOM     10  C   UNL     1      60.622  24.066  25.692  1.00  0.00     0.000 C 
BRANCH  10  11
ATOM     11  C   UNL     1      60.362  22.555  25.716  1.00  0.00    -0.000 C 
BRANCH  11  12
ATOM     12  C   UNL     1      59.009  22.219  25.078  1.00  0.00    -0.000 C 
BRANCH  12  13
ATOM     13  C   UNL     1      59.139  21.037  24.105  1.00  0.00    -0.000 C 
BRANCH  13  14
ATOM     14  C   UNL     1      58.014  21.006  23.059  1.00  0.00    -0.000 C 
BRANCH  14  15
ATOM     15  C   UNL     1      57.255  22.337  22.965  1.00  0.00    -0.003 C 
ATOM     16  C   UNL     1      55.765  22.139  23.228  1.00  0.00     0.004 C 
ENDBRANCH  14  15
ENDBRANCH  13  14
ENDBRANCH  12  13
ENDBRANCH  11  12
ENDBRANCH  10  11
ENDBRANCH   1  10
TORSDOF 12
ENDMDL
MODEL 5
REMARK VINA RESULT:    -3.514      1.495      3.368
REMARK INTER + INTRA:          -7.506
REMARK INTER:                  -5.487
REMARK INTRA:                  -2.019
REMARK UNBOUND:                -1.526
REMARK SMILES CCCCCCCCCCCCCC(=O)[O-]
REMARK SMILES IDX 8 1 9 2 10 3 11 4 12 5 13 6 14 7 15 8 16 9 7 10 6 11 5 12
REMARK SMILES IDX 4 13 3 14 2 15 1 16
REMARK H PARENT
REMARK Flexibility Score: inf
ROOT
ATOM      1  C   UNL     1      60.630  24.594  23.563  1.00  0.00     0.000 C 
ENDROOT
BRANCH   1   2
ATOM      2  C   UNL     1      60.761  24.250  25.052  1.00  0.00     0.000 C 
BRANCH   2   3
ATOM      3  C   UNL     1      61.212  22.794  25.244  1.00  0.00     0.000 C 
BRANCH   3   4
ATOM      4  C   UNL     1      60.671  21.865  24.137  1.00  0.00     0.000 C 
BRANCH   4   5
ATOM      5  C   UNL     1      59.304  21.242  24.468  1.00  0.00     0.006 C 
BRANCH   5   6
ATOM      6  C   UNL     1      58.326  21.287  23.287  1.00  0.00     0.053 C 
BRANCH   6   7
ATOM      7  C   UNL     1      57.342  22.400  23.469  1.00  0.00     0.041 C 
ATOM      8  O   UNL     1      57.379  23.117  24.502  1.00  0.00    -0.550 OA
ATOM      9  O   UNL     1      56.353  22.615  22.517  1.00  0.00    -0.550 OA
ENDBRANCH   6   7
ENDBRANCH   5   6
ENDBRANCH   4   5
ENDBRANCH   3   4
ENDBRANCH   2   3
ENDBRANCH   1   2
BRANCH   1  10
ATOM     10  C   UNL     1      61.596  25.718  23.169  1.00  0.00     0.000 C 
BRANCH  10  11
ATOM     11  C   UNL     1      63.055  25.267  23.313  1.00  0.00    -0.000 C 
BRANCH  11  12
ATOM     12  C   UNL     1      63.522  24.510  22.064  1.00  0.00    -0.000 C 
BRANCH  12  13
ATOM     13  C   UNL     1      63.725  23.019  22.369  1.00  0.00    -0.000 C 
BRANCH  13  14
ATOM     14  C   UNL     1      63.041  22.106  21.340  1.00  0.00    -0.000 C 
BRANCH  14  15
ATOM     15  C   UNL     1      61.877  22.798  20.615  1.00  0.00    -0.003 C 
ATOM     16  C   UNL     1      60.716  21.833  20.393  1.00  0.00     0.004 C 
ENDBRANCH  14  15
ENDBRANCH  13  14
ENDBRANCH  12  13
ENDBRANCH  11  12
ENDBRANCH  10  11
ENDBRANCH   1  10
TORSDOF 12
ENDMDL
MODEL 6
REMARK VINA RESULT:    -3.514      1.626      2.639
REMARK INTER + INTRA:          -7.505
REMARK INTER:                  -5.309
REMARK INTRA:                  -2.196
REMARK UNBOUND:                -1.526
REMARK SMILES CCCCCCCCCCCCCC(=O)[O-]
REMARK SMILES IDX 8 1 9 2 10 3 11 4 12 5 13 6 14 7 15 8 16 9 7 10 6 11 5 12
REMARK SMILES IDX 4 13 3 14 2 15 1 16
REMARK H PARENT
REMARK Flexibility Score: inf
ROOT
ATOM      1  C   UNL     1      62.645  21.553  21.871  1.00  0.00     0.000 C 
ENDROOT
BRANCH   1   2
ATOM      2  C   UNL     1      61.976  22.432  20.808  1.00  0.00     0.000 C 
BRANCH   2   3
ATOM      3  C   UNL     1      60.445  22.324  20.886  1.00  0.00     0.000 C 
BRANCH   3   4
ATOM      4  C   UNL     1      59.986  20.997  21.526  1.00  0.00     0.000 C 
BRANCH   4   5
ATOM      5  C   UNL     1      58.859  21.167  22.558  1.00  0.00     0.006 C 
BRANCH   5   6
ATOM      6  C   UNL     1      58.514  22.636  22.828  1.00  0.00     0.053 C 
BRANCH   6   7
ATOM      7  C   UNL     1      57.531  22.743  23.952  1.00  0.00     0.041 C 
ATOM      8  O   UNL     1      56.381  22.246  23.837  1.00  0.00    -0.550 OA
ATOM      9  O   UNL     1      57.871  23.433  25.109  1.00  0.00    -0.550 OA
ENDBRANCH   6   7
ENDBRANCH   5   6
ENDBRANCH   4   5
ENDBRANCH   3   4
ENDBRANCH   2   3
ENDBRANCH   1   2
BRANCH   1  10
ATOM     10  C   UNL     1      63.733  22.328  22.624  1.00  0.00     0.000 C 
BRANCH  10  11
ATOM     11  C   UNL     1      63.457  22.341  24.132  1.00  0.00    -0.000 C 
BRANCH  11  12
ATOM     12  C   UNL     1      61.986  22.025  24.426  1.00  0.00    -0.000 C 
BRANCH  12  13
ATOM     13  C   UNL     1      61.358  23.109  25.313  1.00  0.00    -0.000 C 
BRANCH  13  14
ATOM     14  C   UNL     1      61.755  24.530  24.883  1.00  0.00    -0.000 C 
BRANCH  14  15
ATOM     15  C   UNL     1      61.087  24.958  23.568  1.00  0.00    -0.003 C 
ATOM     16  C   UNL     1      62.074  25.695  22.666  1.00  0.00     0.004 C 
ENDBRANCH  14  15
ENDBRANCH  13  14
ENDBRANCH  12  13
ENDBRANCH  11  12
ENDBRANCH  10  11
ENDBRANCH   1  10
TORSDOF 12
ENDMDL
MODEL 7
REMARK VINA RESULT:    -3.449      3.081      5.155
REMARK INTER + INTRA:          -7.395
REMARK INTER:                  -5.735
REMARK INTRA:                  -1.660
REMARK UNBOUND:                -1.526
REMARK SMILES CCCCCCCCCCCCCC(=O)[O-]
REMARK SMILES IDX 8 1 9 2 10 3 11 4 12 5 13 6 14 7 15 8 16 9 7 10 6 11 5 12
REMARK SMILES IDX 4 13 3 14 2 15 1 16
REMARK H PARENT
REMARK Flexibility Score: inf
ROOT
ATOM      1  C   UNL     1      57.289  22.469  24.140  1.00  0.00     0.000 C 
ENDROOT
BRANCH   1   2
ATOM      2  C   UNL     1      57.864  22.396  22.721  1.00  0.00     0.000 C 
BRANCH   2   3
ATOM      3  C   UNL     1      58.436  21.001  22.428  1.00  0.00     0.000 C 
BRANCH   3   4
ATOM      4  C   UNL     1      59.973  21.020  22.286  1.00  0.00     0.000 C 
BRANCH   4   5
ATOM      5  C   UNL     1      60.514  22.285  21.597  1.00  0.00     0.006 C 
BRANCH   5   6
ATOM      6  C   UNL     1      61.530  21.974  20.492  1.00  0.00     0.053 C 
BRANCH   6   7
ATOM      7  C   UNL     1      62.924  22.215  20.982  1.00  0.00     0.041 C 
ATOM      8  O   UNL     1      63.777  22.750  20.228  1.00  0.00    -0.550 OA
ATOM      9  O   UNL     1      63.292  21.807  22.258  1.00  0.00    -0.550 OA
ENDBRANCH   6   7
ENDBRANCH   5   6
ENDBRANCH   4   5
ENDBRANCH   3   4
ENDBRANCH   2   3
ENDBRANCH   1   2
BRANCH   1  10
ATOM     10  C   UNL     1      58.161  23.349  25.044  1.00  0.00     0.000 C 
BRANCH  10  11
ATOM     11  C   UNL     1      59.309  22.540  25.661  1.00  0.00    -0.000 C 
BRANCH  11  12
ATOM     12  C   UNL     1      60.632  23.310  25.579  1.00  0.00    -0.000 C 
BRANCH  12  13
ATOM     13  C   UNL     1      60.550  24.432  24.534  1.00  0.00    -0.000 C 
BRANCH  13  14
ATOM     14  C   UNL     1      61.905  25.117  24.293  1.00  0.00    -0.000 C 
BRANCH  14  15
ATOM     15  C   UNL     1      62.157  25.425  22.810  1.00  0.00    -0.003 C 
ATOM     16  C   UNL     1      63.651  25.507  22.512  1.00  0.00     0.004 C 
ENDBRANCH  14  15
ENDBRANCH  13  14
ENDBRANCH  12  13
ENDBRANCH  11  12
ENDBRANCH  10  11
ENDBRANCH   1  10
TORSDOF 12
ENDMDL
MODEL 8
REMARK VINA RESULT:    -3.409      3.031      5.256
REMARK INTER + INTRA:          -7.327
REMARK INTER:                  -5.483
REMARK INTRA:                  -1.845
REMARK UNBOUND:                -1.526
REMARK SMILES CCCCCCCCCCCCCC(=O)[O-]
REMARK SMILES IDX 8 1 9 2 10 3 11 4 12 5 13 6 14 7 15 8 16 9 7 10 6 11 5 12
REMARK SMILES IDX 4 13 3 14 2 15 1 16
REMARK H PARENT
REMARK Flexibility Score: inf
ROOT
ATOM      1  C   UNL     1      58.453  22.420  22.699  1.00  0.00     0.000 C 
ENDROOT
BRANCH   1   2
ATOM      2  C   UNL     1      59.759  22.408  21.894  1.00  0.00     0.000 C 
BRANCH   2   3
ATOM      3  C   UNL     1      60.555  21.121  22.154  1.00  0.00     0.000 C 
BRANCH   3   4
ATOM      4  C   UNL     1      62.036  21.407  22.482  1.00  0.00     0.000 C 
BRANCH   4   5
ATOM      5  C   UNL     1      62.769  22.198  21.385  1.00  0.00     0.006 C 
BRANCH   5   6
ATOM      6  C   UNL     1      62.992  21.380  20.107  1.00  0.00     0.053 C 
BRANCH   6   7
ATOM      7  C   UNL     1      62.397  22.083  18.928  1.00  0.00     0.041 C 
ATOM      8  O   UNL     1      61.159  22.020  18.710  1.00  0.00    -0.550 OA
ATOM      9  O   UNL     1      63.218  22.771  18.042  1.00  0.00    -0.550 OA
ENDBRANCH   6   7
ENDBRANCH   5   6
ENDBRANCH   4   5
ENDBRANCH   3   4
ENDBRANCH   2   3
ENDBRANCH   1   2
BRANCH   1  10
ATOM     10  C   UNL     1      58.646  21.763  24.071  1.00  0.00     0.000 C 
BRANCH  10  11
ATOM     11  C   UNL     1      58.484  22.788  25.201  1.00  0.00    -0.000 C 
BRANCH  11  12
ATOM     12  C   UNL     1      59.797  22.968  25.972  1.00  0.00    -0.000 C 
BRANCH  12  13
ATOM     13  C   UNL     1      60.547  24.220  25.494  1.00  0.00    -0.000 C 
BRANCH  13  14
ATOM     14  C   UNL     1      61.993  23.918  25.068  1.00  0.00    -0.000 C 
BRANCH  14  15
ATOM     15  C   UNL     1      62.546  24.950  24.075  1.00  0.00    -0.003 C 
ATOM     16  C   UNL     1      61.421  25.595  23.270  1.00  0.00     0.004 C 
ENDBRANCH  14  15
ENDBRANCH  13  14
ENDBRANCH  12  13
ENDBRANCH  11  12
ENDBRANCH  10  11
ENDBRANCH   1  10
TORSDOF 12
ENDMDL
MODEL 9
REMARK VINA RESULT:    -3.379      3.322      5.620
REMARK INTER + INTRA:          -7.275
REMARK INTER:                  -5.911
REMARK INTRA:                  -1.364
REMARK UNBOUND:                -1.526
REMARK SMILES CCCCCCCCCCCCCC(=O)[O-]
REMARK SMILES IDX 8 1 9 2 10 3 11 4 12 5 13 6 14 7 15 8 16 9 7 10 6 11 5 12
REMARK SMILES IDX 4 13 3 14 2 15 1 16
REMARK H PARENT
REMARK Flexibility Score: inf
ROOT
ATOM      1  C   UNL     1      57.757  23.209  24.593  1.00  0.00     0.000 C 
ENDROOT
BRANCH   1   2
ATOM      2  C   UNL     1      58.510  23.541  25.886  1.00  0.00     0.000 C 
BRANCH   2   3
ATOM      3  C   UNL     1      59.805  22.722  25.996  1.00  0.00     0.000 C 
BRANCH   3   4
ATOM      4  C   UNL     1      61.066  23.602  25.852  1.00  0.00     0.000 C 
BRANCH   4   5
ATOM      5  C   UNL     1      61.626  23.647  24.420  1.00  0.00     0.006 C 
BRANCH   5   6
ATOM      6  C   UNL     1      61.371  24.988  23.721  1.00  0.00     0.053 C 
BRANCH   6   7
ATOM      7  C   UNL     1      62.655  25.735  23.542  1.00  0.00     0.041 C 
ATOM      8  O   UNL     1      63.168  25.848  22.398  1.00  0.00    -0.550 OA
ATOM      9  O   UNL     1      63.310  26.267  24.646  1.00  0.00    -0.550 OA
ENDBRANCH   6   7
ENDBRANCH   5   6
ENDBRANCH   4   5
ENDBRANCH   3   4
ENDBRANCH   2   3
ENDBRANCH   1   2
BRANCH   1  10
ATOM     10  C   UNL     1      58.289  21.917  23.960  1.00  0.00     0.000 C 
BRANCH  10  11
ATOM     11  C   UNL     1      58.645  22.131  22.484  1.00  0.00    -0.000 C 
BRANCH  11  12
ATOM     12  C   UNL     1      59.433  20.939  21.930  1.00  0.00    -0.000 C 
BRANCH  12  13
ATOM     13  C   UNL     1      60.912  21.301  21.733  1.00  0.00    -0.000 C 
BRANCH  13  14
ATOM     14  C   UNL     1      61.146  22.189  20.501  1.00  0.00    -0.000 C 
BRANCH  14  15
ATOM     15  C   UNL     1      62.448  21.846  19.762  1.00  0.00    -0.003 C 
ATOM     16  C   UNL     1      62.425  22.380  18.333  1.00  0.00     0.004 C 
ENDBRANCH  14  15
ENDBRANCH  13  14
ENDBRANCH  12  13
ENDBRANCH  11  12
ENDBRANCH  10  11
ENDBRANCH   1  10
TORSDOF 12
ENDMDL
