MODEL 1
REMARK VINA RESULT:    -6.797      0.000      0.000
REMARK INTER + INTRA:          -8.287
REMARK INTER:                  -7.989
REMARK INTRA:                  -0.299
REMARK UNBOUND:                -0.299
REMARK SMILES O=c1c(O)c(-c2ccc(O)cc2)oc2cc(O)cc(O)c12
REMARK SMILES IDX 5 1 3 2 2 3 1 4 21 5 19 6 18 7 16 8 15 9 14 10 13 11 6 12
REMARK SMILES IDX 7 13 8 14 9 15 12 16 11 17 10 18 4 20 20 22 17 24
REMARK H PARENT 10 19 4 21 20 23 17 25
REMARK Flexibility Score: inf
ROOT
ATOM      1  C   UNL     1      59.594  -2.287  29.512  1.00  0.00     0.180 A 
ATOM      2  C   UNL     1      59.038  -1.006  29.348  1.00  0.00     0.208 A 
ATOM      3  C   UNL     1      57.705  -0.789  29.737  1.00  0.00     0.238 A 
ATOM      4  O   UNL     1      57.195   0.345  29.538  1.00  0.00    -0.285 OA
ATOM      5  C   UNL     1      56.953  -1.848  30.299  1.00  0.00     0.111 A 
ATOM      6  C   UNL     1      55.609  -1.730  30.765  1.00  0.00     0.134 A 
ATOM      7  C   UNL     1      54.919  -2.875  31.182  1.00  0.00     0.093 A 
ATOM      8  C   UNL     1      55.547  -4.123  31.211  1.00  0.00     0.123 A 
ATOM      9  C   UNL     1      56.876  -4.239  30.815  1.00  0.00     0.094 A 
ATOM     10  C   UNL     1      57.580  -3.120  30.359  1.00  0.00     0.146 A 
ATOM     11  O   UNL     1      58.843  -3.276  29.981  1.00  0.00    -0.452 OA
ENDROOT
BRANCH   1  12
ATOM     12  C   UNL     1      60.999  -2.587  29.150  1.00  0.00     0.021 A 
ATOM     13  C   UNL     1      61.284  -3.140  27.890  1.00  0.00     0.016 A 
ATOM     14  C   UNL     1      62.600  -3.453  27.535  1.00  0.00     0.047 A 
ATOM     15  C   UNL     1      63.645  -3.229  28.441  1.00  0.00     0.115 A 
ATOM     16  C   UNL     1      62.050  -2.385  30.062  1.00  0.00     0.016 A 
ATOM     17  C   UNL     1      63.366  -2.698  29.704  1.00  0.00     0.047 A 
BRANCH  15  18
ATOM     18  O   UNL     1      64.960  -3.537  28.099  1.00  0.00    -0.508 OA
ATOM     19  H   UNL     1      65.648  -2.812  27.939  1.00  0.00     0.293 HD
ENDBRANCH  15  18
ENDBRANCH   1  12
BRANCH   2  20
ATOM     20  O   UNL     1      59.790   0.019  28.772  1.00  0.00    -0.502 OA
ATOM     21  H   UNL     1      59.529   0.996  28.848  1.00  0.00     0.293 HD
ENDBRANCH   2  20
BRANCH   6  22
ATOM     22  O   UNL     1      54.922  -0.516  30.864  1.00  0.00    -0.507 OA
ATOM     23  H   UNL     1      55.297   0.380  30.594  1.00  0.00     0.293 HD
ENDBRANCH   6  22
BRANCH   8  24
ATOM     24  O   UNL     1      54.858  -5.254  31.642  1.00  0.00    -0.508 OA
ATOM     25  H   UNL     1      54.787  -5.490  32.624  1.00  0.00     0.293 HD
ENDBRANCH   8  24
TORSDOF 5
ENDMDL
MODEL 2
REMARK VINA RESULT:    -6.048      1.693      3.454
REMARK INTER + INTRA:          -7.407
REMARK INTER:                  -7.122
REMARK INTRA:                  -0.285
REMARK UNBOUND:                -0.299
REMARK SMILES O=c1c(O)c(-c2ccc(O)cc2)oc2cc(O)cc(O)c12
REMARK SMILES IDX 5 1 3 2 2 3 1 4 21 5 19 6 18 7 16 8 15 9 14 10 13 11 6 12
REMARK SMILES IDX 7 13 8 14 9 15 12 16 11 17 10 18 4 20 20 22 17 24
REMARK H PARENT 10 19 4 21 20 23 17 25
REMARK Flexibility Score: inf
ROOT
ATOM      1  C   UNL     1      60.807  -2.235  28.899  1.00  0.00     0.180 A 
ATOM      2  C   UNL     1      60.127  -3.386  29.336  1.00  0.00     0.208 A 
ATOM      3  C   UNL     1      58.809  -3.260  29.805  1.00  0.00     0.238 A 
ATOM      4  O   UNL     1      58.224  -4.285  30.245  1.00  0.00    -0.285 OA
ATOM      5  C   UNL     1      58.183  -1.991  29.816  1.00  0.00     0.111 A 
ATOM      6  C   UNL     1      56.839  -1.754  30.232  1.00  0.00     0.134 A 
ATOM      7  C   UNL     1      56.366  -0.439  30.326  1.00  0.00     0.093 A 
ATOM      8  C   UNL     1      57.169   0.643  29.956  1.00  0.00     0.123 A 
ATOM      9  C   UNL     1      58.462   0.418  29.492  1.00  0.00     0.094 A 
ATOM     10  C   UNL     1      58.974  -0.880  29.422  1.00  0.00     0.146 A 
ATOM     11  O   UNL     1      60.216  -1.049  28.984  1.00  0.00    -0.452 OA
ENDROOT
BRANCH   1  12
ATOM     12  C   UNL     1      62.189  -2.291  28.368  1.00  0.00     0.021 A 
ATOM     13  C   UNL     1      63.263  -1.922  29.195  1.00  0.00     0.016 A 
ATOM     14  C   UNL     1      64.573  -1.946  28.708  1.00  0.00     0.047 A 
ATOM     15  C   UNL     1      64.824  -2.324  27.382  1.00  0.00     0.115 A 
ATOM     16  C   UNL     1      62.446  -2.650  27.032  1.00  0.00     0.016 A 
ATOM     17  C   UNL     1      63.758  -2.672  26.547  1.00  0.00     0.047 A 
BRANCH  15  18
ATOM     18  O   UNL     1      66.125  -2.351  26.885  1.00  0.00    -0.508 OA
ATOM     19  H   UNL     1      66.880  -1.863  27.352  1.00  0.00     0.293 HD
ENDBRANCH  15  18
ENDBRANCH   1  12
BRANCH   2  20
ATOM     20  O   UNL     1      60.771  -4.625  29.336  1.00  0.00    -0.502 OA
ATOM     21  H   UNL     1      60.683  -5.286  28.573  1.00  0.00     0.293 HD
ENDBRANCH   2  20
BRANCH   6  22
ATOM     22  O   UNL     1      55.926  -2.768  30.535  1.00  0.00    -0.507 OA
ATOM     23  H   UNL     1      56.071  -3.747  30.345  1.00  0.00     0.293 HD
ENDBRANCH   6  22
BRANCH   8  24
ATOM     24  O   UNL     1      56.685   1.946  30.037  1.00  0.00    -0.508 OA
ATOM     25  H   UNL     1      55.708   2.139  30.221  1.00  0.00     0.293 HD
ENDBRANCH   8  24
TORSDOF 5
ENDMDL
MODEL 3
REMARK VINA RESULT:    -5.716      1.802      6.971
REMARK INTER + INTRA:          -7.017
REMARK INTER:                  -6.716
REMARK INTRA:                  -0.300
REMARK UNBOUND:                -0.299
REMARK SMILES O=c1c(O)c(-c2ccc(O)cc2)oc2cc(O)cc(O)c12
REMARK SMILES IDX 5 1 3 2 2 3 1 4 21 5 19 6 18 7 16 8 15 9 14 10 13 11 6 12
REMARK SMILES IDX 7 13 8 14 9 15 12 16 11 17 10 18 4 20 20 22 17 24
REMARK H PARENT 10 19 4 21 20 23 17 25
REMARK Flexibility Score: inf
ROOT
ATOM      1  C   UNL     1      60.172  -2.161  29.661  1.00  0.00     0.180 A 
ATOM      2  C   UNL     1      61.096  -2.209  30.719  1.00  0.00     0.208 A 
ATOM      3  C   UNL     1      62.406  -2.645  30.459  1.00  0.00     0.238 A 
ATOM      4  O   UNL     1      63.214  -2.738  31.420  1.00  0.00    -0.285 OA
ATOM      5  C   UNL     1      62.778  -3.011  29.143  1.00  0.00     0.111 A 
ATOM      6  C   UNL     1      64.088  -3.428  28.758  1.00  0.00     0.134 A 
ATOM      7  C   UNL     1      64.310  -3.892  27.455  1.00  0.00     0.093 A 
ATOM      8  C   UNL     1      63.285  -3.891  26.506  1.00  0.00     0.123 A 
ATOM      9  C   UNL     1      62.019  -3.430  26.855  1.00  0.00     0.094 A 
ATOM     10  C   UNL     1      61.757  -2.996  28.158  1.00  0.00     0.146 A 
ATOM     11  O   UNL     1      60.533  -2.573  28.451  1.00  0.00    -0.452 OA
ENDROOT
BRANCH   1  12
ATOM     12  C   UNL     1      58.780  -1.689  29.851  1.00  0.00     0.021 A 
ATOM     13  C   UNL     1      57.763  -2.622  30.112  1.00  0.00     0.016 A 
ATOM     14  C   UNL     1      56.440  -2.201  30.272  1.00  0.00     0.047 A 
ATOM     15  C   UNL     1      56.114  -0.842  30.160  1.00  0.00     0.115 A 
ATOM     16  C   UNL     1      58.444  -0.329  29.719  1.00  0.00     0.016 A 
ATOM     17  C   UNL     1      57.119   0.089  29.880  1.00  0.00     0.047 A 
BRANCH  15  18
ATOM     18  O   UNL     1      54.800  -0.412  30.318  1.00  0.00    -0.508 OA
ATOM     19  H   UNL     1      54.540   0.238  31.050  1.00  0.00     0.293 HD
ENDBRANCH  15  18
ENDBRANCH   1  12
BRANCH   2  20
ATOM     20  O   UNL     1      60.701  -1.864  32.014  1.00  0.00    -0.502 OA
ATOM     21  H   UNL     1      60.002  -1.155  32.200  1.00  0.00     0.293 HD
ENDBRANCH   2  20
BRANCH   6  22
ATOM     22  O   UNL     1      65.201  -3.382  29.602  1.00  0.00    -0.507 OA
ATOM     23  H   UNL     1      65.731  -4.186  29.898  1.00  0.00     0.293 HD
ENDBRANCH   6  22
BRANCH   8  24
ATOM     24  O   UNL     1      63.519  -4.339  25.209  1.00  0.00    -0.508 OA
ATOM     25  H   UNL     1      62.814  -4.262  24.485  1.00  0.00     0.293 HD
ENDBRANCH   8  24
TORSDOF 5
ENDMDL
MODEL 4
REMARK VINA RESULT:    -5.450     17.318     19.380
REMARK INTER + INTRA:          -6.705
REMARK INTER:                  -6.408
REMARK INTRA:                  -0.296
REMARK UNBOUND:                -0.299
REMARK SMILES O=c1c(O)c(-c2ccc(O)cc2)oc2cc(O)cc(O)c12
REMARK SMILES IDX 5 1 3 2 2 3 1 4 21 5 19 6 18 7 16 8 15 9 14 10 13 11 6 12
REMARK SMILES IDX 7 13 8 14 9 15 12 16 11 17 10 18 4 20 20 22 17 24
REMARK H PARENT 10 19 4 21 20 23 17 25
REMARK Flexibility Score: inf
ROOT
ATOM      1  C   UNL     1      63.179 -15.123  16.987  1.00  0.00     0.180 A 
ATOM      2  C   UNL     1      62.753 -15.482  15.697  1.00  0.00     0.208 A 
ATOM      3  C   UNL     1      63.139 -14.685  14.606  1.00  0.00     0.238 A 
ATOM      4  O   UNL     1      62.711 -14.980  13.460  1.00  0.00    -0.285 OA
ATOM      5  C   UNL     1      63.958 -13.550  14.818  1.00  0.00     0.111 A 
ATOM      6  C   UNL     1      64.442 -12.695  13.783  1.00  0.00     0.134 A 
ATOM      7  C   UNL     1      65.136 -11.526  14.120  1.00  0.00     0.093 A 
ATOM      8  C   UNL     1      65.420 -11.216  15.453  1.00  0.00     0.123 A 
ATOM      9  C   UNL     1      65.003 -12.075  16.467  1.00  0.00     0.094 A 
ATOM     10  C   UNL     1      64.277 -13.230  16.164  1.00  0.00     0.146 A 
ATOM     11  O   UNL     1      63.891 -14.016  17.162  1.00  0.00    -0.452 OA
ENDROOT
BRANCH   1  12
ATOM     12  C   UNL     1      62.834 -15.927  18.182  1.00  0.00     0.021 A 
ATOM     13  C   UNL     1      61.685 -15.605  18.924  1.00  0.00     0.016 A 
ATOM     14  C   UNL     1      61.352 -16.336  20.069  1.00  0.00     0.047 A 
ATOM     15  C   UNL     1      62.173 -17.390  20.494  1.00  0.00     0.115 A 
ATOM     16  C   UNL     1      63.664 -16.973  18.627  1.00  0.00     0.016 A 
ATOM     17  C   UNL     1      63.329 -17.702  19.772  1.00  0.00     0.047 A 
BRANCH  15  18
ATOM     18  O   UNL     1      61.852 -18.125  21.632  1.00  0.00    -0.508 OA
ATOM     19  H   UNL     1      61.472 -19.061  21.568  1.00  0.00     0.293 HD
ENDBRANCH  15  18
ENDBRANCH   1  12
BRANCH   2  20
ATOM     20  O   UNL     1      61.928 -16.594  15.512  1.00  0.00    -0.502 OA
ATOM     21  H   UNL     1      62.087 -17.476  15.985  1.00  0.00     0.293 HD
ENDBRANCH   2  20
BRANCH   6  22
ATOM     22  O   UNL     1      64.292 -12.960  12.419  1.00  0.00    -0.507 OA
ATOM     23  H   UNL     1      65.029 -13.289  11.813  1.00  0.00     0.293 HD
ENDBRANCH   6  22
BRANCH   8  24
ATOM     24  O   UNL     1      66.124 -10.060  15.778  1.00  0.00    -0.508 OA
ATOM     25  H   UNL     1      66.879 -10.070  16.453  1.00  0.00     0.293 HD
ENDBRANCH   8  24
TORSDOF 5
ENDMDL
MODEL 5
REMARK VINA RESULT:    -5.411     15.866     19.058
REMARK INTER + INTRA:          -6.659
REMARK INTER:                  -6.759
REMARK INTRA:                   0.100
REMARK UNBOUND:                -0.299
REMARK SMILES O=c1c(O)c(-c2ccc(O)cc2)oc2cc(O)cc(O)c12
REMARK SMILES IDX 5 1 3 2 2 3 1 4 21 5 19 6 18 7 16 8 15 9 14 10 13 11 6 12
REMARK SMILES IDX 7 13 8 14 9 15 12 16 11 17 10 18 4 20 20 22 17 24
REMARK H PARENT 10 19 4 21 20 23 17 25
REMARK Flexibility Score: inf
ROOT
ATOM      1  C   UNL     1      62.551 -13.900  15.606  1.00  0.00     0.180 A 
ATOM      2  C   UNL     1      62.988 -13.292  14.416  1.00  0.00     0.208 A 
ATOM      3  C   UNL     1      63.931 -12.254  14.489  1.00  0.00     0.238 A 
ATOM      4  O   UNL     1      64.278 -11.677  13.424  1.00  0.00    -0.285 OA
ATOM      5  C   UNL     1      64.437 -11.848  15.747  1.00  0.00     0.111 A 
ATOM      6  C   UNL     1      65.425 -10.835  15.935  1.00  0.00     0.134 A 
ATOM      7  C   UNL     1      65.755 -10.424  17.232  1.00  0.00     0.093 A 
ATOM      8  C   UNL     1      65.181 -11.036  18.349  1.00  0.00     0.123 A 
ATOM      9  C   UNL     1      64.261 -12.066  18.177  1.00  0.00     0.094 A 
ATOM     10  C   UNL     1      63.884 -12.473  16.895  1.00  0.00     0.146 A 
ATOM     11  O   UNL     1      62.995 -13.453  16.775  1.00  0.00    -0.452 OA
ENDROOT
BRANCH   1  12
ATOM     12  C   UNL     1      61.578 -15.017  15.610  1.00  0.00     0.021 A 
ATOM     13  C   UNL     1      60.390 -14.901  14.870  1.00  0.00     0.016 A 
ATOM     14  C   UNL     1      59.447 -15.933  14.877  1.00  0.00     0.047 A 
ATOM     15  C   UNL     1      59.675 -17.089  15.635  1.00  0.00     0.115 A 
ATOM     16  C   UNL     1      61.791 -16.172  16.385  1.00  0.00     0.016 A 
ATOM     17  C   UNL     1      60.846 -17.203  16.390  1.00  0.00     0.047 A 
BRANCH  15  18
ATOM     18  O   UNL     1      58.743 -18.124  15.649  1.00  0.00    -0.508 OA
ATOM     19  H   UNL     1      57.972 -18.133  16.305  1.00  0.00     0.293 HD
ENDBRANCH  15  18
ENDBRANCH   1  12
BRANCH   2  20
ATOM     20  O   UNL     1      62.460 -13.694  13.187  1.00  0.00    -0.502 OA
ATOM     21  H   UNL     1      63.042 -13.886  12.380  1.00  0.00     0.293 HD
ENDBRANCH   2  20
BRANCH   6  22
ATOM     22  O   UNL     1      66.125 -10.225  14.890  1.00  0.00    -0.507 OA
ATOM     23  H   UNL     1      65.695  -9.769  14.100  1.00  0.00     0.293 HD
ENDBRANCH   6  22
BRANCH   8  24
ATOM     24  O   UNL     1      65.527 -10.632  19.636  1.00  0.00    -0.508 OA
ATOM     25  H   UNL     1      66.354 -10.073  19.813  1.00  0.00     0.293 HD
ENDBRANCH   8  24
TORSDOF 5
ENDMDL
MODEL 6
REMARK VINA RESULT:    -5.288     14.035     17.259
REMARK INTER + INTRA:          -6.514
REMARK INTER:                  -6.245
REMARK INTRA:                  -0.269
REMARK UNBOUND:                -0.299
REMARK SMILES O=c1c(O)c(-c2ccc(O)cc2)oc2cc(O)cc(O)c12
REMARK SMILES IDX 5 1 3 2 2 3 1 4 21 5 19 6 18 7 16 8 15 9 14 10 13 11 6 12
REMARK SMILES IDX 7 13 8 14 9 15 12 16 11 17 10 18 4 20 20 22 17 24
REMARK H PARENT 10 19 4 21 20 23 17 25
REMARK Flexibility Score: inf
ROOT
ATOM      1  C   UNL     1      63.607 -13.275  17.497  1.00  0.00     0.180 A 
ATOM      2  C   UNL     1      63.248 -14.406  18.250  1.00  0.00     0.208 A 
ATOM      3  C   UNL     1      63.469 -14.398  19.637  1.00  0.00     0.238 A 
ATOM      4  O   UNL     1      63.195 -15.434  20.299  1.00  0.00    -0.285 OA
ATOM      5  C   UNL     1      64.030 -13.255  20.254  1.00  0.00     0.111 A 
ATOM      6  C   UNL     1      64.260 -13.121  21.657  1.00  0.00     0.134 A 
ATOM      7  C   UNL     1      64.942 -11.998  22.142  1.00  0.00     0.093 A 
ATOM      8  C   UNL     1      65.343 -10.972  21.281  1.00  0.00     0.123 A 
ATOM      9  C   UNL     1      65.070 -11.065  19.920  1.00  0.00     0.094 A 
ATOM     10  C   UNL     1      64.424 -12.191  19.401  1.00  0.00     0.146 A 
ATOM     11  O   UNL     1      64.193 -12.244  18.095  1.00  0.00    -0.452 OA
ENDROOT
BRANCH   1  12
ATOM     12  C   UNL     1      63.383 -13.198  16.034  1.00  0.00     0.021 A 
ATOM     13  C   UNL     1      64.470 -13.352  15.159  1.00  0.00     0.016 A 
ATOM     14  C   UNL     1      64.285 -13.262  13.776  1.00  0.00     0.047 A 
ATOM     15  C   UNL     1      63.012 -13.001  13.252  1.00  0.00     0.115 A 
ATOM     16  C   UNL     1      62.111 -12.916  15.502  1.00  0.00     0.016 A 
ATOM     17  C   UNL     1      61.929 -12.826  14.118  1.00  0.00     0.047 A 
BRANCH  15  18
ATOM     18  O   UNL     1      62.815 -12.908  11.876  1.00  0.00    -0.508 OA
ATOM     19  H   UNL     1      62.141 -13.493  11.397  1.00  0.00     0.293 HD
ENDBRANCH  15  18
ENDBRANCH   1  12
BRANCH   2  20
ATOM     20  O   UNL     1      62.715 -15.532  17.618  1.00  0.00    -0.502 OA
ATOM     21  H   UNL     1      61.815 -15.521  17.152  1.00  0.00     0.293 HD
ENDBRANCH   2  20
BRANCH   6  22
ATOM     22  O   UNL     1      63.819 -14.043  22.611  1.00  0.00    -0.507 OA
ATOM     23  H   UNL     1      62.955 -13.970  23.124  1.00  0.00     0.293 HD
ENDBRANCH   6  22
BRANCH   8  24
ATOM     24  O   UNL     1      66.006  -9.851  21.775  1.00  0.00    -0.508 OA
ATOM     25  H   UNL     1      66.981  -9.888  22.045  1.00  0.00     0.293 HD
ENDBRANCH   8  24
TORSDOF 5
ENDMDL
MODEL 7
REMARK VINA RESULT:    -5.219     14.675     16.770
REMARK INTER + INTRA:          -6.433
REMARK INTER:                  -6.132
REMARK INTRA:                  -0.300
REMARK UNBOUND:                -0.299
REMARK SMILES O=c1c(O)c(-c2ccc(O)cc2)oc2cc(O)cc(O)c12
REMARK SMILES IDX 5 1 3 2 2 3 1 4 21 5 19 6 18 7 16 8 15 9 14 10 13 11 6 12
REMARK SMILES IDX 7 13 8 14 9 15 12 16 11 17 10 18 4 20 20 22 17 24
REMARK H PARENT 10 19 4 21 20 23 17 25
REMARK Flexibility Score: inf
ROOT
ATOM      1  C   UNL     1      64.042 -12.697  17.880  1.00  0.00     0.180 A 
ATOM      2  C   UNL     1      64.531 -11.685  18.724  1.00  0.00     0.208 A 
ATOM      3  C   UNL     1      64.607 -11.930  20.106  1.00  0.00     0.238 A 
ATOM      4  O   UNL     1      64.995 -11.003  20.863  1.00  0.00    -0.285 OA
ATOM      5  C   UNL     1      64.210 -13.187  20.621  1.00  0.00     0.111 A 
ATOM      6  C   UNL     1      64.283 -13.559  21.997  1.00  0.00     0.134 A 
ATOM      7  C   UNL     1      63.740 -14.781  22.413  1.00  0.00     0.093 A 
ATOM      8  C   UNL     1      63.186 -15.673  21.492  1.00  0.00     0.123 A 
ATOM      9  C   UNL     1      63.164 -15.346  20.139  1.00  0.00     0.094 A 
ATOM     10  C   UNL     1      63.665 -14.118  19.699  1.00  0.00     0.146 A 
ATOM     11  O   UNL     1      63.615 -13.841  18.401  1.00  0.00    -0.452 OA
ENDROOT
BRANCH   1  12
ATOM     12  C   UNL     1      63.955 -12.523  16.411  1.00  0.00     0.021 A 
ATOM     13  C   UNL     1      62.753 -12.075  15.838  1.00  0.00     0.016 A 
ATOM     14  C   UNL     1      62.642 -11.925  14.452  1.00  0.00     0.047 A 
ATOM     15  C   UNL     1      63.727 -12.235  13.621  1.00  0.00     0.115 A 
ATOM     16  C   UNL     1      65.034 -12.852  15.569  1.00  0.00     0.016 A 
ATOM     17  C   UNL     1      64.919 -12.701  14.183  1.00  0.00     0.047 A 
BRANCH  15  18
ATOM     18  O   UNL     1      63.627 -12.090  12.240  1.00  0.00    -0.508 OA
ATOM     19  H   UNL     1      63.914 -11.237  11.775  1.00  0.00     0.293 HD
ENDBRANCH  15  18
ENDBRANCH   1  12
BRANCH   2  20
ATOM     20  O   UNL     1      64.897 -10.445  18.197  1.00  0.00    -0.502 OA
ATOM     21  H   UNL     1      64.232  -9.824  17.751  1.00  0.00     0.293 HD
ENDBRANCH   2  20
BRANCH   6  22
ATOM     22  O   UNL     1      64.898 -12.781  22.984  1.00  0.00    -0.507 OA
ATOM     23  H   UNL     1      65.321 -13.147  23.823  1.00  0.00     0.293 HD
ENDBRANCH   6  22
BRANCH   8  24
ATOM     24  O   UNL     1      62.663 -16.893  21.912  1.00  0.00    -0.508 OA
ATOM     25  H   UNL     1      61.712 -17.166  21.695  1.00  0.00     0.293 HD
ENDBRANCH   8  24
TORSDOF 5
ENDMDL
