MODEL 1
REMARK VINA RESULT:    -4.221      0.000      0.000
REMARK INTER + INTRA:          -4.890
REMARK INTER:                  -4.837
REMARK INTRA:                  -0.053
REMARK UNBOUND:                -0.053
REMARK SMILES O=C([O-])c1cc(O)c(O)c(O)c1
REMARK SMILES IDX 4 1 5 2 12 3 6 4 10 5 8 6 2 7 1 8 3 9 7 10 11 12 9 14
REMARK H PARENT 7 11 11 13 9 15
REMARK Flexibility Score: inf
ROOT
ATOM      1  C   UNL     1     110.584  99.692  94.038  1.00  0.00     0.005 A 
ATOM      2  C   UNL     1     111.037  98.374  94.209  1.00  0.00     0.060 A 
ATOM      3  C   UNL     1     109.202  99.934  93.950  1.00  0.00     0.060 A 
ATOM      4  C   UNL     1     110.125  97.312  94.293  1.00  0.00     0.162 A 
ATOM      5  C   UNL     1     108.286  98.875  94.033  1.00  0.00     0.162 A 
ATOM      6  C   UNL     1     108.749  97.561  94.205  1.00  0.00     0.200 A 
ENDROOT
BRANCH   1   7
ATOM      7  C   UNL     1     111.552 100.809  93.950  1.00  0.00     0.072 C 
ATOM      8  O   UNL     1     112.790 100.580  93.896  1.00  0.00    -0.545 OA
ATOM      9  O   UNL     1     111.109 102.126  93.927  1.00  0.00    -0.545 OA
ENDBRANCH   1   7
BRANCH   4  10
ATOM     10  O   UNL     1     110.580  96.006  94.463  1.00  0.00    -0.504 OA
ATOM     11  H   UNL     1     111.487  95.808  94.871  1.00  0.00     0.293 HD
ENDBRANCH   4  10
BRANCH   5  12
ATOM     12  O   UNL     1     106.917  99.126  93.945  1.00  0.00    -0.504 OA
ATOM     13  H   UNL     1     106.238  98.374  93.952  1.00  0.00     0.293 HD
ENDBRANCH   5  12
BRANCH   6  14
ATOM     14  O   UNL     1     107.858  96.491  94.290  1.00  0.00    -0.502 OA
ATOM     15  H   UNL     1     107.233  96.249  93.530  1.00  0.00     0.293 HD
ENDBRANCH   6  14
TORSDOF 4
ENDMDL
MODEL 2
REMARK VINA RESULT:    -4.218      0.216      2.597
REMARK INTER + INTRA:          -4.887
REMARK INTER:                  -4.834
REMARK INTRA:                  -0.053
REMARK UNBOUND:                -0.053
REMARK SMILES O=C([O-])c1cc(O)c(O)c(O)c1
REMARK SMILES IDX 4 1 5 2 12 3 6 4 10 5 8 6 2 7 1 8 3 9 7 10 11 12 9 14
REMARK H PARENT 7 11 11 13 9 15
REMARK Flexibility Score: inf
ROOT
ATOM      1  C   UNL     1     110.393  99.692  94.027  1.00  0.00     0.005 A 
ATOM      2  C   UNL     1     109.007  99.914  94.075  1.00  0.00     0.060 A 
ATOM      3  C   UNL     1     110.876  98.374  94.080  1.00  0.00     0.060 A 
ATOM      4  C   UNL     1     108.116  98.835  94.174  1.00  0.00     0.162 A 
ATOM      5  C   UNL     1     109.990  97.292  94.179  1.00  0.00     0.162 A 
ATOM      6  C   UNL     1     108.605  97.524  94.226  1.00  0.00     0.200 A 
ENDROOT
BRANCH   1   7
ATOM      7  C   UNL     1     111.328 100.836  93.923  1.00  0.00     0.072 C 
ATOM      8  O   UNL     1     110.892 102.017  93.875  1.00  0.00    -0.545 OA
ATOM      9  O   UNL     1     112.701 100.622  93.876  1.00  0.00    -0.545 OA
ENDBRANCH   1   7
BRANCH   4  10
ATOM     10  O   UNL     1     106.741  99.060  94.220  1.00  0.00    -0.504 OA
ATOM     11  H   UNL     1     106.334  99.730  94.864  1.00  0.00     0.293 HD
ENDBRANCH   4  10
BRANCH   5  12
ATOM     12  O   UNL     1     110.480  95.988  94.231  1.00  0.00    -0.504 OA
ATOM     13  H   UNL     1     110.934  95.624  95.061  1.00  0.00     0.293 HD
ENDBRANCH   5  12
BRANCH   6  14
ATOM     14  O   UNL     1     107.703  96.465  94.324  1.00  0.00    -0.502 OA
ATOM     15  H   UNL     1     108.009  95.502  94.403  1.00  0.00     0.293 HD
ENDBRANCH   6  14
TORSDOF 4
ENDMDL
MODEL 3
REMARK VINA RESULT:    -3.616     14.820     16.755
REMARK INTER + INTRA:          -4.197
REMARK INTER:                  -4.145
REMARK INTRA:                  -0.052
REMARK UNBOUND:                -0.053
REMARK SMILES O=C([O-])c1cc(O)c(O)c(O)c1
REMARK SMILES IDX 4 1 5 2 12 3 6 4 10 5 8 6 2 7 1 8 3 9 7 10 11 12 9 14
REMARK H PARENT 7 11 11 13 9 15
REMARK Flexibility Score: inf
ROOT
ATOM      1  C   UNL     1     101.601 112.419  94.111  1.00  0.00     0.005 A 
ATOM      2  C   UNL     1     102.988 112.226  94.006  1.00  0.00     0.060 A 
ATOM      3  C   UNL     1     101.098 113.729  94.192  1.00  0.00     0.060 A 
ATOM      4  C   UNL     1     103.861 113.323  93.982  1.00  0.00     0.162 A 
ATOM      5  C   UNL     1     101.966 114.829  94.169  1.00  0.00     0.162 A 
ATOM      6  C   UNL     1     103.352 114.626  94.063  1.00  0.00     0.200 A 
ENDROOT
BRANCH   1   7
ATOM      7  C   UNL     1     100.685 111.256  94.136  1.00  0.00     0.072 C 
ATOM      8  O   UNL     1     101.123 110.101  94.383  1.00  0.00    -0.545 OA
ATOM      9  O   UNL     1      99.328 111.422  93.886  1.00  0.00    -0.545 OA
ENDBRANCH   1   7
BRANCH   4  10
ATOM     10  O   UNL     1     105.236 113.125  93.877  1.00  0.00    -0.504 OA
ATOM     11  H   UNL     1     105.777 112.737  94.641  1.00  0.00     0.293 HD
ENDBRANCH   4  10
BRANCH   5  12
ATOM     12  O   UNL     1     101.457 116.125  94.250  1.00  0.00    -0.504 OA
ATOM     13  H   UNL     1     100.622 116.334  94.786  1.00  0.00     0.293 HD
ENDBRANCH   5  12
BRANCH   6  14
ATOM     14  O   UNL     1     104.236 115.704  94.038  1.00  0.00    -0.502 OA
ATOM     15  H   UNL     1     104.523 116.145  93.172  1.00  0.00     0.293 HD
ENDBRANCH   6  14
TORSDOF 4
ENDMDL
MODEL 4
REMARK VINA RESULT:    -3.420      1.108      4.393
REMARK INTER + INTRA:          -3.973
REMARK INTER:                  -3.921
REMARK INTRA:                  -0.052
REMARK UNBOUND:                -0.053
REMARK SMILES O=C([O-])c1cc(O)c(O)c(O)c1
REMARK SMILES IDX 4 1 5 2 12 3 6 4 10 5 8 6 2 7 1 8 3 9 7 10 11 12 9 14
REMARK H PARENT 7 11 11 13 9 15
REMARK Flexibility Score: inf
ROOT
ATOM      1  C   UNL     1     108.662  98.400  94.242  1.00  0.00     0.005 A 
ATOM      2  C   UNL     1     109.413  99.583  94.139  1.00  0.00     0.060 A 
ATOM      3  C   UNL     1     109.329  97.163  94.222  1.00  0.00     0.060 A 
ATOM      4  C   UNL     1     110.809  99.533  94.017  1.00  0.00     0.162 A 
ATOM      5  C   UNL     1     110.725  97.108  94.100  1.00  0.00     0.162 A 
ATOM      6  C   UNL     1     111.467  98.296  93.997  1.00  0.00     0.200 A 
ENDROOT
BRANCH   1   7
ATOM      7  C   UNL     1     107.188  98.460  94.370  1.00  0.00     0.072 C 
ATOM      8  O   UNL     1     106.618  99.532  94.706  1.00  0.00    -0.545 OA
ATOM      9  O   UNL     1     106.412  97.334  94.123  1.00  0.00    -0.545 OA
ENDBRANCH   1   7
BRANCH   4  10
ATOM     10  O   UNL     1     111.549 100.709  93.915  1.00  0.00    -0.504 OA
ATOM     11  H   UNL     1     112.476 100.789  94.317  1.00  0.00     0.293 HD
ENDBRANCH   4  10
BRANCH   5  12
ATOM     12  O   UNL     1     111.377  95.875  94.081  1.00  0.00    -0.504 OA
ATOM     13  H   UNL     1     111.796  95.483  94.917  1.00  0.00     0.293 HD
ENDBRANCH   5  12
BRANCH   6  14
ATOM     14  O   UNL     1     112.856  98.267  93.876  1.00  0.00    -0.502 OA
ATOM     15  H   UNL     1     113.439  99.039  94.176  1.00  0.00     0.293 HD
ENDBRANCH   6  14
TORSDOF 4
ENDMDL
MODEL 5
REMARK VINA RESULT:    -3.401      1.128      4.008
REMARK INTER + INTRA:          -3.951
REMARK INTER:                  -3.899
REMARK INTRA:                  -0.052
REMARK UNBOUND:                -0.053
REMARK SMILES O=C([O-])c1cc(O)c(O)c(O)c1
REMARK SMILES IDX 4 1 5 2 12 3 6 4 10 5 8 6 2 7 1 8 3 9 7 10 11 12 9 14
REMARK H PARENT 7 11 11 13 9 15
REMARK Flexibility Score: inf
ROOT
ATOM      1  C   UNL     1     108.557  98.241  94.246  1.00  0.00     0.005 A 
ATOM      2  C   UNL     1     109.293  97.045  94.294  1.00  0.00     0.060 A 
ATOM      3  C   UNL     1     109.244  99.460  94.108  1.00  0.00     0.060 A 
ATOM      4  C   UNL     1     110.692  97.065  94.206  1.00  0.00     0.162 A 
ATOM      5  C   UNL     1     110.643  99.485  94.019  1.00  0.00     0.162 A 
ATOM      6  C   UNL     1     111.369  98.284  94.068  1.00  0.00     0.200 A 
ENDROOT
BRANCH   1   7
ATOM      7  C   UNL     1     107.080  98.213  94.340  1.00  0.00     0.072 C 
ATOM      8  O   UNL     1     106.438  99.254  94.643  1.00  0.00    -0.545 OA
ATOM      9  O   UNL     1     106.380  97.037  94.096  1.00  0.00    -0.545 OA
ENDBRANCH   1   7
BRANCH   4  10
ATOM     10  O   UNL     1     111.417  95.876  94.254  1.00  0.00    -0.504 OA
ATOM     11  H   UNL     1     112.313  95.819  94.725  1.00  0.00     0.293 HD
ENDBRANCH   4  10
BRANCH   5  12
ATOM     12  O   UNL     1     111.314 100.700  93.883  1.00  0.00    -0.504 OA
ATOM     13  H   UNL     1     110.823 101.553  93.639  1.00  0.00     0.293 HD
ENDBRANCH   5  12
BRANCH   6  14
ATOM     14  O   UNL     1     112.761  98.283  93.982  1.00  0.00    -0.502 OA
ATOM     15  H   UNL     1     113.336  98.895  94.548  1.00  0.00     0.293 HD
ENDBRANCH   6  14
TORSDOF 4
ENDMDL
MODEL 6
REMARK VINA RESULT:    -3.021     14.959     16.426
REMARK INTER + INTRA:          -3.515
REMARK INTER:                  -3.462
REMARK INTRA:                  -0.052
REMARK UNBOUND:                -0.053
REMARK SMILES O=C([O-])c1cc(O)c(O)c(O)c1
REMARK SMILES IDX 4 1 5 2 12 3 6 4 10 5 8 6 2 7 1 8 3 9 7 10 11 12 9 14
REMARK H PARENT 7 11 11 13 9 15
REMARK Flexibility Score: inf
ROOT
ATOM      1  C   UNL     1     103.315 113.892  94.150  1.00  0.00     0.005 A 
ATOM      2  C   UNL     1     103.184 112.497  94.059  1.00  0.00     0.060 A 
ATOM      3  C   UNL     1     102.157 114.688  94.149  1.00  0.00     0.060 A 
ATOM      4  C   UNL     1     101.916 111.904  93.968  1.00  0.00     0.162 A 
ATOM      5  C   UNL     1     100.887 114.101  94.057  1.00  0.00     0.162 A 
ATOM      6  C   UNL     1     100.766 112.705  93.967  1.00  0.00     0.200 A 
ENDROOT
BRANCH   1   7
ATOM      7  C   UNL     1     104.656 114.511  94.246  1.00  0.00     0.072 C 
ATOM      8  O   UNL     1     104.803 115.750  94.070  1.00  0.00    -0.545 OA
ATOM      9  O   UNL     1     105.773 113.734  94.531  1.00  0.00    -0.545 OA
ENDBRANCH   1   7
BRANCH   4  10
ATOM     10  O   UNL     1     101.792 110.519  93.878  1.00  0.00    -0.504 OA
ATOM     11  H   UNL     1     101.401 110.073  93.055  1.00  0.00     0.293 HD
ENDBRANCH   4  10
BRANCH   5  12
ATOM     12  O   UNL     1      99.744 114.900  94.057  1.00  0.00    -0.504 OA
ATOM     13  H   UNL     1      98.816 114.501  93.969  1.00  0.00     0.293 HD
ENDBRANCH   5  12
BRANCH   6  14
ATOM     14  O   UNL     1      99.514 112.096  93.875  1.00  0.00    -0.502 OA
ATOM     15  H   UNL     1      99.202 111.631  93.031  1.00  0.00     0.293 HD
ENDBRANCH   6  14
TORSDOF 4
ENDMDL
MODEL 7
REMARK VINA RESULT:    -2.928     14.965     16.591
REMARK INTER + INTRA:          -3.409
REMARK INTER:                  -3.356
REMARK INTRA:                  -0.053
REMARK UNBOUND:                -0.053
REMARK SMILES O=C([O-])c1cc(O)c(O)c(O)c1
REMARK SMILES IDX 4 1 5 2 12 3 6 4 10 5 8 6 2 7 1 8 3 9 7 10 11 12 9 14
REMARK H PARENT 7 11 11 13 9 15
REMARK Flexibility Score: inf
ROOT
ATOM      1  C   UNL     1     103.314 113.903  94.164  1.00  0.00     0.005 A 
ATOM      2  C   UNL     1     102.148 114.685  94.211  1.00  0.00     0.060 A 
ATOM      3  C   UNL     1     103.196 112.507  94.051  1.00  0.00     0.060 A 
ATOM      4  C   UNL     1     100.883 114.083  94.147  1.00  0.00     0.162 A 
ATOM      5  C   UNL     1     101.933 111.901  93.987  1.00  0.00     0.162 A 
ATOM      6  C   UNL     1     100.774 112.691  94.034  1.00  0.00     0.200 A 
ENDROOT
BRANCH   1   7
ATOM      7  C   UNL     1     104.646 114.545  94.233  1.00  0.00     0.072 C 
ATOM      8  O   UNL     1     104.752 115.801  94.248  1.00  0.00    -0.545 OA
ATOM      9  O   UNL     1     105.800 113.772  94.280  1.00  0.00    -0.545 OA
ENDBRANCH   1   7
BRANCH   4  10
ATOM     10  O   UNL     1      99.729 114.863  94.193  1.00  0.00    -0.504 OA
ATOM     11  H   UNL     1      99.047 114.758  94.936  1.00  0.00     0.293 HD
ENDBRANCH   4  10
BRANCH   5  12
ATOM     12  O   UNL     1     101.828 110.514  93.875  1.00  0.00    -0.504 OA
ATOM     13  H   UNL     1     101.958 110.042  92.988  1.00  0.00     0.293 HD
ENDBRANCH   5  12
BRANCH   6  14
ATOM     14  O   UNL     1      99.507 112.111  93.972  1.00  0.00    -0.502 OA
ATOM     15  H   UNL     1      98.871 112.287  93.202  1.00  0.00     0.293 HD
ENDBRANCH   6  14
TORSDOF 4
ENDMDL
