MODEL 1
REMARK VINA RESULT:     2.149      0.000      0.000
REMARK INTER + INTRA:           2.212
REMARK INTER:                   2.212
REMARK INTRA:                   0.000
REMARK UNBOUND:                 0.000
REMARK SMILES Cc1cccc(O)c1C
REMARK SMILES IDX 1 1 2 2 8 3 6 4 5 5 4 6 3 7 9 8 7 9
REMARK H PARENT 7 10
REMARK Flexibility Score: inf
ROOT
ATOM      1  C   UNL     1      -2.947  61.111  21.323  1.00  0.00     0.045 C 
ATOM      2  C   UNL     1      -3.002  59.768  22.006  1.00  0.00    -0.045 A 
ATOM      3  C   UNL     1      -3.037  59.641  23.424  1.00  0.00    -0.006 A 
ATOM      4  C   UNL     1      -3.088  58.345  23.997  1.00  0.00     0.118 A 
ATOM      5  C   UNL     1      -3.103  57.215  23.175  1.00  0.00     0.046 A 
ATOM      6  C   UNL     1      -3.069  57.346  21.790  1.00  0.00     0.004 A 
ATOM      7  C   UNL     1      -3.019  58.610  21.208  1.00  0.00     0.004 A 
ATOM      8  C   UNL     1      -3.021  60.850  24.331  1.00  0.00     0.048 C 
ENDROOT
BRANCH   4   9
ATOM      9  O   UNL     1      -3.125  58.145  25.380  1.00  0.00    -0.508 OA
ATOM     10  H   UNL     1      -3.504  58.819  26.032  1.00  0.00     0.293 HD
ENDBRANCH   4   9
TORSDOF 1
ENDMDL
MODEL 2
REMARK VINA RESULT:     3.677      1.721      2.759
REMARK INTER + INTRA:           3.784
REMARK INTER:                   3.784
REMARK INTRA:                   0.000
REMARK UNBOUND:                 0.000
REMARK SMILES Cc1cccc(O)c1C
REMARK SMILES IDX 1 1 2 2 8 3 6 4 5 5 4 6 3 7 9 8 7 9
REMARK H PARENT 7 10
REMARK Flexibility Score: inf
ROOT
ATOM      1  C   UNL     1      -3.076  61.121  24.641  1.00  0.00     0.045 C 
ATOM      2  C   UNL     1      -3.016  59.779  23.956  1.00  0.00    -0.045 A 
ATOM      3  C   UNL     1      -2.856  59.656  22.547  1.00  0.00    -0.006 A 
ATOM      4  C   UNL     1      -2.808  58.362  21.971  1.00  0.00     0.118 A 
ATOM      5  C   UNL     1      -2.917  57.229  22.783  1.00  0.00     0.046 A 
ATOM      6  C   UNL     1      -3.073  57.356  24.160  1.00  0.00     0.004 A 
ATOM      7  C   UNL     1      -3.122  58.620  24.744  1.00  0.00     0.004 A 
ATOM      8  C   UNL     1      -2.737  60.869  21.651  1.00  0.00     0.048 C 
ENDROOT
BRANCH   4   9
ATOM      9  O   UNL     1      -2.652  58.165  20.596  1.00  0.00    -0.508 OA
ATOM     10  H   UNL     1      -2.381  58.898  19.954  1.00  0.00     0.293 HD
ENDBRANCH   4   9
TORSDOF 1
ENDMDL
MODEL 3
REMARK VINA RESULT:     5.082      1.647      3.304
REMARK INTER + INTRA:           5.230
REMARK INTER:                   5.230
REMARK INTRA:                   0.000
REMARK UNBOUND:                 0.000
REMARK SMILES Cc1cccc(O)c1C
REMARK SMILES IDX 1 1 2 2 8 3 6 4 5 5 4 6 3 7 9 8 7 9
REMARK H PARENT 7 10
REMARK Flexibility Score: inf
ROOT
ATOM      1  C   UNL     1      -2.988  59.859  25.944  1.00  0.00     0.045 C 
ATOM      2  C   UNL     1      -3.000  59.846  24.437  1.00  0.00    -0.045 A 
ATOM      3  C   UNL     1      -3.059  58.635  23.691  1.00  0.00    -0.006 A 
ATOM      4  C   UNL     1      -3.067  58.699  22.275  1.00  0.00     0.118 A 
ATOM      5  C   UNL     1      -3.018  59.938  21.629  1.00  0.00     0.046 A 
ATOM      6  C   UNL     1      -2.960  61.118  22.364  1.00  0.00     0.004 A 
ATOM      7  C   UNL     1      -2.951  61.075  23.756  1.00  0.00     0.004 A 
ATOM      8  C   UNL     1      -3.113  57.285  24.370  1.00  0.00     0.048 C 
ENDROOT
BRANCH   4   9
ATOM      9  O   UNL     1      -3.124  57.552  21.479  1.00  0.00    -0.508 OA
ATOM     10  H   UNL     1      -2.311  57.125  21.055  1.00  0.00     0.293 HD
ENDBRANCH   4   9
TORSDOF 1
ENDMDL
