MODEL 1
REMARK VINA RESULT:    -5.887      0.000      0.000
REMARK INTER + INTRA:          -7.835
REMARK INTER:                  -7.264
REMARK INTRA:                  -0.571
REMARK UNBOUND:                -0.571
REMARK SMILES COc1ccc(-c2cc3cc(O)c(OC)cc3o2)c(O)c1
REMARK SMILES IDX 7 1 8 2 9 3 10 4 11 5 13 6 16 7 17 8 18 9 6 10 3 11 21 12
REMARK SMILES IDX 4 13 19 14 5 15 2 16 1 17 20 18 12 20 14 22 15 23
REMARK H PARENT 20 19 12 21
REMARK Flexibility Score: inf
ROOT
ATOM      1  C   UNL     1     -12.907  23.452  -8.385  1.00  0.00     0.139 A 
ATOM      2  C   UNL     1     -13.634  22.258  -8.410  1.00  0.00     0.060 A 
ATOM      3  C   UNL     1     -14.944  22.653  -8.272  1.00  0.00     0.025 A 
ATOM      4  C   UNL     1     -16.117  21.908  -8.221  1.00  0.00     0.062 A 
ATOM      5  C   UNL     1     -17.334  22.600  -8.062  1.00  0.00     0.158 A 
ATOM      6  C   UNL     1     -17.347  24.019  -7.957  1.00  0.00     0.164 A 
ATOM      7  C   UNL     1     -16.126  24.736  -8.012  1.00  0.00     0.098 A 
ATOM      8  C   UNL     1     -14.947  24.014  -8.169  1.00  0.00     0.138 A 
ATOM      9  O   UNL     1     -13.724  24.480  -8.234  1.00  0.00    -0.456 OA
ENDROOT
BRANCH   1  10
ATOM     10  C   UNL     1     -11.434  23.600  -8.476  1.00  0.00     0.059 A 
ATOM     11  C   UNL     1      -8.619  23.766  -8.651  1.00  0.00     0.122 A 
ATOM     12  C   UNL     1      -9.407  24.931  -8.719  1.00  0.00     0.093 A 
ATOM     13  C   UNL     1      -9.247  22.530  -8.482  1.00  0.00     0.047 A 
ATOM     14  C   UNL     1     -10.805  24.855  -8.622  1.00  0.00     0.130 A 
ATOM     15  C   UNL     1     -10.638  22.445  -8.391  1.00  0.00     0.020 A 
BRANCH  11  16
ATOM     16  O   UNL     1      -7.220  23.797  -8.742  1.00  0.00    -0.497 OA
ATOM     17  C   UNL     1      -6.452  24.980  -8.935  1.00  0.00     0.278 C 
ENDBRANCH  11  16
BRANCH  14  18
ATOM     18  O   UNL     1     -11.556  26.030  -8.647  1.00  0.00    -0.507 OA
ATOM     19  H   UNL     1     -11.234  26.859  -9.133  1.00  0.00     0.293 HD
ENDBRANCH  14  18
ENDBRANCH   1  10
BRANCH   5  20
ATOM     20  O   UNL     1     -18.519  21.867  -8.010  1.00  0.00    -0.504 OA
ATOM     21  H   UNL     1     -19.303  22.150  -7.437  1.00  0.00     0.293 HD
ENDBRANCH   5  20
BRANCH   6  22
ATOM     22  O   UNL     1     -18.580  24.673  -7.801  1.00  0.00    -0.493 OA
ATOM     23  C   UNL     1     -18.874  25.597  -6.758  1.00  0.00     0.278 C 
ENDBRANCH   6  22
TORSDOF 5
ENDMDL
MODEL 2
REMARK VINA RESULT:    -5.651      1.656      7.988
REMARK INTER + INTRA:          -7.543
REMARK INTER:                  -6.967
REMARK INTRA:                  -0.576
REMARK UNBOUND:                -0.571
REMARK SMILES COc1ccc(-c2cc3cc(O)c(OC)cc3o2)c(O)c1
REMARK SMILES IDX 7 1 8 2 9 3 10 4 11 5 13 6 16 7 17 8 18 9 6 10 3 11 21 12
REMARK SMILES IDX 4 13 19 14 5 15 2 16 1 17 20 18 12 20 14 22 15 23
REMARK H PARENT 20 19 12 21
REMARK Flexibility Score: inf
ROOT
ATOM      1  C   UNL     1     -14.282  23.279  -8.459  1.00  0.00     0.139 A 
ATOM      2  C   UNL     1     -13.592  24.491  -8.377  1.00  0.00     0.060 A 
ATOM      3  C   UNL     1     -12.266  24.128  -8.356  1.00  0.00     0.025 A 
ATOM      4  C   UNL     1     -11.113  24.902  -8.275  1.00  0.00     0.062 A 
ATOM      5  C   UNL     1      -9.870  24.238  -8.265  1.00  0.00     0.158 A 
ATOM      6  C   UNL     1      -9.811  22.818  -8.334  1.00  0.00     0.164 A 
ATOM      7  C   UNL     1     -11.013  22.071  -8.411  1.00  0.00     0.098 A 
ATOM      8  C   UNL     1     -12.218  22.766  -8.419  1.00  0.00     0.138 A 
ATOM      9  O   UNL     1     -13.429  22.268  -8.476  1.00  0.00    -0.456 OA
ENDROOT
BRANCH   1  10
ATOM     10  C   UNL     1     -15.753  23.091  -8.491  1.00  0.00     0.059 A 
ATOM     11  C   UNL     1     -18.567  22.849  -8.539  1.00  0.00     0.122 A 
ATOM     12  C   UNL     1     -17.753  21.728  -8.785  1.00  0.00     0.093 A 
ATOM     13  C   UNL     1     -17.967  24.078  -8.258  1.00  0.00     0.047 A 
ATOM     14  C   UNL     1     -16.354  21.840  -8.752  1.00  0.00     0.130 A 
ATOM     15  C   UNL     1     -16.576  24.200  -8.229  1.00  0.00     0.020 A 
BRANCH  11  16
ATOM     16  O   UNL     1     -19.968  22.780  -8.561  1.00  0.00    -0.497 OA
ATOM     17  C   UNL     1     -20.713  21.722  -9.153  1.00  0.00     0.278 C 
ENDBRANCH  11  16
BRANCH  14  18
ATOM     18  O   UNL     1     -15.572  20.703  -8.954  1.00  0.00    -0.507 OA
ATOM     19  H   UNL     1     -15.665  19.881  -8.369  1.00  0.00     0.293 HD
ENDBRANCH  14  18
ENDBRANCH   1  10
BRANCH   5  20
ATOM     20  O   UNL     1      -8.705  25.001  -8.186  1.00  0.00    -0.504 OA
ATOM     21  H   UNL     1      -7.785  24.580  -8.178  1.00  0.00     0.293 HD
ENDBRANCH   5  20
BRANCH   6  22
ATOM     22  O   UNL     1      -8.553  22.194  -8.321  1.00  0.00    -0.493 OA
ATOM     23  C   UNL     1      -8.103  21.311  -7.300  1.00  0.00     0.278 C 
ENDBRANCH   6  22
TORSDOF 5
ENDMDL
MODEL 3
REMARK VINA RESULT:    -5.402      1.665      8.294
REMARK INTER + INTRA:          -7.236
REMARK INTER:                  -6.688
REMARK INTRA:                  -0.549
REMARK UNBOUND:                -0.571
REMARK SMILES COc1ccc(-c2cc3cc(O)c(OC)cc3o2)c(O)c1
REMARK SMILES IDX 7 1 8 2 9 3 10 4 11 5 13 6 16 7 17 8 18 9 6 10 3 11 21 12
REMARK SMILES IDX 4 13 19 14 5 15 2 16 1 17 20 18 12 20 14 22 15 23
REMARK H PARENT 20 19 12 21
REMARK Flexibility Score: inf
ROOT
ATOM      1  C   UNL     1     -10.220  23.702  -8.646  1.00  0.00     0.139 A 
ATOM      2  C   UNL     1      -9.373  22.595  -8.535  1.00  0.00     0.060 A 
ATOM      3  C   UNL     1      -8.119  23.098  -8.787  1.00  0.00     0.025 A 
ATOM      4  C   UNL     1      -6.878  22.470  -8.825  1.00  0.00     0.062 A 
ATOM      5  C   UNL     1      -5.748  23.256  -9.124  1.00  0.00     0.158 A 
ATOM      6  C   UNL     1      -5.886  24.649  -9.380  1.00  0.00     0.164 A 
ATOM      7  C   UNL     1      -7.171  25.245  -9.334  1.00  0.00     0.098 A 
ATOM      8  C   UNL     1      -8.261  24.433  -9.035  1.00  0.00     0.138 A 
ATOM      9  O   UNL     1      -9.521  24.782  -8.952  1.00  0.00    -0.456 OA
ENDROOT
BRANCH   1  10
ATOM     10  C   UNL     1     -11.695  23.714  -8.489  1.00  0.00     0.059 A 
ATOM     11  C   UNL     1     -14.499  23.628  -8.159  1.00  0.00     0.122 A 
ATOM     12  C   UNL     1     -13.853  24.846  -8.441  1.00  0.00     0.093 A 
ATOM     13  C   UNL     1     -13.737  22.462  -8.058  1.00  0.00     0.047 A 
ATOM     14  C   UNL     1     -12.462  24.893  -8.617  1.00  0.00     0.130 A 
ATOM     15  C   UNL     1     -12.351  22.500  -8.225  1.00  0.00     0.020 A 
BRANCH  11  16
ATOM     16  O   UNL     1     -15.887  23.536  -7.978  1.00  0.00    -0.497 OA
ATOM     17  C   UNL     1     -16.800  24.605  -8.201  1.00  0.00     0.278 C 
ENDBRANCH  11  16
BRANCH  14  18
ATOM     18  O   UNL     1     -11.855  26.107  -8.941  1.00  0.00    -0.507 OA
ATOM     19  H   UNL     1     -11.704  26.387  -9.903  1.00  0.00     0.293 HD
ENDBRANCH  14  18
ENDBRANCH   1  10
BRANCH   5  20
ATOM     20  O   UNL     1      -4.497  22.640  -9.164  1.00  0.00    -0.504 OA
ATOM     21  H   UNL     1      -3.655  23.110  -8.856  1.00  0.00     0.293 HD
ENDBRANCH   5  20
BRANCH   6  22
ATOM     22  O   UNL     1      -4.735  25.398  -9.674  1.00  0.00    -0.493 OA
ATOM     23  C   UNL     1      -4.731  26.798  -9.934  1.00  0.00     0.278 C 
ENDBRANCH   6  22
TORSDOF 5
ENDMDL
MODEL 4
REMARK VINA RESULT:    -5.390      1.795      3.225
REMARK INTER + INTRA:          -7.222
REMARK INTER:                  -6.691
REMARK INTRA:                  -0.531
REMARK UNBOUND:                -0.571
REMARK SMILES COc1ccc(-c2cc3cc(O)c(OC)cc3o2)c(O)c1
REMARK SMILES IDX 7 1 8 2 9 3 10 4 11 5 13 6 16 7 17 8 18 9 6 10 3 11 21 12
REMARK SMILES IDX 4 13 19 14 5 15 2 16 1 17 20 18 12 20 14 22 15 23
REMARK H PARENT 20 19 12 21
REMARK Flexibility Score: inf
ROOT
ATOM      1  C   UNL     1     -10.827  24.228  -8.713  1.00  0.00     0.139 A 
ATOM      2  C   UNL     1     -11.780  25.186  -8.356  1.00  0.00     0.060 A 
ATOM      3  C   UNL     1     -12.957  24.481  -8.265  1.00  0.00     0.025 A 
ATOM      4  C   UNL     1     -14.246  24.899  -7.952  1.00  0.00     0.062 A 
ATOM      5  C   UNL     1     -15.271  23.933  -7.944  1.00  0.00     0.158 A 
ATOM      6  C   UNL     1     -14.983  22.574  -8.251  1.00  0.00     0.164 A 
ATOM      7  C   UNL     1     -13.655  22.194  -8.567  1.00  0.00     0.098 A 
ATOM      8  C   UNL     1     -12.672  23.179  -8.564  1.00  0.00     0.138 A 
ATOM      9  O   UNL     1     -11.397  23.041  -8.833  1.00  0.00    -0.456 OA
ENDROOT
BRANCH   1  10
ATOM     10  C   UNL     1      -9.384  24.457  -8.964  1.00  0.00     0.059 A 
ATOM     11  C   UNL     1      -6.662  24.988  -9.506  1.00  0.00     0.122 A 
ATOM     12  C   UNL     1      -7.023  23.957  -8.619  1.00  0.00     0.093 A 
ATOM     13  C   UNL     1      -7.667  25.735 -10.125  1.00  0.00     0.047 A 
ATOM     14  C   UNL     1      -8.374  23.682  -8.354  1.00  0.00     0.130 A 
ATOM     15  C   UNL     1      -9.013  25.472  -9.863  1.00  0.00     0.020 A 
BRANCH  11  16
ATOM     16  O   UNL     1      -5.326  25.295  -9.800  1.00  0.00    -0.497 OA
ATOM     17  C   UNL     1      -4.213  24.497  -9.412  1.00  0.00     0.278 C 
ENDBRANCH  11  16
BRANCH  14  18
ATOM     18  O   UNL     1      -8.702  22.625  -7.505  1.00  0.00    -0.507 OA
ATOM     19  H   UNL     1      -8.494  21.663  -7.746  1.00  0.00     0.293 HD
ENDBRANCH  14  18
ENDBRANCH   1  10
BRANCH   5  20
ATOM     20  O   UNL     1     -16.569  24.338  -7.631  1.00  0.00    -0.504 OA
ATOM     21  H   UNL     1     -17.374  23.750  -7.807  1.00  0.00     0.293 HD
ENDBRANCH   5  20
BRANCH   6  22
ATOM     22  O   UNL     1     -16.032  21.641  -8.232  1.00  0.00    -0.493 OA
ATOM     23  C   UNL     1     -16.983  21.478  -9.279  1.00  0.00     0.278 C 
ENDBRANCH   6  22
TORSDOF 5
ENDMDL
MODEL 5
REMARK VINA RESULT:    -5.364      1.288      2.437
REMARK INTER + INTRA:          -7.189
REMARK INTER:                  -6.580
REMARK INTRA:                  -0.609
REMARK UNBOUND:                -0.571
REMARK SMILES COc1ccc(-c2cc3cc(O)c(OC)cc3o2)c(O)c1
REMARK SMILES IDX 7 1 8 2 9 3 10 4 11 5 13 6 16 7 17 8 18 9 6 10 3 11 21 12
REMARK SMILES IDX 4 13 19 14 5 15 2 16 1 17 20 18 12 20 14 22 15 23
REMARK H PARENT 20 19 12 21
REMARK Flexibility Score: inf
ROOT
ATOM      1  C   UNL     1     -12.472  23.831  -8.459  1.00  0.00     0.139 A 
ATOM      2  C   UNL     1     -13.345  24.873  -8.134  1.00  0.00     0.060 A 
ATOM      3  C   UNL     1     -14.589  24.289  -8.129  1.00  0.00     0.025 A 
ATOM      4  C   UNL     1     -15.847  24.828  -7.881  1.00  0.00     0.062 A 
ATOM      5  C   UNL     1     -16.962  23.971  -7.957  1.00  0.00     0.158 A 
ATOM      6  C   UNL     1     -16.792  22.596  -8.282  1.00  0.00     0.164 A 
ATOM      7  C   UNL     1     -15.492  22.091  -8.530  1.00  0.00     0.098 A 
ATOM      8  C   UNL     1     -14.418  22.972  -8.444  1.00  0.00     0.138 A 
ATOM      9  O   UNL     1     -13.149  22.711  -8.643  1.00  0.00    -0.456 OA
ENDROOT
BRANCH   1  10
ATOM     10  C   UNL     1     -11.001  23.919  -8.621  1.00  0.00     0.059 A 
ATOM     11  C   UNL     1      -8.209  24.200  -8.950  1.00  0.00     0.122 A 
ATOM     12  C   UNL     1      -8.756  22.974  -8.527  1.00  0.00     0.093 A 
ATOM     13  C   UNL     1      -9.065  25.270  -9.217  1.00  0.00     0.047 A 
ATOM     14  C   UNL     1     -10.143  22.825  -8.372  1.00  0.00     0.130 A 
ATOM     15  C   UNL     1     -10.446  25.133  -9.060  1.00  0.00     0.020 A 
BRANCH  11  16
ATOM     16  O   UNL     1      -6.830  24.390  -9.119  1.00  0.00    -0.497 OA
ATOM     17  C   UNL     1      -6.211  25.656  -9.321  1.00  0.00     0.278 C 
ENDBRANCH  11  16
BRANCH  14  18
ATOM     18  O   UNL     1     -10.660  21.585  -7.996  1.00  0.00    -0.507 OA
ATOM     19  H   UNL     1     -10.244  20.717  -8.312  1.00  0.00     0.293 HD
ENDBRANCH  14  18
ENDBRANCH   1  10
BRANCH   5  20
ATOM     20  O   UNL     1     -18.229  24.498  -7.709  1.00  0.00    -0.504 OA
ATOM     21  H   UNL     1     -18.451  24.987  -6.852  1.00  0.00     0.293 HD
ENDBRANCH   5  20
BRANCH   6  22
ATOM     22  O   UNL     1     -17.928  21.773  -8.348  1.00  0.00    -0.493 OA
ATOM     23  C   UNL     1     -18.650  21.491  -9.542  1.00  0.00     0.278 C 
ENDBRANCH   6  22
TORSDOF 5
ENDMDL
MODEL 6
REMARK VINA RESULT:    -5.324      1.347      7.739
REMARK INTER + INTRA:          -7.140
REMARK INTER:                  -6.530
REMARK INTRA:                  -0.610
REMARK UNBOUND:                -0.571
REMARK SMILES COc1ccc(-c2cc3cc(O)c(OC)cc3o2)c(O)c1
REMARK SMILES IDX 7 1 8 2 9 3 10 4 11 5 13 6 16 7 17 8 18 9 6 10 3 11 21 12
REMARK SMILES IDX 4 13 19 14 5 15 2 16 1 17 20 18 12 20 14 22 15 23
REMARK H PARENT 20 19 12 21
REMARK Flexibility Score: inf
ROOT
ATOM      1  C   UNL     1     -12.302  23.226  -8.501  1.00  0.00     0.139 A 
ATOM      2  C   UNL     1     -11.436  22.137  -8.632  1.00  0.00     0.060 A 
ATOM      3  C   UNL     1     -10.181  22.697  -8.641  1.00  0.00     0.025 A 
ATOM      4  C   UNL     1      -8.924  22.111  -8.754  1.00  0.00     0.062 A 
ATOM      5  C   UNL     1      -7.797  22.956  -8.739  1.00  0.00     0.158 A 
ATOM      6  C   UNL     1      -7.954  24.364  -8.614  1.00  0.00     0.164 A 
ATOM      7  C   UNL     1      -9.254  24.917  -8.505  1.00  0.00     0.098 A 
ATOM      8  C   UNL     1     -10.340  24.048  -8.524  1.00  0.00     0.138 A 
ATOM      9  O   UNL     1     -11.612  24.352  -8.445  1.00  0.00    -0.456 OA
ENDROOT
BRANCH   1  10
ATOM     10  C   UNL     1     -13.784  23.186  -8.460  1.00  0.00     0.059 A 
ATOM     11  C   UNL     1     -16.600  23.010  -8.325  1.00  0.00     0.122 A 
ATOM     12  C   UNL     1     -15.984  24.166  -8.839  1.00  0.00     0.093 A 
ATOM     13  C   UNL     1     -15.802  21.948  -7.895  1.00  0.00     0.047 A 
ATOM     14  C   UNL     1     -14.585  24.255  -8.919  1.00  0.00     0.130 A 
ATOM     15  C   UNL     1     -14.410  22.030  -7.964  1.00  0.00     0.020 A 
BRANCH  11  16
ATOM     16  O   UNL     1     -17.994  22.879  -8.229  1.00  0.00    -0.497 OA
ATOM     17  C   UNL     1     -18.732  21.764  -8.715  1.00  0.00     0.278 C 
ENDBRANCH  11  16
BRANCH  14  18
ATOM     18  O   UNL     1     -14.004  25.394  -9.476  1.00  0.00    -0.507 OA
ATOM     19  H   UNL     1     -13.753  26.196  -8.909  1.00  0.00     0.293 HD
ENDBRANCH  14  18
ENDBRANCH   1  10
BRANCH   5  20
ATOM     20  O   UNL     1      -6.530  22.383  -8.850  1.00  0.00    -0.504 OA
ATOM     21  H   UNL     1      -6.295  21.735  -9.592  1.00  0.00     0.293 HD
ENDBRANCH   5  20
BRANCH   6  22
ATOM     22  O   UNL     1      -6.805  25.173  -8.603  1.00  0.00    -0.493 OA
ATOM     23  C   UNL     1      -6.298  25.866  -9.738  1.00  0.00     0.278 C 
ENDBRANCH   6  22
TORSDOF 5
ENDMDL
MODEL 7
REMARK VINA RESULT:    -5.262      1.983      8.619
REMARK INTER + INTRA:          -7.064
REMARK INTER:                  -6.461
REMARK INTRA:                  -0.603
REMARK UNBOUND:                -0.571
REMARK SMILES COc1ccc(-c2cc3cc(O)c(OC)cc3o2)c(O)c1
REMARK SMILES IDX 7 1 8 2 9 3 10 4 11 5 13 6 16 7 17 8 18 9 6 10 3 11 21 12
REMARK SMILES IDX 4 13 19 14 5 15 2 16 1 17 20 18 12 20 14 22 15 23
REMARK H PARENT 20 19 12 21
REMARK Flexibility Score: inf
ROOT
ATOM      1  C   UNL     1     -10.229  23.864  -8.765  1.00  0.00     0.139 A 
ATOM      2  C   UNL     1      -9.417  24.999  -8.696  1.00  0.00     0.060 A 
ATOM      3  C   UNL     1      -8.139  24.516  -8.854  1.00  0.00     0.025 A 
ATOM      4  C   UNL     1      -6.914  25.173  -8.866  1.00  0.00     0.062 A 
ATOM      5  C   UNL     1      -5.750  24.399  -9.042  1.00  0.00     0.158 A 
ATOM      6  C   UNL     1      -5.840  22.988  -9.198  1.00  0.00     0.164 A 
ATOM      7  C   UNL     1      -7.111  22.361  -9.175  1.00  0.00     0.098 A 
ATOM      8  C   UNL     1      -8.235  23.162  -8.999  1.00  0.00     0.138 A 
ATOM      9  O   UNL     1      -9.488  22.783  -8.941  1.00  0.00    -0.456 OA
ENDROOT
BRANCH   1  10
ATOM     10  C   UNL     1     -11.705  23.815  -8.632  1.00  0.00     0.059 A 
ATOM     11  C   UNL     1     -14.515  23.829  -8.337  1.00  0.00     0.122 A 
ATOM     12  C   UNL     1     -13.872  22.753  -8.976  1.00  0.00     0.093 A 
ATOM     13  C   UNL     1     -13.745  24.883  -7.840  1.00  0.00     0.047 A 
ATOM     14  C   UNL     1     -12.476  22.735  -9.116  1.00  0.00     0.130 A 
ATOM     15  C   UNL     1     -12.355  24.877  -7.981  1.00  0.00     0.020 A 
BRANCH  11  16
ATOM     16  O   UNL     1     -15.907  23.886  -8.175  1.00  0.00    -0.497 OA
ATOM     17  C   UNL     1     -16.632  25.070  -7.860  1.00  0.00     0.278 C 
ENDBRANCH  11  16
BRANCH  14  18
ATOM     18  O   UNL     1     -11.863  21.633  -9.712  1.00  0.00    -0.507 OA
ATOM     19  H   UNL     1     -12.307  21.117 -10.462  1.00  0.00     0.293 HD
ENDBRANCH  14  18
ENDBRANCH   1  10
BRANCH   5  20
ATOM     20  O   UNL     1      -4.514  25.045  -9.058  1.00  0.00    -0.504 OA
ATOM     21  H   UNL     1      -4.177  25.585  -8.271  1.00  0.00     0.293 HD
ENDBRANCH   5  20
BRANCH   6  22
ATOM     22  O   UNL     1      -4.657  22.252  -9.371  1.00  0.00    -0.493 OA
ATOM     23  C   UNL     1      -4.117  21.357  -8.404  1.00  0.00     0.278 C 
ENDBRANCH   6  22
TORSDOF 5
ENDMDL
MODEL 8
REMARK VINA RESULT:    -5.196      2.263      3.544
REMARK INTER + INTRA:          -6.982
REMARK INTER:                  -6.382
REMARK INTRA:                  -0.600
REMARK UNBOUND:                -0.571
REMARK SMILES COc1ccc(-c2cc3cc(O)c(OC)cc3o2)c(O)c1
REMARK SMILES IDX 7 1 8 2 9 3 10 4 11 5 13 6 16 7 17 8 18 9 6 10 3 11 21 12
REMARK SMILES IDX 4 13 19 14 5 15 2 16 1 17 20 18 12 20 14 22 15 23
REMARK H PARENT 20 19 12 21
REMARK Flexibility Score: inf
ROOT
ATOM      1  C   UNL     1     -16.278  23.117  -8.740  1.00  0.00     0.139 A 
ATOM      2  C   UNL     1     -16.980  21.911  -8.651  1.00  0.00     0.060 A 
ATOM      3  C   UNL     1     -18.297  22.269  -8.816  1.00  0.00     0.025 A 
ATOM      4  C   UNL     1     -19.455  21.499  -8.816  1.00  0.00     0.062 A 
ATOM      5  C   UNL     1     -20.687  22.156  -9.004  1.00  0.00     0.158 A 
ATOM      6  C   UNL     1     -20.730  23.567  -9.184  1.00  0.00     0.164 A 
ATOM      7  C   UNL     1     -19.524  24.311  -9.172  1.00  0.00     0.098 A 
ATOM      8  C   UNL     1     -18.330  23.623  -8.984  1.00  0.00     0.138 A 
ATOM      9  O   UNL     1     -17.118  24.120  -8.933  1.00  0.00    -0.456 OA
ENDROOT
BRANCH   1  10
ATOM     10  C   UNL     1     -14.814  23.307  -8.609  1.00  0.00     0.059 A 
ATOM     11  C   UNL     1     -12.007  23.585  -8.436  1.00  0.00     0.122 A 
ATOM     12  C   UNL     1     -12.854  24.495  -7.777  1.00  0.00     0.093 A 
ATOM     13  C   UNL     1     -12.572  22.536  -9.165  1.00  0.00     0.047 A 
ATOM     14  C   UNL     1     -14.249  24.356  -7.851  1.00  0.00     0.130 A 
ATOM     15  C   UNL     1     -13.959  22.393  -9.248  1.00  0.00     0.020 A 
BRANCH  11  16
ATOM     16  O   UNL     1     -10.609  23.686  -8.388  1.00  0.00    -0.497 OA
ATOM     17  C   UNL     1      -9.896  24.910  -8.244  1.00  0.00     0.278 C 
ENDBRANCH  11  16
BRANCH  14  18
ATOM     18  O   UNL     1     -15.062  25.247  -7.150  1.00  0.00    -0.507 OA
ATOM     19  H   UNL     1     -14.692  26.095  -6.737  1.00  0.00     0.293 HD
ENDBRANCH  14  18
ENDBRANCH   1  10
BRANCH   5  20
ATOM     20  O   UNL     1     -21.856  21.396  -9.009  1.00  0.00    -0.504 OA
ATOM     21  H   UNL     1     -22.075  20.747  -9.754  1.00  0.00     0.293 HD
ENDBRANCH   5  20
BRANCH   6  22
ATOM     22  O   UNL     1     -21.978  24.185  -9.368  1.00  0.00    -0.493 OA
ATOM     23  C   UNL     1     -22.251  25.551  -9.071  1.00  0.00     0.278 C 
ENDBRANCH   6  22
TORSDOF 5
ENDMDL
MODEL 9
REMARK VINA RESULT:    -5.136      1.723      7.792
REMARK INTER + INTRA:          -6.908
REMARK INTER:                  -6.316
REMARK INTRA:                  -0.592
REMARK UNBOUND:                -0.571
REMARK SMILES COc1ccc(-c2cc3cc(O)c(OC)cc3o2)c(O)c1
REMARK SMILES IDX 7 1 8 2 9 3 10 4 11 5 13 6 16 7 17 8 18 9 6 10 3 11 21 12
REMARK SMILES IDX 4 13 19 14 5 15 2 16 1 17 20 18 12 20 14 22 15 23
REMARK H PARENT 20 19 12 21
REMARK Flexibility Score: inf
ROOT
ATOM      1  C   UNL     1     -15.057  22.955  -8.653  1.00  0.00     0.139 A 
ATOM      2  C   UNL     1     -14.105  21.974  -8.363  1.00  0.00     0.060 A 
ATOM      3  C   UNL     1     -12.900  22.631  -8.445  1.00  0.00     0.025 A 
ATOM      4  C   UNL     1     -11.600  22.171  -8.265  1.00  0.00     0.062 A 
ATOM      5  C   UNL     1     -10.545  23.091  -8.425  1.00  0.00     0.158 A 
ATOM      6  C   UNL     1     -10.816  24.446  -8.764  1.00  0.00     0.164 A 
ATOM      7  C   UNL     1     -12.157  24.868  -8.942  1.00  0.00     0.098 A 
ATOM      8  C   UNL     1     -13.169  23.928  -8.774  1.00  0.00     0.138 A 
ATOM      9  O   UNL     1     -14.461  24.109  -8.900  1.00  0.00    -0.456 OA
ENDROOT
BRANCH   1  10
ATOM     10  C   UNL     1     -16.527  22.778  -8.723  1.00  0.00     0.059 A 
ATOM     11  C   UNL     1     -19.312  22.331  -8.893  1.00  0.00     0.122 A 
ATOM     12  C   UNL     1     -18.816  23.526  -8.339  1.00  0.00     0.093 A 
ATOM     13  C   UNL     1     -18.411  21.377  -9.369  1.00  0.00     0.047 A 
ATOM     14  C   UNL     1     -17.433  23.758  -8.262  1.00  0.00     0.130 A 
ATOM     15  C   UNL     1     -17.034  21.596  -9.291  1.00  0.00     0.020 A 
BRANCH  11  16
ATOM     16  O   UNL     1     -20.685  22.060  -8.991  1.00  0.00    -0.497 OA
ATOM     17  C   UNL     1     -21.242  20.995  -9.754  1.00  0.00     0.278 C 
ENDBRANCH  11  16
BRANCH  14  18
ATOM     18  O   UNL     1     -16.972  24.970  -7.749  1.00  0.00    -0.507 OA
ATOM     19  H   UNL     1     -16.432  25.616  -8.313  1.00  0.00     0.293 HD
ENDBRANCH  14  18
ENDBRANCH   1  10
BRANCH   5  20
ATOM     20  O   UNL     1      -9.236  22.645  -8.246  1.00  0.00    -0.504 OA
ATOM     21  H   UNL     1      -8.466  23.283  -8.088  1.00  0.00     0.293 HD
ENDBRANCH   5  20
BRANCH   6  22
ATOM     22  O   UNL     1      -9.737  25.332  -8.915  1.00  0.00    -0.493 OA
ATOM     23  C   UNL     1      -9.006  25.511 -10.124  1.00  0.00     0.278 C 
ENDBRANCH   6  22
TORSDOF 5
ENDMDL
