MODEL 1
REMARK VINA RESULT:    -3.295      0.000      0.000
REMARK INTER + INTRA:          -4.660
REMARK INTER:                  -4.258
REMARK INTRA:                  -0.402
REMARK UNBOUND:                -0.402
REMARK SMILES CCCCCCC(=O)[O-]
REMARK SMILES IDX 5 1 6 2 7 3 8 4 9 5 4 6 3 7 2 8 1 9
REMARK H PARENT
REMARK Flexibility Score: inf
ROOT
ATOM      1  C   UNL     1      11.512  62.165   8.097  1.00  0.00     0.006 C 
ENDROOT
BRANCH   1   2
ATOM      2  C   UNL     1      11.092  63.335   8.990  1.00  0.00     0.053 C 
BRANCH   2   3
ATOM      3  C   UNL     1       9.834  63.961   8.477  1.00  0.00     0.041 C 
ATOM      4  O   UNL     1       9.872  65.074   7.891  1.00  0.00    -0.550 OA
ATOM      5  O   UNL     1       8.610  63.338   8.691  1.00  0.00    -0.550 OA
ENDBRANCH   2   3
ENDBRANCH   1   2
BRANCH   1   6
ATOM      6  C   UNL     1      12.622  62.584   7.125  1.00  0.00     0.000 C 
BRANCH   6   7
ATOM      7  C   UNL     1      13.431  63.761   7.691  1.00  0.00    -0.000 C 
BRANCH   7   8
ATOM      8  C   UNL     1      13.645  64.880   6.659  1.00  0.00    -0.003 C 
ATOM      9  C   UNL     1      12.560  64.908   5.583  1.00  0.00     0.004 C 
ENDBRANCH   7   8
ENDBRANCH   6   7
ENDBRANCH   1   6
TORSDOF 5
ENDMDL
MODEL 2
REMARK VINA RESULT:    -3.292      1.650      3.621
REMARK INTER + INTRA:          -4.656
REMARK INTER:                  -4.255
REMARK INTRA:                  -0.401
REMARK UNBOUND:                -0.402
REMARK SMILES CCCCCCC(=O)[O-]
REMARK SMILES IDX 5 1 6 2 7 3 8 4 9 5 4 6 3 7 2 8 1 9
REMARK H PARENT
REMARK Flexibility Score: inf
ROOT
ATOM      1  C   UNL     1      13.281  63.925   7.577  1.00  0.00     0.006 C 
ENDROOT
BRANCH   1   2
ATOM      2  C   UNL     1      13.567  64.924   6.452  1.00  0.00     0.053 C 
BRANCH   2   3
ATOM      3  C   UNL     1      12.325  65.195   5.663  1.00  0.00     0.041 C 
ATOM      4  O   UNL     1      11.290  65.624   6.237  1.00  0.00    -0.550 OA
ATOM      5  O   UNL     1      12.295  64.927   4.300  1.00  0.00    -0.550 OA
ENDBRANCH   2   3
ENDBRANCH   1   2
BRANCH   1   6
ATOM      6  C   UNL     1      12.777  62.591   7.014  1.00  0.00     0.000 C 
BRANCH   6   7
ATOM      7  C   UNL     1      11.585  62.066   7.829  1.00  0.00    -0.000 C 
BRANCH   7   8
ATOM      8  C   UNL     1      11.097  63.077   8.879  1.00  0.00    -0.003 C 
ATOM      9  C   UNL     1       9.672  63.562   8.615  1.00  0.00     0.004 C 
ENDBRANCH   7   8
ENDBRANCH   6   7
ENDBRANCH   1   6
TORSDOF 5
ENDMDL
MODEL 3
REMARK VINA RESULT:    -3.149      1.310      1.679
REMARK INTER + INTRA:          -4.472
REMARK INTER:                  -4.162
REMARK INTRA:                  -0.309
REMARK UNBOUND:                -0.402
REMARK SMILES CCCCCCC(=O)[O-]
REMARK SMILES IDX 5 1 6 2 7 3 8 4 9 5 4 6 3 7 2 8 1 9
REMARK H PARENT
REMARK Flexibility Score: inf
ROOT
ATOM      1  C   UNL     1      12.346  62.368   7.339  1.00  0.00     0.006 C 
ENDROOT
BRANCH   1   2
ATOM      2  C   UNL     1      12.003  63.395   8.422  1.00  0.00     0.053 C 
BRANCH   2   3
ATOM      3  C   UNL     1      10.663  63.101   9.018  1.00  0.00     0.041 C 
ATOM      4  O   UNL     1       9.622  63.596   8.512  1.00  0.00    -0.550 OA
ATOM      5  O   UNL     1      10.567  62.321  10.164  1.00  0.00    -0.550 OA
ENDBRANCH   2   3
ENDBRANCH   1   2
BRANCH   1   6
ATOM      6  C   UNL     1      13.061  63.032   6.157  1.00  0.00     0.000 C 
BRANCH   6   7
ATOM      7  C   UNL     1      13.095  64.559   6.323  1.00  0.00    -0.000 C 
BRANCH   7   8
ATOM      8  C   UNL     1      12.272  65.288   5.249  1.00  0.00    -0.003 C 
ATOM      9  C   UNL     1      11.020  65.957   5.817  1.00  0.00     0.004 C 
ENDBRANCH   7   8
ENDBRANCH   6   7
ENDBRANCH   1   6
TORSDOF 5
ENDMDL
MODEL 4
REMARK VINA RESULT:    -3.058      1.947      3.644
REMARK INTER + INTRA:          -4.353
REMARK INTER:                  -4.018
REMARK INTRA:                  -0.335
REMARK UNBOUND:                -0.402
REMARK SMILES CCCCCCC(=O)[O-]
REMARK SMILES IDX 5 1 6 2 7 3 8 4 9 5 4 6 3 7 2 8 1 9
REMARK H PARENT
REMARK Flexibility Score: inf
ROOT
ATOM      1  C   UNL     1      12.945  62.767   7.557  1.00  0.00     0.006 C 
ENDROOT
BRANCH   1   2
ATOM      2  C   UNL     1      12.964  63.322   6.130  1.00  0.00     0.053 C 
BRANCH   2   3
ATOM      3  C   UNL     1      12.850  64.814   6.145  1.00  0.00     0.041 C 
ATOM      4  O   UNL     1      13.798  65.517   6.583  1.00  0.00    -0.550 OA
ATOM      5  O   UNL     1      11.678  65.426   5.722  1.00  0.00    -0.550 OA
ENDBRANCH   2   3
ENDBRANCH   1   2
BRANCH   1   6
ATOM      6  C   UNL     1      11.601  62.100   7.870  1.00  0.00     0.000 C 
BRANCH   6   7
ATOM      7  C   UNL     1      10.868  62.843   8.997  1.00  0.00    -0.000 C 
BRANCH   7   8
ATOM      8  C   UNL     1       9.601  63.562   8.505  1.00  0.00    -0.003 C 
ATOM      9  C   UNL     1       9.699  65.082   8.628  1.00  0.00     0.004 C 
ENDBRANCH   7   8
ENDBRANCH   6   7
ENDBRANCH   1   6
TORSDOF 5
ENDMDL
MODEL 5
REMARK VINA RESULT:    -3.019      2.417      3.341
REMARK INTER + INTRA:          -4.303
REMARK INTER:                  -3.886
REMARK INTRA:                  -0.417
REMARK UNBOUND:                -0.402
REMARK SMILES CCCCCCC(=O)[O-]
REMARK SMILES IDX 5 1 6 2 7 3 8 4 9 5 4 6 3 7 2 8 1 9
REMARK H PARENT
REMARK Flexibility Score: inf
ROOT
ATOM      1  C   UNL     1      10.880  62.858   9.085  1.00  0.00     0.006 C 
ENDROOT
BRANCH   1   2
ATOM      2  C   UNL     1      11.544  62.060   7.959  1.00  0.00     0.053 C 
BRANCH   2   3
ATOM      3  C   UNL     1      12.702  62.817   7.391  1.00  0.00     0.041 C 
ATOM      4  O   UNL     1      13.438  63.508   8.144  1.00  0.00    -0.550 OA
ATOM      5  O   UNL     1      12.939  62.802   6.022  1.00  0.00    -0.550 OA
ENDBRANCH   2   3
ENDBRANCH   1   2
BRANCH   1   6
ATOM      6  C   UNL     1       9.680  63.654   8.561  1.00  0.00     0.000 C 
BRANCH   6   7
ATOM      7  C   UNL     1       9.975  65.162   8.570  1.00  0.00    -0.000 C 
BRANCH   7   8
ATOM      8  C   UNL     1      10.448  65.678   7.202  1.00  0.00    -0.003 C 
ATOM      9  C   UNL     1      11.760  66.459   7.286  1.00  0.00     0.004 C 
ENDBRANCH   7   8
ENDBRANCH   6   7
ENDBRANCH   1   6
TORSDOF 5
ENDMDL
MODEL 6
REMARK VINA RESULT:    -3.006      1.718      3.663
REMARK INTER + INTRA:          -4.287
REMARK INTER:                  -3.974
REMARK INTRA:                  -0.313
REMARK UNBOUND:                -0.402
REMARK SMILES CCCCCCC(=O)[O-]
REMARK SMILES IDX 5 1 6 2 7 3 8 4 9 5 4 6 3 7 2 8 1 9
REMARK H PARENT
REMARK Flexibility Score: inf
ROOT
ATOM      1  C   UNL     1      14.037  64.763   6.720  1.00  0.00     0.006 C 
ENDROOT
BRANCH   1   2
ATOM      2  C   UNL     1      13.128  65.981   6.538  1.00  0.00     0.053 C 
BRANCH   2   3
ATOM      3  C   UNL     1      11.991  65.655   5.622  1.00  0.00     0.041 C 
ATOM      4  O   UNL     1      10.803  65.843   5.994  1.00  0.00    -0.550 OA
ATOM      5  O   UNL     1      12.241  65.096   4.375  1.00  0.00    -0.550 OA
ENDBRANCH   2   3
ENDBRANCH   1   2
BRANCH   1   6
ATOM      6  C   UNL     1      13.448  63.784   7.742  1.00  0.00     0.000 C 
BRANCH   6   7
ATOM      7  C   UNL     1      12.797  62.583   7.040  1.00  0.00    -0.000 C 
BRANCH   7   8
ATOM      8  C   UNL     1      11.582  62.038   7.808  1.00  0.00    -0.003 C 
ATOM      9  C   UNL     1      10.737  63.144   8.440  1.00  0.00     0.004 C 
ENDBRANCH   7   8
ENDBRANCH   6   7
ENDBRANCH   1   6
TORSDOF 5
ENDMDL
MODEL 7
REMARK VINA RESULT:    -2.970      2.224      3.523
REMARK INTER + INTRA:          -4.240
REMARK INTER:                  -4.091
REMARK INTRA:                  -0.150
REMARK UNBOUND:                -0.402
REMARK SMILES CCCCCCC(=O)[O-]
REMARK SMILES IDX 5 1 6 2 7 3 8 4 9 5 4 6 3 7 2 8 1 9
REMARK H PARENT
REMARK Flexibility Score: inf
ROOT
ATOM      1  C   UNL     1      13.508  64.530   6.469  1.00  0.00     0.006 C 
ENDROOT
BRANCH   1   2
ATOM      2  C   UNL     1      13.083  63.060   6.417  1.00  0.00     0.053 C 
BRANCH   2   3
ATOM      3  C   UNL     1      12.273  62.705   7.624  1.00  0.00     0.041 C 
ATOM      4  O   UNL     1      11.589  61.648   7.640  1.00  0.00    -0.550 OA
ATOM      5  O   UNL     1      12.233  63.567   8.713  1.00  0.00    -0.550 OA
ENDBRANCH   2   3
ENDBRANCH   1   2
BRANCH   1   6
ATOM      6  C   UNL     1      12.473  65.427   5.780  1.00  0.00     0.000 C 
BRANCH   6   7
ATOM      7  C   UNL     1      12.177  64.932   4.357  1.00  0.00    -0.000 C 
BRANCH   7   8
ATOM      8  C   UNL     1      11.646  66.047   3.442  1.00  0.00    -0.003 C 
ATOM      9  C   UNL     1      10.191  65.830   3.027  1.00  0.00     0.004 C 
ENDBRANCH   7   8
ENDBRANCH   6   7
ENDBRANCH   1   6
TORSDOF 5
ENDMDL
MODEL 8
REMARK VINA RESULT:    -2.929      2.914      4.445
REMARK INTER + INTRA:          -4.187
REMARK INTER:                  -4.003
REMARK INTRA:                  -0.185
REMARK UNBOUND:                -0.402
REMARK SMILES CCCCCCC(=O)[O-]
REMARK SMILES IDX 5 1 6 2 7 3 8 4 9 5 4 6 3 7 2 8 1 9
REMARK H PARENT
REMARK Flexibility Score: inf
ROOT
ATOM      1  C   UNL     1      12.445  64.795   5.285  1.00  0.00     0.006 C 
ENDROOT
BRANCH   1   2
ATOM      2  C   UNL     1      11.677  66.009   4.756  1.00  0.00     0.053 C 
BRANCH   2   3
ATOM      3  C   UNL     1      11.399  65.857   3.294  1.00  0.00     0.041 C 
ATOM      4  O   UNL     1      12.295  66.113   2.447  1.00  0.00    -0.550 OA
ATOM      5  O   UNL     1      10.133  65.479   2.862  1.00  0.00    -0.550 OA
ENDBRANCH   2   3
ENDBRANCH   1   2
BRANCH   1   6
ATOM      6  C   UNL     1      13.233  65.152   6.551  1.00  0.00     0.000 C 
BRANCH   6   7
ATOM      7  C   UNL     1      13.558  63.893   7.369  1.00  0.00    -0.000 C 
BRANCH   7   8
ATOM      8  C   UNL     1      12.764  62.663   6.900  1.00  0.00    -0.003 C 
ATOM      9  C   UNL     1      11.670  62.255   7.887  1.00  0.00     0.004 C 
ENDBRANCH   7   8
ENDBRANCH   6   7
ENDBRANCH   1   6
TORSDOF 5
ENDMDL
MODEL 9
REMARK VINA RESULT:    -2.929      1.500      2.371
REMARK INTER + INTRA:          -4.187
REMARK INTER:                  -4.081
REMARK INTRA:                  -0.106
REMARK UNBOUND:                -0.402
REMARK SMILES CCCCCCC(=O)[O-]
REMARK SMILES IDX 5 1 6 2 7 3 8 4 9 5 4 6 3 7 2 8 1 9
REMARK H PARENT
REMARK Flexibility Score: inf
ROOT
ATOM      1  C   UNL     1      10.076  63.910   8.369  1.00  0.00     0.006 C 
ENDROOT
BRANCH   1   2
ATOM      2  C   UNL     1       8.641  63.498   8.708  1.00  0.00     0.053 C 
BRANCH   2   3
ATOM      3  C   UNL     1       7.764  64.703   8.834  1.00  0.00     0.041 C 
ATOM      4  O   UNL     1       8.269  65.833   9.065  1.00  0.00    -0.550 OA
ATOM      5  O   UNL     1       6.384  64.572   8.746  1.00  0.00    -0.550 OA
ENDBRANCH   2   3
ENDBRANCH   1   2
BRANCH   1   6
ATOM      6  C   UNL     1      11.082  62.871   8.877  1.00  0.00     0.000 C 
BRANCH   6   7
ATOM      7  C   UNL     1      11.728  62.115   7.707  1.00  0.00    -0.000 C 
BRANCH   7   8
ATOM      8  C   UNL     1      12.788  62.954   6.974  1.00  0.00    -0.003 C 
ATOM      9  C   UNL     1      13.589  63.849   7.919  1.00  0.00     0.004 C 
ENDBRANCH   7   8
ENDBRANCH   6   7
ENDBRANCH   1   6
TORSDOF 5
ENDMDL
