MODEL 1
REMARK VINA RESULT:    -3.201      0.000      0.000
REMARK INTER + INTRA:          -3.202
REMARK INTER:                  -3.949
REMARK INTRA:                   0.747
REMARK UNBOUND:                 0.747
REMARK SMILES CC1=CC=CC(C)(C)CC1=O
REMARK SMILES IDX 1 1 2 2 3 3 10 4 11 5 9 6 4 8 5 9 6 10 7 11 8 12
REMARK H PARENT
REMARK Flexibility Score: 80.00
ROOT
ATOM      1  C   UNL     1      26.775  25.955  27.033  1.00  0.00     0.048 C 
ATOM      2  C   UNL     1      27.219  27.100  26.155  1.00  0.00    -0.008 C 
ATOM      3  C   UNL     1      28.308  26.908  25.379  1.00  0.00     0.007 C 
ENDROOT
BRANCH   2   4
ATOM      4  C   UNL     1      26.466  28.373  26.272  1.00  0.00     0.159 C 
ATOM      5  O   UNL     1      25.641  28.508  27.217  1.00  0.00    -0.295 OA
BRANCH   4   6
ATOM      6  C   UNL     1      26.620  29.516  25.315  1.00  0.00     0.091 CG0
ATOM      7  G   UNL     1      28.056  30.082  25.268  1.00  0.00     0.000 G0
ENDBRANCH   4   6
ENDBRANCH   2   4
BRANCH   3   8
ATOM      8  C   UNL     1      28.988  27.838  24.448  1.00  0.00    -0.003 C 
ATOM      9  C   UNL     1      28.913  29.173  24.383  1.00  0.00    -0.020 C 
BRANCH   9  10
ATOM     10  C   UNL     1      28.066  30.068  25.256  1.00  0.00    -0.010 CG0
ATOM     11  C   UNL     1      28.723  30.225  26.647  1.00  0.00     0.016 C 
ATOM     12  C   UNL     1      28.000  31.465  24.599  1.00  0.00     0.016 C 
ATOM     13  G   UNL     1      26.629  29.507  25.337  1.00  0.00     0.000 G0
ENDBRANCH   9  10
ENDBRANCH   3   8
TORSDOF 0
ENDMDL
MODEL 2
REMARK VINA RESULT:    -3.008      9.811     11.095
REMARK INTER + INTRA:          -2.965
REMARK INTER:                  -3.719
REMARK INTRA:                   0.754
REMARK UNBOUND:                 0.747
REMARK SMILES CC1=CC=CC(C)(C)CC1=O
REMARK SMILES IDX 1 1 2 2 3 3 10 4 11 5 9 6 4 8 5 9 6 10 7 11 8 12
REMARK H PARENT
REMARK Flexibility Score: 80.00
ROOT
ATOM      1  C   UNL     1      23.167  38.773  21.620  1.00  0.00     0.048 C 
ATOM      2  C   UNL     1      24.639  38.647  21.307  1.00  0.00    -0.008 C 
ATOM      3  C   UNL     1      25.411  39.744  21.469  1.00  0.00     0.007 C 
ENDROOT
BRANCH   2   4
ATOM      4  C   UNL     1      25.107  37.344  20.772  1.00  0.00     0.159 C 
ATOM      5  O   UNL     1      24.250  36.491  20.412  1.00  0.00    -0.295 OA
BRANCH   4   6
ATOM      6  C   UNL     1      26.553  36.974  20.645  1.00  0.00     0.091 CG0
ATOM      7  G   UNL     1      27.351  37.937  19.739  1.00  0.00     0.000 G0
ENDBRANCH   4   6
ENDBRANCH   2   4
BRANCH   3   8
ATOM      8  C   UNL     1      26.858  39.934  21.222  1.00  0.00    -0.003 C 
ATOM      9  C   UNL     1      27.694  39.191  20.485  1.00  0.00    -0.020 C 
BRANCH   9  10
ATOM     10  C   UNL     1      27.346  37.927  19.734  1.00  0.00    -0.010 CG0
ATOM     11  C   UNL     1      26.586  38.278  18.433  1.00  0.00     0.016 C 
ATOM     12  C   UNL     1      28.662  37.219  19.340  1.00  0.00     0.016 C 
ATOM     13  G   UNL     1      26.545  36.979  20.653  1.00  0.00     0.000 G0
ENDBRANCH   9  10
ENDBRANCH   3   8
TORSDOF 0
ENDMDL
MODEL 3
REMARK VINA RESULT:    -2.942     10.265     12.179
REMARK INTER + INTRA:          -2.883
REMARK INTER:                  -3.651
REMARK INTRA:                   0.768
REMARK UNBOUND:                 0.747
REMARK SMILES CC1=CC=CC(C)(C)CC1=O
REMARK SMILES IDX 1 1 2 2 3 3 10 4 11 5 9 6 4 8 5 9 6 10 7 11 8 12
REMARK H PARENT
REMARK Flexibility Score: 80.00
ROOT
ATOM      1  C   UNL     1      27.194  42.025  19.938  1.00  0.00     0.048 C 
ATOM      2  C   UNL     1      26.765  40.578  19.956  1.00  0.00    -0.008 C 
ATOM      3  C   UNL     1      25.993  40.166  20.985  1.00  0.00     0.007 C 
ENDROOT
BRANCH   2   4
ATOM      4  C   UNL     1      27.290  39.704  18.878  1.00  0.00     0.159 C 
ATOM      5  O   UNL     1      28.207  40.143  18.130  1.00  0.00    -0.295 OA
BRANCH   4   6
ATOM      6  C   UNL     1      26.780  38.320  18.613  1.00  0.00     0.091 CG0
ATOM      7  G   UNL     1      26.938  37.372  19.823  1.00  0.00     0.000 G0
ENDBRANCH   4   6
ENDBRANCH   2   4
BRANCH   3   8
ATOM      8  C   UNL     1      25.446  38.822  21.287  1.00  0.00    -0.003 C 
ATOM      9  C   UNL     1      25.834  37.629  20.819  1.00  0.00    -0.020 C 
BRANCH   9  10
ATOM     10  C   UNL     1      26.938  37.371  19.821  1.00  0.00    -0.010 CG0
ATOM     11  C   UNL     1      28.316  37.510  20.509  1.00  0.00     0.016 C 
ATOM     12  C   UNL     1      26.803  35.918  19.313  1.00  0.00     0.016 C 
ATOM     13  G   UNL     1      26.778  38.320  18.612  1.00  0.00     0.000 G0
ENDBRANCH   9  10
ENDBRANCH   3   8
TORSDOF 0
ENDMDL
MODEL 4
REMARK VINA RESULT:    -2.720      9.687     10.872
REMARK INTER + INTRA:          -2.610
REMARK INTER:                  -3.361
REMARK INTRA:                   0.752
REMARK UNBOUND:                 0.747
REMARK SMILES CC1=CC=CC(C)(C)CC1=O
REMARK SMILES IDX 1 1 2 2 3 3 10 4 11 5 9 6 4 8 5 9 6 10 7 11 8 12
REMARK H PARENT
REMARK Flexibility Score: 80.00
ROOT
ATOM      1  C   UNL     1      23.127  38.816  21.994  1.00  0.00     0.048 C 
ATOM      2  C   UNL     1      24.157  38.229  21.060  1.00  0.00    -0.008 C 
ATOM      3  C   UNL     1      23.892  37.023  20.513  1.00  0.00     0.007 C 
ENDROOT
BRANCH   2   4
ATOM      4  C   UNL     1      25.417  38.992  20.876  1.00  0.00     0.159 C 
ATOM      5  O   UNL     1      25.651  39.971  21.637  1.00  0.00    -0.295 OA
BRANCH   4   6
ATOM      6  C   UNL     1      26.430  38.674  19.820  1.00  0.00     0.091 CG0
ATOM      7  G   UNL     1      27.002  37.244  19.936  1.00  0.00     0.000 G0
ENDBRANCH   4   6
ENDBRANCH   2   4
BRANCH   3   8
ATOM      8  C   UNL     1      24.707  36.193  19.595  1.00  0.00    -0.003 C 
ATOM      9  C   UNL     1      26.021  36.258  19.342  1.00  0.00    -0.020 C 
BRANCH   9  10
ATOM     10  C   UNL     1      27.002  37.243  19.932  1.00  0.00    -0.010 CG0
ATOM     11  C   UNL     1      27.349  36.837  21.383  1.00  0.00     0.016 C 
ATOM     12  C   UNL     1      28.302  37.191  19.098  1.00  0.00     0.016 C 
ATOM     13  G   UNL     1      26.425  38.673  19.835  1.00  0.00     0.000 G0
ENDBRANCH   9  10
ENDBRANCH   3   8
TORSDOF 0
ENDMDL
MODEL 5
REMARK VINA RESULT:    -2.674     10.229     11.151
REMARK INTER + INTRA:          -2.552
REMARK INTER:                  -3.579
REMARK INTRA:                   1.026
REMARK UNBOUND:                 0.747
REMARK SMILES CC1=CC=CC(C)(C)CC1=O
REMARK SMILES IDX 1 1 2 2 3 3 10 4 11 5 9 6 4 8 5 9 6 10 7 11 8 12
REMARK H PARENT
REMARK Flexibility Score: 80.00
ROOT
ATOM      1  C   UNL     1      23.456  38.682  21.672  1.00  0.00     0.048 C 
ATOM      2  C   UNL     1      24.745  38.210  21.044  1.00  0.00    -0.008 C 
ATOM      3  C   UNL     1      24.744  36.999  20.445  1.00  0.00     0.007 C 
ENDROOT
BRANCH   2   4
ATOM      4  C   UNL     1      25.934  39.084  21.203  1.00  0.00     0.159 C 
ATOM      5  O   UNL     1      25.767  40.277  21.576  1.00  0.00    -0.295 OA
BRANCH   4   6
ATOM      6  C   UNL     1      27.336  38.630  20.931  1.00  0.00     0.091 CG0
ATOM      7  G   UNL     1      27.545  38.135  19.482  1.00  0.00     0.000 G0
ENDBRANCH   4   6
ENDBRANCH   2   4
BRANCH   3   8
ATOM      8  C   UNL     1      25.844  36.266  19.777  1.00  0.00    -0.003 C 
ATOM      9  C   UNL     1      27.038  36.720  19.375  1.00  0.00    -0.020 C 
BRANCH   9  10
ATOM     10  C   UNL     1      27.544  38.139  19.488  1.00  0.00    -0.010 CG0
ATOM     11  C   UNL     1      29.025  38.208  19.050  1.00  0.00     0.016 C 
ATOM     12  C   UNL     1      26.720  39.025  18.527  1.00  0.00     0.016 C 
ATOM     13  G   UNL     1      27.324  38.656  20.927  1.00  0.00     0.000 G0
ENDBRANCH   9  10
ENDBRANCH   3   8
TORSDOF 0
ENDMDL
MODEL 6
REMARK VINA RESULT:    -2.605      9.318     10.560
REMARK INTER + INTRA:          -2.467
REMARK INTER:                  -3.236
REMARK INTRA:                   0.769
REMARK UNBOUND:                 0.747
REMARK SMILES CC1=CC=CC(C)(C)CC1=O
REMARK SMILES IDX 1 1 2 2 3 3 10 4 11 5 9 6 4 8 5 9 6 10 7 11 8 12
REMARK H PARENT
REMARK Flexibility Score: 80.00
ROOT
ATOM      1  C   UNL     1      27.282  34.282  19.001  1.00  0.00     0.048 C 
ATOM      2  C   UNL     1      27.422  35.751  19.321  1.00  0.00    -0.008 C 
ATOM      3  C   UNL     1      28.553  36.151  19.943  1.00  0.00     0.007 C 
ENDROOT
BRANCH   2   4
ATOM      4  C   UNL     1      26.270  36.627  18.994  1.00  0.00     0.159 C 
ATOM      5  O   UNL     1      25.183  36.095  18.638  1.00  0.00    -0.295 OA
BRANCH   4   6
ATOM      6  C   UNL     1      26.328  38.123  19.048  1.00  0.00     0.091 CG0
ATOM      7  G   UNL     1      26.719  38.668  20.439  1.00  0.00     0.000 G0
ENDBRANCH   4   6
ENDBRANCH   2   4
BRANCH   3   8
ATOM      8  C   UNL     1      28.959  37.499  20.403  1.00  0.00    -0.003 C 
ATOM      9  C   UNL     1      28.199  38.578  20.632  1.00  0.00    -0.020 C 
BRANCH   9  10
ATOM     10  C   UNL     1      26.705  38.680  20.441  1.00  0.00    -0.010 CG0
ATOM     11  C   UNL     1      25.974  37.954  21.595  1.00  0.00     0.016 C 
ATOM     12  C   UNL     1      26.310  40.173  20.493  1.00  0.00     0.016 C 
ATOM     13  G   UNL     1      26.318  38.128  19.051  1.00  0.00     0.000 G0
ENDBRANCH   9  10
ENDBRANCH   3   8
TORSDOF 0
ENDMDL
MODEL 7
REMARK VINA RESULT:    -2.539      9.939     10.865
REMARK INTER + INTRA:          -2.385
REMARK INTER:                  -3.146
REMARK INTRA:                   0.761
REMARK UNBOUND:                 0.747
REMARK SMILES CC1=CC=CC(C)(C)CC1=O
REMARK SMILES IDX 1 1 2 2 3 3 10 4 11 5 9 6 4 8 5 9 6 10 7 11 8 12
REMARK H PARENT
REMARK Flexibility Score: 80.00
ROOT
ATOM      1  C   UNL     1      23.810  35.619  19.339  1.00  0.00     0.048 C 
ATOM      2  C   UNL     1      24.757  36.616  19.962  1.00  0.00    -0.008 C 
ATOM      3  C   UNL     1      24.219  37.646  20.652  1.00  0.00     0.007 C 
ENDROOT
BRANCH   2   4
ATOM      4  C   UNL     1      26.206  36.427  19.700  1.00  0.00     0.159 C 
ATOM      5  O   UNL     1      26.562  35.589  18.827  1.00  0.00    -0.295 OA
BRANCH   4   6
ATOM      6  C   UNL     1      27.282  37.171  20.431  1.00  0.00     0.091 CG0
ATOM      7  G   UNL     1      27.193  38.703  20.251  1.00  0.00     0.000 G0
ENDBRANCH   4   6
ENDBRANCH   2   4
BRANCH   3   8
ATOM      8  C   UNL     1      24.879  38.778  21.341  1.00  0.00    -0.003 C 
ATOM      9  C   UNL     1      26.122  39.253  21.185  1.00  0.00    -0.020 C 
BRANCH   9  10
ATOM     10  C   UNL     1      27.182  38.705  20.259  1.00  0.00    -0.010 CG0
ATOM     11  C   UNL     1      26.882  39.129  18.802  1.00  0.00     0.016 C 
ATOM     12  C   UNL     1      28.542  39.317  20.663  1.00  0.00     0.016 C 
ATOM     13  G   UNL     1      27.277  37.172  20.425  1.00  0.00     0.000 G0
ENDBRANCH   9  10
ENDBRANCH   3   8
TORSDOF 0
ENDMDL
MODEL 8
REMARK VINA RESULT:    -2.440     11.770     13.407
REMARK INTER + INTRA:          -2.263
REMARK INTER:                  -3.011
REMARK INTRA:                   0.747
REMARK UNBOUND:                 0.747
REMARK SMILES CC1=CC=CC(C)(C)CC1=O
REMARK SMILES IDX 1 1 2 2 3 3 10 4 11 5 9 6 4 8 5 9 6 10 7 11 8 12
REMARK H PARENT
REMARK Flexibility Score: 80.00
ROOT
ATOM      1  C   UNL     1      26.433  43.563  20.680  1.00  0.00     0.048 C 
ATOM      2  C   UNL     1      26.579  42.074  20.469  1.00  0.00    -0.008 C 
ATOM      3  C   UNL     1      25.929  41.254  21.323  1.00  0.00     0.007 C 
ENDROOT
BRANCH   2   4
ATOM      4  C   UNL     1      27.489  41.632  19.382  1.00  0.00     0.159 C 
ATOM      5  O   UNL     1      28.255  42.479  18.847  1.00  0.00    -0.295 OA
BRANCH   4   6
ATOM      6  C   UNL     1      27.541  40.225  18.870  1.00  0.00     0.091 CG0
ATOM      7  G   UNL     1      27.934  39.196  19.954  1.00  0.00     0.000 G0
ENDBRANCH   4   6
ENDBRANCH   2   4
BRANCH   3   8
ATOM      8  C   UNL     1      25.902  39.774  21.385  1.00  0.00    -0.003 C 
ATOM      9  C   UNL     1      26.740  38.890  20.829  1.00  0.00    -0.020 C 
BRANCH   9  10
ATOM     10  C   UNL     1      27.931  39.208  19.956  1.00  0.00    -0.010 CG0
ATOM     11  C   UNL     1      29.115  39.683  20.830  1.00  0.00     0.016 C 
ATOM     12  C   UNL     1      28.362  37.912  19.232  1.00  0.00     0.016 C 
ATOM     13  G   UNL     1      27.528  40.246  18.885  1.00  0.00     0.000 G0
ENDBRANCH   9  10
ENDBRANCH   3   8
TORSDOF 0
ENDMDL
MODEL 9
REMARK VINA RESULT:    -2.294      9.571     11.614
REMARK INTER + INTRA:          -2.083
REMARK INTER:                  -2.855
REMARK INTRA:                   0.772
REMARK UNBOUND:                 0.747
REMARK SMILES CC1=CC=CC(C)(C)CC1=O
REMARK SMILES IDX 1 1 2 2 3 3 10 4 11 5 9 6 4 8 5 9 6 10 7 11 8 12
REMARK H PARENT
REMARK Flexibility Score: 80.00
ROOT
ATOM      1  C   UNL     1      27.263  35.887  21.046  1.00  0.00     0.048 C 
ATOM      2  C   UNL     1      27.428  37.243  20.402  1.00  0.00    -0.008 C 
ATOM      3  C   UNL     1      28.567  37.476  19.714  1.00  0.00     0.007 C 
ENDROOT
BRANCH   2   4
ATOM      4  C   UNL     1      26.355  38.240  20.641  1.00  0.00     0.159 C 
ATOM      5  O   UNL     1      25.474  37.989  21.509  1.00  0.00    -0.295 OA
BRANCH   4   6
ATOM      6  C   UNL     1      26.248  39.535  19.895  1.00  0.00     0.091 CG0
ATOM      7  G   UNL     1      27.490  40.438  20.061  1.00  0.00     0.000 G0
ENDBRANCH   4   6
ENDBRANCH   2   4
BRANCH   3   8
ATOM      8  C   UNL     1      29.020  38.697  19.008  1.00  0.00    -0.003 C 
ATOM      9  C   UNL     1      28.590  39.958  19.142  1.00  0.00    -0.020 C 
BRANCH   9  10
ATOM     10  C   UNL     1      27.487  40.438  20.055  1.00  0.00    -0.010 CG0
ATOM     11  C   UNL     1      27.995  40.488  21.516  1.00  0.00     0.016 C 
ATOM     12  C   UNL     1      27.101  41.874  19.636  1.00  0.00     0.016 C 
ATOM     13  G   UNL     1      26.244  39.537  19.888  1.00  0.00     0.000 G0
ENDBRANCH   9  10
ENDBRANCH   3   8
TORSDOF 0
ENDMDL
