MODEL 1
REMARK VINA RESULT:    -2.691      0.000      0.000
REMARK INTER + INTRA:          -2.927
REMARK INTER:                  -2.927
REMARK INTRA:                   0.000
REMARK UNBOUND:                 0.000
REMARK SMILES [NH3+]CC(=O)[O-]
REMARK SMILES IDX 2 1 1 2 3 6 4 7 5 8
REMARK H PARENT 1 3 1 4 1 5
REMARK Flexibility Score: inf
ROOT
ATOM      1  C   UNL     1      -2.759   9.818  -0.575  1.00  0.00     0.312 C 
ENDROOT
BRANCH   1   2
ATOM      2  N   UNL     1      -1.856  10.693   0.169  1.00  0.00    -0.353 N 
ATOM      3  H   UNL     1      -1.599  10.251   1.081  1.00  0.00     0.344 HD
ATOM      4  H   UNL     1      -2.338  11.602   0.355  1.00  0.00     0.344 HD
ATOM      5  H   UNL     1      -0.992  10.876  -0.392  1.00  0.00     0.344 HD
ENDBRANCH   1   2
BRANCH   1   6
ATOM      6  C   UNL     1      -2.603  10.027  -2.050  1.00  0.00     0.096 C 
ATOM      7  O   UNL     1      -1.961  11.019  -2.484  1.00  0.00    -0.544 OA
ATOM      8  O   UNL     1      -3.125   9.099  -2.942  1.00  0.00    -0.544 OA
ENDBRANCH   1   6
TORSDOF 2
ENDMDL
MODEL 2
REMARK VINA RESULT:    -2.333      7.095      7.517
REMARK INTER + INTRA:          -2.538
REMARK INTER:                  -2.538
REMARK INTRA:                   0.000
REMARK UNBOUND:                 0.000
REMARK SMILES [NH3+]CC(=O)[O-]
REMARK SMILES IDX 2 1 1 2 3 6 4 7 5 8
REMARK H PARENT 1 3 1 4 1 5
REMARK Flexibility Score: inf
ROOT
ATOM      1  C   UNL     1       0.927  11.224  -7.914  1.00  0.00     0.312 C 
ENDROOT
BRANCH   1   2
ATOM      2  N   UNL     1       1.530  10.066  -8.571  1.00  0.00    -0.353 N 
ATOM      3  H   UNL     1       2.545  10.244  -8.752  1.00  0.00     0.344 HD
ATOM      4  H   UNL     1       1.046   9.900  -9.483  1.00  0.00     0.344 HD
ATOM      5  H   UNL     1       1.422   9.216  -7.970  1.00  0.00     0.344 HD
ENDBRANCH   1   2
BRANCH   1   6
ATOM      6  C   UNL     1       1.814  11.732  -6.820  1.00  0.00     0.096 C 
ATOM      7  O   UNL     1       2.829  12.425  -7.097  1.00  0.00    -0.544 OA
ATOM      8  O   UNL     1       1.492  11.482  -5.492  1.00  0.00    -0.544 OA
ENDBRANCH   1   6
TORSDOF 2
ENDMDL
MODEL 3
REMARK VINA RESULT:    -2.315      8.079      8.598
REMARK INTER + INTRA:          -2.518
REMARK INTER:                  -2.518
REMARK INTRA:                   0.000
REMARK UNBOUND:                 0.000
REMARK SMILES [NH3+]CC(=O)[O-]
REMARK SMILES IDX 2 1 1 2 3 6 4 7 5 8
REMARK H PARENT 1 3 1 4 1 5
REMARK Flexibility Score: inf
ROOT
ATOM      1  C   UNL     1       2.779  10.550  -8.540  1.00  0.00     0.312 C 
ENDROOT
BRANCH   1   2
ATOM      2  N   UNL     1       3.471   9.289  -8.283  1.00  0.00    -0.353 N 
ATOM      3  H   UNL     1       2.894   8.687  -7.650  1.00  0.00     0.344 HD
ATOM      4  H   UNL     1       4.386   9.489  -7.819  1.00  0.00     0.344 HD
ATOM      5  H   UNL     1       3.649   8.787  -9.183  1.00  0.00     0.344 HD
ENDBRANCH   1   2
BRANCH   1   6
ATOM      6  C   UNL     1       2.911  11.474  -7.370  1.00  0.00     0.096 C 
ATOM      7  O   UNL     1       2.319  11.215  -6.289  1.00  0.00    -0.544 OA
ATOM      8  O   UNL     1       3.727  12.595  -7.457  1.00  0.00    -0.544 OA
ENDBRANCH   1   6
TORSDOF 2
ENDMDL
MODEL 4
REMARK VINA RESULT:    -2.299      6.544      6.747
REMARK INTER + INTRA:          -2.501
REMARK INTER:                  -2.501
REMARK INTRA:                   0.000
REMARK UNBOUND:                 0.000
REMARK SMILES [NH3+]CC(=O)[O-]
REMARK SMILES IDX 2 1 1 2 3 6 4 7 5 8
REMARK H PARENT 1 3 1 4 1 5
REMARK Flexibility Score: inf
ROOT
ATOM      1  C   UNL     1       3.711   8.942   2.688  1.00  0.00     0.312 C 
ENDROOT
BRANCH   1   2
ATOM      2  N   UNL     1       4.388   7.655   2.554  1.00  0.00    -0.353 N 
ATOM      3  H   UNL     1       4.524   7.425   1.542  1.00  0.00     0.344 HD
ATOM      4  H   UNL     1       3.799   6.911   2.995  1.00  0.00     0.344 HD
ATOM      5  H   UNL     1       5.315   7.685   3.037  1.00  0.00     0.344 HD
ENDBRANCH   1   2
BRANCH   1   6
ATOM      6  C   UNL     1       2.454   8.966   1.874  1.00  0.00     0.096 C 
ATOM      7  O   UNL     1       1.967  10.063   1.493  1.00  0.00    -0.544 OA
ATOM      8  O   UNL     1       1.848   7.775   1.495  1.00  0.00    -0.544 OA
ENDBRANCH   1   6
TORSDOF 2
ENDMDL
MODEL 5
REMARK VINA RESULT:    -2.279      6.779      7.012
REMARK INTER + INTRA:          -2.479
REMARK INTER:                  -2.479
REMARK INTRA:                   0.000
REMARK UNBOUND:                 0.000
REMARK SMILES [NH3+]CC(=O)[O-]
REMARK SMILES IDX 2 1 1 2 3 6 4 7 5 8
REMARK H PARENT 1 3 1 4 1 5
REMARK Flexibility Score: inf
ROOT
ATOM      1  C   UNL     1       3.219   8.632   2.264  1.00  0.00     0.312 C 
ENDROOT
BRANCH   1   2
ATOM      2  N   UNL     1       4.360   7.766   2.553  1.00  0.00    -0.353 N 
ATOM      3  H   UNL     1       5.027   8.254   3.195  1.00  0.00     0.344 HD
ATOM      4  H   UNL     1       4.853   7.540   1.659  1.00  0.00     0.344 HD
ATOM      5  H   UNL     1       4.032   6.876   2.994  1.00  0.00     0.344 HD
ENDBRANCH   1   2
BRANCH   1   6
ATOM      6  C   UNL     1       1.939   7.857   2.323  1.00  0.00     0.096 C 
ATOM      7  O   UNL     1       1.584   7.146   1.346  1.00  0.00    -0.544 OA
ATOM      8  O   UNL     1       1.165   7.881   3.475  1.00  0.00    -0.544 OA
ENDBRANCH   1   6
TORSDOF 2
ENDMDL
MODEL 6
REMARK VINA RESULT:    -2.247      6.519      6.860
REMARK INTER + INTRA:          -2.444
REMARK INTER:                  -2.444
REMARK INTRA:                   0.000
REMARK UNBOUND:                 0.000
REMARK SMILES [NH3+]CC(=O)[O-]
REMARK SMILES IDX 2 1 1 2 3 6 4 7 5 8
REMARK H PARENT 1 3 1 4 1 5
REMARK Flexibility Score: inf
ROOT
ATOM      1  C   UNL     1       3.688   8.985   2.709  1.00  0.00     0.312 C 
ENDROOT
BRANCH   1   2
ATOM      2  N   UNL     1       4.397   7.716   2.568  1.00  0.00    -0.353 N 
ATOM      3  H   UNL     1       4.879   7.472   3.464  1.00  0.00     0.344 HD
ATOM      4  H   UNL     1       5.114   7.807   1.811  1.00  0.00     0.344 HD
ATOM      5  H   UNL     1       3.725   6.956   2.310  1.00  0.00     0.344 HD
ENDBRANCH   1   2
BRANCH   1   6
ATOM      6  C   UNL     1       2.449   8.995   1.868  1.00  0.00     0.096 C 
ATOM      7  O   UNL     1       1.906   7.911   1.528  1.00  0.00    -0.544 OA
ATOM      8  O   UNL     1       1.867  10.202   1.504  1.00  0.00    -0.544 OA
ENDBRANCH   1   6
TORSDOF 2
ENDMDL
MODEL 7
REMARK VINA RESULT:    -2.161      6.999      7.303
REMARK INTER + INTRA:          -2.351
REMARK INTER:                  -2.351
REMARK INTRA:                   0.000
REMARK UNBOUND:                 0.000
REMARK SMILES [NH3+]CC(=O)[O-]
REMARK SMILES IDX 2 1 1 2 3 6 4 7 5 8
REMARK H PARENT 1 3 1 4 1 5
REMARK Flexibility Score: inf
ROOT
ATOM      1  C   UNL     1       2.427   7.067   2.952  1.00  0.00     0.312 C 
ENDROOT
BRANCH   1   2
ATOM      2  N   UNL     1       1.913   6.165   1.924  1.00  0.00    -0.353 N 
ATOM      3  H   UNL     1       2.204   5.182   2.132  1.00  0.00     0.344 HD
ATOM      4  H   UNL     1       2.304   6.447   0.996  1.00  0.00     0.344 HD
ATOM      5  H   UNL     1       0.869   6.224   1.884  1.00  0.00     0.344 HD
ENDBRANCH   1   2
BRANCH   1   6
ATOM      6  C   UNL     1       3.201   8.189   2.333  1.00  0.00     0.096 C 
ATOM      7  O   UNL     1       4.445   8.275   2.513  1.00  0.00    -0.544 OA
ATOM      8  O   UNL     1       2.558   9.110   1.517  1.00  0.00    -0.544 OA
ENDBRANCH   1   6
TORSDOF 2
ENDMDL
MODEL 8
REMARK VINA RESULT:    -2.102     12.215     12.301
REMARK INTER + INTRA:          -2.286
REMARK INTER:                  -2.286
REMARK INTRA:                   0.000
REMARK UNBOUND:                 0.000
REMARK SMILES [NH3+]CC(=O)[O-]
REMARK SMILES IDX 2 1 1 2 3 6 4 7 5 8
REMARK H PARENT 1 3 1 4 1 5
REMARK Flexibility Score: inf
ROOT
ATOM      1  C   UNL     1       8.152  10.769  -7.367  1.00  0.00     0.312 C 
ENDROOT
BRANCH   1   2
ATOM      2  N   UNL     1       8.828  11.069  -6.107  1.00  0.00    -0.353 N 
ATOM      3  H   UNL     1       8.439  10.472  -5.341  1.00  0.00     0.344 HD
ATOM      4  H   UNL     1       8.674  12.075  -5.867  1.00  0.00     0.344 HD
ATOM      5  H   UNL     1       9.856  10.896  -6.202  1.00  0.00     0.344 HD
ENDBRANCH   1   2
BRANCH   1   6
ATOM      6  C   UNL     1       8.131   9.293  -7.619  1.00  0.00     0.096 C 
ATOM      7  O   UNL     1       7.590   8.836  -8.660  1.00  0.00    -0.544 OA
ATOM      8  O   UNL     1       8.753   8.428  -6.729  1.00  0.00    -0.544 OA
ENDBRANCH   1   6
TORSDOF 2
ENDMDL
MODEL 9
REMARK VINA RESULT:    -2.075      6.360      6.524
REMARK INTER + INTRA:          -2.257
REMARK INTER:                  -2.257
REMARK INTRA:                   0.000
REMARK UNBOUND:                 0.000
REMARK SMILES [NH3+]CC(=O)[O-]
REMARK SMILES IDX 2 1 1 2 3 6 4 7 5 8
REMARK H PARENT 1 3 1 4 1 5
REMARK Flexibility Score: inf
ROOT
ATOM      1  C   UNL     1       1.382   6.019   2.977  1.00  0.00     0.312 C 
ENDROOT
BRANCH   1   2
ATOM      2  N   UNL     1       2.150   5.011   2.251  1.00  0.00    -0.353 N 
ATOM      3  H   UNL     1       2.545   5.424   1.375  1.00  0.00     0.344 HD
ATOM      4  H   UNL     1       1.519   4.216   1.998  1.00  0.00     0.344 HD
ATOM      5  H   UNL     1       2.926   4.650   2.853  1.00  0.00     0.344 HD
ENDBRANCH   1   2
BRANCH   1   6
ATOM      6  C   UNL     1       1.110   7.206   2.106  1.00  0.00     0.096 C 
ATOM      7  O   UNL     1       2.055   7.773   1.495  1.00  0.00    -0.544 OA
ATOM      8  O   UNL     1      -0.192   7.655   1.928  1.00  0.00    -0.544 OA
ENDBRANCH   1   6
TORSDOF 2
ENDMDL
