MODEL 1
REMARK VINA RESULT:    -6.390      0.000      0.000
REMARK INTER + INTRA:          -8.733
REMARK INTER:                  -8.071
REMARK INTRA:                  -0.661
REMARK UNBOUND:                -0.661
REMARK SMILES O=C(C=Cc1ccc(O)cc1)c1ccc(O)cc1O
REMARK SMILES IDX 4 1 3 2 5 3 6 4 7 5 8 6 11 7 10 8 9 9 2 11 1 12 12 13 18 14
REMARK SMILES IDX 13 15 17 16 14 17 15 18 19 19 16 21
REMARK H PARENT 9 10 19 20 16 22
REMARK Flexibility Score: inf
ROOT
ATOM      1  C   UNL     1      18.373  18.485   4.894  1.00  0.00     0.012 C 
ATOM      2  C   UNL     1      19.169  18.462   5.974  1.00  0.00     0.053 C 
ENDROOT
BRANCH   1   3
ATOM      3  C   UNL     1      17.156  19.326   4.781  1.00  0.00    -0.025 A 
ATOM      4  C   UNL     1      17.192  20.733   4.862  1.00  0.00     0.012 A 
ATOM      5  C   UNL     1      16.012  21.478   4.760  1.00  0.00     0.047 A 
ATOM      6  C   UNL     1      14.782  20.831   4.586  1.00  0.00     0.115 A 
ATOM      7  C   UNL     1      15.913  18.688   4.622  1.00  0.00     0.012 A 
ATOM      8  C   UNL     1      14.736  19.437   4.520  1.00  0.00     0.047 A 
BRANCH   6   9
ATOM      9  O   UNL     1      13.602  21.564   4.482  1.00  0.00    -0.508 OA
ATOM     10  H   UNL     1      13.432  22.378   5.061  1.00  0.00     0.293 HD
ENDBRANCH   6   9
ENDBRANCH   1   3
BRANCH   2  11
ATOM     11  C   UNL     1      20.376  17.613   6.061  1.00  0.00     0.189 C 
ATOM     12  O   UNL     1      21.502  18.175   5.994  1.00  0.00    -0.289 OA
BRANCH  11  13
ATOM     13  C   UNL     1      20.317  16.137   6.195  1.00  0.00     0.064 A 
ATOM     14  C   UNL     1      21.214  15.313   5.483  1.00  0.00     0.130 A 
ATOM     15  C   UNL     1      19.332  15.542   7.002  1.00  0.00     0.020 A 
ATOM     16  C   UNL     1      21.124  13.917   5.600  1.00  0.00     0.093 A 
ATOM     17  C   UNL     1      19.252  14.151   7.115  1.00  0.00     0.047 A 
ATOM     18  C   UNL     1      20.149  13.336   6.416  1.00  0.00     0.119 A 
BRANCH  14  19
ATOM     19  O   UNL     1      22.198  15.879   4.673  1.00  0.00    -0.507 OA
ATOM     20  H   UNL     1      23.064  16.236   5.060  1.00  0.00     0.293 HD
ENDBRANCH  14  19
BRANCH  18  21
ATOM     21  O   UNL     1      20.078  11.949   6.520  1.00  0.00    -0.508 OA
ATOM     22  H   UNL     1      19.191  11.460   6.481  1.00  0.00     0.293 HD
ENDBRANCH  18  21
ENDBRANCH  11  13
ENDBRANCH   2  11
TORSDOF 6
ENDMDL
MODEL 2
REMARK VINA RESULT:    -6.387      1.962      7.863
REMARK INTER + INTRA:          -8.728
REMARK INTER:                  -8.130
REMARK INTRA:                  -0.598
REMARK UNBOUND:                -0.661
REMARK SMILES O=C(C=Cc1ccc(O)cc1)c1ccc(O)cc1O
REMARK SMILES IDX 4 1 3 2 5 3 6 4 7 5 8 6 11 7 10 8 9 9 2 11 1 12 12 13 18 14
REMARK SMILES IDX 13 15 17 16 14 17 15 18 19 19 16 21
REMARK H PARENT 9 10 19 20 16 22
REMARK Flexibility Score: inf
ROOT
ATOM      1  C   UNL     1      18.622  17.395   5.514  1.00  0.00     0.012 C 
ATOM      2  C   UNL     1      18.465  18.547   4.845  1.00  0.00     0.053 C 
ENDROOT
BRANCH   1   3
ATOM      3  C   UNL     1      19.906  16.656   5.598  1.00  0.00    -0.025 A 
ATOM      4  C   UNL     1      21.115  17.271   5.982  1.00  0.00     0.012 A 
ATOM      5  C   UNL     1      22.300  16.529   6.034  1.00  0.00     0.047 A 
ATOM      6  C   UNL     1      22.297  15.170   5.696  1.00  0.00     0.115 A 
ATOM      7  C   UNL     1      19.919  15.294   5.246  1.00  0.00     0.012 A 
ATOM      8  C   UNL     1      21.106  14.557   5.300  1.00  0.00     0.047 A 
BRANCH   6   9
ATOM      9  O   UNL     1      23.472  14.423   5.746  1.00  0.00    -0.508 OA
ATOM     10  H   UNL     1      24.367  14.826   5.494  1.00  0.00     0.293 HD
ENDBRANCH   6   9
ENDBRANCH   1   3
BRANCH   2  11
ATOM     11  C   UNL     1      17.173  19.263   4.775  1.00  0.00     0.189 C 
ATOM     12  O   UNL     1      16.153  18.615   4.417  1.00  0.00    -0.289 OA
BRANCH  11  13
ATOM     13  C   UNL     1      17.034  20.708   5.080  1.00  0.00     0.064 A 
ATOM     14  C   UNL     1      16.146  21.518   4.341  1.00  0.00     0.130 A 
ATOM     15  C   UNL     1      17.823  21.296   6.085  1.00  0.00     0.020 A 
ATOM     16  C   UNL     1      16.049  22.889   4.625  1.00  0.00     0.093 A 
ATOM     17  C   UNL     1      17.717  22.661   6.363  1.00  0.00     0.047 A 
ATOM     18  C   UNL     1      16.829  23.461   5.634  1.00  0.00     0.119 A 
BRANCH  14  19
ATOM     19  O   UNL     1      15.354  20.960   3.337  1.00  0.00    -0.507 OA
ATOM     20  H   UNL     1      14.391  21.243   3.202  1.00  0.00     0.293 HD
ENDBRANCH  14  19
BRANCH  18  21
ATOM     21  O   UNL     1      16.715  24.822   5.902  1.00  0.00    -0.508 OA
ATOM     22  H   UNL     1      17.122  25.518   5.288  1.00  0.00     0.293 HD
ENDBRANCH  18  21
ENDBRANCH  11  13
ENDBRANCH   2  11
TORSDOF 6
ENDMDL
MODEL 3
REMARK VINA RESULT:    -6.232      2.253      8.181
REMARK INTER + INTRA:          -8.533
REMARK INTER:                  -7.937
REMARK INTRA:                  -0.597
REMARK UNBOUND:                -0.661
REMARK SMILES O=C(C=Cc1ccc(O)cc1)c1ccc(O)cc1O
REMARK SMILES IDX 4 1 3 2 5 3 6 4 7 5 8 6 11 7 10 8 9 9 2 11 1 12 12 13 18 14
REMARK SMILES IDX 13 15 17 16 14 17 15 18 19 19 16 21
REMARK H PARENT 9 10 19 20 16 22
REMARK Flexibility Score: inf
ROOT
ATOM      1  C   UNL     1      17.628  18.126   4.787  1.00  0.00     0.012 C 
ATOM      2  C   UNL     1      16.783  19.117   5.107  1.00  0.00     0.053 C 
ENDROOT
BRANCH   1   3
ATOM      3  C   UNL     1      18.961  17.942   5.413  1.00  0.00    -0.025 A 
ATOM      4  C   UNL     1      19.625  18.973   6.107  1.00  0.00     0.012 A 
ATOM      5  C   UNL     1      20.887  18.749   6.669  1.00  0.00     0.047 A 
ATOM      6  C   UNL     1      21.505  17.500   6.540  1.00  0.00     0.115 A 
ATOM      7  C   UNL     1      19.599  16.696   5.276  1.00  0.00     0.012 A 
ATOM      8  C   UNL     1      20.860  16.477   5.840  1.00  0.00     0.047 A 
BRANCH   6   9
ATOM      9  O   UNL     1      22.760  17.266   7.097  1.00  0.00    -0.508 OA
ATOM     10  H   UNL     1      23.075  17.765   7.921  1.00  0.00     0.293 HD
ENDBRANCH   6   9
ENDBRANCH   1   3
BRANCH   2  11
ATOM     11  C   UNL     1      15.460  19.279   4.467  1.00  0.00     0.189 C 
ATOM     12  O   UNL     1      15.010  18.320   3.784  1.00  0.00    -0.289 OA
BRANCH  11  13
ATOM     13  C   UNL     1      14.660  20.524   4.570  1.00  0.00     0.064 A 
ATOM     14  C   UNL     1      13.375  20.509   5.153  1.00  0.00     0.130 A 
ATOM     15  C   UNL     1      15.160  21.729   4.044  1.00  0.00     0.020 A 
ATOM     16  C   UNL     1      12.622  21.691   5.216  1.00  0.00     0.093 A 
ATOM     17  C   UNL     1      14.404  22.901   4.114  1.00  0.00     0.047 A 
ATOM     18  C   UNL     1      13.134  22.886   4.702  1.00  0.00     0.119 A 
BRANCH  14  19
ATOM     19  O   UNL     1      12.856  19.326   5.679  1.00  0.00    -0.507 OA
ATOM     20  H   UNL     1      12.982  19.078   6.653  1.00  0.00     0.293 HD
ENDBRANCH  14  19
BRANCH  18  21
ATOM     21  O   UNL     1      12.371  24.048   4.776  1.00  0.00    -0.508 OA
ATOM     22  H   UNL     1      11.981  24.479   3.946  1.00  0.00     0.293 HD
ENDBRANCH  18  21
ENDBRANCH  11  13
ENDBRANCH   2  11
TORSDOF 6
ENDMDL
MODEL 4
REMARK VINA RESULT:    -5.880      8.683     10.137
REMARK INTER + INTRA:          -8.089
REMARK INTER:                  -7.471
REMARK INTRA:                  -0.617
REMARK UNBOUND:                -0.661
REMARK SMILES O=C(C=Cc1ccc(O)cc1)c1ccc(O)cc1O
REMARK SMILES IDX 4 1 3 2 5 3 6 4 7 5 8 6 11 7 10 8 9 9 2 11 1 12 12 13 18 14
REMARK SMILES IDX 13 15 17 16 14 17 15 18 19 19 16 21
REMARK H PARENT 9 10 19 20 16 22
REMARK Flexibility Score: inf
ROOT
ATOM      1  C   UNL     1      26.103  24.684   5.298  1.00  0.00     0.012 C 
ATOM      2  C   UNL     1      25.950  23.650   6.139  1.00  0.00     0.053 C 
ENDROOT
BRANCH   1   3
ATOM      3  C   UNL     1      25.670  26.070   5.604  1.00  0.00    -0.025 A 
ATOM      4  C   UNL     1      24.772  26.785   4.786  1.00  0.00     0.012 A 
ATOM      5  C   UNL     1      24.405  28.095   5.114  1.00  0.00     0.047 A 
ATOM      6  C   UNL     1      24.934  28.710   6.255  1.00  0.00     0.115 A 
ATOM      7  C   UNL     1      26.207  26.705   6.738  1.00  0.00     0.012 A 
ATOM      8  C   UNL     1      25.836  28.014   7.063  1.00  0.00     0.047 A 
BRANCH   6   9
ATOM      9  O   UNL     1      24.573  30.013   6.592  1.00  0.00    -0.508 OA
ATOM     10  H   UNL     1      24.563  30.327   7.555  1.00  0.00     0.293 HD
ENDBRANCH   6   9
ENDBRANCH   1   3
BRANCH   2  11
ATOM     11  C   UNL     1      26.388  22.278   5.809  1.00  0.00     0.189 C 
ATOM     12  O   UNL     1      27.231  21.725   6.567  1.00  0.00    -0.289 OA
BRANCH  11  13
ATOM     13  C   UNL     1      25.904  21.540   4.617  1.00  0.00     0.064 A 
ATOM     14  C   UNL     1      26.772  20.700   3.887  1.00  0.00     0.130 A 
ATOM     15  C   UNL     1      24.580  21.707   4.175  1.00  0.00     0.020 A 
ATOM     16  C   UNL     1      26.303  20.033   2.745  1.00  0.00     0.093 A 
ATOM     17  C   UNL     1      24.121  21.036   3.038  1.00  0.00     0.047 A 
ATOM     18  C   UNL     1      24.981  20.196   2.322  1.00  0.00     0.119 A 
BRANCH  14  19
ATOM     19  O   UNL     1      28.091  20.519   4.304  1.00  0.00    -0.507 OA
ATOM     20  H   UNL     1      28.424  20.885   5.188  1.00  0.00     0.293 HD
ENDBRANCH  14  19
BRANCH  18  21
ATOM     21  O   UNL     1      24.534  19.523   1.187  1.00  0.00    -0.508 OA
ATOM     22  H   UNL     1      23.672  18.990   1.193  1.00  0.00     0.293 HD
ENDBRANCH  18  21
ENDBRANCH  11  13
ENDBRANCH   2  11
TORSDOF 6
ENDMDL
MODEL 5
REMARK VINA RESULT:    -5.822      1.905      7.815
REMARK INTER + INTRA:          -8.015
REMARK INTER:                  -7.550
REMARK INTRA:                  -0.466
REMARK UNBOUND:                -0.661
REMARK SMILES O=C(C=Cc1ccc(O)cc1)c1ccc(O)cc1O
REMARK SMILES IDX 4 1 3 2 5 3 6 4 7 5 8 6 11 7 10 8 9 9 2 11 1 12 12 13 18 14
REMARK SMILES IDX 13 15 17 16 14 17 15 18 19 19 16 21
REMARK H PARENT 9 10 19 20 16 22
REMARK Flexibility Score: inf
ROOT
ATOM      1  C   UNL     1      19.835  18.557   6.410  1.00  0.00     0.012 C 
ATOM      2  C   UNL     1      18.981  19.250   5.640  1.00  0.00     0.053 C 
ENDROOT
BRANCH   1   3
ATOM      3  C   UNL     1      20.473  17.282   5.997  1.00  0.00    -0.025 A 
ATOM      4  C   UNL     1      19.771  16.264   5.320  1.00  0.00     0.012 A 
ATOM      5  C   UNL     1      20.418  15.076   4.964  1.00  0.00     0.047 A 
ATOM      6  C   UNL     1      21.768  14.885   5.283  1.00  0.00     0.115 A 
ATOM      7  C   UNL     1      21.823  17.072   6.326  1.00  0.00     0.012 A 
ATOM      8  C   UNL     1      22.466  15.883   5.967  1.00  0.00     0.047 A 
BRANCH   6   9
ATOM      9  O   UNL     1      22.421  13.706   4.931  1.00  0.00    -0.508 OA
ATOM     10  H   UNL     1      23.163  13.320   5.504  1.00  0.00     0.293 HD
ENDBRANCH   6   9
ENDBRANCH   1   3
BRANCH   2  11
ATOM     11  C   UNL     1      18.358  20.517   6.076  1.00  0.00     0.189 C 
ATOM     12  O   UNL     1      18.819  21.083   7.103  1.00  0.00    -0.289 OA
BRANCH  11  13
ATOM     13  C   UNL     1      17.202  21.130   5.377  1.00  0.00     0.064 A 
ATOM     14  C   UNL     1      16.944  22.513   5.489  1.00  0.00     0.130 A 
ATOM     15  C   UNL     1      16.323  20.327   4.630  1.00  0.00     0.020 A 
ATOM     16  C   UNL     1      15.829  23.070   4.844  1.00  0.00     0.093 A 
ATOM     17  C   UNL     1      15.217  20.891   3.988  1.00  0.00     0.047 A 
ATOM     18  C   UNL     1      14.969  22.265   4.092  1.00  0.00     0.119 A 
BRANCH  14  19
ATOM     19  O   UNL     1      17.799  23.331   6.227  1.00  0.00    -0.507 OA
ATOM     20  H   UNL     1      18.714  23.013   6.523  1.00  0.00     0.293 HD
ENDBRANCH  14  19
BRANCH  18  21
ATOM     21  O   UNL     1      13.870  22.838   3.458  1.00  0.00    -0.508 OA
ATOM     22  H   UNL     1      12.987  22.964   3.939  1.00  0.00     0.293 HD
ENDBRANCH  18  21
ENDBRANCH  11  13
ENDBRANCH   2  11
TORSDOF 6
ENDMDL
MODEL 6
REMARK VINA RESULT:    -5.731      5.769     12.179
REMARK INTER + INTRA:          -7.900
REMARK INTER:                  -7.297
REMARK INTRA:                  -0.603
REMARK UNBOUND:                -0.661
REMARK SMILES O=C(C=Cc1ccc(O)cc1)c1ccc(O)cc1O
REMARK SMILES IDX 4 1 3 2 5 3 6 4 7 5 8 6 11 7 10 8 9 9 2 11 1 12 12 13 18 14
REMARK SMILES IDX 13 15 17 16 14 17 15 18 19 19 16 21
REMARK H PARENT 9 10 19 20 16 22
REMARK Flexibility Score: inf
ROOT
ATOM      1  C   UNL     1      11.999  22.096   5.169  1.00  0.00     0.012 C 
ATOM      2  C   UNL     1      11.504  23.322   5.396  1.00  0.00     0.053 C 
ENDROOT
BRANCH   1   3
ATOM      3  C   UNL     1      13.433  21.819   4.904  1.00  0.00    -0.025 A 
ATOM      4  C   UNL     1      13.964  20.514   4.873  1.00  0.00     0.012 A 
ATOM      5  C   UNL     1      15.326  20.310   4.629  1.00  0.00     0.047 A 
ATOM      6  C   UNL     1      16.177  21.402   4.422  1.00  0.00     0.115 A 
ATOM      7  C   UNL     1      14.301  22.909   4.710  1.00  0.00     0.012 A 
ATOM      8  C   UNL     1      15.662  22.700   4.466  1.00  0.00     0.047 A 
BRANCH   6   9
ATOM      9  O   UNL     1      17.535  21.209   4.177  1.00  0.00    -0.508 OA
ATOM     10  H   UNL     1      17.862  20.479   3.555  1.00  0.00     0.293 HD
ENDBRANCH   6   9
ENDBRANCH   1   3
BRANCH   2  11
ATOM     11  C   UNL     1      10.070  23.570   5.656  1.00  0.00     0.189 C 
ATOM     12  O   UNL     1       9.293  22.578   5.696  1.00  0.00    -0.289 OA
BRANCH  11  13
ATOM     13  C   UNL     1       9.506  24.929   5.842  1.00  0.00     0.064 A 
ATOM     14  C   UNL     1       8.619  25.478   4.893  1.00  0.00     0.130 A 
ATOM     15  C   UNL     1       9.889  25.705   6.951  1.00  0.00     0.020 A 
ATOM     16  C   UNL     1       8.119  26.777   5.072  1.00  0.00     0.093 A 
ATOM     17  C   UNL     1       9.384  26.996   7.123  1.00  0.00     0.047 A 
ATOM     18  C   UNL     1       8.496  27.535   6.185  1.00  0.00     0.119 A 
BRANCH  14  19
ATOM     19  O   UNL     1       8.225  24.730   3.783  1.00  0.00    -0.507 OA
ATOM     20  H   UNL     1       8.558  23.785   3.634  1.00  0.00     0.293 HD
ENDBRANCH  14  19
BRANCH  18  21
ATOM     21  O   UNL     1       7.986  28.820   6.345  1.00  0.00    -0.508 OA
ATOM     22  H   UNL     1       8.583  29.597   6.606  1.00  0.00     0.293 HD
ENDBRANCH  18  21
ENDBRANCH  11  13
ENDBRANCH   2  11
TORSDOF 6
ENDMDL
MODEL 7
REMARK VINA RESULT:    -5.569      1.381      2.017
REMARK INTER + INTRA:          -7.696
REMARK INTER:                  -7.138
REMARK INTRA:                  -0.557
REMARK UNBOUND:                -0.661
REMARK SMILES O=C(C=Cc1ccc(O)cc1)c1ccc(O)cc1O
REMARK SMILES IDX 4 1 3 2 5 3 6 4 7 5 8 6 11 7 10 8 9 9 2 11 1 12 12 13 18 14
REMARK SMILES IDX 13 15 17 16 14 17 15 18 19 19 16 21
REMARK H PARENT 9 10 19 20 16 22
REMARK Flexibility Score: inf
ROOT
ATOM      1  C   UNL     1      18.435  20.359   5.790  1.00  0.00     0.012 C 
ATOM      2  C   UNL     1      18.705  19.045   5.837  1.00  0.00     0.053 C 
ENDROOT
BRANCH   1   3
ATOM      3  C   UNL     1      17.176  20.925   5.244  1.00  0.00    -0.025 A 
ATOM      4  C   UNL     1      16.177  20.127   4.651  1.00  0.00     0.012 A 
ATOM      5  C   UNL     1      15.013  20.714   4.142  1.00  0.00     0.047 A 
ATOM      6  C   UNL     1      14.834  22.101   4.210  1.00  0.00     0.115 A 
ATOM      7  C   UNL     1      16.992  22.318   5.292  1.00  0.00     0.012 A 
ATOM      8  C   UNL     1      15.827  22.900   4.783  1.00  0.00     0.047 A 
BRANCH   6   9
ATOM      9  O   UNL     1      13.679  22.694   3.707  1.00  0.00    -0.508 OA
ATOM     10  H   UNL     1      12.758  22.346   3.946  1.00  0.00     0.293 HD
ENDBRANCH   6   9
ENDBRANCH   1   3
BRANCH   2  11
ATOM     11  C   UNL     1      19.968  18.507   6.384  1.00  0.00     0.189 C 
ATOM     12  O   UNL     1      20.663  19.257   7.121  1.00  0.00    -0.289 OA
BRANCH  11  13
ATOM     13  C   UNL     1      20.462  17.142   6.082  1.00  0.00     0.064 A 
ATOM     14  C   UNL     1      21.841  16.894   5.917  1.00  0.00     0.130 A 
ATOM     15  C   UNL     1      19.551  16.084   5.912  1.00  0.00     0.020 A 
ATOM     16  C   UNL     1      22.287  15.601   5.603  1.00  0.00     0.093 A 
ATOM     17  C   UNL     1      20.004  14.799   5.602  1.00  0.00     0.047 A 
ATOM     18  C   UNL     1      21.374  14.554   5.449  1.00  0.00     0.119 A 
BRANCH  14  19
ATOM     19  O   UNL     1      22.766  17.926   6.079  1.00  0.00    -0.507 OA
ATOM     20  H   UNL     1      22.600  18.693   6.720  1.00  0.00     0.293 HD
ENDBRANCH  14  19
BRANCH  18  21
ATOM     21  O   UNL     1      21.837  13.278   5.140  1.00  0.00    -0.508 OA
ATOM     22  H   UNL     1      22.524  12.810   5.719  1.00  0.00     0.293 HD
ENDBRANCH  18  21
ENDBRANCH  11  13
ENDBRANCH   2  11
TORSDOF 6
ENDMDL
