MODEL 1
REMARK VINA RESULT:    -3.477      0.000      0.000
REMARK INTER + INTRA:          -3.477
REMARK INTER:                  -3.477
REMARK INTRA:                   0.000
REMARK UNBOUND:                 0.000
REMARK SMILES CC1(C)O[C@]2(C)CC[C@H]1CC2
REMARK SMILES IDX 1 1 2 2 9 3 10 4 11 5 5 6 4 7 7 8 8 9 6 10 3 11
REMARK H PARENT
REMARK Flexibility Score: inf
ROOT
ATOM      1  C   UNL     1     147.421 137.848 138.246  1.00  0.00     0.042 C 
ATOM      2  C   UNL     1     147.585 139.076 139.167  1.00  0.00     0.066 C 
ATOM      3  C   UNL     1     148.280 140.263 138.394  1.00  0.00     0.021 C 
ATOM      4  C   UNL     1     148.464 141.445 139.376  1.00  0.00     0.009 C 
ATOM      5  C   UNL     1     149.169 140.937 140.657  1.00  0.00     0.035 C 
ATOM      6  C   UNL     1     149.538 139.435 140.494  1.00  0.00     0.066 C 
ATOM      7  O   UNL     1     148.342 138.673 140.318  1.00  0.00    -0.369 OA
ATOM      8  C   UNL     1     150.439 139.268 139.237  1.00  0.00     0.035 C 
ATOM      9  C   UNL     1     149.705 139.817 137.989  1.00  0.00     0.009 C 
ATOM     10  C   UNL     1     150.267 138.926 141.743  1.00  0.00     0.042 C 
ATOM     11  C   UNL     1     146.174 139.486 139.641  1.00  0.00     0.042 C 
ENDROOT
TORSDOF 0
ENDMDL
MODEL 2
REMARK VINA RESULT:    -3.439      6.750      8.112
REMARK INTER + INTRA:          -3.439
REMARK INTER:                  -3.439
REMARK INTRA:                   0.000
REMARK UNBOUND:                 0.000
REMARK SMILES CC1(C)O[C@]2(C)CC[C@H]1CC2
REMARK SMILES IDX 1 1 2 2 9 3 10 4 11 5 5 6 4 7 7 8 8 9 6 10 3 11
REMARK H PARENT
REMARK Flexibility Score: inf
ROOT
ATOM      1  C   UNL     1     139.483 139.381 143.033  1.00  0.00     0.042 C 
ATOM      2  C   UNL     1     140.306 139.832 141.807  1.00  0.00     0.066 C 
ATOM      3  C   UNL     1     141.720 139.132 141.796  1.00  0.00     0.021 C 
ATOM      4  C   UNL     1     142.517 139.657 140.578  1.00  0.00     0.009 C 
ATOM      5  C   UNL     1     142.502 141.205 140.590  1.00  0.00     0.035 C 
ATOM      6  C   UNL     1     141.774 141.716 141.866  1.00  0.00     0.066 C 
ATOM      7  O   UNL     1     140.419 141.262 141.846  1.00  0.00    -0.369 OA
ATOM      8  C   UNL     1     142.487 141.136 143.122  1.00  0.00     0.035 C 
ATOM      9  C   UNL     1     142.503 139.589 143.050  1.00  0.00     0.009 C 
ATOM     10  C   UNL     1     141.780 143.247 141.909  1.00  0.00     0.042 C 
ATOM     11  C   UNL     1     139.499 139.449 140.547  1.00  0.00     0.042 C 
ENDROOT
TORSDOF 0
ENDMDL
MODEL 3
REMARK VINA RESULT:    -3.425     13.818     16.203
REMARK INTER + INTRA:          -3.425
REMARK INTER:                  -3.425
REMARK INTRA:                   0.000
REMARK UNBOUND:                 0.000
REMARK SMILES CC1(C)O[C@]2(C)CC[C@H]1CC2
REMARK SMILES IDX 1 1 2 2 9 3 10 4 11 5 5 6 4 7 7 8 8 9 6 10 3 11
REMARK H PARENT
REMARK Flexibility Score: inf
ROOT
ATOM      1  C   UNL     1     134.220 143.746 138.253  1.00  0.00     0.042 C 
ATOM      2  C   UNL     1     134.061 142.538 139.201  1.00  0.00     0.066 C 
ATOM      3  C   UNL     1     133.408 141.317 138.443  1.00  0.00     0.021 C 
ATOM      4  C   UNL     1     133.226 140.157 139.451  1.00  0.00     0.009 C 
ATOM      5  C   UNL     1     132.482 140.683 140.703  1.00  0.00     0.035 C 
ATOM      6  C   UNL     1     132.086 142.172 140.494  1.00  0.00     0.066 C 
ATOM      7  O   UNL     1     133.270 142.954 140.324  1.00  0.00    -0.369 OA
ATOM      8  C   UNL     1     131.210 142.288 139.213  1.00  0.00     0.035 C 
ATOM      9  C   UNL     1     131.983 141.724 137.996  1.00  0.00     0.009 C 
ATOM     10  C   UNL     1     131.319 142.697 141.712  1.00  0.00     0.042 C 
ATOM     11  C   UNL     1     135.469 142.170 139.716  1.00  0.00     0.042 C 
ENDROOT
TORSDOF 0
ENDMDL
MODEL 4
REMARK VINA RESULT:    -3.420      7.419      9.414
REMARK INTER + INTRA:          -3.420
REMARK INTER:                  -3.420
REMARK INTRA:                   0.000
REMARK UNBOUND:                 0.000
REMARK SMILES CC1(C)O[C@]2(C)CC[C@H]1CC2
REMARK SMILES IDX 1 1 2 2 9 3 10 4 11 5 5 6 4 7 7 8 8 9 6 10 3 11
REMARK H PARENT
REMARK Flexibility Score: inf
ROOT
ATOM      1  C   UNL     1     142.080 142.391 142.945  1.00  0.00     0.042 C 
ATOM      2  C   UNL     1     141.282 141.839 141.744  1.00  0.00     0.066 C 
ATOM      3  C   UNL     1     139.849 142.496 141.677  1.00  0.00     0.021 C 
ATOM      4  C   UNL     1     139.079 141.870 140.490  1.00  0.00     0.009 C 
ATOM      5  C   UNL     1     139.137 140.327 140.603  1.00  0.00     0.035 C 
ATOM      6  C   UNL     1     139.867 139.922 141.915  1.00  0.00     0.066 C 
ATOM      7  O   UNL     1     141.209 140.411 141.877  1.00  0.00    -0.369 OA
ATOM      8  C   UNL     1     139.125 140.561 143.125  1.00  0.00     0.035 C 
ATOM      9  C   UNL     1     139.068 142.098 142.952  1.00  0.00     0.009 C 
ATOM     10  C   UNL     1     139.902 138.397 142.058  1.00  0.00     0.042 C 
ATOM     11  C   UNL     1     142.091 142.161 140.469  1.00  0.00     0.042 C 
ENDROOT
TORSDOF 0
ENDMDL
MODEL 5
REMARK VINA RESULT:    -3.414      6.638      8.234
REMARK INTER + INTRA:          -3.414
REMARK INTER:                  -3.414
REMARK INTRA:                   0.000
REMARK UNBOUND:                 0.000
REMARK SMILES CC1(C)O[C@]2(C)CC[C@H]1CC2
REMARK SMILES IDX 1 1 2 2 9 3 10 4 11 5 5 6 4 7 7 8 8 9 6 10 3 11
REMARK H PARENT
REMARK Flexibility Score: inf
ROOT
ATOM      1  C   UNL     1     138.989 142.190 140.657  1.00  0.00     0.042 C 
ATOM      2  C   UNL     1     139.986 141.868 141.791  1.00  0.00     0.066 C 
ATOM      3  C   UNL     1     140.996 143.062 142.000  1.00  0.00     0.021 C 
ATOM      4  C   UNL     1     141.999 142.665 143.110  1.00  0.00     0.009 C 
ATOM      5  C   UNL     1     142.609 141.283 142.773  1.00  0.00     0.035 C 
ATOM      6  C   UNL     1     142.083 140.797 141.392  1.00  0.00     0.066 C 
ATOM      7  O   UNL     1     140.664 140.648 141.456  1.00  0.00    -0.369 OA
ATOM      8  C   UNL     1     142.436 141.861 140.313  1.00  0.00     0.035 C 
ATOM      9  C   UNL     1     141.831 143.230 140.709  1.00  0.00     0.009 C 
ATOM     10  C   UNL     1     142.705 139.444 141.029  1.00  0.00     0.042 C 
ATOM     11  C   UNL     1     139.160 141.622 143.072  1.00  0.00     0.042 C 
ENDROOT
TORSDOF 0
ENDMDL
MODEL 6
REMARK VINA RESULT:    -3.409      6.262      8.608
REMARK INTER + INTRA:          -3.409
REMARK INTER:                  -3.409
REMARK INTRA:                   0.000
REMARK UNBOUND:                 0.000
REMARK SMILES CC1(C)O[C@]2(C)CC[C@H]1CC2
REMARK SMILES IDX 1 1 2 2 9 3 10 4 11 5 5 6 4 7 7 8 8 9 6 10 3 11
REMARK H PARENT
REMARK Flexibility Score: inf
ROOT
ATOM      1  C   UNL     1     140.088 142.308 143.114  1.00  0.00     0.042 C 
ATOM      2  C   UNL     1     140.359 141.446 141.863  1.00  0.00     0.066 C 
ATOM      3  C   UNL     1     139.500 140.122 141.902  1.00  0.00     0.021 C 
ATOM      4  C   UNL     1     139.849 139.276 140.654  1.00  0.00     0.009 C 
ATOM      5  C   UNL     1     141.386 139.111 140.565  1.00  0.00     0.035 C 
ATOM      6  C   UNL     1     142.059 139.769 141.804  1.00  0.00     0.066 C 
ATOM      7  O   UNL     1     141.766 141.167 141.810  1.00  0.00    -0.369 OA
ATOM      8  C   UNL     1     141.484 139.121 143.096  1.00  0.00     0.035 C 
ATOM      9  C   UNL     1     139.945 139.285 143.125  1.00  0.00     0.009 C 
ATOM     10  C   UNL     1     143.579 139.584 141.746  1.00  0.00     0.042 C 
ATOM     11  C   UNL     1     139.992 142.298 140.629  1.00  0.00     0.042 C 
ENDROOT
TORSDOF 0
ENDMDL
MODEL 7
REMARK VINA RESULT:    -3.402      6.627      9.120
REMARK INTER + INTRA:          -3.402
REMARK INTER:                  -3.402
REMARK INTRA:                   0.000
REMARK UNBOUND:                 0.000
REMARK SMILES CC1(C)O[C@]2(C)CC[C@H]1CC2
REMARK SMILES IDX 1 1 2 2 9 3 10 4 11 5 5 6 4 7 7 8 8 9 6 10 3 11
REMARK H PARENT
REMARK Flexibility Score: inf
ROOT
ATOM      1  C   UNL     1     142.600 139.467 140.513  1.00  0.00     0.042 C 
ATOM      2  C   UNL     1     141.647 139.608 141.719  1.00  0.00     0.066 C 
ATOM      3  C   UNL     1     140.612 138.417 141.755  1.00  0.00     0.021 C 
ATOM      4  C   UNL     1     139.654 138.637 142.949  1.00  0.00     0.009 C 
ATOM      5  C   UNL     1     139.069 140.069 142.875  1.00  0.00     0.035 C 
ATOM      6  C   UNL     1     139.566 140.774 141.581  1.00  0.00     0.066 C 
ATOM      7  O   UNL     1     140.991 140.881 141.622  1.00  0.00    -0.369 OA
ATOM      8  C   UNL     1     139.154 139.920 140.348  1.00  0.00     0.035 C 
ATOM      9  C   UNL     1     139.736 138.491 140.482  1.00  0.00     0.009 C 
ATOM     10  C   UNL     1     138.969 142.182 141.477  1.00  0.00     0.042 C 
ATOM     11  C   UNL     1     142.517 139.613 142.994  1.00  0.00     0.042 C 
ENDROOT
TORSDOF 0
ENDMDL
MODEL 8
REMARK VINA RESULT:    -3.392      7.783      9.504
REMARK INTER + INTRA:          -3.392
REMARK INTER:                  -3.392
REMARK INTRA:                   0.000
REMARK UNBOUND:                 0.000
REMARK SMILES CC1(C)O[C@]2(C)CC[C@H]1CC2
REMARK SMILES IDX 1 1 2 2 9 3 10 4 11 5 5 6 4 7 7 8 8 9 6 10 3 11
REMARK H PARENT
REMARK Flexibility Score: inf
ROOT
ATOM      1  C   UNL     1     139.497 139.074 140.519  1.00  0.00     0.042 C 
ATOM      2  C   UNL     1     139.583 140.034 141.725  1.00  0.00     0.066 C 
ATOM      3  C   UNL     1     138.391 141.068 141.700  1.00  0.00     0.021 C 
ATOM      4  C   UNL     1     138.556 142.034 142.897  1.00  0.00     0.009 C 
ATOM      5  C   UNL     1     139.989 142.619 142.885  1.00  0.00     0.035 C 
ATOM      6  C   UNL     1     140.753 142.115 141.628  1.00  0.00     0.066 C 
ATOM      7  O   UNL     1     140.859 140.691 141.682  1.00  0.00    -0.369 OA
ATOM      8  C   UNL     1     139.956 142.520 140.355  1.00  0.00     0.035 C 
ATOM      9  C   UNL     1     138.523 141.937 140.427  1.00  0.00     0.009 C 
ATOM     10  C   UNL     1     142.164 142.713 141.585  1.00  0.00     0.042 C 
ATOM     11  C   UNL     1     139.530 139.172 143.004  1.00  0.00     0.042 C 
ENDROOT
TORSDOF 0
ENDMDL
MODEL 9
REMARK VINA RESULT:    -3.341      6.812      8.333
REMARK INTER + INTRA:          -3.341
REMARK INTER:                  -3.341
REMARK INTRA:                   0.000
REMARK UNBOUND:                 0.000
REMARK SMILES CC1(C)O[C@]2(C)CC[C@H]1CC2
REMARK SMILES IDX 1 1 2 2 9 3 10 4 11 5 5 6 4 7 7 8 8 9 6 10 3 11
REMARK H PARENT
REMARK Flexibility Score: inf
ROOT
ATOM      1  C   UNL     1     140.240 142.504 140.640  1.00  0.00     0.042 C 
ATOM      2  C   UNL     1     140.632 141.653 141.867  1.00  0.00     0.066 C 
ATOM      3  C   UNL     1     142.193 141.422 141.908  1.00  0.00     0.021 C 
ATOM      4  C   UNL     1     142.523 140.524 143.124  1.00  0.00     0.009 C 
ATOM      5  C   UNL     1     141.629 139.260 143.080  1.00  0.00     0.035 C 
ATOM      6  C   UNL     1     140.767 139.269 141.785  1.00  0.00     0.066 C 
ATOM      7  O   UNL     1     139.912 140.413 141.798  1.00  0.00    -0.369 OA
ATOM      8  C   UNL     1     141.710 139.351 140.550  1.00  0.00     0.035 C 
ATOM      9  C   UNL     1     142.602 140.613 140.654  1.00  0.00     0.009 C 
ATOM     10  C   UNL     1     139.902 138.007 141.711  1.00  0.00     0.042 C 
ATOM     11  C   UNL     1     140.160 142.414 143.124  1.00  0.00     0.042 C 
ENDROOT
TORSDOF 0
ENDMDL
