MODEL 1
REMARK VINA RESULT:    -2.610      0.000      0.000
REMARK INTER + INTRA:          -6.336
REMARK INTER:                  -4.746
REMARK INTRA:                  -1.590
REMARK UNBOUND:                -1.590
REMARK SMILES CCCCCCCCCCCCCC[C@H](C)C(=O)[O-]
REMARK SMILES IDX 9 1 10 2 11 3 12 4 13 5 14 6 15 7 16 8 17 9 18 10 19 11 8 12
REMARK SMILES IDX 7 13 6 14 5 15 4 16 3 17 2 18 1 19
REMARK H PARENT
REMARK Flexibility Score: inf
ROOT
ATOM      1  C   UNL     1      28.959  13.222  47.585  1.00  0.00     0.000 C 
ENDROOT
BRANCH   1   2
ATOM      2  C   UNL     1      27.983  13.286  48.769  1.00  0.00     0.000 C 
BRANCH   2   3
ATOM      3  C   UNL     1      26.548  13.531  48.285  1.00  0.00     0.000 C 
BRANCH   3   4
ATOM      4  C   UNL     1      25.561  12.592  48.987  1.00  0.00     0.000 C 
BRANCH   4   5
ATOM      5  C   UNL     1      24.698  13.359  50.000  1.00  0.00     0.001 C 
BRANCH   5   6
ATOM      6  C   UNL     1      24.012  14.597  49.393  1.00  0.00     0.009 C 
BRANCH   6   7
ATOM      7  C   UNL     1      24.300  15.929  50.124  1.00  0.00     0.032 C 
ATOM      8  C   UNL     1      23.097  16.882  50.103  1.00  0.00     0.014 C 
BRANCH   7   9
ATOM      9  C   UNL     1      25.488  16.601  49.492  1.00  0.00     0.044 C 
ATOM     10  O   UNL     1      26.614  16.557  50.054  1.00  0.00    -0.550 OA
ATOM     11  O   UNL     1      25.356  17.261  48.276  1.00  0.00    -0.550 OA
ENDBRANCH   7   9
ENDBRANCH   6   7
ENDBRANCH   5   6
ENDBRANCH   4   5
ENDBRANCH   3   4
ENDBRANCH   2   3
ENDBRANCH   1   2
BRANCH   1  12
ATOM     12  C   UNL     1      30.390  12.860  48.015  1.00  0.00     0.000 C 
BRANCH  12  13
ATOM     13  C   UNL     1      30.571  12.878  49.542  1.00  0.00    -0.000 C 
BRANCH  13  14
ATOM     14  C   UNL     1      31.174  14.197  50.060  1.00  0.00    -0.000 C 
BRANCH  14  15
ATOM     15  C   UNL     1      31.611  15.194  48.970  1.00  0.00    -0.000 C 
BRANCH  15  16
ATOM     16  C   UNL     1      31.523  16.660  49.428  1.00  0.00    -0.000 C 
BRANCH  16  17
ATOM     17  C   UNL     1      30.333  17.402  48.801  1.00  0.00    -0.000 C 
BRANCH  17  18
ATOM     18  C   UNL     1      29.912  16.810  47.447  1.00  0.00    -0.003 C 
ATOM     19  C   UNL     1      28.504  17.258  47.065  1.00  0.00     0.004 C 
ENDBRANCH  17  18
ENDBRANCH  16  17
ENDBRANCH  15  16
ENDBRANCH  14  15
ENDBRANCH  13  14
ENDBRANCH  12  13
ENDBRANCH   1  12
TORSDOF 14
ENDMDL
MODEL 2
REMARK VINA RESULT:    -2.308      1.384      2.929
REMARK INTER + INTRA:          -5.787
REMARK INTER:                  -4.127
REMARK INTRA:                  -1.660
REMARK UNBOUND:                -1.590
REMARK SMILES CCCCCCCCCCCCCC[C@H](C)C(=O)[O-]
REMARK SMILES IDX 9 1 10 2 11 3 12 4 13 5 14 6 15 7 16 8 17 9 18 10 19 11 8 12
REMARK SMILES IDX 7 13 6 14 5 15 4 16 3 17 2 18 1 19
REMARK H PARENT
REMARK Flexibility Score: inf
ROOT
ATOM      1  C   UNL     1      26.188  13.705  48.618  1.00  0.00     0.000 C 
ENDROOT
BRANCH   1   2
ATOM      2  C   UNL     1      25.004  13.096  49.381  1.00  0.00     0.000 C 
BRANCH   2   3
ATOM      3  C   UNL     1      23.887  14.129  49.577  1.00  0.00     0.000 C 
BRANCH   3   4
ATOM      4  C   UNL     1      24.288  15.492  49.003  1.00  0.00     0.000 C 
BRANCH   4   5
ATOM      5  C   UNL     1      24.521  16.515  50.124  1.00  0.00     0.001 C 
BRANCH   5   6
ATOM      6  C   UNL     1      25.475  17.653  49.715  1.00  0.00     0.009 C 
BRANCH   6   7
ATOM      7  C   UNL     1      26.908  17.204  49.343  1.00  0.00     0.032 C 
ATOM      8  C   UNL     1      27.984  17.971  50.123  1.00  0.00     0.014 C 
BRANCH   7   9
ATOM      9  C   UNL     1      27.123  17.392  47.866  1.00  0.00     0.044 C 
ATOM     10  O   UNL     1      28.123  16.875  47.301  1.00  0.00    -0.550 OA
ATOM     11  O   UNL     1      26.215  18.125  47.112  1.00  0.00    -0.550 OA
ENDBRANCH   7   9
ENDBRANCH   6   7
ENDBRANCH   5   6
ENDBRANCH   4   5
ENDBRANCH   3   4
ENDBRANCH   2   3
ENDBRANCH   1   2
BRANCH   1  12
ATOM     12  C   UNL     1      27.523  13.536  49.361  1.00  0.00     0.000 C 
BRANCH  12  13
ATOM     13  C   UNL     1      28.535  12.686  48.575  1.00  0.00    -0.000 C 
BRANCH  13  14
ATOM     14  C   UNL     1      29.855  13.428  48.295  1.00  0.00    -0.000 C 
BRANCH  14  15
ATOM     15  C   UNL     1      30.893  13.375  49.431  1.00  0.00    -0.000 C 
BRANCH  15  16
ATOM     16  C   UNL     1      31.667  14.694  49.598  1.00  0.00    -0.000 C 
BRANCH  16  17
ATOM     17  C   UNL     1      30.903  15.901  49.031  1.00  0.00    -0.000 C 
BRANCH  17  18
ATOM     18  C   UNL     1      31.697  17.211  49.142  1.00  0.00    -0.003 C 
ATOM     19  C   UNL     1      32.045  17.761  47.762  1.00  0.00     0.004 C 
ENDBRANCH  17  18
ENDBRANCH  16  17
ENDBRANCH  15  16
ENDBRANCH  14  15
ENDBRANCH  13  14
ENDBRANCH  12  13
ENDBRANCH   1  12
TORSDOF 14
ENDMDL
MODEL 3
REMARK VINA RESULT:    -2.224      1.860      4.647
REMARK INTER + INTRA:          -5.635
REMARK INTER:                  -4.775
REMARK INTRA:                  -0.859
REMARK UNBOUND:                -1.590
REMARK SMILES CCCCCCCCCCCCCC[C@H](C)C(=O)[O-]
REMARK SMILES IDX 9 1 10 2 11 3 12 4 13 5 14 6 15 7 16 8 17 9 18 10 19 11 8 12
REMARK SMILES IDX 7 13 6 14 5 15 4 16 3 17 2 18 1 19
REMARK H PARENT
REMARK Flexibility Score: inf
ROOT
ATOM      1  C   UNL     1      24.867  13.949  48.511  1.00  0.00     0.000 C 
ENDROOT
BRANCH   1   2
ATOM      2  C   UNL     1      24.541  15.023  49.559  1.00  0.00     0.000 C 
BRANCH   2   3
ATOM      3  C   UNL     1      24.603  16.427  48.944  1.00  0.00     0.000 C 
BRANCH   3   4
ATOM      4  C   UNL     1      25.937  16.657  48.225  1.00  0.00     0.000 C 
BRANCH   4   5
ATOM      5  C   UNL     1      26.462  18.078  48.480  1.00  0.00     0.001 C 
BRANCH   5   6
ATOM      6  C   UNL     1      27.836  18.097  49.175  1.00  0.00     0.009 C 
BRANCH   6   7
ATOM      7  C   UNL     1      29.053  18.122  48.220  1.00  0.00     0.032 C 
ATOM      8  C   UNL     1      28.651  17.921  46.753  1.00  0.00     0.014 C 
BRANCH   7   9
ATOM      9  C   UNL     1      30.031  17.054  48.628  1.00  0.00     0.044 C 
ATOM     10  O   UNL     1      30.848  16.591  47.790  1.00  0.00    -0.550 OA
ATOM     11  O   UNL     1      30.048  16.581  49.935  1.00  0.00    -0.550 OA
ENDBRANCH   7   9
ENDBRANCH   6   7
ENDBRANCH   5   6
ENDBRANCH   4   5
ENDBRANCH   3   4
ENDBRANCH   2   3
ENDBRANCH   1   2
BRANCH   1  12
ATOM     12  C   UNL     1      26.124  13.138  48.863  1.00  0.00     0.000 C 
BRANCH  12  13
ATOM     13  C   UNL     1      26.852  13.684  50.103  1.00  0.00    -0.000 C 
BRANCH  13  14
ATOM     14  C   UNL     1      28.384  13.685  49.949  1.00  0.00    -0.000 C 
BRANCH  14  15
ATOM     15  C   UNL     1      28.956  12.575  49.047  1.00  0.00    -0.000 C 
BRANCH  15  16
ATOM     16  C   UNL     1      29.554  13.115  47.737  1.00  0.00    -0.000 C 
BRANCH  16  17
ATOM     17  C   UNL     1      30.921  12.491  47.413  1.00  0.00    -0.000 C 
BRANCH  17  18
ATOM     18  C   UNL     1      32.094  13.326  47.946  1.00  0.00    -0.003 C 
ATOM     19  C   UNL     1      31.883  13.698  49.411  1.00  0.00     0.004 C 
ENDBRANCH  17  18
ENDBRANCH  16  17
ENDBRANCH  15  16
ENDBRANCH  14  15
ENDBRANCH  13  14
ENDBRANCH  12  13
ENDBRANCH   1  12
TORSDOF 14
ENDMDL
MODEL 4
REMARK VINA RESULT:    -1.689      2.144      6.502
REMARK INTER + INTRA:          -4.661
REMARK INTER:                  -5.068
REMARK INTRA:                   0.408
REMARK UNBOUND:                -1.590
REMARK SMILES CCCCCCCCCCCCCC[C@H](C)C(=O)[O-]
REMARK SMILES IDX 9 1 10 2 11 3 12 4 13 5 14 6 15 7 16 8 17 9 18 10 19 11 8 12
REMARK SMILES IDX 7 13 6 14 5 15 4 16 3 17 2 18 1 19
REMARK H PARENT
REMARK Flexibility Score: inf
ROOT
ATOM      1  C   UNL     1      28.364  12.850  48.132  1.00  0.00     0.000 C 
ENDROOT
BRANCH   1   2
ATOM      2  C   UNL     1      29.679  13.133  47.392  1.00  0.00     0.000 C 
BRANCH   2   3
ATOM      3  C   UNL     1      30.791  13.519  48.376  1.00  0.00     0.000 C 
BRANCH   3   4
ATOM      4  C   UNL     1      30.391  14.744  49.208  1.00  0.00     0.000 C 
BRANCH   4   5
ATOM      5  C   UNL     1      31.440  15.859  49.084  1.00  0.00     0.001 C 
BRANCH   5   6
ATOM      6  C   UNL     1      31.064  16.927  48.039  1.00  0.00     0.009 C 
BRANCH   6   7
ATOM      7  C   UNL     1      30.011  17.958  48.508  1.00  0.00     0.032 C 
ATOM      8  C   UNL     1      29.977  18.110  50.034  1.00  0.00     0.014 C 
BRANCH   7   9
ATOM      9  C   UNL     1      28.652  17.547  48.009  1.00  0.00     0.044 C 
ATOM     10  O   UNL     1      28.548  16.730  47.057  1.00  0.00    -0.550 OA
ATOM     11  O   UNL     1      27.504  18.053  48.605  1.00  0.00    -0.550 OA
ENDBRANCH   7   9
ENDBRANCH   6   7
ENDBRANCH   5   6
ENDBRANCH   4   5
ENDBRANCH   3   4
ENDBRANCH   2   3
ENDBRANCH   1   2
BRANCH   1  12
ATOM     12  C   UNL     1      28.050  13.903  49.208  1.00  0.00     0.000 C 
BRANCH  12  13
ATOM     13  C   UNL     1      26.577  14.343  49.193  1.00  0.00    -0.000 C 
BRANCH  13  14
ATOM     14  C   UNL     1      25.628  13.249  48.668  1.00  0.00    -0.000 C 
BRANCH  14  15
ATOM     15  C   UNL     1      25.385  12.072  49.630  1.00  0.00    -0.000 C 
BRANCH  15  16
ATOM     16  C   UNL     1      23.928  11.985  50.115  1.00  0.00    -0.000 C 
BRANCH  16  17
ATOM     17  C   UNL     1      23.335  10.577  49.949  1.00  0.00    -0.000 C 
BRANCH  17  18
ATOM     18  C   UNL     1      21.805  10.559  50.083  1.00  0.00    -0.003 C 
ATOM     19  C   UNL     1      21.241   9.178  49.760  1.00  0.00     0.004 C 
ENDBRANCH  17  18
ENDBRANCH  16  17
ENDBRANCH  15  16
ENDBRANCH  14  15
ENDBRANCH  13  14
ENDBRANCH  12  13
ENDBRANCH   1  12
TORSDOF 14
ENDMDL
MODEL 5
REMARK VINA RESULT:    -1.281     15.607     17.779
REMARK INTER + INTRA:          -3.919
REMARK INTER:                  -2.914
REMARK INTRA:                  -1.006
REMARK UNBOUND:                -1.590
REMARK SMILES CCCCCCCCCCCCCC[C@H](C)C(=O)[O-]
REMARK SMILES IDX 9 1 10 2 11 3 12 4 13 5 14 6 15 7 16 8 17 9 18 10 19 11 8 12
REMARK SMILES IDX 7 13 6 14 5 15 4 16 3 17 2 18 1 19
REMARK H PARENT
REMARK Flexibility Score: inf
ROOT
ATOM      1  C   UNL     1      29.192   1.218  38.234  1.00  0.00     0.000 C 
ENDROOT
BRANCH   1   2
ATOM      2  C   UNL     1      28.352   0.351  39.182  1.00  0.00     0.000 C 
BRANCH   2   3
ATOM      3  C   UNL     1      28.973  -1.042  39.348  1.00  0.00     0.000 C 
BRANCH   3   4
ATOM      4  C   UNL     1      28.684  -1.614  40.741  1.00  0.00     0.000 C 
BRANCH   4   5
ATOM      5  C   UNL     1      28.950  -0.566  41.832  1.00  0.00     0.001 C 
BRANCH   5   6
ATOM      6  C   UNL     1      30.087  -0.968  42.790  1.00  0.00     0.009 C 
BRANCH   6   7
ATOM      7  C   UNL     1      29.658  -1.862  43.977  1.00  0.00     0.032 C 
ATOM      8  C   UNL     1      28.139  -1.865  44.190  1.00  0.00     0.014 C 
BRANCH   7   9
ATOM      9  C   UNL     1      30.344  -1.391  45.231  1.00  0.00     0.044 C 
ATOM     10  O   UNL     1      31.358  -0.648  45.157  1.00  0.00    -0.550 OA
ATOM     11  O   UNL     1      29.855  -1.760  46.478  1.00  0.00    -0.550 OA
ENDBRANCH   7   9
ENDBRANCH   6   7
ENDBRANCH   5   6
ENDBRANCH   4   5
ENDBRANCH   3   4
ENDBRANCH   2   3
ENDBRANCH   1   2
BRANCH   1  12
ATOM     12  C   UNL     1      29.460   0.533  36.884  1.00  0.00     0.000 C 
BRANCH  12  13
ATOM     13  C   UNL     1      30.893  -0.013  36.772  1.00  0.00    -0.000 C 
BRANCH  13  14
ATOM     14  C   UNL     1      31.835   0.543  37.856  1.00  0.00    -0.000 C 
BRANCH  14  15
ATOM     15  C   UNL     1      32.124  -0.411  39.029  1.00  0.00    -0.000 C 
BRANCH  15  16
ATOM     16  C   UNL     1      32.115   0.298  40.394  1.00  0.00    -0.000 C 
BRANCH  16  17
ATOM     17  C   UNL     1      32.111   1.829  40.263  1.00  0.00    -0.000 C 
BRANCH  17  18
ATOM     18  C   UNL     1      30.835   2.468  40.831  1.00  0.00    -0.003 C 
ATOM     19  C   UNL     1      30.253   3.491  39.859  1.00  0.00     0.004 C 
ENDBRANCH  17  18
ENDBRANCH  16  17
ENDBRANCH  15  16
ENDBRANCH  14  15
ENDBRANCH  13  14
ENDBRANCH  12  13
ENDBRANCH   1  12
TORSDOF 14
ENDMDL
MODEL 6
REMARK VINA RESULT:    -1.144      1.497      5.944
REMARK INTER + INTRA:          -3.670
REMARK INTER:                  -3.285
REMARK INTRA:                  -0.385
REMARK UNBOUND:                -1.590
REMARK SMILES CCCCCCCCCCCCCC[C@H](C)C(=O)[O-]
REMARK SMILES IDX 9 1 10 2 11 3 12 4 13 5 14 6 15 7 16 8 17 9 18 10 19 11 8 12
REMARK SMILES IDX 7 13 6 14 5 15 4 16 3 17 2 18 1 19
REMARK H PARENT
REMARK Flexibility Score: inf
ROOT
ATOM      1  C   UNL     1      28.104  13.160  48.131  1.00  0.00     0.000 C 
ENDROOT
BRANCH   1   2
ATOM      2  C   UNL     1      29.449  13.584  47.522  1.00  0.00     0.000 C 
BRANCH   2   3
ATOM      3  C   UNL     1      30.621  13.034  48.344  1.00  0.00     0.000 C 
BRANCH   3   4
ATOM      4  C   UNL     1      31.146  14.085  49.330  1.00  0.00     0.000 C 
BRANCH   4   5
ATOM      5  C   UNL     1      32.115  15.053  48.637  1.00  0.00     0.001 C 
BRANCH   5   6
ATOM      6  C   UNL     1      31.397  16.140  47.815  1.00  0.00     0.009 C 
BRANCH   6   7
ATOM      7  C   UNL     1      30.816  17.310  48.643  1.00  0.00     0.032 C 
ATOM      8  C   UNL     1      31.495  17.456  50.011  1.00  0.00     0.014 C 
BRANCH   7   9
ATOM      9  C   UNL     1      29.337  17.104  48.831  1.00  0.00     0.044 C 
ATOM     10  O   UNL     1      28.854  17.009  49.989  1.00  0.00    -0.550 OA
ATOM     11  O   UNL     1      28.493  17.032  47.729  1.00  0.00    -0.550 OA
ENDBRANCH   7   9
ENDBRANCH   6   7
ENDBRANCH   5   6
ENDBRANCH   4   5
ENDBRANCH   3   4
ENDBRANCH   2   3
ENDBRANCH   1   2
BRANCH   1  12
ATOM     12  C   UNL     1      27.931  13.644  49.580  1.00  0.00     0.000 C 
BRANCH  12  13
ATOM     13  C   UNL     1      26.653  14.477  49.776  1.00  0.00    -0.000 C 
BRANCH  13  14
ATOM     14  C   UNL     1      26.170  15.151  48.478  1.00  0.00    -0.000 C 
BRANCH  14  15
ATOM     15  C   UNL     1      24.642  15.274  48.329  1.00  0.00    -0.000 C 
BRANCH  15  16
ATOM     16  C   UNL     1      23.880  14.846  49.595  1.00  0.00    -0.000 C 
BRANCH  16  17
ATOM     17  C   UNL     1      23.432  13.377  49.545  1.00  0.00    -0.000 C 
BRANCH  17  18
ATOM     18  C   UNL     1      24.482  12.418  50.125  1.00  0.00    -0.003 C 
ATOM     19  C   UNL     1      24.352  11.026  49.512  1.00  0.00     0.004 C 
ENDBRANCH  17  18
ENDBRANCH  16  17
ENDBRANCH  15  16
ENDBRANCH  14  15
ENDBRANCH  13  14
ENDBRANCH  12  13
ENDBRANCH   1  12
TORSDOF 14
ENDMDL
MODEL 7
REMARK VINA RESULT:    -1.033     15.963     18.051
REMARK INTER + INTRA:          -3.469
REMARK INTER:                  -2.739
REMARK INTRA:                  -0.731
REMARK UNBOUND:                -1.590
REMARK SMILES CCCCCCCCCCCCCC[C@H](C)C(=O)[O-]
REMARK SMILES IDX 9 1 10 2 11 3 12 4 13 5 14 6 15 7 16 8 17 9 18 10 19 11 8 12
REMARK SMILES IDX 7 13 6 14 5 15 4 16 3 17 2 18 1 19
REMARK H PARENT
REMARK Flexibility Score: inf
ROOT
ATOM      1  C   UNL     1      27.594  -0.531  42.667  1.00  0.00     0.000 C 
ENDROOT
BRANCH   1   2
ATOM      2  C   UNL     1      28.444  -1.020  43.848  1.00  0.00     0.000 C 
BRANCH   2   3
ATOM      3  C   UNL     1      29.847  -1.429  43.383  1.00  0.00     0.000 C 
BRANCH   3   4
ATOM      4  C   UNL     1      29.959  -1.378  41.854  1.00  0.00     0.000 C 
BRANCH   4   5
ATOM      5  C   UNL     1      31.218  -0.613  41.420  1.00  0.00     0.001 C 
BRANCH   5   6
ATOM      6  C   UNL     1      31.462  -0.667  39.900  1.00  0.00     0.009 C 
BRANCH   6   7
ATOM      7  C   UNL     1      31.247   0.670  39.155  1.00  0.00     0.032 C 
ATOM      8  C   UNL     1      31.427   1.888  40.070  1.00  0.00     0.014 C 
BRANCH   7   9
ATOM      9  C   UNL     1      29.868   0.690  38.552  1.00  0.00     0.044 C 
ATOM     10  O   UNL     1      28.856   0.808  39.291  1.00  0.00    -0.550 OA
ATOM     11  O   UNL     1      29.703   0.593  37.175  1.00  0.00    -0.550 OA
ENDBRANCH   7   9
ENDBRANCH   6   7
ENDBRANCH   5   6
ENDBRANCH   4   5
ENDBRANCH   3   4
ENDBRANCH   2   3
ENDBRANCH   1   2
BRANCH   1  12
ATOM     12  C   UNL     1      26.356   0.262  43.116  1.00  0.00     0.000 C 
BRANCH  12  13
ATOM     13  C   UNL     1      25.621   0.927  41.939  1.00  0.00    -0.000 C 
BRANCH  13  14
ATOM     14  C   UNL     1      24.235   1.473  42.328  1.00  0.00    -0.000 C 
BRANCH  14  15
ATOM     15  C   UNL     1      23.319   1.844  41.147  1.00  0.00    -0.000 C 
BRANCH  15  16
ATOM     16  C   UNL     1      22.056   0.968  41.069  1.00  0.00    -0.000 C 
BRANCH  16  17
ATOM     17  C   UNL     1      20.989   1.556  40.133  1.00  0.00    -0.000 C 
BRANCH  17  18
ATOM     18  C   UNL     1      19.727   2.007  40.883  1.00  0.00    -0.003 C 
ATOM     19  C   UNL     1      18.633   2.437  39.909  1.00  0.00     0.004 C 
ENDBRANCH  17  18
ENDBRANCH  16  17
ENDBRANCH  15  16
ENDBRANCH  14  15
ENDBRANCH  13  14
ENDBRANCH  12  13
ENDBRANCH   1  12
TORSDOF 14
ENDMDL
