MODEL 1
REMARK VINA RESULT:    -3.671      0.000      0.000
REMARK INTER + INTRA:          -7.356
REMARK INTER:                  -5.817
REMARK INTRA:                  -1.539
REMARK UNBOUND:                -1.539
REMARK SMILES C=CCCCCCCCCCCC
REMARK SMILES IDX 7 1 8 2 9 3 10 4 11 5 12 6 13 7 6 8 5 9 4 10 3 11 2 12 1 13
REMARK H PARENT
REMARK Flexibility Score: inf
ROOT
ATOM      1  C   UNL     1     165.817 168.887 201.170  1.00  0.00     0.000 C 
ENDROOT
BRANCH   1   2
ATOM      2  C   UNL     1     166.961 169.394 200.273  1.00  0.00     0.000 C 
BRANCH   2   3
ATOM      3  C   UNL     1     166.461 170.125 199.014  1.00  0.00    -0.000 C 
BRANCH   3   4
ATOM      4  C   UNL     1     167.489 170.247 197.875  1.00  0.00    -0.000 C 
BRANCH   4   5
ATOM      5  C   UNL     1     167.249 169.243 196.738  1.00  0.00    -0.000 C 
BRANCH   5   6
ATOM      6  C   UNL     1     167.978 167.922 197.007  1.00  0.00    -0.003 C 
ATOM      7  C   UNL     1     169.366 168.168 197.593  1.00  0.00     0.004 C 
ENDBRANCH   5   6
ENDBRANCH   4   5
ENDBRANCH   3   4
ENDBRANCH   2   3
ENDBRANCH   1   2
BRANCH   1   8
ATOM      8  C   UNL     1     164.462 169.540 200.818  1.00  0.00     0.000 C 
BRANCH   8   9
ATOM      9  C   UNL     1     163.258 168.608 201.036  1.00  0.00     0.000 C 
BRANCH   9  10
ATOM     10  C   UNL     1     162.383 168.466 199.781  1.00  0.00     0.004 C 
BRANCH  10  11
ATOM     11  C   UNL     1     162.995 169.177 198.566  1.00  0.00     0.027 C 
BRANCH  11  12
ATOM     12  C   UNL     1     163.526 168.206 197.544  1.00  0.00    -0.035 C 
ATOM     13  C   UNL     1     164.286 167.163 197.891  1.00  0.00     0.004 C 
ENDBRANCH  11  12
ENDBRANCH  10  11
ENDBRANCH   9  10
ENDBRANCH   8   9
ENDBRANCH   1   8
TORSDOF 10
ENDMDL
MODEL 2
REMARK VINA RESULT:    -3.653      5.014      7.514
REMARK INTER + INTRA:          -7.328
REMARK INTER:                  -6.081
REMARK INTRA:                  -1.247
REMARK UNBOUND:                -1.539
REMARK SMILES C=CCCCCCCCCCCC
REMARK SMILES IDX 7 1 8 2 9 3 10 4 11 5 12 6 13 7 6 8 5 9 4 10 3 11 2 12 1 13
REMARK H PARENT
REMARK Flexibility Score: inf
ROOT
ATOM      1  C   UNL     1     163.549 162.207 198.727  1.00  0.00     0.000 C 
ENDROOT
BRANCH   1   2
ATOM      2  C   UNL     1     162.767 163.436 198.228  1.00  0.00     0.000 C 
BRANCH   2   3
ATOM      3  C   UNL     1     163.202 164.745 198.911  1.00  0.00    -0.000 C 
BRANCH   3   4
ATOM      4  C   UNL     1     162.268 165.243 200.030  1.00  0.00    -0.000 C 
BRANCH   4   5
ATOM      5  C   UNL     1     162.668 164.727 201.421  1.00  0.00    -0.000 C 
BRANCH   5   6
ATOM      6  C   UNL     1     164.179 164.485 201.504  1.00  0.00    -0.003 C 
ATOM      7  C   UNL     1     164.500 163.311 202.424  1.00  0.00     0.004 C 
ENDBRANCH   5   6
ENDBRANCH   4   5
ENDBRANCH   3   4
ENDBRANCH   2   3
ENDBRANCH   1   2
BRANCH   1   8
ATOM      8  C   UNL     1     164.862 161.988 197.942  1.00  0.00     0.000 C 
BRANCH   8   9
ATOM      9  C   UNL     1     166.090 162.629 198.612  1.00  0.00     0.000 C 
BRANCH   9  10
ATOM     10  C   UNL     1     166.608 161.814 199.806  1.00  0.00     0.004 C 
BRANCH  10  11
ATOM     11  C   UNL     1     167.679 162.572 200.602  1.00  0.00     0.027 C 
BRANCH  11  12
ATOM     12  C   UNL     1     168.439 163.551 199.747  1.00  0.00    -0.035 C 
ATOM     13  C   UNL     1     169.733 163.381 199.460  1.00  0.00     0.004 C 
ENDBRANCH  11  12
ENDBRANCH  10  11
ENDBRANCH   9  10
ENDBRANCH   8   9
ENDBRANCH   1   8
TORSDOF 10
ENDMDL
MODEL 3
REMARK VINA RESULT:    -3.641      4.867      7.097
REMARK INTER + INTRA:          -7.308
REMARK INTER:                  -5.474
REMARK INTRA:                  -1.834
REMARK UNBOUND:                -1.539
REMARK SMILES C=CCCCCCCCCCCC
REMARK SMILES IDX 7 1 8 2 9 3 10 4 11 5 12 6 13 7 6 8 5 9 4 10 3 11 2 12 1 13
REMARK H PARENT
REMARK Flexibility Score: inf
ROOT
ATOM      1  C   UNL     1     168.715 163.410 200.852  1.00  0.00     0.000 C 
ENDROOT
BRANCH   1   2
ATOM      2  C   UNL     1     167.679 162.274 200.790  1.00  0.00     0.000 C 
BRANCH   2   3
ATOM      3  C   UNL     1     166.296 162.689 201.325  1.00  0.00    -0.000 C 
BRANCH   3   4
ATOM      4  C   UNL     1     165.177 162.755 200.270  1.00  0.00    -0.000 C 
BRANCH   4   5
ATOM      5  C   UNL     1     165.458 161.879 199.039  1.00  0.00    -0.000 C 
BRANCH   5   6
ATOM      6  C   UNL     1     164.258 161.870 198.086  1.00  0.00    -0.003 C 
ATOM      7  C   UNL     1     163.673 163.269 197.922  1.00  0.00     0.004 C 
ENDBRANCH   5   6
ENDBRANCH   4   5
ENDBRANCH   3   4
ENDBRANCH   2   3
ENDBRANCH   1   2
BRANCH   1   8
ATOM      8  C   UNL     1     169.694 163.378 199.658  1.00  0.00     0.000 C 
BRANCH   8   9
ATOM      9  C   UNL     1     169.024 162.994 198.327  1.00  0.00     0.000 C 
BRANCH   9  10
ATOM     10  C   UNL     1     168.662 164.216 197.470  1.00  0.00     0.004 C 
BRANCH  10  11
ATOM     11  C   UNL     1     167.190 164.620 197.631  1.00  0.00     0.027 C 
BRANCH  11  12
ATOM     12  C   UNL     1     167.034 165.924 198.369  1.00  0.00    -0.035 C 
ATOM     13  C   UNL     1     166.166 166.065 199.375  1.00  0.00     0.004 C 
ENDBRANCH  11  12
ENDBRANCH  10  11
ENDBRANCH   9  10
ENDBRANCH   8   9
ENDBRANCH   1   8
TORSDOF 10
ENDMDL
MODEL 4
REMARK VINA RESULT:    -3.599      1.553      4.980
REMARK INTER + INTRA:          -7.242
REMARK INTER:                  -5.651
REMARK INTRA:                  -1.591
REMARK UNBOUND:                -1.539
REMARK SMILES C=CCCCCCCCCCCC
REMARK SMILES IDX 7 1 8 2 9 3 10 4 11 5 12 6 13 7 6 8 5 9 4 10 3 11 2 12 1 13
REMARK H PARENT
REMARK Flexibility Score: inf
ROOT
ATOM      1  C   UNL     1     166.745 169.738 196.730  1.00  0.00     0.000 C 
ENDROOT
BRANCH   1   2
ATOM      2  C   UNL     1     166.717 168.213 196.937  1.00  0.00     0.000 C 
BRANCH   2   3
ATOM      3  C   UNL     1     165.352 167.695 197.424  1.00  0.00    -0.000 C 
BRANCH   3   4
ATOM      4  C   UNL     1     164.159 168.627 197.144  1.00  0.00    -0.000 C 
BRANCH   4   5
ATOM      5  C   UNL     1     163.368 168.989 198.410  1.00  0.00    -0.000 C 
BRANCH   5   6
ATOM      6  C   UNL     1     164.221 168.791 199.667  1.00  0.00    -0.003 C 
ATOM      7  C   UNL     1     164.575 170.128 200.310  1.00  0.00     0.004 C 
ENDBRANCH   5   6
ENDBRANCH   4   5
ENDBRANCH   3   4
ENDBRANCH   2   3
ENDBRANCH   1   2
BRANCH   1   8
ATOM      8  C   UNL     1     167.387 170.480 197.922  1.00  0.00     0.000 C 
BRANCH   8   9
ATOM      9  C   UNL     1     168.425 169.636 198.682  1.00  0.00     0.000 C 
BRANCH   9  10
ATOM     10  C   UNL     1     168.021 169.368 200.139  1.00  0.00     0.004 C 
BRANCH  10  11
ATOM     11  C   UNL     1     168.110 167.878 200.499  1.00  0.00     0.027 C 
BRANCH  11  12
ATOM     12  C   UNL     1     169.383 167.247 200.000  1.00  0.00    -0.035 C 
ATOM     13  C   UNL     1     169.564 165.923 200.010  1.00  0.00     0.004 C 
ENDBRANCH  11  12
ENDBRANCH  10  11
ENDBRANCH   9  10
ENDBRANCH   8   9
ENDBRANCH   1   8
TORSDOF 10
ENDMDL
MODEL 5
REMARK VINA RESULT:    -3.591      5.076      7.616
REMARK INTER + INTRA:          -7.229
REMARK INTER:                  -5.679
REMARK INTRA:                  -1.550
REMARK UNBOUND:                -1.539
REMARK SMILES C=CCCCCCCCCCCC
REMARK SMILES IDX 7 1 8 2 9 3 10 4 11 5 12 6 13 7 6 8 5 9 4 10 3 11 2 12 1 13
REMARK H PARENT
REMARK Flexibility Score: inf
ROOT
ATOM      1  C   UNL     1     168.112 163.654 197.616  1.00  0.00     0.000 C 
ENDROOT
BRANCH   1   2
ATOM      2  C   UNL     1     166.985 162.914 196.872  1.00  0.00     0.000 C 
BRANCH   2   3
ATOM      3  C   UNL     1     165.592 163.182 197.470  1.00  0.00    -0.000 C 
BRANCH   3   4
ATOM      4  C   UNL     1     164.846 161.934 197.979  1.00  0.00    -0.000 C 
BRANCH   4   5
ATOM      5  C   UNL     1     163.490 162.264 198.621  1.00  0.00    -0.000 C 
BRANCH   5   6
ATOM      6  C   UNL     1     163.015 163.663 198.213  1.00  0.00    -0.003 C 
ATOM      7  C   UNL     1     162.677 164.509 199.437  1.00  0.00     0.004 C 
ENDBRANCH   5   6
ENDBRANCH   4   5
ENDBRANCH   3   4
ENDBRANCH   2   3
ENDBRANCH   1   2
BRANCH   1   8
ATOM      8  C   UNL     1     168.930 162.713 198.527  1.00  0.00     0.000 C 
BRANCH   8   9
ATOM      9  C   UNL     1     169.585 163.431 199.719  1.00  0.00     0.000 C 
BRANCH   9  10
ATOM     10  C   UNL     1     168.680 163.468 200.960  1.00  0.00     0.004 C 
BRANCH  10  11
ATOM     11  C   UNL     1     167.704 162.283 200.999  1.00  0.00     0.027 C 
BRANCH  11  12
ATOM     12  C   UNL     1     166.272 162.728 201.139  1.00  0.00    -0.035 C 
ATOM     13  C   UNL     1     165.932 164.020 201.137  1.00  0.00     0.004 C 
ENDBRANCH  11  12
ENDBRANCH  10  11
ENDBRANCH   9  10
ENDBRANCH   8   9
ENDBRANCH   1   8
TORSDOF 10
ENDMDL
MODEL 6
REMARK VINA RESULT:    -3.556      4.694      6.220
REMARK INTER + INTRA:          -7.173
REMARK INTER:                  -5.324
REMARK INTRA:                  -1.849
REMARK UNBOUND:                -1.539
REMARK SMILES C=CCCCCCCCCCCC
REMARK SMILES IDX 7 1 8 2 9 3 10 4 11 5 12 6 13 7 6 8 5 9 4 10 3 11 2 12 1 13
REMARK H PARENT
REMARK Flexibility Score: inf
ROOT
ATOM      1  C   UNL     1     169.522 163.348 199.653  1.00  0.00     0.000 C 
ENDROOT
BRANCH   1   2
ATOM      2  C   UNL     1     169.217 163.653 198.176  1.00  0.00     0.000 C 
BRANCH   2   3
ATOM      3  C   UNL     1     168.307 164.881 197.990  1.00  0.00    -0.000 C 
BRANCH   3   4
ATOM      4  C   UNL     1     166.987 164.612 197.244  1.00  0.00    -0.000 C 
BRANCH   4   5
ATOM      5  C   UNL     1     165.783 165.325 197.877  1.00  0.00    -0.000 C 
BRANCH   5   6
ATOM      6  C   UNL     1     166.220 166.200 199.057  1.00  0.00    -0.003 C 
ATOM      7  C   UNL     1     165.386 165.906 200.300  1.00  0.00     0.004 C 
ENDBRANCH   5   6
ENDBRANCH   4   5
ENDBRANCH   3   4
ENDBRANCH   2   3
ENDBRANCH   1   2
BRANCH   1   8
ATOM      8  C   UNL     1     168.284 163.532 200.558  1.00  0.00     0.000 C 
BRANCH   8   9
ATOM      9  C   UNL     1     167.519 162.224 200.824  1.00  0.00     0.000 C 
BRANCH   9  10
ATOM     10  C   UNL     1     166.514 161.889 199.711  1.00  0.00     0.004 C 
BRANCH  10  11
ATOM     11  C   UNL     1     165.087 162.328 200.069  1.00  0.00     0.027 C 
BRANCH  11  12
ATOM     12  C   UNL     1     164.131 162.153 198.919  1.00  0.00    -0.035 C 
ATOM     13  C   UNL     1     164.540 161.726 197.720  1.00  0.00     0.004 C 
ENDBRANCH  11  12
ENDBRANCH  10  11
ENDBRANCH   9  10
ENDBRANCH   8   9
ENDBRANCH   1   8
TORSDOF 10
ENDMDL
MODEL 7
REMARK VINA RESULT:    -3.541      1.336      4.171
REMARK INTER + INTRA:          -7.151
REMARK INTER:                  -5.343
REMARK INTRA:                  -1.808
REMARK UNBOUND:                -1.539
REMARK SMILES C=CCCCCCCCCCCC
REMARK SMILES IDX 7 1 8 2 9 3 10 4 11 5 12 6 13 7 6 8 5 9 4 10 3 11 2 12 1 13
REMARK H PARENT
REMARK Flexibility Score: inf
ROOT
ATOM      1  C   UNL     1     163.472 168.620 201.606  1.00  0.00     0.000 C 
ENDROOT
BRANCH   1   2
ATOM      2  C   UNL     1     162.706 168.344 200.300  1.00  0.00     0.000 C 
BRANCH   2   3
ATOM      3  C   UNL     1     162.583 166.844 199.979  1.00  0.00    -0.000 C 
BRANCH   3   4
ATOM      4  C   UNL     1     163.306 166.386 198.698  1.00  0.00    -0.000 C 
BRANCH   4   5
ATOM      5  C   UNL     1     164.828 166.577 198.766  1.00  0.00    -0.000 C 
BRANCH   5   6
ATOM      6  C   UNL     1     165.383 167.053 197.419  1.00  0.00    -0.003 C 
ATOM      7  C   UNL     1     164.487 168.121 196.800  1.00  0.00     0.004 C 
ENDBRANCH   5   6
ENDBRANCH   4   5
ENDBRANCH   3   4
ENDBRANCH   2   3
ENDBRANCH   1   2
BRANCH   1   8
ATOM      8  C   UNL     1     164.663 169.582 201.395  1.00  0.00     0.000 C 
BRANCH   8   9
ATOM      9  C   UNL     1     164.773 170.114 199.956  1.00  0.00     0.000 C 
BRANCH   9  10
ATOM     10  C   UNL     1     166.213 170.083 199.421  1.00  0.00     0.004 C 
BRANCH  10  11
ATOM     11  C   UNL     1     167.150 169.275 200.330  1.00  0.00     0.027 C 
BRANCH  11  12
ATOM     12  C   UNL     1     168.177 168.500 199.546  1.00  0.00    -0.035 C 
ATOM     13  C   UNL     1     168.662 168.948 198.384  1.00  0.00     0.004 C 
ENDBRANCH  11  12
ENDBRANCH  10  11
ENDBRANCH   9  10
ENDBRANCH   8   9
ENDBRANCH   1   8
TORSDOF 10
ENDMDL
MODEL 8
REMARK VINA RESULT:    -3.535      4.617      6.497
REMARK INTER + INTRA:          -7.140
REMARK INTER:                  -5.297
REMARK INTRA:                  -1.843
REMARK UNBOUND:                -1.539
REMARK SMILES C=CCCCCCCCCCCC
REMARK SMILES IDX 7 1 8 2 9 3 10 4 11 5 12 6 13 7 6 8 5 9 4 10 3 11 2 12 1 13
REMARK H PARENT
REMARK Flexibility Score: inf
ROOT
ATOM      1  C   UNL     1     164.960 163.657 196.274  1.00  0.00     0.000 C 
ENDROOT
BRANCH   1   2
ATOM      2  C   UNL     1     166.299 164.409 196.368  1.00  0.00     0.000 C 
BRANCH   2   3
ATOM      3  C   UNL     1     167.513 163.467 196.468  1.00  0.00    -0.000 C 
BRANCH   3   4
ATOM      4  C   UNL     1     168.583 163.884 197.494  1.00  0.00    -0.000 C 
BRANCH   4   5
ATOM      5  C   UNL     1     168.852 162.806 198.555  1.00  0.00    -0.000 C 
BRANCH   5   6
ATOM      6  C   UNL     1     169.746 163.347 199.676  1.00  0.00    -0.003 C 
ATOM      7  C   UNL     1     169.360 164.776 200.047  1.00  0.00     0.004 C 
ENDBRANCH   5   6
ENDBRANCH   4   5
ENDBRANCH   3   4
ENDBRANCH   2   3
ENDBRANCH   1   2
BRANCH   1   8
ATOM      8  C   UNL     1     165.106 162.153 196.598  1.00  0.00     0.000 C 
BRANCH   8   9
ATOM      9  C   UNL     1     164.441 161.745 197.923  1.00  0.00     0.000 C 
BRANCH   9  10
ATOM     10  C   UNL     1     165.400 161.830 199.120  1.00  0.00     0.004 C 
BRANCH  10  11
ATOM     11  C   UNL     1     164.917 162.834 200.177  1.00  0.00     0.027 C 
BRANCH  11  12
ATOM     12  C   UNL     1     165.660 164.142 200.103  1.00  0.00    -0.035 C 
ATOM     13  C   UNL     1     165.053 165.279 199.750  1.00  0.00     0.004 C 
ENDBRANCH  11  12
ENDBRANCH  10  11
ENDBRANCH   9  10
ENDBRANCH   8   9
ENDBRANCH   1   8
TORSDOF 10
ENDMDL
MODEL 9
REMARK VINA RESULT:    -3.525      1.694      3.871
REMARK INTER + INTRA:          -7.126
REMARK INTER:                  -5.248
REMARK INTRA:                  -1.878
REMARK UNBOUND:                -1.539
REMARK SMILES C=CCCCCCCCCCCC
REMARK SMILES IDX 7 1 8 2 9 3 10 4 11 5 12 6 13 7 6 8 5 9 4 10 3 11 2 12 1 13
REMARK H PARENT
REMARK Flexibility Score: inf
ROOT
ATOM      1  C   UNL     1     168.261 169.922 198.505  1.00  0.00     0.000 C 
ENDROOT
BRANCH   1   2
ATOM      2  C   UNL     1     168.472 168.485 197.995  1.00  0.00     0.000 C 
BRANCH   2   3
ATOM      3  C   UNL     1     169.670 167.780 198.656  1.00  0.00    -0.000 C 
BRANCH   3   4
ATOM      4  C   UNL     1     169.382 167.145 200.029  1.00  0.00    -0.000 C 
BRANCH   4   5
ATOM      5  C   UNL     1     167.955 166.590 200.147  1.00  0.00    -0.000 C 
BRANCH   5   6
ATOM      6  C   UNL     1     167.280 167.076 201.434  1.00  0.00    -0.003 C 
ATOM      7  C   UNL     1     167.916 168.369 201.936  1.00  0.00     0.004 C 
ENDBRANCH   5   6
ENDBRANCH   4   5
ENDBRANCH   3   4
ENDBRANCH   2   3
ENDBRANCH   1   2
BRANCH   1   8
ATOM      8  C   UNL     1     166.769 170.245 198.747  1.00  0.00     0.000 C 
BRANCH   8   9
ATOM      9  C   UNL     1     165.822 169.102 198.345  1.00  0.00     0.000 C 
BRANCH   9  10
ATOM     10  C   UNL     1     164.700 168.873 199.369  1.00  0.00     0.004 C 
BRANCH  10  11
ATOM     11  C   UNL     1     164.528 170.069 200.315  1.00  0.00     0.027 C 
BRANCH  11  12
ATOM     12  C   UNL     1     164.499 169.653 201.762  1.00  0.00    -0.035 C 
ATOM     13  C   UNL     1     163.790 168.599 202.179  1.00  0.00     0.004 C 
ENDBRANCH  11  12
ENDBRANCH  10  11
ENDBRANCH   9  10
ENDBRANCH   8   9
ENDBRANCH   1   8
TORSDOF 10
ENDMDL
