MODEL 1
REMARK VINA RESULT:    -5.909      0.000      0.000
REMARK INTER + INTRA:         -14.863
REMARK INTER:                 -12.819
REMARK INTRA:                  -2.044
REMARK UNBOUND:                -2.044
REMARK SMILES CCCCCCCCCCCCCCCCCCCCCC(=O)[O-]
REMARK SMILES IDX 12 1 11 2 10 3 9 4 8 5 7 6 6 7 5 8 4 9 3 10 2 11 1 12 13 13
REMARK SMILES IDX 14 14 15 15 16 16 17 17 18 18 19 19 20 20 21 21 22 22 23 23
REMARK SMILES IDX 24 24
REMARK H PARENT
REMARK Flexibility Score: inf
ROOT
ATOM      1  C   UNL     1      88.571 326.122 201.455  1.00  0.00     0.000 C 
ENDROOT
BRANCH   1   2
ATOM      2  C   UNL     1      88.685 324.838 202.291  1.00  0.00     0.000 C 
BRANCH   2   3
ATOM      3  C   UNL     1      87.644 323.800 201.846  1.00  0.00     0.000 C 
BRANCH   3   4
ATOM      4  C   UNL     1      86.615 323.486 202.946  1.00  0.00    -0.000 C 
BRANCH   4   5
ATOM      5  C   UNL     1      87.207 323.622 204.359  1.00  0.00    -0.000 C 
BRANCH   5   6
ATOM      6  C   UNL     1      86.160 324.045 205.406  1.00  0.00    -0.000 C 
BRANCH   6   7
ATOM      7  C   UNL     1      86.691 325.064 206.436  1.00  0.00    -0.000 C 
BRANCH   7   8
ATOM      8  C   UNL     1      88.229 325.075 206.498  1.00  0.00    -0.000 C 
BRANCH   8   9
ATOM      9  C   UNL     1      88.812 326.495 206.522  1.00  0.00    -0.000 C 
BRANCH   9  10
ATOM     10  C   UNL     1      89.247 326.982 205.128  1.00  0.00    -0.000 C 
BRANCH  10  11
ATOM     11  C   UNL     1      90.760 326.841 204.901  1.00  0.00    -0.003 C 
ATOM     12  C   UNL     1      91.218 327.449 203.576  1.00  0.00     0.004 C 
ENDBRANCH  10  11
ENDBRANCH   9  10
ENDBRANCH   8   9
ENDBRANCH   7   8
ENDBRANCH   6   7
ENDBRANCH   5   6
ENDBRANCH   4   5
ENDBRANCH   3   4
ENDBRANCH   2   3
ENDBRANCH   1   2
BRANCH   1  13
ATOM     13  C   UNL     1      89.614 326.194 200.328  1.00  0.00     0.000 C 
BRANCH  13  14
ATOM     14  C   UNL     1      88.995 326.581 198.973  1.00  0.00     0.000 C 
BRANCH  14  15
ATOM     15  C   UNL     1      88.738 325.365 198.069  1.00  0.00     0.000 C 
BRANCH  15  16
ATOM     16  C   UNL     1      87.999 325.733 196.773  1.00  0.00     0.000 C 
BRANCH  16  17
ATOM     17  C   UNL     1      88.975 326.285 195.723  1.00  0.00     0.000 C 
BRANCH  17  18
ATOM     18  C   UNL     1      88.272 326.733 194.433  1.00  0.00     0.000 C 
BRANCH  18  19
ATOM     19  C   UNL     1      86.793 326.308 194.389  1.00  0.00     0.000 C 
BRANCH  19  20
ATOM     20  C   UNL     1      86.523 325.211 193.347  1.00  0.00     0.006 C 
BRANCH  20  21
ATOM     21  C   UNL     1      87.795 324.767 192.613  1.00  0.00     0.053 C 
BRANCH  21  22
ATOM     22  C   UNL     1      88.189 323.385 193.031  1.00  0.00     0.041 C 
ATOM     23  O   UNL     1      88.668 322.580 192.188  1.00  0.00    -0.550 OA
ATOM     24  O   UNL     1      88.083 323.006 194.363  1.00  0.00    -0.550 OA
ENDBRANCH  21  22
ENDBRANCH  20  21
ENDBRANCH  19  20
ENDBRANCH  18  19
ENDBRANCH  17  18
ENDBRANCH  16  17
ENDBRANCH  15  16
ENDBRANCH  14  15
ENDBRANCH  13  14
ENDBRANCH   1  13
TORSDOF 20
ENDMDL
MODEL 2
REMARK VINA RESULT:    -5.870      1.641      3.607
REMARK INTER + INTRA:         -14.778
REMARK INTER:                 -13.546
REMARK INTRA:                  -1.233
REMARK UNBOUND:                -2.044
REMARK SMILES CCCCCCCCCCCCCCCCCCCCCC(=O)[O-]
REMARK SMILES IDX 12 1 11 2 10 3 9 4 8 5 7 6 6 7 5 8 4 9 3 10 2 11 1 12 13 13
REMARK SMILES IDX 14 14 15 15 16 16 17 17 18 18 19 19 20 20 21 21 22 22 23 23
REMARK SMILES IDX 24 24
REMARK H PARENT
REMARK Flexibility Score: inf
ROOT
ATOM      1  C   UNL     1      88.956 325.468 198.863  1.00  0.00     0.000 C 
ENDROOT
BRANCH   1   2
ATOM      2  C   UNL     1      89.473 326.110 200.160  1.00  0.00     0.000 C 
BRANCH   2   3
ATOM      3  C   UNL     1      88.637 325.658 201.367  1.00  0.00     0.000 C 
BRANCH   3   4
ATOM      4  C   UNL     1      88.913 326.497 202.626  1.00  0.00    -0.000 C 
BRANCH   4   5
ATOM      5  C   UNL     1      90.400 326.863 202.773  1.00  0.00    -0.000 C 
BRANCH   5   6
ATOM      6  C   UNL     1      90.717 327.543 204.116  1.00  0.00    -0.000 C 
BRANCH   6   7
ATOM      7  C   UNL     1      91.201 326.564 205.207  1.00  0.00    -0.000 C 
BRANCH   7   8
ATOM      8  C   UNL     1      90.369 326.678 206.497  1.00  0.00    -0.000 C 
BRANCH   8   9
ATOM      9  C   UNL     1      88.857 326.701 206.229  1.00  0.00    -0.000 C 
BRANCH   9  10
ATOM     10  C   UNL     1      88.081 325.720 207.125  1.00  0.00    -0.000 C 
BRANCH  10  11
ATOM     11  C   UNL     1      86.830 325.155 206.434  1.00  0.00    -0.003 C 
ATOM     12  C   UNL     1      87.167 324.216 205.276  1.00  0.00     0.004 C 
ENDBRANCH  10  11
ENDBRANCH   9  10
ENDBRANCH   8   9
ENDBRANCH   7   8
ENDBRANCH   6   7
ENDBRANCH   5   6
ENDBRANCH   4   5
ENDBRANCH   3   4
ENDBRANCH   2   3
ENDBRANCH   1   2
BRANCH   1  13
ATOM     13  C   UNL     1      88.499 326.506 197.826  1.00  0.00     0.000 C 
BRANCH  13  14
ATOM     14  C   UNL     1      88.103 325.866 196.484  1.00  0.00     0.000 C 
BRANCH  14  15
ATOM     15  C   UNL     1      88.849 326.480 195.290  1.00  0.00     0.000 C 
BRANCH  15  16
ATOM     16  C   UNL     1      87.918 326.817 194.115  1.00  0.00     0.000 C 
BRANCH  16  17
ATOM     17  C   UNL     1      86.584 326.064 194.240  1.00  0.00     0.000 C 
BRANCH  17  18
ATOM     18  C   UNL     1      86.410 324.980 193.165  1.00  0.00     0.000 C 
BRANCH  18  19
ATOM     19  C   UNL     1      87.716 324.688 192.404  1.00  0.00     0.000 C 
BRANCH  19  20
ATOM     20  C   UNL     1      87.594 323.484 191.457  1.00  0.00     0.006 C 
BRANCH  20  21
ATOM     21  C   UNL     1      88.370 323.680 190.149  1.00  0.00     0.053 C 
BRANCH  21  22
ATOM     22  C   UNL     1      88.140 322.528 189.222  1.00  0.00     0.041 C 
ATOM     23  O   UNL     1      89.021 321.636 189.090  1.00  0.00    -0.550 OA
ATOM     24  O   UNL     1      86.931 322.408 188.549  1.00  0.00    -0.550 OA
ENDBRANCH  21  22
ENDBRANCH  20  21
ENDBRANCH  19  20
ENDBRANCH  18  19
ENDBRANCH  17  18
ENDBRANCH  16  17
ENDBRANCH  15  16
ENDBRANCH  14  15
ENDBRANCH  13  14
ENDBRANCH   1  13
TORSDOF 20
ENDMDL
MODEL 3
REMARK VINA RESULT:    -5.823      1.361      2.961
REMARK INTER + INTRA:         -14.676
REMARK INTER:                 -13.014
REMARK INTRA:                  -1.662
REMARK UNBOUND:                -2.044
REMARK SMILES CCCCCCCCCCCCCCCCCCCCCC(=O)[O-]
REMARK SMILES IDX 12 1 11 2 10 3 9 4 8 5 7 6 6 7 5 8 4 9 3 10 2 11 1 12 13 13
REMARK SMILES IDX 14 14 15 15 16 16 17 17 18 18 19 19 20 20 21 21 22 22 23 23
REMARK SMILES IDX 24 24
REMARK H PARENT
REMARK Flexibility Score: inf
ROOT
ATOM      1  C   UNL     1      88.959 325.698 199.868  1.00  0.00     0.000 C 
ENDROOT
BRANCH   1   2
ATOM      2  C   UNL     1      89.893 326.213 200.974  1.00  0.00     0.000 C 
BRANCH   2   3
ATOM      3  C   UNL     1      89.129 326.399 202.294  1.00  0.00     0.000 C 
BRANCH   3   4
ATOM      4  C   UNL     1      90.033 326.896 203.435  1.00  0.00    -0.000 C 
BRANCH   4   5
ATOM      5  C   UNL     1      89.236 327.258 204.699  1.00  0.00    -0.000 C 
BRANCH   5   6
ATOM      6  C   UNL     1      90.109 327.289 205.967  1.00  0.00    -0.000 C 
BRANCH   6   7
ATOM      7  C   UNL     1      89.654 326.294 207.056  1.00  0.00    -0.000 C 
BRANCH   7   8
ATOM      8  C   UNL     1      88.121 326.169 207.121  1.00  0.00    -0.000 C 
BRANCH   8   9
ATOM      9  C   UNL     1      87.635 324.724 206.937  1.00  0.00    -0.000 C 
BRANCH   9  10
ATOM     10  C   UNL     1      86.440 324.617 205.973  1.00  0.00    -0.000 C 
BRANCH  10  11
ATOM     11  C   UNL     1      86.646 323.538 204.899  1.00  0.00    -0.003 C 
ATOM     12  C   UNL     1      88.066 323.527 204.335  1.00  0.00     0.004 C 
ENDBRANCH  10  11
ENDBRANCH   9  10
ENDBRANCH   8   9
ENDBRANCH   7   8
ENDBRANCH   6   7
ENDBRANCH   5   6
ENDBRANCH   4   5
ENDBRANCH   3   4
ENDBRANCH   2   3
ENDBRANCH   1   2
BRANCH   1  13
ATOM     13  C   UNL     1      88.913 326.630 198.646  1.00  0.00     0.000 C 
BRANCH  13  14
ATOM     14  C   UNL     1      87.891 326.171 197.591  1.00  0.00     0.000 C 
BRANCH  14  15
ATOM     15  C   UNL     1      88.275 324.837 196.933  1.00  0.00     0.000 C 
BRANCH  15  16
ATOM     16  C   UNL     1      88.888 325.018 195.535  1.00  0.00     0.000 C 
BRANCH  16  17
ATOM     17  C   UNL     1      88.619 326.431 194.998  1.00  0.00     0.000 C 
BRANCH  17  18
ATOM     18  C   UNL     1      87.923 326.425 193.628  1.00  0.00     0.000 C 
BRANCH  18  19
ATOM     19  C   UNL     1      86.581 325.671 193.651  1.00  0.00     0.000 C 
BRANCH  19  20
ATOM     20  C   UNL     1      86.611 324.380 192.818  1.00  0.00     0.006 C 
BRANCH  20  21
ATOM     21  C   UNL     1      87.789 324.339 191.836  1.00  0.00     0.053 C 
BRANCH  21  22
ATOM     22  C   UNL     1      87.711 323.119 190.973  1.00  0.00     0.041 C 
ATOM     23  O   UNL     1      88.684 322.320 190.916  1.00  0.00    -0.550 OA
ATOM     24  O   UNL     1      86.544 322.833 190.277  1.00  0.00    -0.550 OA
ENDBRANCH  21  22
ENDBRANCH  20  21
ENDBRANCH  19  20
ENDBRANCH  18  19
ENDBRANCH  17  18
ENDBRANCH  16  17
ENDBRANCH  15  16
ENDBRANCH  14  15
ENDBRANCH  13  14
ENDBRANCH   1  13
TORSDOF 20
ENDMDL
MODEL 4
REMARK VINA RESULT:    -5.761      3.303      9.889
REMARK INTER + INTRA:         -14.541
REMARK INTER:                 -12.673
REMARK INTRA:                  -1.868
REMARK UNBOUND:                -2.044
REMARK SMILES CCCCCCCCCCCCCCCCCCCCCC(=O)[O-]
REMARK SMILES IDX 12 1 11 2 10 3 9 4 8 5 7 6 6 7 5 8 4 9 3 10 2 11 1 12 13 13
REMARK SMILES IDX 14 14 15 15 16 16 17 17 18 18 19 19 20 20 21 21 22 22 23 23
REMARK SMILES IDX 24 24
REMARK H PARENT
REMARK Flexibility Score: inf
ROOT
ATOM      1  C   UNL     1      87.596 323.969 201.999  1.00  0.00     0.000 C 
ENDROOT
BRANCH   1   2
ATOM      2  C   UNL     1      88.594 325.039 202.467  1.00  0.00     0.000 C 
BRANCH   2   3
ATOM      3  C   UNL     1      88.755 326.139 201.406  1.00  0.00     0.000 C 
BRANCH   3   4
ATOM      4  C   UNL     1      89.442 325.630 200.127  1.00  0.00    -0.000 C 
BRANCH   4   5
ATOM      5  C   UNL     1      88.815 326.218 198.852  1.00  0.00    -0.000 C 
BRANCH   5   6
ATOM      6  C   UNL     1      88.766 325.208 197.691  1.00  0.00    -0.000 C 
BRANCH   6   7
ATOM      7  C   UNL     1      87.931 325.690 196.486  1.00  0.00    -0.000 C 
BRANCH   7   8
ATOM      8  C   UNL     1      88.799 326.385 195.422  1.00  0.00    -0.000 C 
BRANCH   8   9
ATOM      9  C   UNL     1      87.998 326.798 194.178  1.00  0.00    -0.000 C 
BRANCH   9  10
ATOM     10  C   UNL     1      87.176 325.637 193.590  1.00  0.00    -0.000 C 
BRANCH  10  11
ATOM     11  C   UNL     1      87.963 324.829 192.547  1.00  0.00    -0.003 C 
ATOM     12  C   UNL     1      88.241 323.395 192.996  1.00  0.00     0.004 C 
ENDBRANCH  10  11
ENDBRANCH   9  10
ENDBRANCH   8   9
ENDBRANCH   7   8
ENDBRANCH   6   7
ENDBRANCH   5   6
ENDBRANCH   4   5
ENDBRANCH   3   4
ENDBRANCH   2   3
ENDBRANCH   1   2
BRANCH   1  13
ATOM     13  C   UNL     1      86.617 323.543 203.106  1.00  0.00     0.000 C 
BRANCH  13  14
ATOM     14  C   UNL     1      87.243 322.544 204.095  1.00  0.00     0.000 C 
BRANCH  14  15
ATOM     15  C   UNL     1      87.093 322.985 205.559  1.00  0.00     0.000 C 
BRANCH  15  16
ATOM     16  C   UNL     1      86.520 324.404 205.698  1.00  0.00     0.000 C 
BRANCH  16  17
ATOM     17  C   UNL     1      87.322 325.222 206.721  1.00  0.00     0.000 C 
BRANCH  17  18
ATOM     18  C   UNL     1      88.315 326.191 206.061  1.00  0.00     0.000 C 
BRANCH  18  19
ATOM     19  C   UNL     1      89.660 326.255 206.805  1.00  0.00     0.000 C 
BRANCH  19  20
ATOM     20  C   UNL     1      90.664 327.207 206.136  1.00  0.00     0.006 C 
BRANCH  20  21
ATOM     21  C   UNL     1      90.401 327.382 204.634  1.00  0.00     0.053 C 
BRANCH  21  22
ATOM     22  C   UNL     1      91.479 326.724 203.832  1.00  0.00     0.041 C 
ATOM     23  O   UNL     1      91.977 327.314 202.835  1.00  0.00    -0.550 OA
ATOM     24  O   UNL     1      91.976 325.485 204.218  1.00  0.00    -0.550 OA
ENDBRANCH  21  22
ENDBRANCH  20  21
ENDBRANCH  19  20
ENDBRANCH  18  19
ENDBRANCH  17  18
ENDBRANCH  16  17
ENDBRANCH  15  16
ENDBRANCH  14  15
ENDBRANCH  13  14
ENDBRANCH   1  13
TORSDOF 20
ENDMDL
MODEL 5
REMARK VINA RESULT:    -5.746      3.586     10.762
REMARK INTER + INTRA:         -14.509
REMARK INTER:                 -12.958
REMARK INTRA:                  -1.551
REMARK UNBOUND:                -2.044
REMARK SMILES CCCCCCCCCCCCCCCCCCCCCC(=O)[O-]
REMARK SMILES IDX 12 1 11 2 10 3 9 4 8 5 7 6 6 7 5 8 4 9 3 10 2 11 1 12 13 13
REMARK SMILES IDX 14 14 15 15 16 16 17 17 18 18 19 19 20 20 21 21 22 22 23 23
REMARK SMILES IDX 24 24
REMARK H PARENT
REMARK Flexibility Score: inf
ROOT
ATOM      1  C   UNL     1      89.092 325.580 198.928  1.00  0.00     0.000 C 
ENDROOT
BRANCH   1   2
ATOM      2  C   UNL     1      88.476 326.497 197.860  1.00  0.00     0.000 C 
BRANCH   2   3
ATOM      3  C   UNL     1      88.227 325.726 196.554  1.00  0.00     0.000 C 
BRANCH   3   4
ATOM      4  C   UNL     1      88.761 326.470 195.318  1.00  0.00    -0.000 C 
BRANCH   4   5
ATOM      5  C   UNL     1      87.643 326.847 194.332  1.00  0.00    -0.000 C 
BRANCH   5   6
ATOM      6  C   UNL     1      86.330 326.089 194.599  1.00  0.00    -0.000 C 
BRANCH   6   7
ATOM      7  C   UNL     1      86.005 325.021 193.534  1.00  0.00    -0.000 C 
BRANCH   7   8
ATOM      8  C   UNL     1      86.756 323.701 193.789  1.00  0.00    -0.000 C 
BRANCH   8   9
ATOM      9  C   UNL     1      88.081 323.613 193.018  1.00  0.00    -0.000 C 
BRANCH   9  10
ATOM     10  C   UNL     1      88.011 324.290 191.638  1.00  0.00    -0.000 C 
BRANCH  10  11
ATOM     11  C   UNL     1      88.140 323.286 190.482  1.00  0.00    -0.003 C 
ATOM     12  C   UNL     1      86.816 322.605 190.139  1.00  0.00     0.004 C 
ENDBRANCH  10  11
ENDBRANCH   9  10
ENDBRANCH   8   9
ENDBRANCH   7   8
ENDBRANCH   6   7
ENDBRANCH   5   6
ENDBRANCH   4   5
ENDBRANCH   3   4
ENDBRANCH   2   3
ENDBRANCH   1   2
BRANCH   1  13
ATOM     13  C   UNL     1      89.214 326.262 200.300  1.00  0.00     0.000 C 
BRANCH  13  14
ATOM     14  C   UNL     1      90.601 326.066 200.937  1.00  0.00     0.000 C 
BRANCH  14  15
ATOM     15  C   UNL     1      90.626 326.428 202.430  1.00  0.00     0.000 C 
BRANCH  15  16
ATOM     16  C   UNL     1      89.220 326.515 203.045  1.00  0.00     0.000 C 
BRANCH  16  17
ATOM     17  C   UNL     1      89.230 327.378 204.316  1.00  0.00     0.000 C 
BRANCH  17  18
ATOM     18  C   UNL     1      89.604 326.580 205.574  1.00  0.00     0.000 C 
BRANCH  18  19
ATOM     19  C   UNL     1      88.500 326.617 206.646  1.00  0.00     0.000 C 
BRANCH  19  20
ATOM     20  C   UNL     1      88.087 325.215 207.121  1.00  0.00     0.006 C 
BRANCH  20  21
ATOM     21  C   UNL     1      88.424 324.122 206.098  1.00  0.00     0.053 C 
BRANCH  21  22
ATOM     22  C   UNL     1      87.179 323.614 205.441  1.00  0.00     0.041 C 
ATOM     23  O   UNL     1      87.202 322.538 204.785  1.00  0.00    -0.550 OA
ATOM     24  O   UNL     1      85.981 324.298 205.601  1.00  0.00    -0.550 OA
ENDBRANCH  21  22
ENDBRANCH  20  21
ENDBRANCH  19  20
ENDBRANCH  18  19
ENDBRANCH  17  18
ENDBRANCH  16  17
ENDBRANCH  15  16
ENDBRANCH  14  15
ENDBRANCH  13  14
ENDBRANCH   1  13
TORSDOF 20
ENDMDL
MODEL 6
REMARK VINA RESULT:    -5.710      1.162      3.170
REMARK INTER + INTRA:         -14.430
REMARK INTER:                 -12.341
REMARK INTRA:                  -2.089
REMARK UNBOUND:                -2.044
REMARK SMILES CCCCCCCCCCCCCCCCCCCCCC(=O)[O-]
REMARK SMILES IDX 12 1 11 2 10 3 9 4 8 5 7 6 6 7 5 8 4 9 3 10 2 11 1 12 13 13
REMARK SMILES IDX 14 14 15 15 16 16 17 17 18 18 19 19 20 20 21 21 22 22 23 23
REMARK SMILES IDX 24 24
REMARK H PARENT
REMARK Flexibility Score: inf
ROOT
ATOM      1  C   UNL     1      88.753 324.574 198.748  1.00  0.00     0.000 C 
ENDROOT
BRANCH   1   2
ATOM      2  C   UNL     1      89.137 325.980 199.237  1.00  0.00     0.000 C 
BRANCH   2   3
ATOM      3  C   UNL     1      88.800 326.153 200.725  1.00  0.00     0.000 C 
BRANCH   3   4
ATOM      4  C   UNL     1      88.727 324.812 201.475  1.00  0.00    -0.000 C 
BRANCH   4   5
ATOM      5  C   UNL     1      88.868 324.982 202.997  1.00  0.00    -0.000 C 
BRANCH   5   6
ATOM      6  C   UNL     1      89.739 326.191 203.384  1.00  0.00    -0.000 C 
BRANCH   6   7
ATOM      7  C   UNL     1      90.102 326.237 204.883  1.00  0.00    -0.000 C 
BRANCH   7   8
ATOM      8  C   UNL     1      89.166 327.166 205.677  1.00  0.00    -0.000 C 
BRANCH   8   9
ATOM      9  C   UNL     1      88.679 326.536 206.990  1.00  0.00    -0.000 C 
BRANCH   9  10
ATOM     10  C   UNL     1      88.126 325.113 206.796  1.00  0.00    -0.000 C 
BRANCH  10  11
ATOM     11  C   UNL     1      86.634 325.105 206.429  1.00  0.00    -0.003 C 
ATOM     12  C   UNL     1      86.284 324.037 205.394  1.00  0.00     0.004 C 
ENDBRANCH  10  11
ENDBRANCH   9  10
ENDBRANCH   8   9
ENDBRANCH   7   8
ENDBRANCH   6   7
ENDBRANCH   5   6
ENDBRANCH   4   5
ENDBRANCH   3   4
ENDBRANCH   2   3
ENDBRANCH   1   2
BRANCH   1  13
ATOM     13  C   UNL     1      88.482 324.524 197.236  1.00  0.00     0.000 C 
BRANCH  13  14
ATOM     14  C   UNL     1      87.944 325.857 196.687  1.00  0.00     0.000 C 
BRANCH  14  15
ATOM     15  C   UNL     1      88.905 326.518 195.687  1.00  0.00     0.000 C 
BRANCH  15  16
ATOM     16  C   UNL     1      88.286 326.690 194.291  1.00  0.00     0.000 C 
BRANCH  16  17
ATOM     17  C   UNL     1      86.824 326.221 194.278  1.00  0.00     0.000 C 
BRANCH  17  18
ATOM     18  C   UNL     1      86.544 325.175 193.189  1.00  0.00     0.000 C 
BRANCH  18  19
ATOM     19  C   UNL     1      87.805 324.803 192.390  1.00  0.00     0.000 C 
BRANCH  19  20
ATOM     20  C   UNL     1      88.109 323.297 192.428  1.00  0.00     0.006 C 
BRANCH  20  21
ATOM     21  C   UNL     1      88.448 322.798 193.839  1.00  0.00     0.053 C 
BRANCH  21  22
ATOM     22  C   UNL     1      87.409 321.836 194.322  1.00  0.00     0.041 C 
ATOM     23  O   UNL     1      86.604 321.312 193.506  1.00  0.00    -0.550 OA
ATOM     24  O   UNL     1      87.366 321.473 195.662  1.00  0.00    -0.550 OA
ENDBRANCH  21  22
ENDBRANCH  20  21
ENDBRANCH  19  20
ENDBRANCH  18  19
ENDBRANCH  17  18
ENDBRANCH  16  17
ENDBRANCH  15  16
ENDBRANCH  14  15
ENDBRANCH  13  14
ENDBRANCH   1  13
TORSDOF 20
ENDMDL
MODEL 7
REMARK VINA RESULT:    -5.688      1.501      2.407
REMARK INTER + INTRA:         -14.381
REMARK INTER:                 -12.839
REMARK INTRA:                  -1.542
REMARK UNBOUND:                -2.044
REMARK SMILES CCCCCCCCCCCCCCCCCCCCCC(=O)[O-]
REMARK SMILES IDX 12 1 11 2 10 3 9 4 8 5 7 6 6 7 5 8 4 9 3 10 2 11 1 12 13 13
REMARK SMILES IDX 14 14 15 15 16 16 17 17 18 18 19 19 20 20 21 21 22 22 23 23
REMARK SMILES IDX 24 24
REMARK H PARENT
REMARK Flexibility Score: inf
ROOT
ATOM      1  C   UNL     1      89.463 325.389 199.603  1.00  0.00     0.000 C 
ENDROOT
BRANCH   1   2
ATOM      2  C   UNL     1      89.387 326.309 200.831  1.00  0.00     0.000 C 
BRANCH   2   3
ATOM      3  C   UNL     1      88.510 325.687 201.928  1.00  0.00     0.000 C 
BRANCH   3   4
ATOM      4  C   UNL     1      88.038 324.267 201.574  1.00  0.00    -0.000 C 
BRANCH   4   5
ATOM      5  C   UNL     1      87.073 323.690 202.623  1.00  0.00    -0.000 C 
BRANCH   5   6
ATOM      6  C   UNL     1      87.588 323.859 204.064  1.00  0.00    -0.000 C 
BRANCH   6   7
ATOM      7  C   UNL     1      86.464 323.905 205.121  1.00  0.00    -0.000 C 
BRANCH   7   8
ATOM      8  C   UNL     1      86.711 324.994 206.180  1.00  0.00    -0.000 C 
BRANCH   8   9
ATOM      9  C   UNL     1      88.040 324.806 206.926  1.00  0.00    -0.000 C 
BRANCH   9  10
ATOM     10  C   UNL     1      88.820 326.123 207.091  1.00  0.00    -0.000 C 
BRANCH  10  11
ATOM     11  C   UNL     1      88.913 326.920 205.781  1.00  0.00    -0.003 C 
ATOM     12  C   UNL     1      90.248 326.725 205.063  1.00  0.00     0.004 C 
ENDBRANCH  10  11
ENDBRANCH   9  10
ENDBRANCH   8   9
ENDBRANCH   7   8
ENDBRANCH   6   7
ENDBRANCH   5   6
ENDBRANCH   4   5
ENDBRANCH   3   4
ENDBRANCH   2   3
ENDBRANCH   1   2
BRANCH   1  13
ATOM     13  C   UNL     1      88.858 326.028 198.342  1.00  0.00     0.000 C 
BRANCH  13  14
ATOM     14  C   UNL     1      88.178 324.996 197.425  1.00  0.00     0.000 C 
BRANCH  14  15
ATOM     15  C   UNL     1      88.707 325.044 195.983  1.00  0.00     0.000 C 
BRANCH  15  16
ATOM     16  C   UNL     1      88.882 326.479 195.460  1.00  0.00     0.000 C 
BRANCH  16  17
ATOM     17  C   UNL     1      87.919 326.758 194.296  1.00  0.00     0.000 C 
BRANCH  17  18
ATOM     18  C   UNL     1      87.339 325.475 193.683  1.00  0.00     0.000 C 
BRANCH  18  19
ATOM     19  C   UNL     1      88.110 325.017 192.432  1.00  0.00     0.000 C 
BRANCH  19  20
ATOM     20  C   UNL     1      87.454 323.813 191.738  1.00  0.00     0.006 C 
BRANCH  20  21
ATOM     21  C   UNL     1      88.064 323.521 190.361  1.00  0.00     0.053 C 
BRANCH  21  22
ATOM     22  C   UNL     1      87.367 322.367 189.711  1.00  0.00     0.041 C 
ATOM     23  O   UNL     1      87.066 322.415 188.488  1.00  0.00    -0.550 OA
ATOM     24  O   UNL     1      87.102 321.215 190.440  1.00  0.00    -0.550 OA
ENDBRANCH  21  22
ENDBRANCH  20  21
ENDBRANCH  19  20
ENDBRANCH  18  19
ENDBRANCH  17  18
ENDBRANCH  16  17
ENDBRANCH  15  16
ENDBRANCH  14  15
ENDBRANCH  13  14
ENDBRANCH   1  13
TORSDOF 20
ENDMDL
MODEL 8
REMARK VINA RESULT:    -5.675      3.288      9.908
REMARK INTER + INTRA:         -14.355
REMARK INTER:                 -12.516
REMARK INTRA:                  -1.838
REMARK UNBOUND:                -2.044
REMARK SMILES CCCCCCCCCCCCCCCCCCCCCC(=O)[O-]
REMARK SMILES IDX 12 1 11 2 10 3 9 4 8 5 7 6 6 7 5 8 4 9 3 10 2 11 1 12 13 13
REMARK SMILES IDX 14 14 15 15 16 16 17 17 18 18 19 19 20 20 21 21 22 22 23 23
REMARK SMILES IDX 24 24
REMARK H PARENT
REMARK Flexibility Score: inf
ROOT
ATOM      1  C   UNL     1      88.994 325.381 200.499  1.00  0.00     0.000 C 
ENDROOT
BRANCH   1   2
ATOM      2  C   UNL     1      88.874 325.106 198.992  1.00  0.00     0.000 C 
BRANCH   2   3
ATOM      3  C   UNL     1      88.662 326.412 198.212  1.00  0.00     0.000 C 
BRANCH   3   4
ATOM      4  C   UNL     1      88.477 326.176 196.703  1.00  0.00    -0.000 C 
BRANCH   4   5
ATOM      5  C   UNL     1      87.002 326.256 196.273  1.00  0.00    -0.000 C 
BRANCH   5   6
ATOM      6  C   UNL     1      86.834 326.570 194.775  1.00  0.00    -0.000 C 
BRANCH   6   7
ATOM      7  C   UNL     1      88.065 326.197 193.923  1.00  0.00    -0.000 C 
BRANCH   7   8
ATOM      8  C   UNL     1      87.734 325.132 192.862  1.00  0.00    -0.000 C 
BRANCH   8   9
ATOM      9  C   UNL     1      88.403 323.780 193.149  1.00  0.00    -0.000 C 
BRANCH   9  10
ATOM     10  C   UNL     1      88.006 323.200 194.518  1.00  0.00    -0.000 C 
BRANCH  10  11
ATOM     11  C   UNL     1      89.041 322.200 195.057  1.00  0.00    -0.003 C 
ATOM     12  C   UNL     1      89.719 322.683 196.338  1.00  0.00     0.004 C 
ENDBRANCH  10  11
ENDBRANCH   9  10
ENDBRANCH   8   9
ENDBRANCH   7   8
ENDBRANCH   6   7
ENDBRANCH   5   6
ENDBRANCH   4   5
ENDBRANCH   3   4
ENDBRANCH   2   3
ENDBRANCH   1   2
BRANCH   1  13
ATOM     13  C   UNL     1      89.999 326.499 200.822  1.00  0.00     0.000 C 
BRANCH  13  14
ATOM     14  C   UNL     1      90.455 326.477 202.291  1.00  0.00     0.000 C 
BRANCH  14  15
ATOM     15  C   UNL     1      89.282 326.345 203.275  1.00  0.00     0.000 C 
BRANCH  15  16
ATOM     16  C   UNL     1      89.162 327.549 204.223  1.00  0.00     0.000 C 
BRANCH  16  17
ATOM     17  C   UNL     1      89.783 327.232 205.592  1.00  0.00     0.000 C 
BRANCH  17  18
ATOM     18  C   UNL     1      89.360 325.858 206.134  1.00  0.00     0.000 C 
BRANCH  18  19
ATOM     19  C   UNL     1      88.080 325.929 206.986  1.00  0.00     0.000 C 
BRANCH  19  20
ATOM     20  C   UNL     1      86.910 325.151 206.364  1.00  0.00     0.006 C 
BRANCH  20  21
ATOM     21  C   UNL     1      87.280 323.703 206.019  1.00  0.00     0.053 C 
BRANCH  21  22
ATOM     22  C   UNL     1      87.055 323.435 204.564  1.00  0.00     0.041 C 
ATOM     23  O   UNL     1      87.877 322.733 203.914  1.00  0.00    -0.550 OA
ATOM     24  O   UNL     1      85.910 323.911 203.938  1.00  0.00    -0.550 OA
ENDBRANCH  21  22
ENDBRANCH  20  21
ENDBRANCH  19  20
ENDBRANCH  18  19
ENDBRANCH  17  18
ENDBRANCH  16  17
ENDBRANCH  15  16
ENDBRANCH  14  15
ENDBRANCH  13  14
ENDBRANCH   1  13
TORSDOF 20
ENDMDL
MODEL 9
REMARK VINA RESULT:    -5.628      3.368     10.231
REMARK INTER + INTRA:         -14.251
REMARK INTER:                 -12.302
REMARK INTRA:                  -1.949
REMARK UNBOUND:                -2.044
REMARK SMILES CCCCCCCCCCCCCCCCCCCCCC(=O)[O-]
REMARK SMILES IDX 12 1 11 2 10 3 9 4 8 5 7 6 6 7 5 8 4 9 3 10 2 11 1 12 13 13
REMARK SMILES IDX 14 14 15 15 16 16 17 17 18 18 19 19 20 20 21 21 22 22 23 23
REMARK SMILES IDX 24 24
REMARK H PARENT
REMARK Flexibility Score: inf
ROOT
ATOM      1  C   UNL     1      89.370 324.800 200.824  1.00  0.00     0.000 C 
ENDROOT
BRANCH   1   2
ATOM      2  C   UNL     1      88.944 324.618 199.359  1.00  0.00     0.000 C 
BRANCH   2   3
ATOM      3  C   UNL     1      88.789 325.978 198.661  1.00  0.00     0.000 C 
BRANCH   3   4
ATOM      4  C   UNL     1      88.178 325.853 197.255  1.00  0.00    -0.000 C 
BRANCH   4   5
ATOM      5  C   UNL     1      89.058 326.503 196.173  1.00  0.00    -0.000 C 
BRANCH   5   6
ATOM      6  C   UNL     1      88.393 326.504 194.785  1.00  0.00    -0.000 C 
BRANCH   6   7
ATOM      7  C   UNL     1      86.898 326.120 194.814  1.00  0.00    -0.000 C 
BRANCH   7   8
ATOM      8  C   UNL     1      86.527 325.157 193.672  1.00  0.00    -0.000 C 
BRANCH   8   9
ATOM      9  C   UNL     1      87.674 324.949 192.673  1.00  0.00    -0.000 C 
BRANCH   9  10
ATOM     10  C   UNL     1      88.195 323.501 192.659  1.00  0.00    -0.000 C 
BRANCH  10  11
ATOM     11  C   UNL     1      87.816 322.728 193.932  1.00  0.00    -0.003 C 
ATOM     12  C   UNL     1      88.864 322.855 195.036  1.00  0.00     0.004 C 
ENDBRANCH  10  11
ENDBRANCH   9  10
ENDBRANCH   8   9
ENDBRANCH   7   8
ENDBRANCH   6   7
ENDBRANCH   5   6
ENDBRANCH   4   5
ENDBRANCH   3   4
ENDBRANCH   2   3
ENDBRANCH   1   2
BRANCH   1  13
ATOM     13  C   UNL     1      88.199 325.187 201.742  1.00  0.00     0.000 C 
BRANCH  13  14
ATOM     14  C   UNL     1      87.371 323.969 202.188  1.00  0.00     0.000 C 
BRANCH  14  15
ATOM     15  C   UNL     1      87.512 323.672 203.689  1.00  0.00     0.000 C 
BRANCH  15  16
ATOM     16  C   UNL     1      86.190 323.838 204.455  1.00  0.00     0.000 C 
BRANCH  16  17
ATOM     17  C   UNL     1      86.450 324.239 205.915  1.00  0.00     0.000 C 
BRANCH  17  18
ATOM     18  C   UNL     1      87.903 324.670 206.164  1.00  0.00     0.000 C 
BRANCH  18  19
ATOM     19  C   UNL     1      88.001 326.005 206.923  1.00  0.00     0.000 C 
BRANCH  19  20
ATOM     20  C   UNL     1      89.148 326.893 206.415  1.00  0.00     0.006 C 
BRANCH  20  21
ATOM     21  C   UNL     1      89.124 327.075 204.892  1.00  0.00     0.053 C 
BRANCH  21  22
ATOM     22  C   UNL     1      90.502 327.341 204.372  1.00  0.00     0.041 C 
ATOM     23  O   UNL     1      90.733 327.293 203.134  1.00  0.00    -0.550 OA
ATOM     24  O   UNL     1      91.519 327.699 205.249  1.00  0.00    -0.550 OA
ENDBRANCH  21  22
ENDBRANCH  20  21
ENDBRANCH  19  20
ENDBRANCH  18  19
ENDBRANCH  17  18
ENDBRANCH  16  17
ENDBRANCH  15  16
ENDBRANCH  14  15
ENDBRANCH  13  14
ENDBRANCH   1  13
TORSDOF 20
ENDMDL
