MODEL 1
REMARK VINA RESULT:    -7.287      0.000      0.000
REMARK INTER + INTRA:          -7.723
REMARK INTER:                  -7.926
REMARK INTRA:                   0.202
REMARK UNBOUND:                 0.202
REMARK SMILES C[C@@H]1[C@H]2C3=CC[C@H]4[C@@]5(C)CC[C@@H](O)C(C)(C)[C@@H]5CC[C@@]4(C)[C@@]3(C)CC[C@]2(C(=O)[O-])CC[C@@H]1C
REMARK SMILES IDX 26 1 30 2 25 3 3 4 31 5 24 6 4 7 2 8 32 9 22 10 5 11 1 12
REMARK SMILES IDX 33 13 23 14 20 15 6 16 7 17 19 18 21 19 8 20 18 21 17 22
REMARK SMILES IDX 10 23 9 24 14 25 11 26 12 27 15 28 16 29 27 30 28 31 29 32
REMARK SMILES IDX 13 33
REMARK H PARENT 13 34
REMARK Flexibility Score: inf
ROOT
ATOM      1  C   UNL     1      -1.354  28.096  26.471  1.00  0.00     0.017 C 
ATOM      2  C   UNL     1      -1.555  28.979  25.180  1.00  0.00     0.014 C 
ATOM      3  C   UNL     1      -2.612  27.170  26.640  1.00  0.00     0.014 C 
ATOM      4  C   UNL     1      -0.084  27.195  26.320  1.00  0.00     0.030 C 
ATOM      5  C   UNL     1      -0.356  28.981  24.208  1.00  0.00     0.004 C 
ATOM      6  C   UNL     1      -2.452  26.013  27.671  1.00  0.00     0.013 C 
ATOM      7  C   UNL     1      -0.030  26.166  27.465  1.00  0.00    -0.063 C 
ATOM      8  C   UNL     1       1.229  27.994  26.003  1.00  0.00    -0.003 C 
ATOM      9  C   UNL     1       0.978  29.149  24.956  1.00  0.00    -0.011 C 
ATOM     10  C   UNL     1      -1.173  25.132  27.487  1.00  0.00    -0.006 C 
ATOM     11  C   UNL     1       0.711  26.419  28.572  1.00  0.00    -0.027 C 
ATOM     12  C   UNL     1       2.352  27.010  25.606  1.00  0.00     0.008 C 
ATOM     13  C   UNL     1       2.123  29.378  23.950  1.00  0.00     0.008 C 
ATOM     14  C   UNL     1      -1.278  24.407  26.101  1.00  0.00     0.017 C 
ATOM     15  C   UNL     1      -0.948  24.005  28.632  1.00  0.00    -0.020 C 
ATOM     16  C   UNL     1       0.818  25.520  29.767  1.00  0.00     0.032 C 
ATOM     17  C   UNL     1      -0.409  24.611  29.991  1.00  0.00     0.006 C 
ATOM     18  C   UNL     1      -2.224  23.093  28.875  1.00  0.00     0.008 C 
ATOM     19  C   UNL     1       0.176  23.018  28.125  1.00  0.00     0.012 C 
ATOM     20  C   UNL     1      -1.430  25.097  31.135  1.00  0.00    -0.025 C 
ATOM     21  C   UNL     1      -2.802  23.102  30.300  1.00  0.00     0.005 C 
ATOM     22  C   UNL     1      -2.867  24.540  30.841  1.00  0.00     0.003 C 
ATOM     23  C   UNL     1      -1.513  26.658  31.282  1.00  0.00     0.010 C 
ATOM     24  C   UNL     1      -0.866  24.539  32.487  1.00  0.00     0.012 C 
ATOM     25  C   UNL     1      -3.970  24.852  31.937  1.00  0.00    -0.006 C 
ATOM     26  C   UNL     1      -2.910  27.201  31.666  1.00  0.00     0.033 C 
ATOM     27  C   UNL     1      -3.686  26.258  32.605  1.00  0.00     0.120 C 
ATOM     28  C   UNL     1      -4.033  23.755  33.031  1.00  0.00     0.014 C 
ATOM     29  C   UNL     1      -5.368  24.882  31.247  1.00  0.00     0.014 C 
ENDROOT
BRANCH   1  30
ATOM     30  C   UNL     1      -1.226  29.024  27.681  1.00  0.00     0.048 C 
ATOM     31  O   UNL     1      -0.322  29.908  27.714  1.00  0.00    -0.550 OA
ATOM     32  O   UNL     1      -2.160  28.998  28.712  1.00  0.00    -0.550 OA
ENDBRANCH   1  30
BRANCH  27  33
ATOM     33  O   UNL     1      -4.877  26.903  32.986  1.00  0.00    -0.393 OA
ATOM     34  H   UNL     1      -5.622  26.432  32.534  1.00  0.00     0.210 HD
ENDBRANCH  27  33
TORSDOF 2
ENDMDL
MODEL 2
REMARK VINA RESULT:    -7.263      2.012      6.461
REMARK INTER + INTRA:          -7.698
REMARK INTER:                  -7.894
REMARK INTRA:                   0.196
REMARK UNBOUND:                 0.202
REMARK SMILES C[C@@H]1[C@H]2C3=CC[C@H]4[C@@]5(C)CC[C@@H](O)C(C)(C)[C@@H]5CC[C@@]4(C)[C@@]3(C)CC[C@]2(C(=O)[O-])CC[C@@H]1C
REMARK SMILES IDX 26 1 30 2 25 3 3 4 31 5 24 6 4 7 2 8 32 9 22 10 5 11 1 12
REMARK SMILES IDX 33 13 23 14 20 15 6 16 7 17 19 18 21 19 8 20 18 21 17 22
REMARK SMILES IDX 10 23 9 24 14 25 11 26 12 27 15 28 16 29 27 30 28 31 29 32
REMARK SMILES IDX 13 33
REMARK H PARENT 13 34
REMARK Flexibility Score: inf
ROOT
ATOM      1  C   UNL     1      -4.040  28.137  30.728  1.00  0.00     0.017 C 
ATOM      2  C   UNL     1      -4.806  29.003  31.800  1.00  0.00     0.014 C 
ATOM      3  C   UNL     1      -2.626  27.768  31.306  1.00  0.00     0.014 C 
ATOM      4  C   UNL     1      -4.824  26.816  30.436  1.00  0.00     0.030 C 
ATOM      5  C   UNL     1      -6.242  28.525  32.106  1.00  0.00     0.004 C 
ATOM      6  C   UNL     1      -1.857  26.660  30.527  1.00  0.00     0.013 C 
ATOM      7  C   UNL     1      -3.959  25.869  29.583  1.00  0.00    -0.063 C 
ATOM      8  C   UNL     1      -6.309  27.043  29.982  1.00  0.00    -0.003 C 
ATOM      9  C   UNL     1      -7.011  28.184  30.818  1.00  0.00    -0.011 C 
ATOM     10  C   UNL     1      -2.671  25.353  30.256  1.00  0.00    -0.006 C 
ATOM     11  C   UNL     1      -4.107  25.842  28.235  1.00  0.00    -0.027 C 
ATOM     12  C   UNL     1      -7.065  25.696  29.986  1.00  0.00     0.008 C 
ATOM     13  C   UNL     1      -8.498  27.936  31.140  1.00  0.00     0.008 C 
ATOM     14  C   UNL     1      -3.007  24.694  31.639  1.00  0.00     0.017 C 
ATOM     15  C   UNL     1      -1.910  24.250  29.342  1.00  0.00    -0.020 C 
ATOM     16  C   UNL     1      -3.305  24.995  27.292  1.00  0.00     0.032 C 
ATOM     17  C   UNL     1      -1.895  24.631  27.806  1.00  0.00     0.006 C 
ATOM     18  C   UNL     1      -0.451  23.902  29.862  1.00  0.00     0.008 C 
ATOM     19  C   UNL     1      -2.719  22.897  29.442  1.00  0.00     0.012 C 
ATOM     20  C   UNL     1      -0.689  25.495  27.187  1.00  0.00    -0.025 C 
ATOM     21  C   UNL     1       0.699  24.162  28.876  1.00  0.00     0.005 C 
ATOM     22  C   UNL     1       0.517  25.526  28.190  1.00  0.00     0.003 C 
ATOM     23  C   UNL     1      -1.090  26.972  26.832  1.00  0.00     0.010 C 
ATOM     24  C   UNL     1      -0.296  24.792  25.841  1.00  0.00     0.012 C 
ATOM     25  C   UNL     1       1.827  26.260  27.679  1.00  0.00    -0.006 C 
ATOM     26  C   UNL     1       0.033  28.017  27.038  1.00  0.00     0.033 C 
ATOM     27  C   UNL     1       1.436  27.463  26.728  1.00  0.00     0.120 C 
ATOM     28  C   UNL     1       2.785  25.294  26.934  1.00  0.00     0.014 C 
ATOM     29  C   UNL     1       2.608  26.809  28.911  1.00  0.00     0.014 C 
ENDROOT
BRANCH   1  30
ATOM     30  C   UNL     1      -3.878  28.971  29.455  1.00  0.00     0.048 C 
ATOM     31  O   UNL     1      -4.895  29.433  28.861  1.00  0.00    -0.550 OA
ATOM     32  O   UNL     1      -2.620  29.336  28.986  1.00  0.00    -0.550 OA
ENDBRANCH   1  30
BRANCH  27  33
ATOM     33  O   UNL     1       2.356  28.523  26.826  1.00  0.00    -0.393 OA
ATOM     34  H   UNL     1       2.796  28.612  25.943  1.00  0.00     0.210 HD
ENDBRANCH  27  33
TORSDOF 2
ENDMDL
MODEL 3
REMARK VINA RESULT:    -7.120      2.100      6.827
REMARK INTER + INTRA:          -7.542
REMARK INTER:                  -7.739
REMARK INTRA:                   0.197
REMARK UNBOUND:                 0.202
REMARK SMILES C[C@@H]1[C@H]2C3=CC[C@H]4[C@@]5(C)CC[C@@H](O)C(C)(C)[C@@H]5CC[C@@]4(C)[C@@]3(C)CC[C@]2(C(=O)[O-])CC[C@@H]1C
REMARK SMILES IDX 26 1 30 2 25 3 3 4 31 5 24 6 4 7 2 8 32 9 22 10 5 11 1 12
REMARK SMILES IDX 33 13 23 14 20 15 6 16 7 17 19 18 21 19 8 20 18 21 17 22
REMARK SMILES IDX 10 23 9 24 14 25 11 26 12 27 15 28 16 29 27 30 28 31 29 32
REMARK SMILES IDX 13 33
REMARK H PARENT 13 34
REMARK Flexibility Score: inf
ROOT
ATOM      1  C   UNL     1      -2.063  24.919  31.757  1.00  0.00     0.017 C 
ATOM      2  C   UNL     1      -2.761  24.199  32.974  1.00  0.00     0.014 C 
ATOM      3  C   UNL     1      -0.774  24.108  31.372  1.00  0.00     0.014 C 
ATOM      4  C   UNL     1      -3.023  24.951  30.522  1.00  0.00     0.030 C 
ATOM      5  C   UNL     1      -4.273  23.947  32.792  1.00  0.00     0.004 C 
ATOM      6  C   UNL     1      -0.135  24.485  30.003  1.00  0.00     0.013 C 
ATOM      7  C   UNL     1      -2.258  25.429  29.273  1.00  0.00    -0.063 C 
ATOM      8  C   UNL     1      -4.415  25.615  30.815  1.00  0.00    -0.003 C 
ATOM      9  C   UNL     1      -4.988  25.184  32.222  1.00  0.00    -0.011 C 
ATOM     10  C   UNL     1      -1.123  24.504  28.791  1.00  0.00    -0.006 C 
ATOM     11  C   UNL     1      -2.307  26.733  28.904  1.00  0.00    -0.027 C 
ATOM     12  C   UNL     1      -5.374  25.353  29.632  1.00  0.00     0.008 C 
ATOM     13  C   UNL     1      -6.515  24.982  32.270  1.00  0.00     0.008 C 
ATOM     14  C   UNL     1      -1.662  23.047  28.581  1.00  0.00     0.017 C 
ATOM     15  C   UNL     1      -0.480  25.012  27.391  1.00  0.00    -0.020 C 
ATOM     16  C   UNL     1      -1.581  27.331  27.735  1.00  0.00     0.032 C 
ATOM     17  C   UNL     1      -0.291  26.583  27.338  1.00  0.00     0.006 C 
ATOM     18  C   UNL     1       0.861  24.258  27.006  1.00  0.00     0.008 C 
ATOM     19  C   UNL     1      -1.499  24.664  26.236  1.00  0.00     0.012 C 
ATOM     20  C   UNL     1       1.081  27.261  27.835  1.00  0.00    -0.025 C 
ATOM     21  C   UNL     1       2.109  25.139  26.834  1.00  0.00     0.005 C 
ATOM     22  C   UNL     1       2.198  26.168  27.974  1.00  0.00     0.003 C 
ATOM     23  C   UNL     1       0.947  28.024  29.201  1.00  0.00     0.010 C 
ATOM     24  C   UNL     1       1.457  28.328  26.749  1.00  0.00     0.012 C 
ATOM     25  C   UNL     1       3.642  26.696  28.362  1.00  0.00    -0.006 C 
ATOM     26  C   UNL     1       2.203  27.965  30.103  1.00  0.00     0.033 C 
ATOM     27  C   UNL     1       3.520  27.961  29.304  1.00  0.00     0.120 C 
ATOM     28  C   UNL     1       4.488  27.054  27.112  1.00  0.00     0.014 C 
ATOM     29  C   UNL     1       4.406  25.564  29.113  1.00  0.00     0.014 C 
ENDROOT
BRANCH   1  30
ATOM     30  C   UNL     1      -1.677  26.336  32.186  1.00  0.00     0.048 C 
ATOM     31  O   UNL     1      -2.560  27.143  32.596  1.00  0.00    -0.550 OA
ATOM     32  O   UNL     1      -0.344  26.733  32.248  1.00  0.00    -0.550 OA
ENDBRANCH   1  30
BRANCH  27  33
ATOM     33  O   UNL     1       4.586  28.033  30.219  1.00  0.00    -0.393 OA
ATOM     34  H   UNL     1       5.292  27.418  29.895  1.00  0.00     0.210 HD
ENDBRANCH  27  33
TORSDOF 2
ENDMDL
MODEL 4
REMARK VINA RESULT:    -6.947      2.092      7.229
REMARK INTER + INTRA:          -7.354
REMARK INTER:                  -7.587
REMARK INTRA:                   0.233
REMARK UNBOUND:                 0.202
REMARK SMILES C[C@@H]1[C@H]2C3=CC[C@H]4[C@@]5(C)CC[C@@H](O)C(C)(C)[C@@H]5CC[C@@]4(C)[C@@]3(C)CC[C@]2(C(=O)[O-])CC[C@@H]1C
REMARK SMILES IDX 26 1 30 2 25 3 3 4 31 5 24 6 4 7 2 8 32 9 22 10 5 11 1 12
REMARK SMILES IDX 33 13 23 14 20 15 6 16 7 17 19 18 21 19 8 20 18 21 17 22
REMARK SMILES IDX 10 23 9 24 14 25 11 26 12 27 15 28 16 29 27 30 28 31 29 32
REMARK SMILES IDX 13 33
REMARK H PARENT 13 34
REMARK Flexibility Score: inf
ROOT
ATOM      1  C   UNL     1      -2.618  23.697  30.714  1.00  0.00     0.017 C 
ATOM      2  C   UNL     1      -3.237  22.342  31.233  1.00  0.00     0.014 C 
ATOM      3  C   UNL     1      -2.368  23.568  29.169  1.00  0.00     0.014 C 
ATOM      4  C   UNL     1      -3.611  24.879  30.966  1.00  0.00     0.030 C 
ATOM      5  C   UNL     1      -4.505  22.504  32.099  1.00  0.00     0.004 C 
ATOM      6  C   UNL     1      -2.059  24.905  28.431  1.00  0.00     0.013 C 
ATOM      7  C   UNL     1      -3.114  26.145  30.243  1.00  0.00    -0.063 C 
ATOM      8  C   UNL     1      -4.056  25.029  32.463  1.00  0.00    -0.003 C 
ATOM      9  C   UNL     1      -4.343  23.629  33.135  1.00  0.00    -0.011 C 
ATOM     10  C   UNL     1      -3.074  26.063  28.704  1.00  0.00    -0.006 C 
ATOM     11  C   UNL     1      -2.389  27.072  30.916  1.00  0.00    -0.027 C 
ATOM     12  C   UNL     1      -5.228  26.031  32.558  1.00  0.00     0.008 C 
ATOM     13  C   UNL     1      -5.524  23.611  34.125  1.00  0.00     0.008 C 
ATOM     14  C   UNL     1      -4.473  25.625  28.146  1.00  0.00     0.017 C 
ATOM     15  C   UNL     1      -2.685  27.487  28.031  1.00  0.00    -0.020 C 
ATOM     16  C   UNL     1      -1.818  28.325  30.322  1.00  0.00     0.032 C 
ATOM     17  C   UNL     1      -1.528  28.237  28.809  1.00  0.00     0.006 C 
ATOM     18  C   UNL     1      -2.361  27.381  26.481  1.00  0.00     0.008 C 
ATOM     19  C   UNL     1      -3.949  28.429  28.127  1.00  0.00     0.012 C 
ATOM     20  C   UNL     1       0.013  28.001  28.412  1.00  0.00    -0.025 C 
ATOM     21  C   UNL     1      -0.959  27.840  26.049  1.00  0.00     0.005 C 
ATOM     22  C   UNL     1       0.104  27.293  27.015  1.00  0.00     0.003 C 
ATOM     23  C   UNL     1       0.810  27.150  29.464  1.00  0.00     0.010 C 
ATOM     24  C   UNL     1       0.675  29.423  28.378  1.00  0.00     0.012 C 
ATOM     25  C   UNL     1       1.566  27.080  26.439  1.00  0.00    -0.006 C 
ATOM     26  C   UNL     1       1.897  26.227  28.863  1.00  0.00     0.033 C 
ATOM     27  C   UNL     1       2.584  26.832  27.625  1.00  0.00     0.120 C 
ATOM     28  C   UNL     1       2.039  28.287  25.587  1.00  0.00     0.014 C 
ATOM     29  C   UNL     1       1.559  25.839  25.497  1.00  0.00     0.014 C 
ENDROOT
BRANCH   1  30
ATOM     30  C   UNL     1      -1.290  23.933  31.437  1.00  0.00     0.048 C 
ATOM     31  O   UNL     1      -1.203  23.755  32.687  1.00  0.00    -0.550 OA
ATOM     32  O   UNL     1      -0.129  24.235  30.733  1.00  0.00    -0.550 OA
ENDBRANCH   1  30
BRANCH  27  33
ATOM     33  O   UNL     1       3.630  25.972  27.241  1.00  0.00    -0.393 OA
ATOM     34  H   UNL     1       4.410  26.189  27.810  1.00  0.00     0.210 HD
ENDBRANCH  27  33
TORSDOF 2
ENDMDL
MODEL 5
REMARK VINA RESULT:    -6.927      2.148      4.010
REMARK INTER + INTRA:          -7.332
REMARK INTER:                  -7.567
REMARK INTRA:                   0.235
REMARK UNBOUND:                 0.202
REMARK SMILES C[C@@H]1[C@H]2C3=CC[C@H]4[C@@]5(C)CC[C@@H](O)C(C)(C)[C@@H]5CC[C@@]4(C)[C@@]3(C)CC[C@]2(C(=O)[O-])CC[C@@H]1C
REMARK SMILES IDX 26 1 30 2 25 3 3 4 31 5 24 6 4 7 2 8 32 9 22 10 5 11 1 12
REMARK SMILES IDX 33 13 23 14 20 15 6 16 7 17 19 18 21 19 8 20 18 21 17 22
REMARK SMILES IDX 10 23 9 24 14 25 11 26 12 27 15 28 16 29 27 30 28 31 29 32
REMARK SMILES IDX 13 33
REMARK H PARENT 13 34
REMARK Flexibility Score: inf
ROOT
ATOM      1  C   UNL     1       1.164  26.324  27.329  1.00  0.00     0.017 C 
ATOM      2  C   UNL     1       2.628  26.356  26.744  1.00  0.00     0.014 C 
ATOM      3  C   UNL     1       1.258  26.210  28.894  1.00  0.00     0.014 C 
ATOM      4  C   UNL     1       0.405  27.642  26.966  1.00  0.00     0.030 C 
ATOM      5  C   UNL     1       2.895  27.498  25.740  1.00  0.00     0.004 C 
ATOM      6  C   UNL     1      -0.070  26.483  29.661  1.00  0.00     0.013 C 
ATOM      7  C   UNL     1      -0.925  27.714  27.740  1.00  0.00    -0.063 C 
ATOM      8  C   UNL     1       0.363  27.949  25.428  1.00  0.00    -0.003 C 
ATOM      9  C   UNL     1       1.745  27.641  24.728  1.00  0.00    -0.011 C 
ATOM     10  C   UNL     1      -0.800  27.811  29.274  1.00  0.00    -0.006 C 
ATOM     11  C   UNL     1      -2.076  27.302  27.154  1.00  0.00    -0.027 C 
ATOM     12  C   UNL     1      -0.158  29.386  25.199  1.00  0.00     0.008 C 
ATOM     13  C   UNL     1       2.143  28.624  23.610  1.00  0.00     0.008 C 
ATOM     14  C   UNL     1       0.131  29.009  29.669  1.00  0.00     0.017 C 
ATOM     15  C   UNL     1      -2.240  28.033  29.987  1.00  0.00    -0.020 C 
ATOM     16  C   UNL     1      -3.425  27.287  27.809  1.00  0.00     0.032 C 
ATOM     17  C   UNL     1      -3.384  27.147  29.345  1.00  0.00     0.006 C 
ATOM     18  C   UNL     1      -2.194  27.860  31.563  1.00  0.00     0.008 C 
ATOM     19  C   UNL     1      -2.672  29.533  29.746  1.00  0.00     0.012 C 
ATOM     20  C   UNL     1      -3.698  25.676  29.915  1.00  0.00    -0.025 C 
ATOM     21  C   UNL     1      -3.105  26.771  32.152  1.00  0.00     0.005 C 
ATOM     22  C   UNL     1      -3.014  25.486  31.313  1.00  0.00     0.003 C 
ATOM     23  C   UNL     1      -3.231  24.519  28.961  1.00  0.00     0.010 C 
ATOM     24  C   UNL     1      -5.260  25.577  30.024  1.00  0.00     0.012 C 
ATOM     25  C   UNL     1      -3.314  24.115  32.053  1.00  0.00    -0.006 C 
ATOM     26  C   UNL     1      -2.733  23.244  29.683  1.00  0.00     0.033 C 
ATOM     27  C   UNL     1      -3.493  22.956  30.990  1.00  0.00     0.120 C 
ATOM     28  C   UNL     1      -4.573  24.201  32.952  1.00  0.00     0.014 C 
ATOM     29  C   UNL     1      -2.114  23.777  32.988  1.00  0.00     0.014 C 
ENDROOT
BRANCH   1  30
ATOM     30  C   UNL     1       0.440  25.101  26.762  1.00  0.00     0.048 C 
ATOM     31  O   UNL     1       0.090  25.072  25.547  1.00  0.00    -0.550 OA
ATOM     32  O   UNL     1       0.253  23.954  27.528  1.00  0.00    -0.550 OA
ENDBRANCH   1  30
BRANCH  27  33
ATOM     33  O   UNL     1      -3.048  21.719  31.491  1.00  0.00    -0.393 OA
ATOM     34  H   UNL     1      -3.402  21.016  30.891  1.00  0.00     0.210 HD
ENDBRANCH  27  33
TORSDOF 2
ENDMDL
MODEL 6
REMARK VINA RESULT:    -6.630      2.765      4.602
REMARK INTER + INTRA:          -7.010
REMARK INTER:                  -7.207
REMARK INTRA:                   0.197
REMARK UNBOUND:                 0.202
REMARK SMILES C[C@@H]1[C@H]2C3=CC[C@H]4[C@@]5(C)CC[C@@H](O)C(C)(C)[C@@H]5CC[C@@]4(C)[C@@]3(C)CC[C@]2(C(=O)[O-])CC[C@@H]1C
REMARK SMILES IDX 26 1 30 2 25 3 3 4 31 5 24 6 4 7 2 8 32 9 22 10 5 11 1 12
REMARK SMILES IDX 33 13 23 14 20 15 6 16 7 17 19 18 21 19 8 20 18 21 17 22
REMARK SMILES IDX 10 23 9 24 14 25 11 26 12 27 15 28 16 29 27 30 28 31 29 32
REMARK SMILES IDX 13 33
REMARK H PARENT 13 34
REMARK Flexibility Score: inf
ROOT
ATOM      1  C   UNL     1      -0.995  24.196  28.582  1.00  0.00     0.017 C 
ATOM      2  C   UNL     1      -0.302  22.978  27.858  1.00  0.00     0.014 C 
ATOM      3  C   UNL     1      -1.995  23.633  29.654  1.00  0.00     0.014 C 
ATOM      4  C   UNL     1       0.076  25.076  29.306  1.00  0.00     0.030 C 
ATOM      5  C   UNL     1       1.236  23.066  27.778  1.00  0.00     0.004 C 
ATOM      6  C   UNL     1      -2.530  24.679  30.678  1.00  0.00     0.013 C 
ATOM      7  C   UNL     1      -0.619  26.114  30.208  1.00  0.00    -0.063 C 
ATOM      8  C   UNL     1       1.222  25.589  28.365  1.00  0.00    -0.003 C 
ATOM      9  C   UNL     1       1.701  24.471  27.358  1.00  0.00    -0.011 C 
ATOM     10  C   UNL     1      -1.432  25.538  31.385  1.00  0.00    -0.006 C 
ATOM     11  C   UNL     1      -0.837  27.373  29.753  1.00  0.00    -0.027 C 
ATOM     12  C   UNL     1       2.355  26.206  29.215  1.00  0.00     0.008 C 
ATOM     13  C   UNL     1       3.214  24.463  27.065  1.00  0.00     0.008 C 
ATOM     14  C   UNL     1      -0.539  24.576  32.242  1.00  0.00     0.017 C 
ATOM     15  C   UNL     1      -1.997  26.705  32.359  1.00  0.00    -0.020 C 
ATOM     16  C   UNL     1      -1.533  28.462  30.515  1.00  0.00     0.032 C 
ATOM     17  C   UNL     1      -2.548  27.956  31.561  1.00  0.00     0.006 C 
ATOM     18  C   UNL     1      -3.062  26.182  33.413  1.00  0.00     0.008 C 
ATOM     19  C   UNL     1      -0.789  27.244  33.222  1.00  0.00     0.012 C 
ATOM     20  C   UNL     1      -4.092  28.032  31.119  1.00  0.00    -0.025 C 
ATOM     21  C   UNL     1      -4.453  26.834  33.354  1.00  0.00     0.005 C 
ATOM     22  C   UNL     1      -4.925  26.953  31.896  1.00  0.00     0.003 C 
ATOM     23  C   UNL     1      -4.316  27.831  29.577  1.00  0.00     0.010 C 
ATOM     24  C   UNL     1      -4.574  29.484  31.466  1.00  0.00     0.012 C 
ATOM     25  C   UNL     1      -6.490  26.967  31.640  1.00  0.00    -0.006 C 
ATOM     26  C   UNL     1      -5.624  27.094  29.202  1.00  0.00     0.033 C 
ATOM     27  C   UNL     1      -6.791  27.416  30.153  1.00  0.00     0.120 C 
ATOM     28  C   UNL     1      -7.234  27.901  32.630  1.00  0.00     0.014 C 
ATOM     29  C   UNL     1      -7.050  25.530  31.870  1.00  0.00     0.014 C 
ENDROOT
BRANCH   1  30
ATOM     30  C   UNL     1      -1.759  25.013  27.537  1.00  0.00     0.048 C 
ATOM     31  O   UNL     1      -1.150  25.511  26.546  1.00  0.00    -0.550 OA
ATOM     32  O   UNL     1      -3.144  25.130  27.585  1.00  0.00    -0.550 OA
ENDBRANCH   1  30
BRANCH  27  33
ATOM     33  O   UNL     1      -7.950  26.797  29.648  1.00  0.00    -0.393 OA
ATOM     34  H   UNL     1      -8.651  27.493  29.587  1.00  0.00     0.210 HD
ENDBRANCH  27  33
TORSDOF 2
ENDMDL
MODEL 7
REMARK VINA RESULT:    -6.578      1.892      3.631
REMARK INTER + INTRA:          -6.952
REMARK INTER:                  -7.180
REMARK INTRA:                   0.228
REMARK UNBOUND:                 0.202
REMARK SMILES C[C@@H]1[C@H]2C3=CC[C@H]4[C@@]5(C)CC[C@@H](O)C(C)(C)[C@@H]5CC[C@@]4(C)[C@@]3(C)CC[C@]2(C(=O)[O-])CC[C@@H]1C
REMARK SMILES IDX 26 1 30 2 25 3 3 4 31 5 24 6 4 7 2 8 32 9 22 10 5 11 1 12
REMARK SMILES IDX 33 13 23 14 20 15 6 16 7 17 19 18 21 19 8 20 18 21 17 22
REMARK SMILES IDX 10 23 9 24 14 25 11 26 12 27 15 28 16 29 27 30 28 31 29 32
REMARK SMILES IDX 13 33
REMARK H PARENT 13 34
REMARK Flexibility Score: inf
ROOT
ATOM      1  C   UNL     1       0.433  26.345  26.883  1.00  0.00     0.017 C 
ATOM      2  C   UNL     1       1.286  25.794  25.676  1.00  0.00     0.014 C 
ATOM      3  C   UNL     1       0.689  25.426  28.132  1.00  0.00     0.014 C 
ATOM      4  C   UNL     1       0.872  27.804  27.236  1.00  0.00     0.030 C 
ATOM      5  C   UNL     1       2.131  26.859  24.945  1.00  0.00     0.004 C 
ATOM      6  C   UNL     1       0.184  25.995  29.491  1.00  0.00     0.013 C 
ATOM      7  C   UNL     1       0.217  28.246  28.559  1.00  0.00    -0.063 C 
ATOM      8  C   UNL     1       0.799  28.801  26.026  1.00  0.00    -0.003 C 
ATOM      9  C   UNL     1       1.323  28.143  24.689  1.00  0.00    -0.011 C 
ATOM     10  C   UNL     1       0.645  27.455  29.811  1.00  0.00    -0.006 C 
ATOM     11  C   UNL     1      -0.931  28.968  28.541  1.00  0.00    -0.027 C 
ATOM     12  C   UNL     1       1.502  30.125  26.400  1.00  0.00     0.008 C 
ATOM     13  C   UNL     1       2.113  29.089  23.763  1.00  0.00     0.008 C 
ATOM     14  C   UNL     1       2.207  27.454  29.946  1.00  0.00     0.017 C 
ATOM     15  C   UNL     1       0.021  28.087  31.169  1.00  0.00    -0.020 C 
ATOM     16  C   UNL     1      -1.685  29.426  29.754  1.00  0.00     0.032 C 
ATOM     17  C   UNL     1      -1.488  28.536  30.999  1.00  0.00     0.006 C 
ATOM     18  C   UNL     1       0.204  27.153  32.438  1.00  0.00     0.008 C 
ATOM     19  C   UNL     1       0.826  29.404  31.504  1.00  0.00     0.012 C 
ATOM     20  C   UNL     1      -2.688  27.513  31.316  1.00  0.00    -0.025 C 
ATOM     21  C   UNL     1      -1.087  26.713  33.148  1.00  0.00     0.005 C 
ATOM     22  C   UNL     1      -2.142  26.280  32.117  1.00  0.00     0.003 C 
ATOM     23  C   UNL     1      -3.428  26.995  30.031  1.00  0.00     0.010 C 
ATOM     24  C   UNL     1      -3.738  28.321  32.154  1.00  0.00     0.012 C 
ATOM     25  C   UNL     1      -3.228  25.225  32.591  1.00  0.00    -0.006 C 
ATOM     26  C   UNL     1      -3.936  25.536  30.119  1.00  0.00     0.033 C 
ATOM     27  C   UNL     1      -4.401  25.144  31.533  1.00  0.00     0.120 C 
ATOM     28  C   UNL     1      -3.805  25.570  33.988  1.00  0.00     0.014 C 
ATOM     29  C   UNL     1      -2.548  23.827  32.717  1.00  0.00     0.014 C 
ENDROOT
BRANCH   1  30
ATOM     30  C   UNL     1      -1.047  26.296  26.497  1.00  0.00     0.048 C 
ATOM     31  O   UNL     1      -1.508  27.097  25.633  1.00  0.00    -0.550 OA
ATOM     32  O   UNL     1      -1.889  25.306  26.992  1.00  0.00    -0.550 OA
ENDBRANCH   1  30
BRANCH  27  33
ATOM     33  O   UNL     1      -4.955  23.852  31.469  1.00  0.00    -0.393 OA
ATOM     34  H   UNL     1      -5.059  23.625  30.510  1.00  0.00     0.210 HD
ENDBRANCH  27  33
TORSDOF 2
ENDMDL
MODEL 8
REMARK VINA RESULT:    -6.399      2.387      6.982
REMARK INTER + INTRA:          -6.758
REMARK INTER:                  -6.959
REMARK INTRA:                   0.201
REMARK UNBOUND:                 0.202
REMARK SMILES C[C@@H]1[C@H]2C3=CC[C@H]4[C@@]5(C)CC[C@@H](O)C(C)(C)[C@@H]5CC[C@@]4(C)[C@@]3(C)CC[C@]2(C(=O)[O-])CC[C@@H]1C
REMARK SMILES IDX 26 1 30 2 25 3 3 4 31 5 24 6 4 7 2 8 32 9 22 10 5 11 1 12
REMARK SMILES IDX 33 13 23 14 20 15 6 16 7 17 19 18 21 19 8 20 18 21 17 22
REMARK SMILES IDX 10 23 9 24 14 25 11 26 12 27 15 28 16 29 27 30 28 31 29 32
REMARK SMILES IDX 13 33
REMARK H PARENT 13 34
REMARK Flexibility Score: inf
ROOT
ATOM      1  C   UNL     1      -5.092  25.641  30.683  1.00  0.00     0.017 C 
ATOM      2  C   UNL     1      -6.603  25.259  30.928  1.00  0.00     0.014 C 
ATOM      3  C   UNL     1      -4.819  25.620  29.136  1.00  0.00     0.014 C 
ATOM      4  C   UNL     1      -4.801  27.079  31.225  1.00  0.00     0.030 C 
ATOM      5  C   UNL     1      -7.367  26.221  31.863  1.00  0.00     0.004 C 
ATOM      6  C   UNL     1      -3.478  26.274  28.689  1.00  0.00     0.013 C 
ATOM      7  C   UNL     1      -3.404  27.541  30.769  1.00  0.00    -0.063 C 
ATOM      8  C   UNL     1      -5.168  27.276  32.738  1.00  0.00    -0.003 C 
ATOM      9  C   UNL     1      -6.536  26.578  33.108  1.00  0.00    -0.011 C 
ATOM     10  C   UNL     1      -3.222  27.712  29.247  1.00  0.00    -0.006 C 
ATOM     11  C   UNL     1      -2.337  27.393  31.592  1.00  0.00    -0.027 C 
ATOM     12  C   UNL     1      -5.104  28.777  33.097  1.00  0.00     0.008 C 
ATOM     13  C   UNL     1      -7.406  27.345  34.122  1.00  0.00     0.008 C 
ATOM     14  C   UNL     1      -4.330  28.661  28.671  1.00  0.00     0.017 C 
ATOM     15  C   UNL     1      -1.774  28.343  28.877  1.00  0.00    -0.020 C 
ATOM     16  C   UNL     1      -0.924  27.767  31.254  1.00  0.00     0.032 C 
ATOM     17  C   UNL     1      -0.600  27.732  29.746  1.00  0.00     0.006 C 
ATOM     18  C   UNL     1      -1.438  28.277  27.328  1.00  0.00     0.008 C 
ATOM     19  C   UNL     1      -1.812  29.882  29.229  1.00  0.00     0.012 C 
ATOM     20  C   UNL     1       0.203  26.433  29.241  1.00  0.00    -0.025 C 
ATOM     21  C   UNL     1      -0.169  27.500  26.942  1.00  0.00     0.005 C 
ATOM     22  C   UNL     1      -0.095  26.177  27.722  1.00  0.00     0.003 C 
ATOM     23  C   UNL     1      -0.135  25.130  30.050  1.00  0.00     0.010 C 
ATOM     24  C   UNL     1       1.722  26.741  29.481  1.00  0.00     0.012 C 
ATOM     25  C   UNL     1       0.704  24.983  27.049  1.00  0.00    -0.006 C 
ATOM     26  C   UNL     1      -0.115  23.826  29.217  1.00  0.00     0.033 C 
ATOM     27  C   UNL     1       0.953  23.835  28.108  1.00  0.00     0.120 C 
ATOM     28  C   UNL     1       2.058  25.450  26.455  1.00  0.00     0.014 C 
ATOM     29  C   UNL     1      -0.138  24.420  25.864  1.00  0.00     0.014 C 
ENDROOT
BRANCH   1  30
ATOM     30  C   UNL     1      -4.209  24.604  31.381  1.00  0.00     0.048 C 
ATOM     31  O   UNL     1      -4.352  24.370  32.615  1.00  0.00    -0.550 OA
ATOM     32  O   UNL     1      -3.315  23.816  30.661  1.00  0.00    -0.550 OA
ENDBRANCH   1  30
BRANCH  27  33
ATOM     33  O   UNL     1       0.966  22.564  27.503  1.00  0.00    -0.393 OA
ATOM     34  H   UNL     1       0.218  22.046  27.895  1.00  0.00     0.210 HD
ENDBRANCH  27  33
TORSDOF 2
ENDMDL
MODEL 9
REMARK VINA RESULT:    -5.771      2.000      7.023
REMARK INTER + INTRA:          -6.075
REMARK INTER:                  -6.268
REMARK INTRA:                   0.193
REMARK UNBOUND:                 0.202
REMARK SMILES C[C@@H]1[C@H]2C3=CC[C@H]4[C@@]5(C)CC[C@@H](O)C(C)(C)[C@@H]5CC[C@@]4(C)[C@@]3(C)CC[C@]2(C(=O)[O-])CC[C@@H]1C
REMARK SMILES IDX 26 1 30 2 25 3 3 4 31 5 24 6 4 7 2 8 32 9 22 10 5 11 1 12
REMARK SMILES IDX 33 13 23 14 20 15 6 16 7 17 19 18 21 19 8 20 18 21 17 22
REMARK SMILES IDX 10 23 9 24 14 25 11 26 12 27 15 28 16 29 27 30 28 31 29 32
REMARK SMILES IDX 13 33
REMARK H PARENT 13 34
REMARK Flexibility Score: inf
ROOT
ATOM      1  C   UNL     1      -4.891  27.835  31.405  1.00  0.00     0.017 C 
ATOM      2  C   UNL     1      -5.786  28.837  32.231  1.00  0.00     0.014 C 
ATOM      3  C   UNL     1      -3.458  28.460  31.252  1.00  0.00     0.014 C 
ATOM      4  C   UNL     1      -4.765  26.471  32.161  1.00  0.00     0.030 C 
ATOM      5  C   UNL     1      -6.549  28.197  33.410  1.00  0.00     0.004 C 
ATOM      6  C   UNL     1      -2.356  27.483  30.745  1.00  0.00     0.013 C 
ATOM      7  C   UNL     1      -3.700  25.589  31.481  1.00  0.00    -0.063 C 
ATOM      8  C   UNL     1      -6.143  25.804  32.505  1.00  0.00    -0.003 C 
ATOM      9  C   UNL     1      -7.202  26.864  33.005  1.00  0.00    -0.011 C 
ATOM     10  C   UNL     1      -2.258  26.131  31.526  1.00  0.00    -0.006 C 
ATOM     11  C   UNL     1      -4.072  24.653  30.574  1.00  0.00    -0.027 C 
ATOM     12  C   UNL     1      -5.921  24.623  33.476  1.00  0.00     0.008 C 
ATOM     13  C   UNL     1      -8.139  26.371  34.125  1.00  0.00     0.008 C 
ATOM     14  C   UNL     1      -1.843  26.452  33.003  1.00  0.00     0.017 C 
ATOM     15  C   UNL     1      -1.192  25.068  30.921  1.00  0.00    -0.020 C 
ATOM     16  C   UNL     1      -3.134  23.759  29.817  1.00  0.00     0.032 C 
ATOM     17  C   UNL     1      -1.721  24.345  29.616  1.00  0.00     0.006 C 
ATOM     18  C   UNL     1       0.251  25.686  30.691  1.00  0.00     0.008 C 
ATOM     19  C   UNL     1      -0.987  23.925  31.993  1.00  0.00     0.012 C 
ATOM     20  C   UNL     1      -1.430  24.964  28.161  1.00  0.00    -0.025 C 
ATOM     21  C   UNL     1       0.787  25.640  29.251  1.00  0.00     0.005 C 
ATOM     22  C   UNL     1      -0.311  26.059  28.259  1.00  0.00     0.003 C 
ATOM     23  C   UNL     1      -2.697  25.595  27.481  1.00  0.00     0.010 C 
ATOM     24  C   UNL     1      -0.977  23.763  27.260  1.00  0.00     0.012 C 
ATOM     25  C   UNL     1       0.160  26.697  26.885  1.00  0.00    -0.006 C 
ATOM     26  C   UNL     1      -2.412  26.836  26.602  1.00  0.00     0.033 C 
ATOM     27  C   UNL     1      -1.057  26.762  25.875  1.00  0.00     0.120 C 
ATOM     28  C   UNL     1       1.330  25.905  26.245  1.00  0.00     0.014 C 
ATOM     29  C   UNL     1       0.685  28.139  27.155  1.00  0.00     0.014 C 
ENDROOT
BRANCH   1  30
ATOM     30  C   UNL     1      -5.523  27.640  30.026  1.00  0.00     0.048 C 
ATOM     31  O   UNL     1      -6.715  27.230  29.922  1.00  0.00    -0.550 OA
ATOM     32  O   UNL     1      -4.852  28.014  28.866  1.00  0.00    -0.550 OA
ENDBRANCH   1  30
BRANCH  27  33
ATOM     33  O   UNL     1      -0.960  27.873  25.016  1.00  0.00    -0.393 OA
ATOM     34  H   UNL     1      -1.796  27.907  24.486  1.00  0.00     0.210 HD
ENDBRANCH  27  33
TORSDOF 2
ENDMDL
