MODEL 1
REMARK VINA RESULT:    -3.445      0.000      0.000
REMARK INTER + INTRA:          -5.807
REMARK INTER:                  -4.251
REMARK INTRA:                  -1.557
REMARK UNBOUND:                -1.557
REMARK SMILES CC(C)=CCC[C@H](C)c1ccc(C)cc1
REMARK SMILES IDX 6 1 7 2 8 3 9 4 13 5 12 6 11 7 14 8 10 9 15 10 5 11 4 12
REMARK SMILES IDX 2 13 1 14 3 15
REMARK H PARENT
REMARK Flexibility Score: inf
ROOT
ATOM      1  C   UNL     1     -20.827 -61.616  10.787  1.00  0.00     0.012 C 
ENDROOT
BRANCH   1   2
ATOM      2  C   UNL     1     -22.037 -60.691  11.067  1.00  0.00     0.016 C 
ATOM      3  C   UNL     1     -22.016 -59.420  10.204  1.00  0.00     0.013 C 
BRANCH   2   4
ATOM      4  C   UNL     1     -22.088 -60.329  12.541  1.00  0.00    -0.045 A 
ATOM      5  C   UNL     1     -22.235 -59.335  16.742  1.00  0.00     0.044 C 
ATOM      6  C   UNL     1     -22.152 -59.680  15.285  1.00  0.00    -0.051 A 
ATOM      7  C   UNL     1     -22.176 -61.020  14.875  1.00  0.00     0.004 A 
ATOM      8  C   UNL     1     -22.120 -58.665  14.319  1.00  0.00     0.004 A 
ATOM      9  C   UNL     1     -22.136 -61.344  13.515  1.00  0.00     0.004 A 
ATOM     10  C   UNL     1     -22.081 -58.985  12.959  1.00  0.00     0.004 A 
ENDBRANCH   2   4
ENDBRANCH   1   2
BRANCH   1  11
ATOM     11  C   UNL     1     -19.465 -60.900  10.807  1.00  0.00     0.028 C 
BRANCH  11  12
ATOM     12  C   UNL     1     -18.769 -61.025  12.142  1.00  0.00    -0.028 C 
ATOM     13  C   UNL     1     -18.413 -59.983  12.925  1.00  0.00    -0.080 C 
ATOM     14  C   UNL     1     -18.632 -58.550  12.501  1.00  0.00     0.039 C 
ATOM     15  C   UNL     1     -17.758 -60.273  14.250  1.00  0.00     0.039 C 
ENDBRANCH  11  12
ENDBRANCH   1  11
TORSDOF 4
ENDMDL
MODEL 2
REMARK VINA RESULT:    -3.342      1.251      4.124
REMARK INTER + INTRA:          -5.680
REMARK INTER:                  -4.173
REMARK INTRA:                  -1.507
REMARK UNBOUND:                -1.557
REMARK SMILES CC(C)=CCC[C@H](C)c1ccc(C)cc1
REMARK SMILES IDX 6 1 7 2 8 3 9 4 13 5 12 6 11 7 14 8 10 9 15 10 5 11 4 12
REMARK SMILES IDX 2 13 1 14 3 15
REMARK H PARENT
REMARK Flexibility Score: inf
ROOT
ATOM      1  C   UNL     1     -20.854 -58.485  15.888  1.00  0.00     0.012 C 
ENDROOT
BRANCH   1   2
ATOM      2  C   UNL     1     -21.983 -59.496  15.574  1.00  0.00     0.016 C 
ATOM      3  C   UNL     1     -21.875 -60.777  16.416  1.00  0.00     0.013 C 
BRANCH   2   4
ATOM      4  C   UNL     1     -21.986 -59.835  14.093  1.00  0.00    -0.045 A 
ATOM      5  C   UNL     1     -22.000 -60.765   9.875  1.00  0.00     0.044 C 
ATOM      6  C   UNL     1     -21.964 -60.436  11.338  1.00  0.00    -0.051 A 
ATOM      7  C   UNL     1     -22.258 -59.137  11.777  1.00  0.00     0.004 A 
ATOM      8  C   UNL     1     -21.704 -61.438  12.282  1.00  0.00     0.004 A 
ATOM      9  C   UNL     1     -22.261 -58.836  13.142  1.00  0.00     0.004 A 
ATOM     10  C   UNL     1     -21.707 -61.141  13.648  1.00  0.00     0.004 A 
ENDBRANCH   2   4
ENDBRANCH   1   2
BRANCH   1  11
ATOM     11  C   UNL     1     -19.442 -58.979  15.523  1.00  0.00     0.028 C 
BRANCH  11  12
ATOM     12  C   UNL     1     -18.940 -58.382  14.229  1.00  0.00    -0.028 C 
ATOM     13  C   UNL     1     -18.394 -59.090  13.217  1.00  0.00    -0.080 C 
ATOM     14  C   UNL     1     -18.173 -60.582  13.308  1.00  0.00     0.039 C 
ATOM     15  C   UNL     1     -17.975 -58.354  11.971  1.00  0.00     0.039 C 
ENDBRANCH  11  12
ENDBRANCH   1  11
TORSDOF 4
ENDMDL
MODEL 3
REMARK VINA RESULT:    -3.261      1.554      4.610
REMARK INTER + INTRA:          -5.580
REMARK INTER:                  -4.456
REMARK INTRA:                  -1.124
REMARK UNBOUND:                -1.557
REMARK SMILES CC(C)=CCC[C@H](C)c1ccc(C)cc1
REMARK SMILES IDX 6 1 7 2 8 3 9 4 13 5 12 6 11 7 14 8 10 9 15 10 5 11 4 12
REMARK SMILES IDX 2 13 1 14 3 15
REMARK H PARENT
REMARK Flexibility Score: inf
ROOT
ATOM      1  C   UNL     1     -21.384 -61.259  12.224  1.00  0.00     0.012 C 
ENDROOT
BRANCH   1   2
ATOM      2  C   UNL     1     -21.304 -59.843  11.603  1.00  0.00     0.016 C 
ATOM      3  C   UNL     1     -22.032 -59.752  10.252  1.00  0.00     0.013 C 
BRANCH   2   4
ATOM      4  C   UNL     1     -19.854 -59.418  11.453  1.00  0.00    -0.045 A 
ATOM      5  C   UNL     1     -15.728 -58.226  10.992  1.00  0.00     0.044 C 
ATOM      6  C   UNL     1     -17.170 -58.612  11.140  1.00  0.00    -0.051 A 
ATOM      7  C   UNL     1     -17.818 -59.323  10.120  1.00  0.00     0.004 A 
ATOM      8  C   UNL     1     -17.860 -58.326  12.325  1.00  0.00     0.004 A 
ATOM      9  C   UNL     1     -19.151 -59.716  10.271  1.00  0.00     0.004 A 
ATOM     10  C   UNL     1     -19.193 -58.718  12.479  1.00  0.00     0.004 A 
ENDBRANCH   2   4
ENDBRANCH   1   2
BRANCH   1  11
ATOM     11  C   UNL     1     -22.107 -61.315  13.582  1.00  0.00     0.028 C 
BRANCH  11  12
ATOM     12  C   UNL     1     -22.363 -59.940  14.154  1.00  0.00    -0.028 C 
ATOM     13  C   UNL     1     -21.632 -59.368  15.135  1.00  0.00    -0.080 C 
ATOM     14  C   UNL     1     -20.493 -60.091  15.813  1.00  0.00     0.039 C 
ATOM     15  C   UNL     1     -21.990 -57.971  15.573  1.00  0.00     0.039 C 
ENDBRANCH  11  12
ENDBRANCH   1  11
TORSDOF 4
ENDMDL
MODEL 4
REMARK VINA RESULT:    -3.228      1.081      4.194
REMARK INTER + INTRA:          -5.540
REMARK INTER:                  -4.021
REMARK INTRA:                  -1.519
REMARK UNBOUND:                -1.557
REMARK SMILES CC(C)=CCC[C@H](C)c1ccc(C)cc1
REMARK SMILES IDX 6 1 7 2 8 3 9 4 13 5 12 6 11 7 14 8 10 9 15 10 5 11 4 12
REMARK SMILES IDX 2 13 1 14 3 15
REMARK H PARENT
REMARK Flexibility Score: inf
ROOT
ATOM      1  C   UNL     1     -21.164 -60.069   9.875  1.00  0.00     0.012 C 
ENDROOT
BRANCH   1   2
ATOM      2  C   UNL     1     -19.996 -60.979  10.328  1.00  0.00     0.016 C 
ATOM      3  C   UNL     1     -20.482 -62.338  10.856  1.00  0.00     0.013 C 
BRANCH   2   4
ATOM      4  C   UNL     1     -19.159 -60.271  11.379  1.00  0.00    -0.045 A 
ATOM      5  C   UNL     1     -16.773 -58.230  14.346  1.00  0.00     0.044 C 
ATOM      6  C   UNL     1     -17.628 -58.926  13.328  1.00  0.00    -0.051 A 
ATOM      7  C   UNL     1     -17.858 -58.335  12.078  1.00  0.00     0.004 A 
ATOM      8  C   UNL     1     -18.145 -60.201  13.592  1.00  0.00     0.004 A 
ATOM      9  C   UNL     1     -18.624 -58.998  11.113  1.00  0.00     0.004 A 
ATOM     10  C   UNL     1     -18.911 -60.866  12.630  1.00  0.00     0.004 A 
ENDBRANCH   2   4
ENDBRANCH   1   2
BRANCH   1  11
ATOM     11  C   UNL     1     -22.385 -60.093  10.813  1.00  0.00     0.028 C 
BRANCH  11  12
ATOM     12  C   UNL     1     -22.236 -59.140  11.975  1.00  0.00    -0.028 C 
ATOM     13  C   UNL     1     -22.235 -59.507  13.275  1.00  0.00    -0.080 C 
ATOM     14  C   UNL     1     -22.448 -60.940  13.705  1.00  0.00     0.039 C 
ATOM     15  C   UNL     1     -22.037 -58.441  14.321  1.00  0.00     0.039 C 
ENDBRANCH  11  12
ENDBRANCH   1  11
TORSDOF 4
ENDMDL
MODEL 5
REMARK VINA RESULT:    -3.138      1.334      3.587
REMARK INTER + INTRA:          -5.428
REMARK INTER:                  -3.890
REMARK INTRA:                  -1.538
REMARK UNBOUND:                -1.557
REMARK SMILES CC(C)=CCC[C@H](C)c1ccc(C)cc1
REMARK SMILES IDX 6 1 7 2 8 3 9 4 13 5 12 6 11 7 14 8 10 9 15 10 5 11 4 12
REMARK SMILES IDX 2 13 1 14 3 15
REMARK H PARENT
REMARK Flexibility Score: inf
ROOT
ATOM      1  C   UNL     1     -18.278 -58.278  12.265  1.00  0.00     0.012 C 
ENDROOT
BRANCH   1   2
ATOM      2  C   UNL     1     -18.206 -58.415  13.805  1.00  0.00     0.016 C 
ATOM      3  C   UNL     1     -16.978 -59.216  14.266  1.00  0.00     0.013 C 
BRANCH   2   4
ATOM      4  C   UNL     1     -19.481 -59.049  14.334  1.00  0.00    -0.045 A 
ATOM      5  C   UNL     1     -23.087 -60.879  15.853  1.00  0.00     0.044 C 
ATOM      6  C   UNL     1     -21.832 -60.227  15.352  1.00  0.00    -0.051 A 
ATOM      7  C   UNL     1     -20.589 -60.844  15.550  1.00  0.00     0.004 A 
ATOM      8  C   UNL     1     -21.899 -59.032  14.624  1.00  0.00     0.004 A 
ATOM      9  C   UNL     1     -19.422 -60.257  15.053  1.00  0.00     0.004 A 
ATOM     10  C   UNL     1     -20.734 -58.442  14.125  1.00  0.00     0.004 A 
ENDBRANCH   2   4
ENDBRANCH   1   2
BRANCH   1  11
ATOM     11  C   UNL     1     -18.536 -59.602  11.523  1.00  0.00     0.028 C 
BRANCH  11  12
ATOM     12  C   UNL     1     -19.772 -59.544  10.656  1.00  0.00    -0.028 C 
ATOM     13  C   UNL     1     -20.851 -60.343  10.803  1.00  0.00    -0.080 C 
ATOM     14  C   UNL     1     -20.903 -61.440  11.840  1.00  0.00     0.039 C 
ATOM     15  C   UNL     1     -22.026 -60.138   9.882  1.00  0.00     0.039 C 
ENDBRANCH  11  12
ENDBRANCH   1  11
TORSDOF 4
ENDMDL
MODEL 6
REMARK VINA RESULT:    -3.099      1.776      5.388
REMARK INTER + INTRA:          -5.380
REMARK INTER:                  -4.331
REMARK INTRA:                  -1.049
REMARK UNBOUND:                -1.557
REMARK SMILES CC(C)=CCC[C@H](C)c1ccc(C)cc1
REMARK SMILES IDX 6 1 7 2 8 3 9 4 13 5 12 6 11 7 14 8 10 9 15 10 5 11 4 12
REMARK SMILES IDX 2 13 1 14 3 15
REMARK H PARENT
REMARK Flexibility Score: inf
ROOT
ATOM      1  C   UNL     1     -21.281 -58.228  14.081  1.00  0.00     0.012 C 
ENDROOT
BRANCH   1   2
ATOM      2  C   UNL     1     -20.091 -58.936  14.774  1.00  0.00     0.016 C 
ATOM      3  C   UNL     1     -19.944 -58.529  16.248  1.00  0.00     0.013 C 
BRANCH   2   4
ATOM      4  C   UNL     1     -18.805 -58.660  14.016  1.00  0.00    -0.045 A 
ATOM      5  C   UNL     1     -15.162 -57.875  11.831  1.00  0.00     0.044 C 
ATOM      6  C   UNL     1     -16.432 -58.116  12.592  1.00  0.00    -0.051 A 
ATOM      7  C   UNL     1     -17.637 -58.323  11.906  1.00  0.00     0.004 A 
ATOM      8  C   UNL     1     -16.412 -58.206  13.990  1.00  0.00     0.004 A 
ATOM      9  C   UNL     1     -18.816 -58.584  12.612  1.00  0.00     0.004 A 
ATOM     10  C   UNL     1     -17.588 -58.468  14.699  1.00  0.00     0.004 A 
ENDBRANCH   2   4
ENDBRANCH   1   2
BRANCH   1  11
ATOM     11  C   UNL     1     -22.382 -59.181  13.582  1.00  0.00     0.028 C 
BRANCH  11  12
ATOM     12  C   UNL     1     -22.404 -59.295  12.075  1.00  0.00    -0.028 C 
ATOM     13  C   UNL     1     -21.924 -60.346  11.377  1.00  0.00    -0.080 C 
ATOM     14  C   UNL     1     -21.247 -61.517  12.051  1.00  0.00     0.039 C 
ATOM     15  C   UNL     1     -22.054 -60.329   9.876  1.00  0.00     0.039 C 
ENDBRANCH  11  12
ENDBRANCH   1  11
TORSDOF 4
ENDMDL
MODEL 7
REMARK VINA RESULT:    -3.086      1.617      4.763
REMARK INTER + INTRA:          -5.364
REMARK INTER:                  -4.160
REMARK INTRA:                  -1.204
REMARK UNBOUND:                -1.557
REMARK SMILES CC(C)=CCC[C@H](C)c1ccc(C)cc1
REMARK SMILES IDX 6 1 7 2 8 3 9 4 13 5 12 6 11 7 14 8 10 9 15 10 5 11 4 12
REMARK SMILES IDX 2 13 1 14 3 15
REMARK H PARENT
REMARK Flexibility Score: inf
ROOT
ATOM      1  C   UNL     1     -21.369 -60.368  15.263  1.00  0.00     0.012 C 
ENDROOT
BRANCH   1   2
ATOM      2  C   UNL     1     -20.965 -58.888  15.478  1.00  0.00     0.016 C 
ATOM      3  C   UNL     1     -22.007 -57.908  14.917  1.00  0.00     0.013 C 
BRANCH   2   4
ATOM      4  C   UNL     1     -19.603 -58.624  14.860  1.00  0.00    -0.045 A 
ATOM      5  C   UNL     1     -15.714 -57.875  13.136  1.00  0.00     0.044 C 
ATOM      6  C   UNL     1     -17.061 -58.166  13.727  1.00  0.00    -0.051 A 
ATOM      7  C   UNL     1     -17.188 -58.426  15.099  1.00  0.00     0.004 A 
ATOM      8  C   UNL     1     -18.211 -58.112  12.928  1.00  0.00     0.004 A 
ATOM      9  C   UNL     1     -18.447 -58.661  15.660  1.00  0.00     0.004 A 
ATOM     10  C   UNL     1     -19.471 -58.346  13.486  1.00  0.00     0.004 A 
ENDBRANCH   2   4
ENDBRANCH   1   2
BRANCH   1  11
ATOM     11  C   UNL     1     -22.403 -60.585  14.143  1.00  0.00     0.028 C 
BRANCH  11  12
ATOM     12  C   UNL     1     -21.806 -61.263  12.933  1.00  0.00    -0.028 C 
ATOM     13  C   UNL     1     -21.767 -60.727  11.693  1.00  0.00    -0.080 C 
ATOM     14  C   UNL     1     -22.387 -59.386  11.378  1.00  0.00     0.039 C 
ATOM     15  C   UNL     1     -21.101 -61.513  10.593  1.00  0.00     0.039 C 
ENDBRANCH  11  12
ENDBRANCH   1  11
TORSDOF 4
ENDMDL
MODEL 8
REMARK VINA RESULT:    -3.000      1.764      4.666
REMARK INTER + INTRA:          -5.258
REMARK INTER:                  -4.048
REMARK INTRA:                  -1.211
REMARK UNBOUND:                -1.557
REMARK SMILES CC(C)=CCC[C@H](C)c1ccc(C)cc1
REMARK SMILES IDX 6 1 7 2 8 3 9 4 13 5 12 6 11 7 14 8 10 9 15 10 5 11 4 12
REMARK SMILES IDX 2 13 1 14 3 15
REMARK H PARENT
REMARK Flexibility Score: inf
ROOT
ATOM      1  C   UNL     1     -22.010 -58.528  14.337  1.00  0.00     0.012 C 
ENDROOT
BRANCH   1   2
ATOM      2  C   UNL     1     -22.032 -59.441  13.087  1.00  0.00     0.016 C 
ATOM      3  C   UNL     1     -22.324 -60.909  13.438  1.00  0.00     0.013 C 
BRANCH   2   4
ATOM      4  C   UNL     1     -20.719 -59.328  12.333  1.00  0.00    -0.045 A 
ATOM      5  C   UNL     1     -16.969 -58.988  10.217  1.00  0.00     0.044 C 
ATOM      6  C   UNL     1     -18.261 -59.135  10.963  1.00  0.00    -0.051 A 
ATOM      7  C   UNL     1     -18.399 -58.594  12.249  1.00  0.00     0.004 A 
ATOM      8  C   UNL     1     -19.363 -59.751  10.355  1.00  0.00     0.004 A 
ATOM      9  C   UNL     1     -19.614 -58.697  12.933  1.00  0.00     0.004 A 
ATOM     10  C   UNL     1     -20.580 -59.855  11.035  1.00  0.00     0.004 A 
ENDBRANCH   2   4
ENDBRANCH   1   2
BRANCH   1  11
ATOM     11  C   UNL     1     -21.978 -59.288  15.676  1.00  0.00     0.028 C 
BRANCH  11  12
ATOM     12  C   UNL     1     -20.788 -58.907  16.525  1.00  0.00    -0.028 C 
ATOM     13  C   UNL     1     -19.635 -59.608  16.590  1.00  0.00    -0.080 C 
ATOM     14  C   UNL     1     -19.442 -60.907  15.844  1.00  0.00     0.039 C 
ATOM     15  C   UNL     1     -18.522 -59.077  17.456  1.00  0.00     0.039 C 
ENDBRANCH  11  12
ENDBRANCH   1  11
TORSDOF 4
ENDMDL
