MODEL 1
REMARK VINA RESULT:    -0.009      0.000      0.000
REMARK INTER + INTRA:          -1.615
REMARK INTER:                  -0.012
REMARK INTRA:                  -1.603
REMARK UNBOUND:                -1.603
REMARK SMILES O=C([O-])[C@H]1O[C@H](Oc2cc3oc(-c4ccccc4)cc(=O)c3c(O)c2O)[C@H](O)[C@H](O)[C@H]1O
REMARK SMILES IDX 7 1 6 2 4 3 31 4 5 5 29 6 27 7 2 8 1 9 3 10 32 11 30 13
REMARK SMILES IDX 28 15 8 17 25 18 9 19 23 20 10 21 22 22 11 23 20 24 12 25
REMARK SMILES IDX 19 26 21 27 26 28 24 30 13 32 14 33 18 34 15 35 17 36 16 37
REMARK H PARENT 32 12 30 14 28 16 26 29 24 31
REMARK Flexibility Score: inf
ROOT
ATOM      1  O   UNL     1      17.148  17.777  57.689  1.00  0.00    -0.458 OA
ENDROOT
BRANCH   1   2
ATOM      2  C   UNL     1      16.787  18.708  58.718  1.00  0.00     0.339 C 
ATOM      3  C   UNL     1      17.813  20.496  57.591  1.00  0.00     0.199 C 
ATOM      4  C   UNL     1      16.482  21.230  57.327  1.00  0.00     0.180 C 
ATOM      5  O   UNL     1      17.752  19.748  58.796  1.00  0.00    -0.328 OA
ATOM      6  C   UNL     1      15.333  20.205  57.261  1.00  0.00     0.181 C 
ATOM      7  C   UNL     1      15.370  19.294  58.502  1.00  0.00     0.214 C 
BRANCH   3   8
ATOM      8  C   UNL     1      18.942  21.483  57.677  1.00  0.00     0.073 C 
ATOM      9  O   UNL     1      18.868  22.592  57.082  1.00  0.00    -0.547 OA
ATOM     10  O   UNL     1      20.098  21.155  58.372  1.00  0.00    -0.547 OA
ENDBRANCH   3   8
BRANCH   4  11
ATOM     11  O   UNL     1      16.237  22.157  58.355  1.00  0.00    -0.387 OA
ATOM     12  H   UNL     1      16.990  22.080  58.996  1.00  0.00     0.211 HD
ENDBRANCH   4  11
BRANCH   6  13
ATOM     13  O   UNL     1      15.439  19.427  56.095  1.00  0.00    -0.387 OA
ATOM     14  H   UNL     1      15.672  20.048  55.356  1.00  0.00     0.211 HD
ENDBRANCH   6  13
BRANCH   7  15
ATOM     15  O   UNL     1      14.424  18.265  58.381  1.00  0.00    -0.384 OA
ATOM     16  H   UNL     1      14.813  17.586  57.770  1.00  0.00     0.211 HD
ENDBRANCH   7  15
ENDBRANCH   1   2
BRANCH   1  17
ATOM     17  C   UNL     1      17.168  16.374  57.789  1.00  0.00     0.172 A 
ATOM     18  C   UNL     1      16.231  15.653  57.041  1.00  0.00     0.201 A 
ATOM     19  C   UNL     1      18.083  15.682  58.596  1.00  0.00     0.098 A 
ATOM     20  C   UNL     1      16.187  14.246  57.097  1.00  0.00     0.176 A 
ATOM     21  C   UNL     1      18.084  14.287  58.637  1.00  0.00     0.146 A 
ATOM     22  C   UNL     1      17.155  13.541  57.871  1.00  0.00     0.111 A 
ATOM     23  O   UNL     1      18.982  13.678  59.404  1.00  0.00    -0.456 OA
ATOM     24  C   UNL     1      17.281  12.131  57.911  1.00  0.00     0.197 A 
ATOM     25  C   UNL     1      19.095  12.356  59.492  1.00  0.00     0.138 A 
ATOM     26  C   UNL     1      18.238  11.543  58.739  1.00  0.00     0.100 A 
ATOM     27  O   UNL     1      16.572  11.376  57.197  1.00  0.00    -0.289 OA
BRANCH  18  28
ATOM     28  O   UNL     1      15.323  16.363  56.253  1.00  0.00    -0.502 OA
ATOM     29  H   UNL     1      15.615  17.051  55.568  1.00  0.00     0.293 HD
ENDBRANCH  18  28
BRANCH  20  30
ATOM     30  O   UNL     1      15.155  13.611  56.397  1.00  0.00    -0.504 OA
ATOM     31  H   UNL     1      14.210  13.508  56.733  1.00  0.00     0.293 HD
ENDBRANCH  20  30
BRANCH  25  32
ATOM     32  C   UNL     1      20.130  11.788  60.392  1.00  0.00     0.017 A 
ATOM     33  C   UNL     1      21.012  12.654  61.066  1.00  0.00     0.012 A 
ATOM     34  C   UNL     1      20.275  10.397  60.572  1.00  0.00     0.012 A 
ATOM     35  C   UNL     1      22.000  12.144  61.914  1.00  0.00     0.001 A 
ATOM     36  C   UNL     1      21.267   9.893  61.421  1.00  0.00     0.001 A 
ATOM     37  C   UNL     1      22.125  10.765  62.093  1.00  0.00     0.000 A 
ENDBRANCH  25  32
ENDBRANCH   1  17
TORSDOF 9
ENDMDL
MODEL 2
REMARK VINA RESULT:    -0.007     12.280     17.480
REMARK INTER + INTRA:          -1.613
REMARK INTER:                   0.000
REMARK INTRA:                  -1.613
REMARK UNBOUND:                -1.603
REMARK SMILES O=C([O-])[C@H]1O[C@H](Oc2cc3oc(-c4ccccc4)cc(=O)c3c(O)c2O)[C@H](O)[C@H](O)[C@H]1O
REMARK SMILES IDX 7 1 6 2 4 3 31 4 5 5 29 6 27 7 2 8 1 9 3 10 32 11 30 13
REMARK SMILES IDX 28 15 8 17 25 18 9 19 23 20 10 21 22 22 11 23 20 24 12 25
REMARK SMILES IDX 19 26 21 27 26 28 24 30 13 32 14 33 18 34 15 35 17 36 16 37
REMARK H PARENT 32 12 30 14 28 16 26 29 24 31
REMARK Flexibility Score: inf
ROOT
ATOM      1  O   UNL     1       8.442  20.801  50.230  1.00  0.00    -0.458 OA
ENDROOT
BRANCH   1   2
ATOM      2  C   UNL     1       9.701  20.470  49.626  1.00  0.00     0.339 C 
ATOM      3  C   UNL     1      10.796  20.441  51.705  1.00  0.00     0.199 C 
ATOM      4  C   UNL     1      11.081  18.926  51.650  1.00  0.00     0.180 C 
ATOM      5  O   UNL     1      10.767  21.001  50.401  1.00  0.00    -0.328 OA
ATOM      6  C   UNL     1      10.006  18.230  50.795  1.00  0.00     0.181 C 
ATOM      7  C   UNL     1       9.872  18.943  49.437  1.00  0.00     0.214 C 
BRANCH   3   8
ATOM      8  C   UNL     1      11.848  21.139  52.520  1.00  0.00     0.073 C 
ATOM      9  O   UNL     1      12.131  22.347  52.298  1.00  0.00    -0.547 OA
ATOM     10  O   UNL     1      12.552  20.436  53.489  1.00  0.00    -0.547 OA
ENDBRANCH   3   8
BRANCH   4  11
ATOM     11  O   UNL     1      12.354  18.699  51.096  1.00  0.00    -0.387 OA
ATOM     12  H   UNL     1      12.568  17.742  51.252  1.00  0.00     0.211 HD
ENDBRANCH   4  11
BRANCH   6  13
ATOM     13  O   UNL     1       8.769  18.239  51.463  1.00  0.00    -0.387 OA
ATOM     14  H   UNL     1       8.703  19.111  51.934  1.00  0.00     0.211 HD
ENDBRANCH   6  13
BRANCH   7  15
ATOM     15  O   UNL     1       8.795  18.412  48.711  1.00  0.00    -0.384 OA
ATOM     16  H   UNL     1       9.127  18.229  47.794  1.00  0.00     0.211 HD
ENDBRANCH   7  15
ENDBRANCH   1   2
BRANCH   1  17
ATOM     17  C   UNL     1       7.307  21.322  49.584  1.00  0.00     0.172 A 
ATOM     18  C   UNL     1       6.173  20.507  49.496  1.00  0.00     0.201 A 
ATOM     19  C   UNL     1       7.270  22.612  49.036  1.00  0.00     0.098 A 
ATOM     20  C   UNL     1       5.002  20.959  48.856  1.00  0.00     0.176 A 
ATOM     21  C   UNL     1       6.109  23.097  48.432  1.00  0.00     0.146 A 
ATOM     22  C   UNL     1       4.946  22.292  48.352  1.00  0.00     0.111 A 
ATOM     23  O   UNL     1       6.119  24.333  47.943  1.00  0.00    -0.456 OA
ATOM     24  C   UNL     1       3.790  22.893  47.796  1.00  0.00     0.197 A 
ATOM     25  C   UNL     1       5.061  24.907  47.379  1.00  0.00     0.138 A 
ATOM     26  C   UNL     1       3.858  24.193  47.292  1.00  0.00     0.100 A 
ATOM     27  O   UNL     1       2.680  22.303  47.764  1.00  0.00    -0.289 OA
BRANCH  18  28
ATOM     28  O   UNL     1       6.237  19.222  50.039  1.00  0.00    -0.502 OA
ATOM     29  H   UNL     1       6.174  19.046  51.036  1.00  0.00     0.293 HD
ENDBRANCH  18  28
BRANCH  20  30
ATOM     30  O   UNL     1       3.952  20.045  48.725  1.00  0.00    -0.504 OA
ATOM     31  H   UNL     1       3.214  19.915  49.399  1.00  0.00     0.293 HD
ENDBRANCH  20  30
BRANCH  25  32
ATOM     32  C   UNL     1       5.194  26.290  46.857  1.00  0.00     0.017 A 
ATOM     33  C   UNL     1       4.087  26.909  46.246  1.00  0.00     0.012 A 
ATOM     34  C   UNL     1       6.413  26.996  46.928  1.00  0.00     0.012 A 
ATOM     35  C   UNL     1       4.190  28.208  45.740  1.00  0.00     0.001 A 
ATOM     36  C   UNL     1       6.509  28.295  46.418  1.00  0.00     0.001 A 
ATOM     37  C   UNL     1       5.398  28.902  45.828  1.00  0.00     0.000 A 
ENDBRANCH  25  32
ENDBRANCH   1  17
TORSDOF 9
ENDMDL
MODEL 3
REMARK VINA RESULT:    -0.006     12.596     15.908
REMARK INTER + INTRA:          -1.612
REMARK INTER:                   0.000
REMARK INTRA:                  -1.612
REMARK UNBOUND:                -1.603
REMARK SMILES O=C([O-])[C@H]1O[C@H](Oc2cc3oc(-c4ccccc4)cc(=O)c3c(O)c2O)[C@H](O)[C@H](O)[C@H]1O
REMARK SMILES IDX 7 1 6 2 4 3 31 4 5 5 29 6 27 7 2 8 1 9 3 10 32 11 30 13
REMARK SMILES IDX 28 15 8 17 25 18 9 19 23 20 10 21 22 22 11 23 20 24 12 25
REMARK SMILES IDX 19 26 21 27 26 28 24 30 13 32 14 33 18 34 15 35 17 36 16 37
REMARK H PARENT 32 12 30 14 28 16 26 29 24 31
REMARK Flexibility Score: inf
ROOT
ATOM      1  O   UNL     1       7.963  23.851  54.258  1.00  0.00    -0.458 OA
ENDROOT
BRANCH   1   2
ATOM      2  C   UNL     1       6.590  23.442  54.340  1.00  0.00     0.339 C 
ATOM      3  C   UNL     1       7.081  21.784  55.931  1.00  0.00     0.199 C 
ATOM      4  C   UNL     1       6.290  22.482  57.056  1.00  0.00     0.180 C 
ATOM      5  O   UNL     1       6.512  22.060  54.660  1.00  0.00    -0.328 OA
ATOM      6  C   UNL     1       6.265  24.002  56.801  1.00  0.00     0.181 C 
ATOM      7  C   UNL     1       5.792  24.285  55.364  1.00  0.00     0.214 C 
BRANCH   3   8
ATOM      8  C   UNL     1       7.099  20.299  56.154  1.00  0.00     0.073 C 
ATOM      9  O   UNL     1       7.211  19.507  55.179  1.00  0.00    -0.547 OA
ATOM     10  O   UNL     1       6.939  19.788  57.435  1.00  0.00    -0.547 OA
ENDBRANCH   3   8
BRANCH   4  11
ATOM     11  O   UNL     1       4.976  21.982  57.097  1.00  0.00    -0.387 OA
ATOM     12  H   UNL     1       4.575  22.300  57.948  1.00  0.00     0.211 HD
ENDBRANCH   4  11
BRANCH   6  13
ATOM     13  O   UNL     1       7.543  24.551  57.001  1.00  0.00    -0.387 OA
ATOM     14  H   UNL     1       7.429  25.537  57.041  1.00  0.00     0.211 HD
ENDBRANCH   6  13
BRANCH   7  15
ATOM     15  O   UNL     1       5.908  25.653  55.072  1.00  0.00    -0.384 OA
ATOM     16  H   UNL     1       6.795  25.783  54.649  1.00  0.00     0.211 HD
ENDBRANCH   7  15
ENDBRANCH   1   2
BRANCH   1  17
ATOM     17  C   UNL     1       8.556  24.618  53.240  1.00  0.00     0.172 A 
ATOM     18  C   UNL     1       8.996  25.906  53.566  1.00  0.00     0.201 A 
ATOM     19  C   UNL     1       8.724  24.145  51.931  1.00  0.00     0.098 A 
ATOM     20  C   UNL     1       9.592  26.735  52.595  1.00  0.00     0.176 A 
ATOM     21  C   UNL     1       9.347  24.933  50.962  1.00  0.00     0.146 A 
ATOM     22  C   UNL     1       9.816  26.232  51.280  1.00  0.00     0.111 A 
ATOM     23  O   UNL     1       9.498  24.432  49.741  1.00  0.00    -0.456 OA
ATOM     24  C   UNL     1      10.508  26.928  50.259  1.00  0.00     0.197 A 
ATOM     25  C   UNL     1      10.107  25.081  48.753  1.00  0.00     0.138 A 
ATOM     26  C   UNL     1      10.632  26.358  48.991  1.00  0.00     0.100 A 
ATOM     27  O   UNL     1      11.048  28.046  50.461  1.00  0.00    -0.289 OA
BRANCH  18  28
ATOM     28  O   UNL     1       8.808  26.361  54.873  1.00  0.00    -0.502 OA
ATOM     29  H   UNL     1       8.507  25.752  55.625  1.00  0.00     0.293 HD
ENDBRANCH  18  28
BRANCH  20  30
ATOM     30  O   UNL     1       9.910  28.042  52.980  1.00  0.00    -0.504 OA
ATOM     31  H   UNL     1      10.520  28.661  52.468  1.00  0.00     0.293 HD
ENDBRANCH  20  30
BRANCH  25  32
ATOM     32  C   UNL     1      10.205  24.425  47.424  1.00  0.00     0.017 A 
ATOM     33  C   UNL     1      10.837  25.102  46.364  1.00  0.00     0.012 A 
ATOM     34  C   UNL     1       9.655  23.149  47.184  1.00  0.00     0.012 A 
ATOM     35  C   UNL     1      10.935  24.508  45.102  1.00  0.00     0.001 A 
ATOM     36  C   UNL     1       9.756  22.561  45.918  1.00  0.00     0.001 A 
ATOM     37  C   UNL     1      10.398  23.239  44.880  1.00  0.00     0.000 A 
ENDBRANCH  25  32
ENDBRANCH   1  17
TORSDOF 9
ENDMDL
MODEL 4
REMARK VINA RESULT:    -0.006      3.176      5.198
REMARK INTER + INTRA:          -1.612
REMARK INTER:                   0.000
REMARK INTRA:                  -1.612
REMARK UNBOUND:                -1.603
REMARK SMILES O=C([O-])[C@H]1O[C@H](Oc2cc3oc(-c4ccccc4)cc(=O)c3c(O)c2O)[C@H](O)[C@H](O)[C@H]1O
REMARK SMILES IDX 7 1 6 2 4 3 31 4 5 5 29 6 27 7 2 8 1 9 3 10 32 11 30 13
REMARK SMILES IDX 28 15 8 17 25 18 9 19 23 20 10 21 22 22 11 23 20 24 12 25
REMARK SMILES IDX 19 26 21 27 26 28 24 30 13 32 14 33 18 34 15 35 17 36 16 37
REMARK H PARENT 32 12 30 14 28 16 26 29 24 31
REMARK Flexibility Score: inf
ROOT
ATOM      1  O   UNL     1      16.289  20.979  55.045  1.00  0.00    -0.458 OA
ENDROOT
BRANCH   1   2
ATOM      2  C   UNL     1      16.844  22.155  55.650  1.00  0.00     0.339 C 
ATOM      3  C   UNL     1      18.202  22.588  53.782  1.00  0.00     0.199 C 
ATOM      4  C   UNL     1      17.458  23.889  53.413  1.00  0.00     0.180 C 
ATOM      5  O   UNL     1      18.170  22.364  55.183  1.00  0.00    -0.328 OA
ATOM      6  C   UNL     1      16.001  23.806  53.906  1.00  0.00     0.181 C 
ATOM      7  C   UNL     1      15.972  23.408  55.394  1.00  0.00     0.214 C 
BRANCH   3   8
ATOM      8  C   UNL     1      19.630  22.660  53.324  1.00  0.00     0.073 C 
ATOM      9  O   UNL     1      20.527  22.006  53.922  1.00  0.00    -0.547 OA
ATOM     10  O   UNL     1      19.979  23.492  52.268  1.00  0.00    -0.547 OA
ENDBRANCH   3   8
BRANCH   4  11
ATOM     11  O   UNL     1      18.101  24.991  54.003  1.00  0.00    -0.387 OA
ATOM     12  H   UNL     1      17.492  25.768  53.899  1.00  0.00     0.211 HD
ENDBRANCH   4  11
BRANCH   6  13
ATOM     13  O   UNL     1      15.280  22.868  53.148  1.00  0.00    -0.387 OA
ATOM     14  H   UNL     1      14.505  22.585  53.700  1.00  0.00     0.211 HD
ENDBRANCH   6  13
BRANCH   7  15
ATOM     15  O   UNL     1      14.652  23.184  55.814  1.00  0.00    -0.384 OA
ATOM     16  H   UNL     1      14.275  22.486  55.219  1.00  0.00     0.211 HD
ENDBRANCH   7  15
ENDBRANCH   1   2
BRANCH   1  17
ATOM     17  C   UNL     1      15.600  19.939  55.696  1.00  0.00     0.172 A 
ATOM     18  C   UNL     1      14.237  19.787  55.420  1.00  0.00     0.201 A 
ATOM     19  C   UNL     1      16.223  19.061  56.595  1.00  0.00     0.098 A 
ATOM     20  C   UNL     1      13.481  18.773  56.041  1.00  0.00     0.176 A 
ATOM     21  C   UNL     1      15.503  18.025  57.192  1.00  0.00     0.146 A 
ATOM     22  C   UNL     1      14.127  17.844  56.909  1.00  0.00     0.111 A 
ATOM     23  O   UNL     1      16.142  17.208  58.023  1.00  0.00    -0.456 OA
ATOM     24  C   UNL     1      13.497  16.719  57.496  1.00  0.00     0.197 A 
ATOM     25  C   UNL     1      15.565  16.170  58.620  1.00  0.00     0.138 A 
ATOM     26  C   UNL     1      14.214  15.898  58.367  1.00  0.00     0.100 A 
ATOM     27  O   UNL     1      12.305  16.410  57.237  1.00  0.00    -0.289 OA
BRANCH  18  28
ATOM     28  O   UNL     1      13.636  20.680  54.531  1.00  0.00    -0.502 OA
ATOM     29  H   UNL     1      13.472  20.453  53.557  1.00  0.00     0.293 HD
ENDBRANCH  18  28
BRANCH  20  30
ATOM     30  O   UNL     1      12.105  18.755  55.787  1.00  0.00    -0.504 OA
ATOM     31  H   UNL     1      11.689  18.799  54.870  1.00  0.00     0.293 HD
ENDBRANCH  20  30
BRANCH  25  32
ATOM     32  C   UNL     1      16.378  15.335  59.539  1.00  0.00     0.017 A 
ATOM     33  C   UNL     1      15.780  14.238  60.188  1.00  0.00     0.012 A 
ATOM     34  C   UNL     1      17.731  15.626  59.807  1.00  0.00     0.012 A 
ATOM     35  C   UNL     1      16.522  13.440  61.064  1.00  0.00     0.001 A 
ATOM     36  C   UNL     1      18.468  14.825  60.686  1.00  0.00     0.001 A 
ATOM     37  C   UNL     1      17.865  13.731  61.311  1.00  0.00     0.000 A 
ENDBRANCH  25  32
ENDBRANCH   1  17
TORSDOF 9
ENDMDL
MODEL 5
REMARK VINA RESULT:    -0.006      9.872     11.104
REMARK INTER + INTRA:          -1.612
REMARK INTER:                   0.000
REMARK INTRA:                  -1.612
REMARK UNBOUND:                -1.603
REMARK SMILES O=C([O-])[C@H]1O[C@H](Oc2cc3oc(-c4ccccc4)cc(=O)c3c(O)c2O)[C@H](O)[C@H](O)[C@H]1O
REMARK SMILES IDX 7 1 6 2 4 3 31 4 5 5 29 6 27 7 2 8 1 9 3 10 32 11 30 13
REMARK SMILES IDX 28 15 8 17 25 18 9 19 23 20 10 21 22 22 11 23 20 24 12 25
REMARK SMILES IDX 19 26 21 27 26 28 24 30 13 32 14 33 18 34 15 35 17 36 16 37
REMARK H PARENT 32 12 30 14 28 16 26 29 24 31
REMARK Flexibility Score: inf
ROOT
ATOM      1  O   UNL     1      11.566  22.909  51.401  1.00  0.00    -0.458 OA
ENDROOT
BRANCH   1   2
ATOM      2  C   UNL     1      11.485  23.581  52.666  1.00  0.00     0.339 C 
ATOM      3  C   UNL     1      10.473  25.471  51.704  1.00  0.00     0.199 C 
ATOM      4  C   UNL     1       9.133  25.255  52.438  1.00  0.00     0.180 C 
ATOM      5  O   UNL     1      11.561  24.987  52.477  1.00  0.00    -0.328 OA
ATOM      6  C   UNL     1       8.947  23.756  52.741  1.00  0.00     0.181 C 
ATOM      7  C   UNL     1      10.201  23.203  53.444  1.00  0.00     0.214 C 
BRANCH   3   8
ATOM      8  C   UNL     1      10.679  26.930  51.418  1.00  0.00     0.073 C 
ATOM      9  O   UNL     1      11.843  27.403  51.313  1.00  0.00    -0.547 OA
ATOM     10  O   UNL     1       9.584  27.779  51.320  1.00  0.00    -0.547 OA
ENDBRANCH   3   8
BRANCH   4  11
ATOM     11  O   UNL     1       9.122  25.991  53.636  1.00  0.00    -0.387 OA
ATOM     12  H   UNL     1       9.363  25.358  54.363  1.00  0.00     0.211 HD
ENDBRANCH   4  11
BRANCH   6  13
ATOM     13  O   UNL     1       8.712  23.043  51.553  1.00  0.00    -0.387 OA
ATOM     14  H   UNL     1       7.774  23.230  51.287  1.00  0.00     0.211 HD
ENDBRANCH   6  13
BRANCH   7  15
ATOM     15  O   UNL     1      10.105  21.811  53.589  1.00  0.00    -0.384 OA
ATOM     16  H   UNL     1      10.915  21.515  54.081  1.00  0.00     0.211 HD
ENDBRANCH   7  15
ENDBRANCH   1   2
BRANCH   1  17
ATOM     17  C   UNL     1      12.375  21.804  51.082  1.00  0.00     0.172 A 
ATOM     18  C   UNL     1      11.739  20.586  50.815  1.00  0.00     0.201 A 
ATOM     19  C   UNL     1      13.773  21.878  51.019  1.00  0.00     0.098 A 
ATOM     20  C   UNL     1      12.485  19.434  50.496  1.00  0.00     0.176 A 
ATOM     21  C   UNL     1      14.531  20.760  50.667  1.00  0.00     0.146 A 
ATOM     22  C   UNL     1      13.902  19.524  50.374  1.00  0.00     0.111 A 
ATOM     23  O   UNL     1      15.853  20.885  50.604  1.00  0.00    -0.456 OA
ATOM     24  C   UNL     1      14.743  18.466  49.948  1.00  0.00     0.197 A 
ATOM     25  C   UNL     1      16.667  19.897  50.247  1.00  0.00     0.138 A 
ATOM     26  C   UNL     1      16.125  18.651  49.906  1.00  0.00     0.100 A 
ATOM     27  O   UNL     1      14.281  17.358  49.572  1.00  0.00    -0.289 OA
BRANCH  18  28
ATOM     28  O   UNL     1      10.346  20.533  50.894  1.00  0.00    -0.502 OA
ATOM     29  H   UNL     1       9.815  19.711  50.632  1.00  0.00     0.293 HD
ENDBRANCH  18  28
BRANCH  20  30
ATOM     30  O   UNL     1      11.777  18.237  50.343  1.00  0.00    -0.504 OA
ATOM     31  H   UNL     1      12.089  17.449  49.798  1.00  0.00     0.293 HD
ENDBRANCH  20  30
BRANCH  25  32
ATOM     32  C   UNL     1      18.129  20.152  50.225  1.00  0.00     0.017 A 
ATOM     33  C   UNL     1      19.007  19.114  49.859  1.00  0.00     0.012 A 
ATOM     34  C   UNL     1      18.671  21.402  50.592  1.00  0.00     0.012 A 
ATOM     35  C   UNL     1      20.389  19.327  49.838  1.00  0.00     0.001 A 
ATOM     36  C   UNL     1      20.055  21.607  50.570  1.00  0.00     0.001 A 
ATOM     37  C   UNL     1      20.912  20.573  50.190  1.00  0.00     0.000 A 
ENDBRANCH  25  32
ENDBRANCH   1  17
TORSDOF 9
ENDMDL
MODEL 6
REMARK VINA RESULT:    -0.006      7.372     10.340
REMARK INTER + INTRA:          -1.612
REMARK INTER:                   0.000
REMARK INTRA:                  -1.612
REMARK UNBOUND:                -1.603
REMARK SMILES O=C([O-])[C@H]1O[C@H](Oc2cc3oc(-c4ccccc4)cc(=O)c3c(O)c2O)[C@H](O)[C@H](O)[C@H]1O
REMARK SMILES IDX 7 1 6 2 4 3 31 4 5 5 29 6 27 7 2 8 1 9 3 10 32 11 30 13
REMARK SMILES IDX 28 15 8 17 25 18 9 19 23 20 10 21 22 22 11 23 20 24 12 25
REMARK SMILES IDX 19 26 21 27 26 28 24 30 13 32 14 33 18 34 15 35 17 36 16 37
REMARK H PARENT 32 12 30 14 28 16 26 29 24 31
REMARK Flexibility Score: inf
ROOT
ATOM      1  O   UNL     1      17.078  19.682  52.020  1.00  0.00    -0.458 OA
ENDROOT
BRANCH   1   2
ATOM      2  C   UNL     1      17.821  18.456  51.962  1.00  0.00     0.339 C 
ATOM      3  C   UNL     1      18.631  18.938  49.810  1.00  0.00     0.199 C 
ATOM      4  C   UNL     1      20.095  19.074  50.279  1.00  0.00     0.180 C 
ATOM      5  O   UNL     1      17.922  18.010  50.617  1.00  0.00    -0.328 OA
ATOM      6  C   UNL     1      20.124  19.518  51.754  1.00  0.00     0.181 C 
ATOM      7  C   UNL     1      19.225  18.596  52.598  1.00  0.00     0.214 C 
BRANCH   3   8
ATOM      8  C   UNL     1      18.584  18.487  48.379  1.00  0.00     0.073 C 
ATOM      9  O   UNL     1      17.596  17.836  47.946  1.00  0.00    -0.547 OA
ATOM     10  O   UNL     1      19.659  18.741  47.536  1.00  0.00    -0.547 OA
ENDBRANCH   3   8
BRANCH   4  11
ATOM     11  O   UNL     1      20.758  17.842  50.137  1.00  0.00    -0.387 OA
ATOM     12  H   UNL     1      21.320  17.724  50.947  1.00  0.00     0.211 HD
ENDBRANCH   4  11
BRANCH   6  13
ATOM     13  O   UNL     1      19.687  20.849  51.872  1.00  0.00    -0.387 OA
ATOM     14  H   UNL     1      19.981  21.322  51.051  1.00  0.00     0.211 HD
ENDBRANCH   6  13
BRANCH   7  15
ATOM     15  O   UNL     1      19.126  19.079  53.912  1.00  0.00    -0.384 OA
ATOM     16  H   UNL     1      18.849  20.030  53.849  1.00  0.00     0.211 HD
ENDBRANCH   7  15
ENDBRANCH   1   2
BRANCH   1  17
ATOM     17  C   UNL     1      16.030  19.994  52.903  1.00  0.00     0.172 A 
ATOM     18  C   UNL     1      16.257  20.987  53.863  1.00  0.00     0.201 A 
ATOM     19  C   UNL     1      14.781  19.357  52.855  1.00  0.00     0.098 A 
ATOM     20  C   UNL     1      15.255  21.346  54.786  1.00  0.00     0.176 A 
ATOM     21  C   UNL     1      13.760  19.724  53.734  1.00  0.00     0.146 A 
ATOM     22  C   UNL     1      13.967  20.741  54.698  1.00  0.00     0.111 A 
ATOM     23  O   UNL     1      12.589  19.103  53.637  1.00  0.00    -0.456 OA
ATOM     24  C   UNL     1      12.852  21.103  55.493  1.00  0.00     0.197 A 
ATOM     25  C   UNL     1      11.539  19.395  54.398  1.00  0.00     0.138 A 
ATOM     26  C   UNL     1      11.647  20.413  55.354  1.00  0.00     0.100 A 
ATOM     27  O   UNL     1      12.898  22.057  56.312  1.00  0.00    -0.289 OA
BRANCH  18  28
ATOM     28  O   UNL     1      17.512  21.599  53.899  1.00  0.00    -0.502 OA
ATOM     29  H   UNL     1      18.183  21.425  54.637  1.00  0.00     0.293 HD
ENDBRANCH  18  28
BRANCH  20  30
ATOM     30  O   UNL     1      15.600  22.274  55.774  1.00  0.00    -0.504 OA
ATOM     31  H   UNL     1      16.160  22.069  56.587  1.00  0.00     0.293 HD
ENDBRANCH  20  30
BRANCH  25  32
ATOM     32  C   UNL     1      10.285  18.624  54.207  1.00  0.00     0.017 A 
ATOM     33  C   UNL     1       9.165  18.916  55.008  1.00  0.00     0.012 A 
ATOM     34  C   UNL     1      10.190  17.583  53.261  1.00  0.00     0.012 A 
ATOM     35  C   UNL     1       7.974  18.200  54.853  1.00  0.00     0.001 A 
ATOM     36  C   UNL     1       8.996  16.869  53.112  1.00  0.00     0.001 A 
ATOM     37  C   UNL     1       7.889  17.179  53.904  1.00  0.00     0.000 A 
ENDBRANCH  25  32
ENDBRANCH   1  17
TORSDOF 9
ENDMDL
MODEL 7
REMARK VINA RESULT:    -0.006     10.226     12.649
REMARK INTER + INTRA:          -1.612
REMARK INTER:                   0.000
REMARK INTRA:                  -1.612
REMARK UNBOUND:                -1.603
REMARK SMILES O=C([O-])[C@H]1O[C@H](Oc2cc3oc(-c4ccccc4)cc(=O)c3c(O)c2O)[C@H](O)[C@H](O)[C@H]1O
REMARK SMILES IDX 7 1 6 2 4 3 31 4 5 5 29 6 27 7 2 8 1 9 3 10 32 11 30 13
REMARK SMILES IDX 28 15 8 17 25 18 9 19 23 20 10 21 22 22 11 23 20 24 12 25
REMARK SMILES IDX 19 26 21 27 26 28 24 30 13 32 14 33 18 34 15 35 17 36 16 37
REMARK H PARENT 32 12 30 14 28 16 26 29 24 31
REMARK Flexibility Score: inf
ROOT
ATOM      1  O   UNL     1      11.235  16.547  47.500  1.00  0.00    -0.458 OA
ENDROOT
BRANCH   1   2
ATOM      2  C   UNL     1      11.194  17.062  46.161  1.00  0.00     0.339 C 
ATOM      3  C   UNL     1       8.946  16.434  45.889  1.00  0.00     0.199 C 
ATOM      4  C   UNL     1       8.442  17.889  45.798  1.00  0.00     0.180 C 
ATOM      5  O   UNL     1      10.267  16.319  45.382  1.00  0.00    -0.328 OA
ATOM      6  C   UNL     1       9.395  18.814  46.578  1.00  0.00     0.181 C 
ATOM      7  C   UNL     1      10.848  18.571  46.128  1.00  0.00     0.214 C 
BRANCH   3   8
ATOM      8  C   UNL     1       8.038  15.520  45.117  1.00  0.00     0.073 C 
ATOM      9  O   UNL     1       8.479  14.448  44.624  1.00  0.00    -0.547 OA
ATOM     10  O   UNL     1       6.715  15.882  44.898  1.00  0.00    -0.547 OA
ENDBRANCH   3   8
BRANCH   4  11
ATOM     11  O   UNL     1       8.383  18.290  44.451  1.00  0.00    -0.387 OA
ATOM     12  H   UNL     1       7.443  18.164  44.156  1.00  0.00     0.211 HD
ENDBRANCH   4  11
BRANCH   6  13
ATOM     13  O   UNL     1       9.278  18.584  47.959  1.00  0.00    -0.387 OA
ATOM     14  H   UNL     1      10.168  18.769  48.358  1.00  0.00     0.211 HD
ENDBRANCH   6  13
BRANCH   7  15
ATOM     15  O   UNL     1      11.737  19.298  46.935  1.00  0.00    -0.384 OA
ATOM     16  H   UNL     1      12.604  19.329  46.453  1.00  0.00     0.211 HD
ENDBRANCH   7  15
ENDBRANCH   1   2
BRANCH   1  17
ATOM     17  C   UNL     1      12.384  16.251  48.255  1.00  0.00     0.172 A 
ATOM     18  C   UNL     1      12.650  17.045  49.377  1.00  0.00     0.201 A 
ATOM     19  C   UNL     1      13.257  15.203  47.932  1.00  0.00     0.098 A 
ATOM     20  C   UNL     1      13.786  16.812  50.176  1.00  0.00     0.176 A 
ATOM     21  C   UNL     1      14.368  14.928  48.731  1.00  0.00     0.146 A 
ATOM     22  C   UNL     1      14.641  15.709  49.882  1.00  0.00     0.111 A 
ATOM     23  O   UNL     1      15.155  13.912  48.393  1.00  0.00    -0.456 OA
ATOM     24  C   UNL     1      15.742  15.308  50.678  1.00  0.00     0.197 A 
ATOM     25  C   UNL     1      16.218  13.541  49.099  1.00  0.00     0.138 A 
ATOM     26  C   UNL     1      16.539  14.238  50.272  1.00  0.00     0.100 A 
ATOM     27  O   UNL     1      16.016  15.871  51.769  1.00  0.00    -0.289 OA
BRANCH  18  28
ATOM     28  O   UNL     1      11.773  18.090  49.673  1.00  0.00    -0.502 OA
ATOM     29  H   UNL     1      11.939  18.745  50.428  1.00  0.00     0.293 HD
ENDBRANCH  18  28
BRANCH  20  30
ATOM     30  O   UNL     1      14.031  17.713  51.217  1.00  0.00    -0.504 OA
ATOM     31  H   UNL     1      13.330  18.065  51.851  1.00  0.00     0.293 HD
ENDBRANCH  20  30
BRANCH  25  32
ATOM     32  C   UNL     1      17.031  12.397  48.615  1.00  0.00     0.017 A 
ATOM     33  C   UNL     1      18.166  11.997  49.346  1.00  0.00     0.012 A 
ATOM     34  C   UNL     1      16.715  11.714  47.423  1.00  0.00     0.012 A 
ATOM     35  C   UNL     1      18.952  10.928  48.907  1.00  0.00     0.001 A 
ATOM     36  C   UNL     1      17.507  10.645  46.989  1.00  0.00     0.001 A 
ATOM     37  C   UNL     1      18.622  10.251  47.731  1.00  0.00     0.000 A 
ENDBRANCH  25  32
ENDBRANCH   1  17
TORSDOF 9
ENDMDL
MODEL 8
REMARK VINA RESULT:    -0.006      9.095     12.592
REMARK INTER + INTRA:          -1.612
REMARK INTER:                   0.000
REMARK INTRA:                  -1.612
REMARK UNBOUND:                -1.603
REMARK SMILES O=C([O-])[C@H]1O[C@H](Oc2cc3oc(-c4ccccc4)cc(=O)c3c(O)c2O)[C@H](O)[C@H](O)[C@H]1O
REMARK SMILES IDX 7 1 6 2 4 3 31 4 5 5 29 6 27 7 2 8 1 9 3 10 32 11 30 13
REMARK SMILES IDX 28 15 8 17 25 18 9 19 23 20 10 21 22 22 11 23 20 24 12 25
REMARK SMILES IDX 19 26 21 27 26 28 24 30 13 32 14 33 18 34 15 35 17 36 16 37
REMARK H PARENT 32 12 30 14 28 16 26 29 24 31
REMARK Flexibility Score: inf
ROOT
ATOM      1  O   UNL     1      12.020  21.317  52.995  1.00  0.00    -0.458 OA
ENDROOT
BRANCH   1   2
ATOM      2  C   UNL     1      12.036  22.503  53.802  1.00  0.00     0.339 C 
ATOM      3  C   UNL     1       9.784  22.228  54.416  1.00  0.00     0.199 C 
ATOM      4  C   UNL     1      10.113  21.966  55.900  1.00  0.00     0.180 C 
ATOM      5  O   UNL     1      10.743  23.093  53.827  1.00  0.00    -0.328 OA
ATOM      6  C   UNL     1      11.523  21.356  56.016  1.00  0.00     0.181 C 
ATOM      7  C   UNL     1      12.534  22.221  55.241  1.00  0.00     0.214 C 
BRANCH   3   8
ATOM      8  C   UNL     1       8.419  22.842  54.286  1.00  0.00     0.073 C 
ATOM      9  O   UNL     1       8.144  23.587  53.308  1.00  0.00    -0.547 OA
ATOM     10  O   UNL     1       7.469  22.631  55.276  1.00  0.00    -0.547 OA
ENDBRANCH   3   8
BRANCH   4  11
ATOM     11  O   UNL     1      10.052  23.171  56.622  1.00  0.00    -0.387 OA
ATOM     12  H   UNL     1      10.981  23.385  56.902  1.00  0.00     0.211 HD
ENDBRANCH   4  11
BRANCH   6  13
ATOM     13  O   UNL     1      11.530  20.045  55.511  1.00  0.00    -0.387 OA
ATOM     14  H   UNL     1      10.745  19.581  55.903  1.00  0.00     0.211 HD
ENDBRANCH   6  13
BRANCH   7  15
ATOM     15  O   UNL     1      13.791  21.597  55.213  1.00  0.00    -0.384 OA
ATOM     16  H   UNL     1      14.107  21.544  56.153  1.00  0.00     0.211 HD
ENDBRANCH   7  15
ENDBRANCH   1   2
BRANCH   1  17
ATOM     17  C   UNL     1      12.948  20.961  52.000  1.00  0.00     0.172 A 
ATOM     18  C   UNL     1      13.770  19.854  52.241  1.00  0.00     0.201 A 
ATOM     19  C   UNL     1      13.073  21.661  50.792  1.00  0.00     0.098 A 
ATOM     20  C   UNL     1      14.728  19.443  51.292  1.00  0.00     0.176 A 
ATOM     21  C   UNL     1      13.987  21.249  49.821  1.00  0.00     0.146 A 
ATOM     22  C   UNL     1      14.814  20.119  50.040  1.00  0.00     0.111 A 
ATOM     23  O   UNL     1      14.056  21.935  48.685  1.00  0.00    -0.456 OA
ATOM     24  C   UNL     1      15.654  19.726  48.969  1.00  0.00     0.197 A 
ATOM     25  C   UNL     1      14.865  21.612  47.681  1.00  0.00     0.138 A 
ATOM     26  C   UNL     1      15.691  20.487  47.800  1.00  0.00     0.100 A 
ATOM     27  O   UNL     1      16.357  18.684  49.020  1.00  0.00    -0.289 OA
BRANCH  18  28
ATOM     28  O   UNL     1      13.635  19.179  53.455  1.00  0.00    -0.502 OA
ATOM     29  H   UNL     1      12.934  18.463  53.607  1.00  0.00     0.293 HD
ENDBRANCH  18  28
BRANCH  20  30
ATOM     30  O   UNL     1      15.576  18.392  51.656  1.00  0.00    -0.504 OA
ATOM     31  H   UNL     1      16.178  17.892  51.021  1.00  0.00     0.293 HD
ENDBRANCH  20  30
BRANCH  25  32
ATOM     32  C   UNL     1      14.864  22.462  46.464  1.00  0.00     0.017 A 
ATOM     33  C   UNL     1      15.722  22.142  45.395  1.00  0.00     0.012 A 
ATOM     34  C   UNL     1      14.045  23.606  46.357  1.00  0.00     0.012 A 
ATOM     35  C   UNL     1      15.745  22.931  44.241  1.00  0.00     0.001 A 
ATOM     36  C   UNL     1      14.074  24.392  45.200  1.00  0.00     0.001 A 
ATOM     37  C   UNL     1      14.920  24.053  44.142  1.00  0.00     0.000 A 
ENDBRANCH  25  32
ENDBRANCH   1  17
TORSDOF 9
ENDMDL
MODEL 9
REMARK VINA RESULT:    -0.006      8.336     10.908
REMARK INTER + INTRA:          -1.611
REMARK INTER:                   0.000
REMARK INTRA:                  -1.611
REMARK UNBOUND:                -1.603
REMARK SMILES O=C([O-])[C@H]1O[C@H](Oc2cc3oc(-c4ccccc4)cc(=O)c3c(O)c2O)[C@H](O)[C@H](O)[C@H]1O
REMARK SMILES IDX 7 1 6 2 4 3 31 4 5 5 29 6 27 7 2 8 1 9 3 10 32 11 30 13
REMARK SMILES IDX 28 15 8 17 25 18 9 19 23 20 10 21 22 22 11 23 20 24 12 25
REMARK SMILES IDX 19 26 21 27 26 28 24 30 13 32 14 33 18 34 15 35 17 36 16 37
REMARK H PARENT 32 12 30 14 28 16 26 29 24 31
REMARK Flexibility Score: inf
ROOT
ATOM      1  O   UNL     1      11.119  21.146  56.885  1.00  0.00    -0.458 OA
ENDROOT
BRANCH   1   2
ATOM      2  C   UNL     1      11.497  20.036  57.713  1.00  0.00     0.339 C 
ATOM      3  C   UNL     1      12.370  21.451  59.373  1.00  0.00     0.199 C 
ATOM      4  C   UNL     1      11.301  21.060  60.415  1.00  0.00     0.180 C 
ATOM      5  O   UNL     1      12.638  20.373  58.490  1.00  0.00    -0.328 OA
ATOM      6  C   UNL     1      10.010  20.630  59.692  1.00  0.00     0.181 C 
ATOM      7  C   UNL     1      10.336  19.569  58.624  1.00  0.00     0.214 C 
BRANCH   3   8
ATOM      8  C   UNL     1      13.642  21.856  60.062  1.00  0.00     0.073 C 
ATOM      9  O   UNL     1      14.753  21.719  59.483  1.00  0.00    -0.547 OA
ATOM     10  O   UNL     1      13.603  22.334  61.364  1.00  0.00    -0.547 OA
ENDBRANCH   3   8
BRANCH   4  11
ATOM     11  O   UNL     1      11.776  20.005  61.214  1.00  0.00    -0.387 OA
ATOM     12  H   UNL     1      11.037  19.754  61.827  1.00  0.00     0.211 HD
ENDBRANCH   4  11
BRANCH   6  13
ATOM     13  O   UNL     1       9.394  21.740  59.089  1.00  0.00    -0.387 OA
ATOM     14  H   UNL     1       9.352  21.552  58.116  1.00  0.00     0.211 HD
ENDBRANCH   6  13
BRANCH   7  15
ATOM     15  O   UNL     1       9.195  19.280  57.860  1.00  0.00    -0.384 OA
ATOM     16  H   UNL     1       8.422  19.284  58.482  1.00  0.00     0.211 HD
ENDBRANCH   7  15
ENDBRANCH   1   2
BRANCH   1  17
ATOM     17  C   UNL     1      10.807  21.108  55.515  1.00  0.00     0.172 A 
ATOM     18  C   UNL     1       9.485  21.374  55.139  1.00  0.00     0.201 A 
ATOM     19  C   UNL     1      11.759  20.822  54.526  1.00  0.00     0.098 A 
ATOM     20  C   UNL     1       9.097  21.347  53.785  1.00  0.00     0.176 A 
ATOM     21  C   UNL     1      11.406  20.828  53.175  1.00  0.00     0.146 A 
ATOM     22  C   UNL     1      10.077  21.115  52.776  1.00  0.00     0.111 A 
ATOM     23  O   UNL     1      12.349  20.569  52.274  1.00  0.00    -0.456 OA
ATOM     24  C   UNL     1       9.829  21.179  51.383  1.00  0.00     0.197 A 
ATOM     25  C   UNL     1      12.133  20.581  50.963  1.00  0.00     0.138 A 
ATOM     26  C   UNL     1      10.854  20.891  50.481  1.00  0.00     0.100 A 
ATOM     27  O   UNL     1       8.710  21.519  50.919  1.00  0.00    -0.289 OA
BRANCH  18  28
ATOM     28  O   UNL     1       8.552  21.646  56.142  1.00  0.00    -0.502 OA
ATOM     29  H   UNL     1       7.778  22.286  56.009  1.00  0.00     0.293 HD
ENDBRANCH  18  28
BRANCH  20  30
ATOM     30  O   UNL     1       7.738  21.524  53.506  1.00  0.00    -0.504 OA
ATOM     31  H   UNL     1       6.990  20.990  53.921  1.00  0.00     0.293 HD
ENDBRANCH  20  30
BRANCH  25  32
ATOM     32  C   UNL     1      13.261  20.262  50.052  1.00  0.00     0.017 A 
ATOM     33  C   UNL     1      13.048  20.261  48.661  1.00  0.00     0.012 A 
ATOM     34  C   UNL     1      14.541  19.929  50.543  1.00  0.00     0.012 A 
ATOM     35  C   UNL     1      14.093  19.957  47.783  1.00  0.00     0.001 A 
ATOM     36  C   UNL     1      15.581  19.624  49.659  1.00  0.00     0.001 A 
ATOM     37  C   UNL     1      15.358  19.641  48.281  1.00  0.00     0.000 A 
ENDBRANCH  25  32
ENDBRANCH   1  17
TORSDOF 9
ENDMDL
