MODEL 1
REMARK VINA RESULT:    -3.168      0.000      0.000
REMARK INTER + INTRA:          -5.226
REMARK INTER:                  -4.464
REMARK INTRA:                  -0.762
REMARK UNBOUND:                -0.762
REMARK SMILES C=CCCCCCCC(=O)[O-]
REMARK SMILES IDX 6 1 7 2 8 3 9 4 10 5 11 6 5 7 4 8 3 9 2 10 1 11
REMARK H PARENT
REMARK Flexibility Score: inf
ROOT
ATOM      1  C   UNL     1      33.703 167.290 156.747  1.00  0.00     0.000 C 
ENDROOT
BRANCH   1   2
ATOM      2  C   UNL     1      32.417 167.074 157.563  1.00  0.00     0.006 C 
BRANCH   2   3
ATOM      3  C   UNL     1      31.923 168.371 158.219  1.00  0.00     0.053 C 
BRANCH   3   4
ATOM      4  C   UNL     1      31.667 168.192 159.685  1.00  0.00     0.041 C 
ATOM      5  O   UNL     1      30.604 168.628 160.200  1.00  0.00    -0.550 OA
ATOM      6  O   UNL     1      32.616 167.570 160.486  1.00  0.00    -0.550 OA
ENDBRANCH   3   4
ENDBRANCH   2   3
ENDBRANCH   1   2
BRANCH   1   7
ATOM      7  C   UNL     1      34.000 168.777 156.498  1.00  0.00     0.000 C 
BRANCH   7   8
ATOM      8  C   UNL     1      34.053 169.129 155.000  1.00  0.00     0.004 C 
BRANCH   8   9
ATOM      9  C   UNL     1      32.708 168.887 154.303  1.00  0.00     0.027 C 
BRANCH   9  10
ATOM     10  C   UNL     1      31.683 169.911 154.712  1.00  0.00    -0.035 C 
ATOM     11  C   UNL     1      30.427 169.569 155.014  1.00  0.00     0.004 C 
ENDBRANCH   9  10
ENDBRANCH   8   9
ENDBRANCH   7   8
ENDBRANCH   1   7
TORSDOF 7
ENDMDL
MODEL 2
REMARK VINA RESULT:    -3.148     21.538     22.888
REMARK INTER + INTRA:          -5.197
REMARK INTER:                  -4.509
REMARK INTRA:                  -0.689
REMARK UNBOUND:                -0.762
REMARK SMILES C=CCCCCCCC(=O)[O-]
REMARK SMILES IDX 6 1 7 2 8 3 9 4 10 5 11 6 5 7 4 8 3 9 2 10 1 11
REMARK H PARENT
REMARK Flexibility Score: inf
ROOT
ATOM      1  C   UNL     1      41.389 184.540 172.938  1.00  0.00     0.000 C 
ENDROOT
BRANCH   1   2
ATOM      2  C   UNL     1      40.987 183.279 173.723  1.00  0.00     0.006 C 
BRANCH   2   3
ATOM      3  C   UNL     1      42.079 182.201 173.685  1.00  0.00     0.053 C 
BRANCH   3   4
ATOM      4  C   UNL     1      42.219 181.597 172.320  1.00  0.00     0.041 C 
ATOM      5  O   UNL     1      43.329 181.619 171.729  1.00  0.00    -0.550 OA
ATOM      6  O   UNL     1      41.114 181.037 171.691  1.00  0.00    -0.550 OA
ENDBRANCH   3   4
ENDBRANCH   2   3
ENDBRANCH   1   2
BRANCH   1   7
ATOM      7  C   UNL     1      40.196 185.470 172.666  1.00  0.00     0.000 C 
BRANCH   7   8
ATOM      8  C   UNL     1      38.842 184.795 172.945  1.00  0.00     0.004 C 
BRANCH   8   9
ATOM      9  C   UNL     1      38.024 184.592 171.664  1.00  0.00     0.027 C 
BRANCH   9  10
ATOM     10  C   UNL     1      38.396 183.308 170.969  1.00  0.00    -0.035 C 
ATOM     11  C   UNL     1      39.158 183.296 169.872  1.00  0.00     0.004 C 
ENDBRANCH   9  10
ENDBRANCH   8   9
ENDBRANCH   7   8
ENDBRANCH   1   7
TORSDOF 7
ENDMDL
MODEL 3
REMARK VINA RESULT:    -3.118     20.942     22.402
REMARK INTER + INTRA:          -5.156
REMARK INTER:                  -4.401
REMARK INTRA:                  -0.754
REMARK UNBOUND:                -0.762
REMARK SMILES C=CCCCCCCC(=O)[O-]
REMARK SMILES IDX 6 1 7 2 8 3 9 4 10 5 11 6 5 7 4 8 3 9 2 10 1 11
REMARK H PARENT
REMARK Flexibility Score: inf
ROOT
ATOM      1  C   UNL     1      38.602 184.062 173.111  1.00  0.00     0.000 C 
ENDROOT
BRANCH   1   2
ATOM      2  C   UNL     1      37.826 183.189 172.109  1.00  0.00     0.006 C 
BRANCH   2   3
ATOM      3  C   UNL     1      38.160 183.544 170.654  1.00  0.00     0.053 C 
BRANCH   3   4
ATOM      4  C   UNL     1      36.941 183.954 169.885  1.00  0.00     0.041 C 
ATOM      5  O   UNL     1      35.811 183.495 170.197  1.00  0.00    -0.550 OA
ATOM      6  O   UNL     1      37.058 184.822 168.807  1.00  0.00    -0.550 OA
ENDBRANCH   3   4
ENDBRANCH   2   3
ENDBRANCH   1   2
BRANCH   1   7
ATOM      7  C   UNL     1      39.780 184.802 172.458  1.00  0.00     0.000 C 
BRANCH   7   8
ATOM      8  C   UNL     1      41.100 184.613 173.226  1.00  0.00     0.004 C 
BRANCH   8   9
ATOM      9  C   UNL     1      41.421 183.132 173.464  1.00  0.00     0.027 C 
BRANCH   9  10
ATOM     10  C   UNL     1      41.723 182.419 172.173  1.00  0.00    -0.035 C 
ATOM     11  C   UNL     1      41.084 181.300 171.820  1.00  0.00     0.004 C 
ENDBRANCH   9  10
ENDBRANCH   8   9
ENDBRANCH   7   8
ENDBRANCH   1   7
TORSDOF 7
ENDMDL
MODEL 4
REMARK VINA RESULT:    -3.071      3.521      4.818
REMARK INTER + INTRA:          -5.089
REMARK INTER:                  -4.438
REMARK INTRA:                  -0.651
REMARK UNBOUND:                -0.762
REMARK SMILES C=CCCCCCCC(=O)[O-]
REMARK SMILES IDX 6 1 7 2 8 3 9 4 10 5 11 6 5 7 4 8 3 9 2 10 1 11
REMARK H PARENT
REMARK Flexibility Score: inf
ROOT
ATOM      1  C   UNL     1      30.723 167.929 155.056  1.00  0.00     0.000 C 
ENDROOT
BRANCH   1   2
ATOM      2  C   UNL     1      30.245 169.131 155.889  1.00  0.00     0.006 C 
BRANCH   2   3
ATOM      3  C   UNL     1      28.776 169.478 155.614  1.00  0.00     0.053 C 
BRANCH   3   4
ATOM      4  C   UNL     1      28.638 170.491 154.517  1.00  0.00     0.041 C 
ATOM      5  O   UNL     1      29.619 171.210 154.193  1.00  0.00    -0.550 OA
ATOM      6  O   UNL     1      27.418 170.659 153.875  1.00  0.00    -0.550 OA
ENDBRANCH   3   4
ENDBRANCH   2   3
ENDBRANCH   1   2
BRANCH   1   7
ATOM      7  C   UNL     1      31.844 168.302 154.074  1.00  0.00     0.000 C 
BRANCH   7   8
ATOM      8  C   UNL     1      32.682 169.499 154.556  1.00  0.00     0.004 C 
BRANCH   8   9
ATOM      9  C   UNL     1      34.089 169.078 154.997  1.00  0.00     0.027 C 
BRANCH   9  10
ATOM     10  C   UNL     1      34.106 168.633 156.436  1.00  0.00    -0.035 C 
ATOM     11  C   UNL     1      34.239 167.347 156.775  1.00  0.00     0.004 C 
ENDBRANCH   9  10
ENDBRANCH   8   9
ENDBRANCH   7   8
ENDBRANCH   1   7
TORSDOF 7
ENDMDL
MODEL 5
REMARK VINA RESULT:    -3.070      0.960      2.526
REMARK INTER + INTRA:          -5.088
REMARK INTER:                  -4.345
REMARK INTRA:                  -0.743
REMARK UNBOUND:                -0.762
REMARK SMILES C=CCCCCCCC(=O)[O-]
REMARK SMILES IDX 6 1 7 2 8 3 9 4 10 5 11 6 5 7 4 8 3 9 2 10 1 11
REMARK H PARENT
REMARK Flexibility Score: inf
ROOT
ATOM      1  C   UNL     1      30.148 168.916 156.445  1.00  0.00     0.000 C 
ENDROOT
BRANCH   1   2
ATOM      2  C   UNL     1      30.648 168.098 157.648  1.00  0.00     0.006 C 
BRANCH   2   3
ATOM      3  C   UNL     1      31.243 168.990 158.746  1.00  0.00     0.053 C 
BRANCH   3   4
ATOM      4  C   UNL     1      31.559 168.211 159.987  1.00  0.00     0.041 C 
ATOM      5  O   UNL     1      30.912 168.418 161.047  1.00  0.00    -0.550 OA
ATOM      6  O   UNL     1      32.588 167.277 159.979  1.00  0.00    -0.550 OA
ENDBRANCH   3   4
ENDBRANCH   2   3
ENDBRANCH   1   2
BRANCH   1   7
ATOM      7  C   UNL     1      31.050 168.760 155.211  1.00  0.00     0.000 C 
BRANCH   7   8
ATOM      8  C   UNL     1      32.214 169.766 155.194  1.00  0.00     0.004 C 
BRANCH   8   9
ATOM      9  C   UNL     1      33.573 169.074 155.028  1.00  0.00     0.027 C 
BRANCH   9  10
ATOM     10  C   UNL     1      34.144 168.655 156.357  1.00  0.00    -0.035 C 
ATOM     11  C   UNL     1      34.263 167.369 156.699  1.00  0.00     0.004 C 
ENDBRANCH   9  10
ENDBRANCH   8   9
ENDBRANCH   7   8
ENDBRANCH   1   7
TORSDOF 7
ENDMDL
MODEL 6
REMARK VINA RESULT:    -3.057      3.114      4.660
REMARK INTER + INTRA:          -5.070
REMARK INTER:                  -4.508
REMARK INTRA:                  -0.562
REMARK UNBOUND:                -0.762
REMARK SMILES C=CCCCCCCC(=O)[O-]
REMARK SMILES IDX 6 1 7 2 8 3 9 4 10 5 11 6 5 7 4 8 3 9 2 10 1 11
REMARK H PARENT
REMARK Flexibility Score: inf
ROOT
ATOM      1  C   UNL     1      32.921 169.109 154.134  1.00  0.00     0.000 C 
ENDROOT
BRANCH   1   2
ATOM      2  C   UNL     1      31.479 168.638 153.877  1.00  0.00     0.006 C 
BRANCH   2   3
ATOM      3  C   UNL     1      30.497 169.187 154.922  1.00  0.00     0.053 C 
BRANCH   3   4
ATOM      4  C   UNL     1      29.799 170.422 154.436  1.00  0.00     0.041 C 
ATOM      5  O   UNL     1      30.452 171.341 153.879  1.00  0.00    -0.550 OA
ATOM      6  O   UNL     1      28.430 170.567 154.627  1.00  0.00    -0.550 OA
ENDBRANCH   3   4
ENDBRANCH   2   3
ENDBRANCH   1   2
BRANCH   1   7
ATOM      7  C   UNL     1      33.212 169.329 155.626  1.00  0.00     0.000 C 
BRANCH   7   8
ATOM      8  C   UNL     1      34.272 168.357 156.174  1.00  0.00     0.004 C 
BRANCH   8   9
ATOM      9  C   UNL     1      33.647 167.230 157.006  1.00  0.00     0.027 C 
BRANCH   9  10
ATOM     10  C   UNL     1      32.440 167.711 157.766  1.00  0.00    -0.035 C 
ATOM     11  C   UNL     1      32.381 167.661 159.100  1.00  0.00     0.004 C 
ENDBRANCH   9  10
ENDBRANCH   8   9
ENDBRANCH   7   8
ENDBRANCH   1   7
TORSDOF 7
ENDMDL
MODEL 7
REMARK VINA RESULT:    -2.964      1.694      2.028
REMARK INTER + INTRA:          -4.938
REMARK INTER:                  -4.355
REMARK INTRA:                  -0.583
REMARK UNBOUND:                -0.762
REMARK SMILES C=CCCCCCCC(=O)[O-]
REMARK SMILES IDX 6 1 7 2 8 3 9 4 10 5 11 6 5 7 4 8 3 9 2 10 1 11
REMARK H PARENT
REMARK Flexibility Score: inf
ROOT
ATOM      1  C   UNL     1      33.238 168.006 157.254  1.00  0.00     0.000 C 
ENDROOT
BRANCH   1   2
ATOM      2  C   UNL     1      32.241 169.143 157.538  1.00  0.00     0.006 C 
BRANCH   2   3
ATOM      3  C   UNL     1      31.291 168.804 158.695  1.00  0.00     0.053 C 
BRANCH   3   4
ATOM      4  C   UNL     1      29.868 169.141 158.365  1.00  0.00     0.041 C 
ATOM      5  O   UNL     1      29.470 169.111 157.171  1.00  0.00    -0.550 OA
ATOM      6  O   UNL     1      28.990 169.515 159.375  1.00  0.00    -0.550 OA
ENDBRANCH   3   4
ENDBRANCH   2   3
ENDBRANCH   1   2
BRANCH   1   7
ATOM      7  C   UNL     1      34.047 168.239 155.970  1.00  0.00     0.000 C 
BRANCH   7   8
ATOM      8  C   UNL     1      33.457 169.356 155.090  1.00  0.00     0.004 C 
BRANCH   8   9
ATOM      9  C   UNL     1      32.662 168.795 153.903  1.00  0.00     0.027 C 
BRANCH   9  10
ATOM     10  C   UNL     1      31.258 169.338 153.875  1.00  0.00    -0.035 C 
ATOM     11  C   UNL     1      30.984 170.604 154.204  1.00  0.00     0.004 C 
ENDBRANCH   9  10
ENDBRANCH   8   9
ENDBRANCH   7   8
ENDBRANCH   1   7
TORSDOF 7
ENDMDL
MODEL 8
REMARK VINA RESULT:    -2.909      2.161      3.352
REMARK INTER + INTRA:          -4.862
REMARK INTER:                  -4.542
REMARK INTRA:                  -0.320
REMARK UNBOUND:                -0.762
REMARK SMILES C=CCCCCCCC(=O)[O-]
REMARK SMILES IDX 6 1 7 2 8 3 9 4 10 5 11 6 5 7 4 8 3 9 2 10 1 11
REMARK H PARENT
REMARK Flexibility Score: inf
ROOT
ATOM      1  C   UNL     1      31.282 168.759 158.221  1.00  0.00     0.000 C 
ENDROOT
BRANCH   1   2
ATOM      2  C   UNL     1      30.730 169.192 159.590  1.00  0.00     0.006 C 
BRANCH   2   3
ATOM      3  C   UNL     1      29.395 169.939 159.466  1.00  0.00     0.053 C 
BRANCH   3   4
ATOM      4  C   UNL     1      29.164 170.865 160.622  1.00  0.00     0.041 C 
ATOM      5  O   UNL     1      29.654 172.024 160.613  1.00  0.00    -0.550 OA
ATOM      6  O   UNL     1      28.433 170.434 161.722  1.00  0.00    -0.550 OA
ENDBRANCH   3   4
ENDBRANCH   2   3
ENDBRANCH   1   2
BRANCH   1   7
ATOM      7  C   UNL     1      32.455 167.774 158.344  1.00  0.00     0.000 C 
BRANCH   7   8
ATOM      8  C   UNL     1      33.035 167.368 156.977  1.00  0.00     0.004 C 
BRANCH   8   9
ATOM      9  C   UNL     1      34.313 168.146 156.638  1.00  0.00     0.027 C 
BRANCH   9  10
ATOM     10  C   UNL     1      34.127 169.006 155.416  1.00  0.00    -0.035 C 
ATOM     11  C   UNL     1      32.957 169.074 154.774  1.00  0.00     0.004 C 
ENDBRANCH   9  10
ENDBRANCH   8   9
ENDBRANCH   7   8
ENDBRANCH   1   7
TORSDOF 7
ENDMDL
