MODEL 1
REMARK VINA RESULT:    -4.885      0.000      0.000
REMARK INTER + INTRA:          -6.104
REMARK INTER:                  -5.884
REMARK INTRA:                  -0.220
REMARK UNBOUND:                -0.220
REMARK SMILES C=CCc1ccc(O)c(OC)c1
REMARK SMILES IDX 9 1 7 2 6 3 5 4 4 5 12 6 10 7 11 8 8 9 3 11 2 12 1 13
REMARK H PARENT 8 10
REMARK Flexibility Score: inf
ROOT
ATOM      1  C   UNL     1     141.918 135.482 145.062  1.00  0.00     0.160 A 
ATOM      2  C   UNL     1     142.942 134.818 145.762  1.00  0.00     0.157 A 
ATOM      3  C   UNL     1     143.538 135.425 146.873  1.00  0.00     0.050 A 
ATOM      4  C   UNL     1     143.124 136.689 147.294  1.00  0.00     0.008 A 
ATOM      5  C   UNL     1     142.112 137.369 146.603  1.00  0.00    -0.040 A 
ATOM      6  C   UNL     1     141.505 136.759 145.493  1.00  0.00     0.054 A 
ENDROOT
BRANCH   1   7
ATOM      7  O   UNL     1     141.334 134.848 143.953  1.00  0.00    -0.493 OA
ATOM      8  C   UNL     1     139.969 134.451 143.876  1.00  0.00     0.278 C 
ENDBRANCH   1   7
BRANCH   2   9
ATOM      9  O   UNL     1     143.382 133.554 145.369  1.00  0.00    -0.504 OA
ATOM     10  H   UNL     1     142.986 132.703 145.750  1.00  0.00     0.293 HD
ENDBRANCH   2   9
BRANCH   5  11
ATOM     11  C   UNL     1     141.644 138.721 147.073  1.00  0.00     0.062 C 
BRANCH  11  12
ATOM     12  C   UNL     1     142.360 139.818 146.338  1.00  0.00    -0.030 C 
ATOM     13  C   UNL     1     141.705 140.683 145.556  1.00  0.00     0.004 C 
ENDBRANCH  11  12
ENDBRANCH   5  11
TORSDOF 4
ENDMDL
MODEL 2
REMARK VINA RESULT:    -4.802      2.637      4.865
REMARK INTER + INTRA:          -6.005
REMARK INTER:                  -5.771
REMARK INTRA:                  -0.234
REMARK UNBOUND:                -0.220
REMARK SMILES C=CCc1ccc(O)c(OC)c1
REMARK SMILES IDX 9 1 7 2 6 3 5 4 4 5 12 6 10 7 11 8 8 9 3 11 2 12 1 13
REMARK H PARENT 8 10
REMARK Flexibility Score: inf
ROOT
ATOM      1  C   UNL     1     140.855 138.151 144.974  1.00  0.00     0.160 A 
ATOM      2  C   UNL     1     139.654 137.513 144.612  1.00  0.00     0.157 A 
ATOM      3  C   UNL     1     139.682 136.226 144.067  1.00  0.00     0.050 A 
ATOM      4  C   UNL     1     140.896 135.565 143.875  1.00  0.00     0.008 A 
ATOM      5  C   UNL     1     142.102 136.188 144.221  1.00  0.00    -0.040 A 
ATOM      6  C   UNL     1     142.078 137.478 144.778  1.00  0.00     0.054 A 
ENDROOT
BRANCH   1   7
ATOM      7  O   UNL     1     140.798 139.442 145.524  1.00  0.00    -0.493 OA
ATOM      8  C   UNL     1     141.872 140.376 145.506  1.00  0.00     0.278 C 
ENDBRANCH   1   7
BRANCH   2   9
ATOM      9  O   UNL     1     138.422 138.143 144.788  1.00  0.00    -0.504 OA
ATOM     10  H   UNL     1     138.224 139.059 144.404  1.00  0.00     0.293 HD
ENDBRANCH   2   9
BRANCH   5  11
ATOM     11  C   UNL     1     143.412 135.467 144.042  1.00  0.00     0.062 C 
BRANCH  11  12
ATOM     12  C   UNL     1     143.621 134.462 145.140  1.00  0.00    -0.030 C 
ATOM     13  C   UNL     1     144.110 134.815 146.332  1.00  0.00     0.004 C 
ENDBRANCH  11  12
ENDBRANCH   5  11
TORSDOF 4
ENDMDL
MODEL 3
REMARK VINA RESULT:    -4.674      1.574      2.758
REMARK INTER + INTRA:          -5.850
REMARK INTER:                  -5.642
REMARK INTRA:                  -0.209
REMARK UNBOUND:                -0.220
REMARK SMILES C=CCc1ccc(O)c(OC)c1
REMARK SMILES IDX 9 1 7 2 6 3 5 4 4 5 12 6 10 7 11 8 8 9 3 11 2 12 1 13
REMARK H PARENT 8 10
REMARK Flexibility Score: inf
ROOT
ATOM      1  C   UNL     1     142.858 135.466 146.597  1.00  0.00     0.160 A 
ATOM      2  C   UNL     1     143.248 134.810 145.414  1.00  0.00     0.157 A 
ATOM      3  C   UNL     1     143.048 135.425 144.174  1.00  0.00     0.050 A 
ATOM      4  C   UNL     1     142.459 136.689 144.098  1.00  0.00     0.008 A 
ATOM      5  C   UNL     1     142.056 137.351 145.265  1.00  0.00    -0.040 A 
ATOM      6  C   UNL     1     142.264 136.741 146.513  1.00  0.00     0.054 A 
ENDROOT
BRANCH   1   7
ATOM      7  O   UNL     1     143.076 134.827 147.828  1.00  0.00    -0.493 OA
ATOM      8  C   UNL     1     144.117 135.163 148.739  1.00  0.00     0.278 C 
ENDBRANCH   1   7
BRANCH   2   9
ATOM      9  O   UNL     1     143.839 133.547 145.451  1.00  0.00    -0.504 OA
ATOM     10  H   UNL     1     143.299 132.703 145.599  1.00  0.00     0.293 HD
ENDBRANCH   2   9
BRANCH   5  11
ATOM     11  C   UNL     1     141.447 138.727 145.188  1.00  0.00     0.062 C 
BRANCH  11  12
ATOM     12  C   UNL     1     141.971 139.604 146.290  1.00  0.00    -0.030 C 
ATOM     13  C   UNL     1     143.170 140.191 146.210  1.00  0.00     0.004 C 
ENDBRANCH  11  12
ENDBRANCH   5  11
TORSDOF 4
ENDMDL
MODEL 4
REMARK VINA RESULT:    -4.592      1.387      2.879
REMARK INTER + INTRA:          -5.751
REMARK INTER:                  -5.562
REMARK INTRA:                  -0.189
REMARK UNBOUND:                -0.220
REMARK SMILES C=CCc1ccc(O)c(OC)c1
REMARK SMILES IDX 9 1 7 2 6 3 5 4 4 5 12 6 10 7 11 8 8 9 3 11 2 12 1 13
REMARK H PARENT 8 10
REMARK Flexibility Score: inf
ROOT
ATOM      1  C   UNL     1     141.654 135.351 144.685  1.00  0.00     0.160 A 
ATOM      2  C   UNL     1     140.362 135.002 144.249  1.00  0.00     0.157 A 
ATOM      3  C   UNL     1     139.360 135.976 144.183  1.00  0.00     0.050 A 
ATOM      4  C   UNL     1     139.630 137.295 144.550  1.00  0.00     0.008 A 
ATOM      5  C   UNL     1     140.908 137.657 144.995  1.00  0.00    -0.040 A 
ATOM      6  C   UNL     1     141.920 136.684 145.054  1.00  0.00     0.054 A 
ENDROOT
BRANCH   1   7
ATOM      7  O   UNL     1     142.642 134.354 144.737  1.00  0.00    -0.493 OA
ATOM      8  C   UNL     1     143.843 134.446 145.497  1.00  0.00     0.278 C 
ENDBRANCH   1   7
BRANCH   2   9
ATOM      9  O   UNL     1     140.055 133.694 143.876  1.00  0.00    -0.504 OA
ATOM     10  H   UNL     1     140.412 133.278 143.025  1.00  0.00     0.293 HD
ENDBRANCH   2   9
BRANCH   5  11
ATOM     11  C   UNL     1     141.211 139.086 145.363  1.00  0.00     0.062 C 
BRANCH  11  12
ATOM     12  C   UNL     1     142.306 139.152 146.389  1.00  0.00    -0.030 C 
ATOM     13  C   UNL     1     143.272 140.075 146.327  1.00  0.00     0.004 C 
ENDBRANCH  11  12
ENDBRANCH   5  11
TORSDOF 4
ENDMDL
MODEL 5
REMARK VINA RESULT:    -4.539      1.362      2.825
REMARK INTER + INTRA:          -5.687
REMARK INTER:                  -5.454
REMARK INTRA:                  -0.233
REMARK UNBOUND:                -0.220
REMARK SMILES C=CCc1ccc(O)c(OC)c1
REMARK SMILES IDX 9 1 7 2 6 3 5 4 4 5 12 6 10 7 11 8 8 9 3 11 2 12 1 13
REMARK H PARENT 8 10
REMARK Flexibility Score: inf
ROOT
ATOM      1  C   UNL     1     142.727 135.837 147.024  1.00  0.00     0.160 A 
ATOM      2  C   UNL     1     142.384 135.352 145.747  1.00  0.00     0.157 A 
ATOM      3  C   UNL     1     142.046 136.247 144.726  1.00  0.00     0.050 A 
ATOM      4  C   UNL     1     142.043 137.622 144.963  1.00  0.00     0.008 A 
ATOM      5  C   UNL     1     142.372 138.122 146.230  1.00  0.00    -0.040 A 
ATOM      6  C   UNL     1     142.721 137.227 147.256  1.00  0.00     0.054 A 
ENDROOT
BRANCH   1   7
ATOM      7  O   UNL     1     143.067 134.917 148.028  1.00  0.00    -0.493 OA
ATOM      8  C   UNL     1     144.007 135.168 149.068  1.00  0.00     0.278 C 
ENDBRANCH   1   7
BRANCH   2   9
ATOM      9  O   UNL     1     142.376 133.985 145.474  1.00  0.00    -0.504 OA
ATOM     10  H   UNL     1     143.229 133.452 145.358  1.00  0.00     0.293 HD
ENDBRANCH   2   9
BRANCH   5  11
ATOM     11  C   UNL     1     142.398 139.606 146.481  1.00  0.00     0.062 C 
BRANCH  11  12
ATOM     12  C   UNL     1     141.540 140.331 145.483  1.00  0.00    -0.030 C 
ATOM     13  C   UNL     1     140.313 140.763 145.793  1.00  0.00     0.004 C 
ENDBRANCH  11  12
ENDBRANCH   5  11
TORSDOF 4
ENDMDL
MODEL 6
REMARK VINA RESULT:    -4.492      4.412      6.614
REMARK INTER + INTRA:          -5.632
REMARK INTER:                  -5.429
REMARK INTRA:                  -0.202
REMARK UNBOUND:                -0.220
REMARK SMILES C=CCc1ccc(O)c(OC)c1
REMARK SMILES IDX 9 1 7 2 6 3 5 4 4 5 12 6 10 7 11 8 8 9 3 11 2 12 1 13
REMARK H PARENT 8 10
REMARK Flexibility Score: inf
ROOT
ATOM      1  C   UNL     1     137.923 132.188 147.191  1.00  0.00     0.160 A 
ATOM      2  C   UNL     1     136.710 131.610 146.770  1.00  0.00     0.157 A 
ATOM      3  C   UNL     1     136.342 131.660 145.422  1.00  0.00     0.050 A 
ATOM      4  C   UNL     1     137.168 132.283 144.485  1.00  0.00     0.008 A 
ATOM      5  C   UNL     1     138.374 132.872 144.888  1.00  0.00    -0.040 A 
ATOM      6  C   UNL     1     138.752 132.816 146.240  1.00  0.00     0.054 A 
ENDROOT
BRANCH   1   7
ATOM      7  O   UNL     1     138.271 132.119 148.549  1.00  0.00    -0.493 OA
ATOM      8  C   UNL     1     139.486 131.567 149.045  1.00  0.00     0.278 C 
ENDBRANCH   1   7
BRANCH   2   9
ATOM      9  O   UNL     1     135.859 130.980 147.678  1.00  0.00    -0.504 OA
ATOM     10  H   UNL     1     135.792 131.271 148.646  1.00  0.00     0.293 HD
ENDBRANCH   2   9
BRANCH   5  11
ATOM     11  C   UNL     1     139.281 133.519 143.875  1.00  0.00     0.062 C 
BRANCH  11  12
ATOM     12  C   UNL     1     139.205 135.017 143.970  1.00  0.00    -0.030 C 
ATOM     13  C   UNL     1     140.303 135.778 143.953  1.00  0.00     0.004 C 
ENDBRANCH  11  12
ENDBRANCH   5  11
TORSDOF 4
ENDMDL
MODEL 7
REMARK VINA RESULT:    -4.492      3.827      5.948
REMARK INTER + INTRA:          -5.631
REMARK INTER:                  -5.414
REMARK INTRA:                  -0.217
REMARK UNBOUND:                -0.220
REMARK SMILES C=CCc1ccc(O)c(OC)c1
REMARK SMILES IDX 9 1 7 2 6 3 5 4 4 5 12 6 10 7 11 8 8 9 3 11 2 12 1 13
REMARK H PARENT 8 10
REMARK Flexibility Score: inf
ROOT
ATOM      1  C   UNL     1     138.757 139.536 147.763  1.00  0.00     0.160 A 
ATOM      2  C   UNL     1     138.417 140.534 146.831  1.00  0.00     0.157 A 
ATOM      3  C   UNL     1     139.387 141.034 145.956  1.00  0.00     0.050 A 
ATOM      4  C   UNL     1     140.695 140.551 146.000  1.00  0.00     0.008 A 
ATOM      5  C   UNL     1     141.054 139.564 146.928  1.00  0.00    -0.040 A 
ATOM      6  C   UNL     1     140.080 139.053 147.802  1.00  0.00     0.054 A 
ENDROOT
BRANCH   1   7
ATOM      7  O   UNL     1     137.762 139.048 148.626  1.00  0.00    -0.493 OA
ATOM      8  C   UNL     1     137.609 139.442 149.986  1.00  0.00     0.278 C 
ENDBRANCH   1   7
BRANCH   2   9
ATOM      9  O   UNL     1     137.120 141.041 146.759  1.00  0.00    -0.504 OA
ATOM     10  H   UNL     1     136.487 141.020 147.549  1.00  0.00     0.293 HD
ENDBRANCH   2   9
BRANCH   5  11
ATOM     11  C   UNL     1     142.458 139.020 146.958  1.00  0.00     0.062 C 
BRANCH  11  12
ATOM     12  C   UNL     1     142.450 137.520 146.883  1.00  0.00    -0.030 C 
ATOM     13  C   UNL     1     143.104 136.769 147.775  1.00  0.00     0.004 C 
ENDBRANCH  11  12
ENDBRANCH   5  11
TORSDOF 4
ENDMDL
MODEL 8
REMARK VINA RESULT:    -4.154      3.147      4.925
REMARK INTER + INTRA:          -5.225
REMARK INTER:                  -5.041
REMARK INTRA:                  -0.184
REMARK UNBOUND:                -0.220
REMARK SMILES C=CCc1ccc(O)c(OC)c1
REMARK SMILES IDX 9 1 7 2 6 3 5 4 4 5 12 6 10 7 11 8 8 9 3 11 2 12 1 13
REMARK H PARENT 8 10
REMARK Flexibility Score: inf
ROOT
ATOM      1  C   UNL     1     139.600 138.690 145.420  1.00  0.00     0.160 A 
ATOM      2  C   UNL     1     140.652 139.599 145.639  1.00  0.00     0.157 A 
ATOM      3  C   UNL     1     141.969 139.230 145.345  1.00  0.00     0.050 A 
ATOM      4  C   UNL     1     142.251 137.962 144.836  1.00  0.00     0.008 A 
ATOM      5  C   UNL     1     141.218 137.040 144.622  1.00  0.00    -0.040 A 
ATOM      6  C   UNL     1     139.893 137.411 144.907  1.00  0.00     0.054 A 
ENDROOT
BRANCH   1   7
ATOM      7  O   UNL     1     138.288 139.089 145.719  1.00  0.00    -0.493 OA
ATOM      8  C   UNL     1     137.639 138.862 146.966  1.00  0.00     0.278 C 
ENDBRANCH   1   7
BRANCH   2   9
ATOM      9  O   UNL     1     140.408 140.875 146.147  1.00  0.00    -0.504 OA
ATOM     10  H   UNL     1     139.470 141.228 146.292  1.00  0.00     0.293 HD
ENDBRANCH   2   9
BRANCH   5  11
ATOM     11  C   UNL     1     141.516 135.681 144.046  1.00  0.00     0.062 C 
BRANCH  11  12
ATOM     12  C   UNL     1     142.996 135.487 143.875  1.00  0.00    -0.030 C 
ATOM     13  C   UNL     1     143.712 134.759 144.737  1.00  0.00     0.004 C 
ENDBRANCH  11  12
ENDBRANCH   5  11
TORSDOF 4
ENDMDL
MODEL 9
REMARK VINA RESULT:    -2.606      3.980      5.279
REMARK INTER + INTRA:          -3.360
REMARK INTER:                  -3.150
REMARK INTRA:                  -0.210
REMARK UNBOUND:                -0.220
REMARK SMILES C=CCc1ccc(O)c(OC)c1
REMARK SMILES IDX 9 1 7 2 6 3 5 4 4 5 12 6 10 7 11 8 8 9 3 11 2 12 1 13
REMARK H PARENT 8 10
REMARK Flexibility Score: inf
ROOT
ATOM      1  C   UNL     1     138.523 138.718 147.009  1.00  0.00     0.160 A 
ATOM      2  C   UNL     1     137.970 140.007 147.137  1.00  0.00     0.157 A 
ATOM      3  C   UNL     1     138.697 141.125 146.715  1.00  0.00     0.050 A 
ATOM      4  C   UNL     1     139.972 140.975 146.169  1.00  0.00     0.008 A 
ATOM      5  C   UNL     1     140.542 139.701 146.043  1.00  0.00    -0.040 A 
ATOM      6  C   UNL     1     139.811 138.574 146.456  1.00  0.00     0.054 A 
ENDROOT
BRANCH   1   7
ATOM      7  O   UNL     1     137.770 137.613 147.435  1.00  0.00    -0.493 OA
ATOM      8  C   UNL     1     138.214 136.261 147.376  1.00  0.00     0.278 C 
ENDBRANCH   1   7
BRANCH   2   9
ATOM      9  O   UNL     1     136.699 140.195 147.679  1.00  0.00    -0.504 OA
ATOM     10  H   UNL     1     135.966 140.684 147.180  1.00  0.00     0.293 HD
ENDBRANCH   2   9
BRANCH   5  11
ATOM     11  C   UNL     1     141.906 139.534 145.427  1.00  0.00     0.062 C 
BRANCH  11  12
ATOM     12  C   UNL     1     142.983 139.744 146.452  1.00  0.00    -0.030 C 
ATOM     13  C   UNL     1     143.861 140.748 146.353  1.00  0.00     0.004 C 
ENDBRANCH  11  12
ENDBRANCH   5  11
TORSDOF 4
ENDMDL
