MODEL 1
REMARK VINA RESULT:    -5.549      0.000      0.000
REMARK INTER + INTRA:          -9.308
REMARK INTER:                  -8.631
REMARK INTRA:                  -0.678
REMARK UNBOUND:                -0.678
REMARK SMILES COc1cc(CNC(=O)CCCCC=CC(C)C)ccc1O
REMARK SMILES IDX 11 1 12 2 13 3 14 4 15 5 16 6 17 7 18 8 10 9 8 10 9 11 7 12
REMARK SMILES IDX 6 14 5 15 4 16 19 17 3 18 20 19 21 20 2 21 1 22 22 23
REMARK H PARENT 7 13 22 24
REMARK Flexibility Score: inf
ROOT
ATOM      1  C   UNL     1     166.725 262.410 338.691  1.00  0.00     0.010 C 
ENDROOT
BRANCH   1   2
ATOM      2  C   UNL     1     165.933 263.715 338.498  1.00  0.00     0.005 C 
BRANCH   2   3
ATOM      3  C   UNL     1     164.652 263.520 337.676  1.00  0.00     0.027 C 
BRANCH   3   4
ATOM      4  C   UNL     1     164.881 262.512 336.581  1.00  0.00    -0.031 C 
ATOM      5  C   UNL     1     164.684 262.694 335.258  1.00  0.00    -0.028 C 
BRANCH   5   6
ATOM      6  C   UNL     1     164.282 263.969 334.535  1.00  0.00     0.005 C 
ATOM      7  C   UNL     1     165.414 264.997 334.423  1.00  0.00     0.012 C 
ATOM      8  C   UNL     1     163.604 263.691 333.187  1.00  0.00     0.012 C 
ENDBRANCH   5   6
ENDBRANCH   3   4
ENDBRANCH   2   3
ENDBRANCH   1   2
BRANCH   1   9
ATOM      9  C   UNL     1     168.116 262.599 339.318  1.00  0.00     0.100 C 
BRANCH   9  10
ATOM     10  C   UNL     1     168.408 261.557 340.357  1.00  0.00     0.220 C 
ATOM     11  O   UNL     1     169.486 260.905 340.296  1.00  0.00    -0.275 OA
ATOM     12  N   UNL     1     167.481 261.324 341.427  1.00  0.00    -0.352 N 
ATOM     13  H   UNL     1     166.542 261.783 341.398  1.00  0.00     0.163 HD
BRANCH  12  14
ATOM     14  C   UNL     1     167.868 260.633 342.653  1.00  0.00     0.151 C 
BRANCH  14  15
ATOM     15  C   UNL     1     166.698 260.584 343.597  1.00  0.00    -0.025 A 
ATOM     16  C   UNL     1     166.715 261.345 344.775  1.00  0.00     0.056 A 
ATOM     17  C   UNL     1     165.620 259.722 343.348  1.00  0.00     0.009 A 
ATOM     18  C   UNL     1     165.651 261.266 345.696  1.00  0.00     0.160 A 
ATOM     19  C   UNL     1     164.564 259.637 344.257  1.00  0.00     0.050 A 
ATOM     20  C   UNL     1     164.573 260.403 345.427  1.00  0.00     0.157 A 
BRANCH  18  21
ATOM     21  O   UNL     1     165.636 262.021 346.879  1.00  0.00    -0.493 OA
ATOM     22  C   UNL     1     166.735 262.785 347.364  1.00  0.00     0.278 C 
ENDBRANCH  18  21
BRANCH  20  23
ATOM     23  O   UNL     1     163.502 260.289 346.313  1.00  0.00    -0.504 OA
ATOM     24  H   UNL     1     163.535 260.672 347.251  1.00  0.00     0.293 HD
ENDBRANCH  20  23
ENDBRANCH  14  15
ENDBRANCH  12  14
ENDBRANCH   9  10
ENDBRANCH   1   9
TORSDOF 10
ENDMDL
MODEL 2
REMARK VINA RESULT:    -5.341     13.826     16.148
REMARK INTER + INTRA:          -8.985
REMARK INTER:                  -8.447
REMARK INTRA:                  -0.538
REMARK UNBOUND:                -0.678
REMARK SMILES COc1cc(CNC(=O)CCCCC=CC(C)C)ccc1O
REMARK SMILES IDX 11 1 12 2 13 3 14 4 15 5 16 6 17 7 18 8 10 9 8 10 9 11 7 12
REMARK SMILES IDX 6 14 5 15 4 16 19 17 3 18 20 19 21 20 2 21 1 22 22 23
REMARK H PARENT 7 13 22 24
REMARK Flexibility Score: inf
ROOT
ATOM      1  C   UNL     1     170.513 251.202 347.735  1.00  0.00     0.010 C 
ENDROOT
BRANCH   1   2
ATOM      2  C   UNL     1     170.434 252.144 346.521  1.00  0.00     0.005 C 
BRANCH   2   3
ATOM      3  C   UNL     1     169.728 251.507 345.316  1.00  0.00     0.027 C 
BRANCH   3   4
ATOM      4  C   UNL     1     170.630 250.499 344.654  1.00  0.00    -0.031 C 
ATOM      5  C   UNL     1     170.395 249.834 343.504  1.00  0.00    -0.028 C 
BRANCH   5   6
ATOM      6  C   UNL     1     169.228 250.000 342.545  1.00  0.00     0.005 C 
ATOM      7  C   UNL     1     169.379 251.191 341.590  1.00  0.00     0.012 C 
ATOM      8  C   UNL     1     168.882 248.698 341.810  1.00  0.00     0.012 C 
ENDBRANCH   5   6
ENDBRANCH   3   4
ENDBRANCH   2   3
ENDBRANCH   1   2
BRANCH   1   9
ATOM      9  C   UNL     1     170.471 251.916 349.096  1.00  0.00     0.100 C 
BRANCH   9  10
ATOM     10  C   UNL     1     170.947 251.028 350.209  1.00  0.00     0.220 C 
ATOM     11  O   UNL     1     170.204 250.096 350.619  1.00  0.00    -0.275 OA
ATOM     12  N   UNL     1     172.248 251.223 350.782  1.00  0.00    -0.352 N 
ATOM     13  H   UNL     1     172.801 252.070 350.517  1.00  0.00     0.163 HD
BRANCH  12  14
ATOM     14  C   UNL     1     172.914 250.188 351.565  1.00  0.00     0.151 C 
BRANCH  14  15
ATOM     15  C   UNL     1     174.396 250.443 351.585  1.00  0.00    -0.025 A 
ATOM     16  C   UNL     1     175.294 249.365 351.556  1.00  0.00     0.056 A 
ATOM     17  C   UNL     1     174.890 251.749 351.710  1.00  0.00     0.009 A 
ATOM     18  C   UNL     1     176.684 249.587 351.630  1.00  0.00     0.160 A 
ATOM     19  C   UNL     1     176.265 251.976 351.788  1.00  0.00     0.050 A 
ATOM     20  C   UNL     1     177.163 250.904 351.748  1.00  0.00     0.157 A 
BRANCH  18  21
ATOM     21  O   UNL     1     177.607 248.530 351.596  1.00  0.00    -0.493 OA
ATOM     22  C   UNL     1     178.049 247.806 352.739  1.00  0.00     0.278 C 
ENDBRANCH  18  21
BRANCH  20  23
ATOM     23  O   UNL     1     178.530 251.169 351.830  1.00  0.00    -0.504 OA
ATOM     24  H   UNL     1     179.219 250.608 351.343  1.00  0.00     0.293 HD
ENDBRANCH  20  23
ENDBRANCH  14  15
ENDBRANCH  12  14
ENDBRANCH   9  10
ENDBRANCH   1   9
TORSDOF 10
ENDMDL
MODEL 3
REMARK VINA RESULT:    -5.279      2.580     10.051
REMARK INTER + INTRA:          -8.888
REMARK INTER:                  -8.198
REMARK INTRA:                  -0.690
REMARK UNBOUND:                -0.678
REMARK SMILES COc1cc(CNC(=O)CCCCC=CC(C)C)ccc1O
REMARK SMILES IDX 11 1 12 2 13 3 14 4 15 5 16 6 17 7 18 8 10 9 8 10 9 11 7 12
REMARK SMILES IDX 6 14 5 15 4 16 19 17 3 18 20 19 21 20 2 21 1 22 22 23
REMARK H PARENT 7 13 22 24
REMARK Flexibility Score: inf
ROOT
ATOM      1  C   UNL     1     166.732 262.614 347.165  1.00  0.00     0.010 C 
ENDROOT
BRANCH   1   2
ATOM      2  C   UNL     1     166.753 264.138 347.381  1.00  0.00     0.005 C 
BRANCH   2   3
ATOM      3  C   UNL     1     168.095 264.645 347.925  1.00  0.00     0.027 C 
BRANCH   3   4
ATOM      4  C   UNL     1     168.675 263.653 348.897  1.00  0.00    -0.031 C 
ATOM      5  C   UNL     1     168.844 263.824 350.225  1.00  0.00    -0.028 C 
BRANCH   5   6
ATOM      6  C   UNL     1     168.413 265.001 351.083  1.00  0.00     0.005 C 
ATOM      7  C   UNL     1     166.894 265.109 351.263  1.00  0.00     0.012 C 
ATOM      8  C   UNL     1     169.168 265.065 352.417  1.00  0.00     0.012 C 
ENDBRANCH   5   6
ENDBRANCH   3   4
ENDBRANCH   2   3
ENDBRANCH   1   2
BRANCH   1   9
ATOM      9  C   UNL     1     165.489 262.096 346.424  1.00  0.00     0.100 C 
BRANCH   9  10
ATOM     10  C   UNL     1     165.828 260.989 345.468  1.00  0.00     0.220 C 
ATOM     11  O   UNL     1     165.357 259.836 345.661  1.00  0.00    -0.275 OA
ATOM     12  N   UNL     1     166.660 261.250 344.328  1.00  0.00    -0.352 N 
ATOM     13  H   UNL     1     167.139 262.176 344.246  1.00  0.00     0.163 HD
BRANCH  12  14
ATOM     14  C   UNL     1     166.704 260.352 343.179  1.00  0.00     0.151 C 
BRANCH  14  15
ATOM     15  C   UNL     1     167.753 260.824 342.209  1.00  0.00    -0.025 A 
ATOM     16  C   UNL     1     167.371 261.461 341.018  1.00  0.00     0.056 A 
ATOM     17  C   UNL     1     169.109 260.563 342.447  1.00  0.00     0.009 A 
ATOM     18  C   UNL     1     168.339 261.858 340.075  1.00  0.00     0.160 A 
ATOM     19  C   UNL     1     170.074 260.950 341.515  1.00  0.00     0.050 A 
ATOM     20  C   UNL     1     169.697 261.596 340.333  1.00  0.00     0.157 A 
BRANCH  18  21
ATOM     21  O   UNL     1     167.989 262.504 338.879  1.00  0.00    -0.493 OA
ATOM     22  C   UNL     1     166.658 262.835 338.499  1.00  0.00     0.278 C 
ENDBRANCH  18  21
BRANCH  20  23
ATOM     23  O   UNL     1     170.688 261.966 339.424  1.00  0.00    -0.504 OA
ATOM     24  H   UNL     1     170.565 262.734 338.775  1.00  0.00     0.293 HD
ENDBRANCH  20  23
ENDBRANCH  14  15
ENDBRANCH  12  14
ENDBRANCH   9  10
ENDBRANCH   1   9
TORSDOF 10
ENDMDL
MODEL 4
REMARK VINA RESULT:    -4.867      4.227      7.498
REMARK INTER + INTRA:          -8.248
REMARK INTER:                  -7.936
REMARK INTRA:                  -0.312
REMARK UNBOUND:                -0.678
REMARK SMILES COc1cc(CNC(=O)CCCCC=CC(C)C)ccc1O
REMARK SMILES IDX 11 1 12 2 13 3 14 4 15 5 16 6 17 7 18 8 10 9 8 10 9 11 7 12
REMARK SMILES IDX 6 14 5 15 4 16 19 17 3 18 20 19 21 20 2 21 1 22 22 23
REMARK H PARENT 7 13 22 24
REMARK Flexibility Score: inf
ROOT
ATOM      1  C   UNL     1     166.359 260.771 345.424  1.00  0.00     0.010 C 
ENDROOT
BRANCH   1   2
ATOM      2  C   UNL     1     165.976 260.840 343.935  1.00  0.00     0.005 C 
BRANCH   2   3
ATOM      3  C   UNL     1     167.034 261.547 343.078  1.00  0.00     0.027 C 
BRANCH   3   4
ATOM      4  C   UNL     1     168.101 260.572 342.655  1.00  0.00    -0.031 C 
ATOM      5  C   UNL     1     169.050 260.768 341.716  1.00  0.00    -0.028 C 
BRANCH   5   6
ATOM      6  C   UNL     1     169.345 262.033 340.928  1.00  0.00     0.005 C 
ATOM      7  C   UNL     1     170.842 262.300 340.729  1.00  0.00     0.012 C 
ATOM      8  C   UNL     1     168.556 262.105 339.614  1.00  0.00     0.012 C 
ENDBRANCH   5   6
ENDBRANCH   3   4
ENDBRANCH   2   3
ENDBRANCH   1   2
BRANCH   1   9
ATOM      9  C   UNL     1     165.665 261.820 346.307  1.00  0.00     0.100 C 
BRANCH   9  10
ATOM     10  C   UNL     1     166.655 262.661 347.061  1.00  0.00     0.220 C 
ATOM     11  O   UNL     1     167.701 262.127 347.517  1.00  0.00    -0.275 OA
ATOM     12  N   UNL     1     166.424 264.066 347.234  1.00  0.00    -0.352 N 
ATOM     13  H   UNL     1     165.500 264.470 346.957  1.00  0.00     0.163 HD
BRANCH  12  14
ATOM     14  C   UNL     1     167.494 264.989 347.595  1.00  0.00     0.151 C 
BRANCH  14  15
ATOM     15  C   UNL     1     167.918 264.741 349.017  1.00  0.00    -0.025 A 
ATOM     16  C   UNL     1     167.038 265.028 350.072  1.00  0.00     0.056 A 
ATOM     17  C   UNL     1     169.216 264.297 349.304  1.00  0.00     0.009 A 
ATOM     18  C   UNL     1     167.440 264.853 351.411  1.00  0.00     0.160 A 
ATOM     19  C   UNL     1     169.623 264.125 350.629  1.00  0.00     0.050 A 
ATOM     20  C   UNL     1     168.744 264.399 351.681  1.00  0.00     0.157 A 
BRANCH  18  21
ATOM     21  O   UNL     1     166.580 265.125 352.486  1.00  0.00    -0.493 OA
ATOM     22  C   UNL     1     165.278 264.570 352.639  1.00  0.00     0.278 C 
ENDBRANCH  18  21
BRANCH  20  23
ATOM     23  O   UNL     1     169.186 264.218 352.991  1.00  0.00    -0.504 OA
ATOM     24  H   UNL     1     169.776 264.895 353.460  1.00  0.00     0.293 HD
ENDBRANCH  20  23
ENDBRANCH  14  15
ENDBRANCH  12  14
ENDBRANCH   9  10
ENDBRANCH   1   9
TORSDOF 10
ENDMDL
MODEL 5
REMARK VINA RESULT:    -4.785      3.104      9.174
REMARK INTER + INTRA:          -8.119
REMARK INTER:                  -7.710
REMARK INTRA:                  -0.409
REMARK UNBOUND:                -0.678
REMARK SMILES COc1cc(CNC(=O)CCCCC=CC(C)C)ccc1O
REMARK SMILES IDX 11 1 12 2 13 3 14 4 15 5 16 6 17 7 18 8 10 9 8 10 9 11 7 12
REMARK SMILES IDX 6 14 5 15 4 16 19 17 3 18 20 19 21 20 2 21 1 22 22 23
REMARK H PARENT 7 13 22 24
REMARK Flexibility Score: inf
ROOT
ATOM      1  C   UNL     1     168.330 261.079 340.346  1.00  0.00     0.010 C 
ENDROOT
BRANCH   1   2
ATOM      2  C   UNL     1     168.507 261.168 341.872  1.00  0.00     0.005 C 
BRANCH   2   3
ATOM      3  C   UNL     1     167.182 261.388 342.615  1.00  0.00     0.027 C 
BRANCH   3   4
ATOM      4  C   UNL     1     166.540 260.067 342.942  1.00  0.00    -0.031 C 
ATOM      5  C   UNL     1     165.582 259.838 343.865  1.00  0.00    -0.028 C 
BRANCH   5   6
ATOM      6  C   UNL     1     164.848 260.850 344.729  1.00  0.00     0.005 C 
ATOM      7  C   UNL     1     163.412 260.439 345.074  1.00  0.00     0.012 C 
ATOM      8  C   UNL     1     165.655 261.262 345.966  1.00  0.00     0.012 C 
ENDBRANCH   5   6
ENDBRANCH   3   4
ENDBRANCH   2   3
ENDBRANCH   1   2
BRANCH   1   9
ATOM      9  C   UNL     1     168.289 262.439 339.631  1.00  0.00     0.100 C 
BRANCH   9  10
ATOM     10  C   UNL     1     167.005 262.640 338.881  1.00  0.00     0.220 C 
ATOM     11  O   UNL     1     166.409 261.641 338.395  1.00  0.00    -0.275 OA
ATOM     12  N   UNL     1     166.447 263.954 338.742  1.00  0.00    -0.352 N 
ATOM     13  H   UNL     1     167.010 264.782 339.043  1.00  0.00     0.163 HD
BRANCH  12  14
ATOM     14  C   UNL     1     165.049 264.170 338.384  1.00  0.00     0.151 C 
BRANCH  14  15
ATOM     15  C   UNL     1     164.843 263.839 336.931  1.00  0.00    -0.025 A 
ATOM     16  C   UNL     1     165.453 264.622 335.940  1.00  0.00     0.056 A 
ATOM     17  C   UNL     1     163.981 262.799 336.555  1.00  0.00     0.009 A 
ATOM     18  C   UNL     1     165.224 264.358 334.575  1.00  0.00     0.160 A 
ATOM     19  C   UNL     1     163.747 262.534 335.205  1.00  0.00     0.050 A 
ATOM     20  C   UNL     1     164.363 263.305 334.214  1.00  0.00     0.157 A 
BRANCH  18  21
ATOM     21  O   UNL     1     165.827 265.118 333.560  1.00  0.00    -0.493 OA
ATOM     22  C   UNL     1     167.055 264.785 332.921  1.00  0.00     0.278 C 
ENDBRANCH  18  21
BRANCH  20  23
ATOM     23  O   UNL     1     164.103 263.013 332.875  1.00  0.00    -0.504 OA
ATOM     24  H   UNL     1     164.451 262.173 332.429  1.00  0.00     0.293 HD
ENDBRANCH  20  23
ENDBRANCH  14  15
ENDBRANCH  12  14
ENDBRANCH   9  10
ENDBRANCH   1   9
TORSDOF 10
ENDMDL
MODEL 6
REMARK VINA RESULT:    -4.515     16.348     19.406
REMARK INTER + INTRA:          -7.699
REMARK INTER:                  -8.126
REMARK INTRA:                   0.427
REMARK UNBOUND:                -0.678
REMARK SMILES COc1cc(CNC(=O)CCCCC=CC(C)C)ccc1O
REMARK SMILES IDX 11 1 12 2 13 3 14 4 15 5 16 6 17 7 18 8 10 9 8 10 9 11 7 12
REMARK SMILES IDX 6 14 5 15 4 16 19 17 3 18 20 19 21 20 2 21 1 22 22 23
REMARK H PARENT 7 13 22 24
REMARK Flexibility Score: inf
ROOT
ATOM      1  C   UNL     1     178.193 247.319 352.837  1.00  0.00     0.010 C 
ENDROOT
BRANCH   1   2
ATOM      2  C   UNL     1     179.087 248.553 353.053  1.00  0.00     0.005 C 
BRANCH   2   3
ATOM      3  C   UNL     1     178.644 249.765 352.222  1.00  0.00     0.027 C 
BRANCH   3   4
ATOM      4  C   UNL     1     178.176 250.875 353.125  1.00  0.00    -0.031 C 
ATOM      5  C   UNL     1     177.246 251.811 352.842  1.00  0.00    -0.028 C 
BRANCH   5   6
ATOM      6  C   UNL     1     176.375 251.926 351.602  1.00  0.00     0.005 C 
ATOM      7  C   UNL     1     176.517 250.742 350.638  1.00  0.00     0.012 C 
ATOM      8  C   UNL     1     174.911 252.237 351.939  1.00  0.00     0.012 C 
ENDBRANCH   5   6
ENDBRANCH   3   4
ENDBRANCH   2   3
ENDBRANCH   1   2
BRANCH   1   9
ATOM      9  C   UNL     1     177.088 247.513 351.786  1.00  0.00     0.100 C 
BRANCH   9  10
ATOM     10  C   UNL     1     175.718 247.442 352.396  1.00  0.00     0.220 C 
ATOM     11  O   UNL     1     175.412 246.458 353.121  1.00  0.00    -0.275 OA
ATOM     12  N   UNL     1     174.775 248.502 352.177  1.00  0.00    -0.352 N 
ATOM     13  H   UNL     1     174.998 249.248 351.480  1.00  0.00     0.163 HD
BRANCH  12  14
ATOM     14  C   UNL     1     173.607 248.689 353.031  1.00  0.00     0.151 C 
BRANCH  14  15
ATOM     15  C   UNL     1     172.558 249.471 352.289  1.00  0.00    -0.025 A 
ATOM     16  C   UNL     1     171.221 249.427 352.710  1.00  0.00     0.056 A 
ATOM     17  C   UNL     1     172.892 250.185 351.130  1.00  0.00     0.009 A 
ATOM     18  C   UNL     1     170.219 250.110 351.993  1.00  0.00     0.160 A 
ATOM     19  C   UNL     1     171.905 250.862 350.411  1.00  0.00     0.050 A 
ATOM     20  C   UNL     1     170.573 250.829 350.836  1.00  0.00     0.157 A 
BRANCH  18  21
ATOM     21  O   UNL     1     168.874 250.091 352.394  1.00  0.00    -0.493 OA
ATOM     22  C   UNL     1     167.784 249.732 351.551  1.00  0.00     0.278 C 
ENDBRANCH  18  21
BRANCH  20  23
ATOM     23  O   UNL     1     169.613 251.514 350.092  1.00  0.00    -0.504 OA
ATOM     24  H   UNL     1     169.549 252.525 350.093  1.00  0.00     0.293 HD
ENDBRANCH  20  23
ENDBRANCH  14  15
ENDBRANCH  12  14
ENDBRANCH   9  10
ENDBRANCH   1   9
TORSDOF 10
ENDMDL
MODEL 7
REMARK VINA RESULT:    -4.484     12.541     13.567
REMARK INTER + INTRA:          -7.652
REMARK INTER:                  -7.207
REMARK INTRA:                  -0.445
REMARK UNBOUND:                -0.678
REMARK SMILES COc1cc(CNC(=O)CCCCC=CC(C)C)ccc1O
REMARK SMILES IDX 11 1 12 2 13 3 14 4 15 5 16 6 17 7 18 8 10 9 8 10 9 11 7 12
REMARK SMILES IDX 6 14 5 15 4 16 19 17 3 18 20 19 21 20 2 21 1 22 22 23
REMARK H PARENT 7 13 22 24
REMARK Flexibility Score: inf
ROOT
ATOM      1  C   UNL     1     167.503 249.831 335.317  1.00  0.00     0.010 C 
ENDROOT
BRANCH   1   2
ATOM      2  C   UNL     1     167.534 248.742 334.229  1.00  0.00     0.005 C 
BRANCH   2   3
ATOM      3  C   UNL     1     166.191 248.015 334.074  1.00  0.00     0.027 C 
BRANCH   3   4
ATOM      4  C   UNL     1     165.054 248.934 334.433  1.00  0.00    -0.031 C 
ATOM      5  C   UNL     1     163.753 248.599 334.563  1.00  0.00    -0.028 C 
BRANCH   5   6
ATOM      6  C   UNL     1     163.124 247.218 334.479  1.00  0.00     0.005 C 
ATOM      7  C   UNL     1     163.187 246.597 333.078  1.00  0.00     0.012 C 
ATOM      8  C   UNL     1     163.643 246.269 335.566  1.00  0.00     0.012 C 
ENDBRANCH   5   6
ENDBRANCH   3   4
ENDBRANCH   2   3
ENDBRANCH   1   2
BRANCH   1   9
ATOM      9  C   UNL     1     167.969 249.356 336.703  1.00  0.00     0.100 C 
BRANCH   9  10
ATOM     10  C   UNL     1     168.488 250.490 337.538  1.00  0.00     0.220 C 
ATOM     11  O   UNL     1     168.753 251.593 336.989  1.00  0.00    -0.275 OA
ATOM     12  N   UNL     1     168.653 250.328 338.954  1.00  0.00    -0.352 N 
ATOM     13  H   UNL     1     168.545 249.377 339.375  1.00  0.00     0.163 HD
BRANCH  12  14
ATOM     14  C   UNL     1     168.769 251.468 339.857  1.00  0.00     0.151 C 
BRANCH  14  15
ATOM     15  C   UNL     1     169.273 251.003 341.196  1.00  0.00    -0.025 A 
ATOM     16  C   UNL     1     169.249 249.638 341.520  1.00  0.00     0.056 A 
ATOM     17  C   UNL     1     169.696 251.932 342.157  1.00  0.00     0.009 A 
ATOM     18  C   UNL     1     169.666 249.194 342.790  1.00  0.00     0.160 A 
ATOM     19  C   UNL     1     170.107 251.500 343.419  1.00  0.00     0.050 A 
ATOM     20  C   UNL     1     170.096 250.139 343.740  1.00  0.00     0.157 A 
BRANCH  18  21
ATOM     21  O   UNL     1     169.661 247.835 343.141  1.00  0.00    -0.493 OA
ATOM     22  C   UNL     1     170.807 246.990 343.117  1.00  0.00     0.278 C 
ENDBRANCH  18  21
BRANCH  20  23
ATOM     23  O   UNL     1     170.511 249.745 345.012  1.00  0.00    -0.504 OA
ATOM     24  H   UNL     1     171.430 249.353 345.182  1.00  0.00     0.293 HD
ENDBRANCH  20  23
ENDBRANCH  14  15
ENDBRANCH  12  14
ENDBRANCH   9  10
ENDBRANCH   1   9
TORSDOF 10
ENDMDL
MODEL 8
REMARK VINA RESULT:    -4.339     13.867     16.144
REMARK INTER + INTRA:          -7.427
REMARK INTER:                  -6.855
REMARK INTRA:                  -0.572
REMARK UNBOUND:                -0.678
REMARK SMILES COc1cc(CNC(=O)CCCCC=CC(C)C)ccc1O
REMARK SMILES IDX 11 1 12 2 13 3 14 4 15 5 16 6 17 7 18 8 10 9 8 10 9 11 7 12
REMARK SMILES IDX 6 14 5 15 4 16 19 17 3 18 20 19 21 20 2 21 1 22 22 23
REMARK H PARENT 7 13 22 24
REMARK Flexibility Score: inf
ROOT
ATOM      1  C   UNL     1     170.756 251.090 348.016  1.00  0.00     0.010 C 
ENDROOT
BRANCH   1   2
ATOM      2  C   UNL     1     170.552 251.954 346.758  1.00  0.00     0.005 C 
BRANCH   2   3
ATOM      3  C   UNL     1     169.801 251.215 345.642  1.00  0.00     0.027 C 
BRANCH   3   4
ATOM      4  C   UNL     1     170.766 250.435 344.790  1.00  0.00    -0.031 C 
ATOM      5  C   UNL     1     170.548 249.963 343.544  1.00  0.00    -0.028 C 
BRANCH   5   6
ATOM      6  C   UNL     1     169.332 250.176 342.658  1.00  0.00     0.005 C 
ATOM      7  C   UNL     1     169.465 251.373 341.709  1.00  0.00     0.012 C 
ATOM      8  C   UNL     1     168.901 248.896 341.933  1.00  0.00     0.012 C 
ENDBRANCH   5   6
ENDBRANCH   3   4
ENDBRANCH   2   3
ENDBRANCH   1   2
BRANCH   1   9
ATOM      9  C   UNL     1     170.565 251.845 349.341  1.00  0.00     0.100 C 
BRANCH   9  10
ATOM     10  C   UNL     1     170.564 250.915 350.520  1.00  0.00     0.220 C 
ATOM     11  O   UNL     1     169.533 250.235 350.772  1.00  0.00    -0.275 OA
ATOM     12  N   UNL     1     171.738 250.781 351.335  1.00  0.00    -0.352 N 
ATOM     13  H   UNL     1     172.539 251.436 351.187  1.00  0.00     0.163 HD
BRANCH  12  14
ATOM     14  C   UNL     1     171.938 249.643 352.225  1.00  0.00     0.151 C 
BRANCH  14  15
ATOM     15  C   UNL     1     173.410 249.429 352.450  1.00  0.00    -0.025 A 
ATOM     16  C   UNL     1     174.329 250.416 352.064  1.00  0.00     0.056 A 
ATOM     17  C   UNL     1     173.880 248.217 352.973  1.00  0.00     0.009 A 
ATOM     18  C   UNL     1     175.714 250.207 352.218  1.00  0.00     0.160 A 
ATOM     19  C   UNL     1     175.251 248.001 353.125  1.00  0.00     0.050 A 
ATOM     20  C   UNL     1     176.169 248.987 352.752  1.00  0.00     0.157 A 
BRANCH  18  21
ATOM     21  O   UNL     1     176.657 251.179 351.848  1.00  0.00    -0.493 OA
ATOM     22  C   UNL     1     176.342 252.406 351.199  1.00  0.00     0.278 C 
ENDBRANCH  18  21
BRANCH  20  23
ATOM     23  O   UNL     1     177.531 248.736 352.915  1.00  0.00    -0.504 OA
ATOM     24  H   UNL     1     178.137 248.519 352.133  1.00  0.00     0.293 HD
ENDBRANCH  20  23
ENDBRANCH  14  15
ENDBRANCH  12  14
ENDBRANCH   9  10
ENDBRANCH   1   9
TORSDOF 10
ENDMDL
MODEL 9
REMARK VINA RESULT:    -4.335     13.324     17.522
REMARK INTER + INTRA:          -7.419
REMARK INTER:                  -6.824
REMARK INTRA:                  -0.596
REMARK UNBOUND:                -0.678
REMARK SMILES COc1cc(CNC(=O)CCCCC=CC(C)C)ccc1O
REMARK SMILES IDX 11 1 12 2 13 3 14 4 15 5 16 6 17 7 18 8 10 9 8 10 9 11 7 12
REMARK SMILES IDX 6 14 5 15 4 16 19 17 3 18 20 19 21 20 2 21 1 22 22 23
REMARK H PARENT 7 13 22 24
REMARK Flexibility Score: inf
ROOT
ATOM      1  C   UNL     1     172.892 251.233 350.668  1.00  0.00     0.010 C 
ENDROOT
BRANCH   1   2
ATOM      2  C   UNL     1     173.861 250.480 351.598  1.00  0.00     0.005 C 
BRANCH   2   3
ATOM      3  C   UNL     1     175.256 251.116 351.648  1.00  0.00     0.027 C 
BRANCH   3   4
ATOM      4  C   UNL     1     176.164 250.468 350.637  1.00  0.00    -0.031 C 
ATOM      5  C   UNL     1     176.805 249.288 350.763  1.00  0.00    -0.028 C 
BRANCH   5   6
ATOM      6  C   UNL     1     176.702 248.279 351.894  1.00  0.00     0.005 C 
ATOM      7  C   UNL     1     175.764 247.105 351.590  1.00  0.00     0.012 C 
ATOM      8  C   UNL     1     178.076 247.818 352.397  1.00  0.00     0.012 C 
ENDBRANCH   5   6
ENDBRANCH   3   4
ENDBRANCH   2   3
ENDBRANCH   1   2
BRANCH   1   9
ATOM      9  C   UNL     1     171.746 250.371 350.115  1.00  0.00     0.100 C 
BRANCH   9  10
ATOM     10  C   UNL     1     170.820 251.166 349.241  1.00  0.00     0.220 C 
ATOM     11  O   UNL     1     170.056 252.022 349.764  1.00  0.00    -0.275 OA
ATOM     12  N   UNL     1     170.825 250.973 347.819  1.00  0.00    -0.352 N 
ATOM     13  H   UNL     1     171.372 250.180 347.414  1.00  0.00     0.163 HD
BRANCH  12  14
ATOM     14  C   UNL     1     170.259 251.955 346.901  1.00  0.00     0.151 C 
BRANCH  14  15
ATOM     15  C   UNL     1     170.084 251.335 345.542  1.00  0.00    -0.025 A 
ATOM     16  C   UNL     1     170.733 250.131 345.231  1.00  0.00     0.056 A 
ATOM     17  C   UNL     1     169.337 251.991 344.553  1.00  0.00     0.009 A 
ATOM     18  C   UNL     1     170.623 249.567 343.944  1.00  0.00     0.160 A 
ATOM     19  C   UNL     1     169.227 251.440 343.275  1.00  0.00     0.050 A 
ATOM     20  C   UNL     1     169.863 250.234 342.966  1.00  0.00     0.157 A 
BRANCH  18  21
ATOM     21  O   UNL     1     171.254 248.360 343.606  1.00  0.00    -0.493 OA
ATOM     22  C   UNL     1     170.584 247.115 343.444  1.00  0.00     0.278 C 
ENDBRANCH  18  21
BRANCH  20  23
ATOM     23  O   UNL     1     169.733 249.715 341.678  1.00  0.00    -0.504 OA
ATOM     24  H   UNL     1     169.142 248.918 341.474  1.00  0.00     0.293 HD
ENDBRANCH  20  23
ENDBRANCH  14  15
ENDBRANCH  12  14
ENDBRANCH   9  10
ENDBRANCH   1   9
TORSDOF 10
ENDMDL
