MODEL 1
REMARK VINA RESULT:    -7.603      0.000      0.000
REMARK INTER + INTRA:         -13.711
REMARK INTER:                 -12.048
REMARK INTRA:                  -1.663
REMARK UNBOUND:                -1.663
REMARK SMILES C[C@@H]1O[C@H](O[C@@H]2[C@H](Oc3cc(O)c4c(c3)O[C@@H](c3ccc(O)cc3)CC4=O)O[C@H](CO)[C@H](O)[C@@H]2O)[C@@H](O)[C@@H](O)[C@H]1O
REMARK SMILES IDX 6 1 34 2 32 3 29 4 28 5 7 6 5 7 4 8 1 9 2 10 40 11 3 12
REMARK SMILES IDX 38 13 36 14 41 15 39 17 37 19 35 21 8 23 9 24 10 25 15 26
REMARK SMILES IDX 11 27 14 28 13 29 16 30 26 31 17 32 27 33 25 34 12 35 18 37
REMARK SMILES IDX 19 38 24 39 20 40 23 41 21 42 22 43 33 45 30 47 31 48
REMARK H PARENT 41 16 39 18 37 20 35 22 12 36 22 44 33 46 31 49
REMARK Flexibility Score: inf
ROOT
ATOM      1  C   UNL     1      23.934   6.130  57.799  1.00  0.00     0.221 C 
ATOM      2  C   UNL     1      24.257   4.610  57.856  1.00  0.00     0.181 C 
ATOM      3  C   UNL     1      25.519   4.255  57.044  1.00  0.00     0.177 C 
ATOM      4  C   UNL     1      25.620   5.102  55.736  1.00  0.00     0.179 C 
ATOM      5  O   UNL     1      25.426   6.509  55.903  1.00  0.00    -0.332 OA
ATOM      6  C   UNL     1      25.135   6.912  57.232  1.00  0.00     0.339 C 
ENDROOT
BRANCH   1   7
ATOM      7  O   UNL     1      22.813   6.372  56.956  1.00  0.00    -0.337 OA
BRANCH   7   8
ATOM      8  C   UNL     1      21.754   7.068  57.598  1.00  0.00     0.282 C 
ATOM      9  C   UNL     1      19.752   9.974  56.619  1.00  0.00     0.041 C 
ATOM     10  C   UNL     1      20.508   9.056  57.581  1.00  0.00     0.150 C 
ATOM     11  C   UNL     1      19.520   8.364  58.577  1.00  0.00     0.174 C 
ATOM     12  O   UNL     1      21.264   8.136  56.801  1.00  0.00    -0.344 OA
ATOM     13  C   UNL     1      19.274   6.899  58.151  1.00  0.00     0.179 C 
ATOM     14  C   UNL     1      20.601   6.110  57.998  1.00  0.00     0.202 C 
BRANCH  11  15
ATOM     15  O   UNL     1      20.074   8.408  59.871  1.00  0.00    -0.388 OA
ATOM     16  H   UNL     1      19.764   9.248  60.298  1.00  0.00     0.211 HD
ENDBRANCH  11  15
BRANCH  13  17
ATOM     17  O   UNL     1      18.361   6.243  58.999  1.00  0.00    -0.387 OA
ATOM     18  H   UNL     1      18.716   6.280  59.925  1.00  0.00     0.211 HD
ENDBRANCH  13  17
BRANCH  14  19
ATOM     19  O   UNL     1      20.926   5.446  59.193  1.00  0.00    -0.385 OA
ATOM     20  H   UNL     1      21.676   5.950  59.600  1.00  0.00     0.211 HD
ENDBRANCH  14  19
ENDBRANCH   7   8
ENDBRANCH   1   7
BRANCH   2  21
ATOM     21  O   UNL     1      23.165   3.845  57.396  1.00  0.00    -0.387 OA
ATOM     22  H   UNL     1      23.516   2.954  57.139  1.00  0.00     0.211 HD
ENDBRANCH   2  21
BRANCH   6  23
ATOM     23  O   UNL     1      24.814   8.301  57.241  1.00  0.00    -0.462 OA
BRANCH  23  24
ATOM     24  C   UNL     1      25.747   9.348  57.257  1.00  0.00     0.130 A 
ATOM     25  C   UNL     1      26.281   9.908  56.085  1.00  0.00     0.093 A 
ATOM     26  C   UNL     1      26.166   9.832  58.497  1.00  0.00     0.094 A 
ATOM     27  C   UNL     1      27.245  10.921  56.147  1.00  0.00     0.133 A 
ATOM     28  C   UNL     1      27.105  10.863  58.580  1.00  0.00     0.138 A 
ATOM     29  C   UNL     1      27.646  11.432  57.409  1.00  0.00     0.102 A 
ATOM     30  O   UNL     1      27.512  11.311  59.846  1.00  0.00    -0.484 OA
ATOM     31  C   UNL     1      28.615  12.541  57.589  1.00  0.00     0.174 C 
ATOM     32  C   UNL     1      28.264  12.514  60.038  1.00  0.00     0.211 C 
ATOM     33  O   UNL     1      28.840  13.381  56.678  1.00  0.00    -0.294 OA
ATOM     34  C   UNL     1      29.297  12.692  58.916  1.00  0.00     0.131 C 
BRANCH  27  35
ATOM     35  O   UNL     1      27.796  11.357  54.938  1.00  0.00    -0.507 OA
ATOM     36  H   UNL     1      27.945  12.328  54.704  1.00  0.00     0.293 HD
ENDBRANCH  27  35
BRANCH  32  37
ATOM     37  C   UNL     1      28.943  12.489  61.386  1.00  0.00    -0.007 A 
ATOM     38  C   UNL     1      30.125  11.750  61.565  1.00  0.00     0.011 A 
ATOM     39  C   UNL     1      28.373  13.151  62.489  1.00  0.00     0.011 A 
ATOM     40  C   UNL     1      30.735  11.686  62.820  1.00  0.00     0.046 A 
ATOM     41  C   UNL     1      28.986  13.084  63.744  1.00  0.00     0.046 A 
ATOM     42  C   UNL     1      30.166  12.352  63.914  1.00  0.00     0.115 A 
BRANCH  42  43
ATOM     43  O   UNL     1      30.763  12.291  65.171  1.00  0.00    -0.508 OA
ATOM     44  H   UNL     1      30.316  11.821  65.950  1.00  0.00     0.293 HD
ENDBRANCH  42  43
ENDBRANCH  32  37
ENDBRANCH  23  24
ENDBRANCH   6  23
BRANCH   3  45
ATOM     45  O   UNL     1      25.553   2.877  56.772  1.00  0.00    -0.387 OA
ATOM     46  H   UNL     1      25.297   2.762  55.819  1.00  0.00     0.211 HD
ENDBRANCH   3  45
BRANCH   4  47
ATOM     47  C   UNL     1      24.654   4.604  54.649  1.00  0.00     0.191 C 
BRANCH  47  48
ATOM     48  O   UNL     1      25.327   3.733  53.783  1.00  0.00    -0.394 OA
ATOM     49  H   UNL     1      26.252   3.654  54.138  1.00  0.00     0.210 HD
ENDBRANCH  47  48
ENDBRANCH   4  47
TORSDOF 14
ENDMDL
MODEL 2
REMARK VINA RESULT:    -7.451      2.846     10.220
REMARK INTER + INTRA:         -13.469
REMARK INTER:                 -11.345
REMARK INTRA:                  -2.124
REMARK UNBOUND:                -1.663
REMARK SMILES C[C@@H]1O[C@H](O[C@@H]2[C@H](Oc3cc(O)c4c(c3)O[C@@H](c3ccc(O)cc3)CC4=O)O[C@H](CO)[C@H](O)[C@@H]2O)[C@@H](O)[C@@H](O)[C@H]1O
REMARK SMILES IDX 6 1 34 2 32 3 29 4 28 5 7 6 5 7 4 8 1 9 2 10 40 11 3 12
REMARK SMILES IDX 38 13 36 14 41 15 39 17 37 19 35 21 8 23 9 24 10 25 15 26
REMARK SMILES IDX 11 27 14 28 13 29 16 30 26 31 17 32 27 33 25 34 12 35 18 37
REMARK SMILES IDX 19 38 24 39 20 40 23 41 21 42 22 43 33 45 30 47 31 48
REMARK H PARENT 41 16 39 18 37 20 35 22 12 36 22 44 33 46 31 49
REMARK Flexibility Score: inf
ROOT
ATOM      1  C   UNL     1      29.851  10.694  62.678  1.00  0.00     0.221 C 
ATOM      2  C   UNL     1      29.536  10.030  64.049  1.00  0.00     0.181 C 
ATOM      3  C   UNL     1      28.521  10.849  64.870  1.00  0.00     0.177 C 
ATOM      4  C   UNL     1      28.743  12.384  64.696  1.00  0.00     0.179 C 
ATOM      5  O   UNL     1      28.878  12.833  63.345  1.00  0.00    -0.332 OA
ATOM      6  C   UNL     1      28.823  11.801  62.372  1.00  0.00     0.339 C 
ENDROOT
BRANCH   1   7
ATOM      7  O   UNL     1      31.145  11.286  62.695  1.00  0.00    -0.337 OA
BRANCH   7   8
ATOM      8  C   UNL     1      32.121  10.551  61.972  1.00  0.00     0.282 C 
ATOM      9  C   UNL     1      33.958   7.473  62.724  1.00  0.00     0.041 C 
ATOM     10  C   UNL     1      33.759   8.880  62.160  1.00  0.00     0.150 C 
ATOM     11  C   UNL     1      33.821   8.864  60.596  1.00  0.00     0.174 C 
ATOM     12  O   UNL     1      32.530   9.385  62.672  1.00  0.00    -0.344 OA
ATOM     13  C   UNL     1      32.396   8.956  60.005  1.00  0.00     0.179 C 
ATOM     14  C   UNL     1      31.624  10.188  60.548  1.00  0.00     0.202 C 
BRANCH  11  15
ATOM     15  O   UNL     1      34.601   9.953  60.161  1.00  0.00    -0.388 OA
ATOM     16  H   UNL     1      34.331  10.743  60.695  1.00  0.00     0.211 HD
ENDBRANCH  11  15
BRANCH  13  17
ATOM     17  O   UNL     1      32.399   8.909  58.598  1.00  0.00    -0.387 OA
ATOM     18  H   UNL     1      31.688   9.517  58.266  1.00  0.00     0.211 HD
ENDBRANCH  13  17
BRANCH  14  19
ATOM     19  O   UNL     1      31.781  11.291  59.693  1.00  0.00    -0.385 OA
ATOM     20  H   UNL     1      31.641  12.100  60.248  1.00  0.00     0.211 HD
ENDBRANCH  14  19
ENDBRANCH   7   8
ENDBRANCH   1   7
BRANCH   2  21
ATOM     21  O   UNL     1      30.715   9.842  64.801  1.00  0.00    -0.387 OA
ATOM     22  H   UNL     1      30.628   8.976  65.275  1.00  0.00     0.211 HD
ENDBRANCH   2  21
BRANCH   6  23
ATOM     23  O   UNL     1      29.121  12.350  61.090  1.00  0.00    -0.462 OA
BRANCH  23  24
ATOM     24  C   UNL     1      28.477  12.007  59.893  1.00  0.00     0.130 A 
ATOM     25  C   UNL     1      28.812  12.585  58.657  1.00  0.00     0.093 A 
ATOM     26  C   UNL     1      27.451  11.063  59.948  1.00  0.00     0.094 A 
ATOM     27  C   UNL     1      28.112  12.248  57.492  1.00  0.00     0.133 A 
ATOM     28  C   UNL     1      26.761  10.690  58.793  1.00  0.00     0.138 A 
ATOM     29  C   UNL     1      27.090  11.265  57.548  1.00  0.00     0.102 A 
ATOM     30  O   UNL     1      25.724   9.750  58.894  1.00  0.00    -0.484 OA
ATOM     31  C   UNL     1      26.326  10.791  56.368  1.00  0.00     0.174 C 
ATOM     32  C   UNL     1      25.135   9.120  57.752  1.00  0.00     0.211 C 
ATOM     33  O   UNL     1      26.778  10.895  55.197  1.00  0.00    -0.294 OA
ATOM     34  C   UNL     1      25.005  10.116  56.591  1.00  0.00     0.131 C 
BRANCH  27  35
ATOM     35  O   UNL     1      28.442  12.939  56.322  1.00  0.00    -0.507 OA
ATOM     36  H   UNL     1      29.285  13.482  56.207  1.00  0.00     0.293 HD
ENDBRANCH  27  35
BRANCH  32  37
ATOM     37  C   UNL     1      23.786   8.549  58.116  1.00  0.00    -0.007 A 
ATOM     38  C   UNL     1      22.759   8.505  57.157  1.00  0.00     0.011 A 
ATOM     39  C   UNL     1      23.521   8.112  59.427  1.00  0.00     0.011 A 
ATOM     40  C   UNL     1      21.494   8.019  57.498  1.00  0.00     0.046 A 
ATOM     41  C   UNL     1      22.254   7.627  59.765  1.00  0.00     0.046 A 
ATOM     42  C   UNL     1      21.237   7.580  58.804  1.00  0.00     0.115 A 
BRANCH  42  43
ATOM     43  O   UNL     1      19.979   7.097  59.156  1.00  0.00    -0.508 OA
ATOM     44  H   UNL     1      19.162   7.276  58.583  1.00  0.00     0.293 HD
ENDBRANCH  42  43
ENDBRANCH  32  37
ENDBRANCH  23  24
ENDBRANCH   6  23
BRANCH   3  45
ATOM     45  O   UNL     1      28.567  10.468  66.222  1.00  0.00    -0.387 OA
ATOM     46  H   UNL     1      28.100  11.177  66.739  1.00  0.00     0.211 HD
ENDBRANCH   3  45
BRANCH   4  47
ATOM     47  C   UNL     1      29.953  12.887  65.498  1.00  0.00     0.191 C 
BRANCH  47  48
ATOM     48  O   UNL     1      29.661  12.852  66.867  1.00  0.00    -0.394 OA
ATOM     49  H   UNL     1      29.596  13.800  67.159  1.00  0.00     0.210 HD
ENDBRANCH  47  48
ENDBRANCH   4  47
TORSDOF 14
ENDMDL
MODEL 3
REMARK VINA RESULT:    -7.216      4.165      8.003
REMARK INTER + INTRA:         -13.098
REMARK INTER:                 -11.154
REMARK INTRA:                  -1.943
REMARK UNBOUND:                -1.663
REMARK SMILES C[C@@H]1O[C@H](O[C@@H]2[C@H](Oc3cc(O)c4c(c3)O[C@@H](c3ccc(O)cc3)CC4=O)O[C@H](CO)[C@H](O)[C@@H]2O)[C@@H](O)[C@@H](O)[C@H]1O
REMARK SMILES IDX 6 1 34 2 32 3 29 4 28 5 7 6 5 7 4 8 1 9 2 10 40 11 3 12
REMARK SMILES IDX 38 13 36 14 41 15 39 17 37 19 35 21 8 23 9 24 10 25 15 26
REMARK SMILES IDX 11 27 14 28 13 29 16 30 26 31 17 32 27 33 25 34 12 35 18 37
REMARK SMILES IDX 19 38 24 39 20 40 23 41 21 42 22 43 33 45 30 47 31 48
REMARK H PARENT 41 16 39 18 37 20 35 22 12 36 22 44 33 46 31 49
REMARK Flexibility Score: inf
ROOT
ATOM      1  C   UNL     1      28.001  10.325  58.049  1.00  0.00     0.221 C 
ATOM      2  C   UNL     1      27.630  11.051  56.724  1.00  0.00     0.181 C 
ATOM      3  C   UNL     1      26.196  11.615  56.754  1.00  0.00     0.177 C 
ATOM      4  C   UNL     1      25.217  10.663  57.508  1.00  0.00     0.179 C 
ATOM      5  O   UNL     1      25.674  10.200  58.782  1.00  0.00    -0.332 OA
ATOM      6  C   UNL     1      26.968  10.654  59.146  1.00  0.00     0.339 C 
ENDROOT
BRANCH   1   7
ATOM      7  O   UNL     1      28.010   8.914  57.861  1.00  0.00    -0.337 OA
BRANCH   7   8
ATOM      8  C   UNL     1      29.311   8.345  57.858  1.00  0.00     0.282 C 
ATOM      9  C   UNL     1      31.496   7.150  60.544  1.00  0.00     0.041 C 
ATOM     10  C   UNL     1      31.154   7.823  59.213  1.00  0.00     0.150 C 
ATOM     11  C   UNL     1      31.711   6.988  58.012  1.00  0.00     0.174 C 
ATOM     12  O   UNL     1      29.743   8.008  59.168  1.00  0.00    -0.344 OA
ATOM     13  C   UNL     1      30.569   6.193  57.341  1.00  0.00     0.179 C 
ATOM     14  C   UNL     1      29.393   7.113  56.920  1.00  0.00     0.202 C 
BRANCH  11  15
ATOM     15  O   UNL     1      32.304   7.866  57.084  1.00  0.00    -0.388 OA
ATOM     16  H   UNL     1      33.215   8.077  57.415  1.00  0.00     0.211 HD
ENDBRANCH  11  15
BRANCH  13  17
ATOM     17  O   UNL     1      31.029   5.396  56.274  1.00  0.00    -0.387 OA
ATOM     18  H   UNL     1      30.291   5.301  55.618  1.00  0.00     0.211 HD
ENDBRANCH  13  17
BRANCH  14  19
ATOM     19  O   UNL     1      29.544   7.537  55.589  1.00  0.00    -0.385 OA
ATOM     20  H   UNL     1      30.409   7.169  55.272  1.00  0.00     0.211 HD
ENDBRANCH  14  19
ENDBRANCH   7   8
ENDBRANCH   1   7
BRANCH   2  21
ATOM     21  O   UNL     1      27.779  10.187  55.619  1.00  0.00    -0.387 OA
ATOM     22  H   UNL     1      27.125  10.474  54.930  1.00  0.00     0.211 HD
ENDBRANCH   2  21
BRANCH   6  23
ATOM     23  O   UNL     1      27.370  10.008  60.352  1.00  0.00    -0.462 OA
BRANCH  23  24
ATOM     24  C   UNL     1      27.696  10.659  61.550  1.00  0.00     0.130 A 
ATOM     25  C   UNL     1      28.371  11.890  61.587  1.00  0.00     0.093 A 
ATOM     26  C   UNL     1      27.343  10.038  62.749  1.00  0.00     0.094 A 
ATOM     27  C   UNL     1      28.718  12.483  62.807  1.00  0.00     0.133 A 
ATOM     28  C   UNL     1      27.653  10.627  63.976  1.00  0.00     0.138 A 
ATOM     29  C   UNL     1      28.331  11.864  64.024  1.00  0.00     0.102 A 
ATOM     30  O   UNL     1      27.296   9.963  65.159  1.00  0.00    -0.484 OA
ATOM     31  C   UNL     1      28.595  12.432  65.368  1.00  0.00     0.174 C 
ATOM     32  C   UNL     1      27.339  10.592  66.444  1.00  0.00     0.211 C 
ATOM     33  O   UNL     1      28.797  13.663  65.542  1.00  0.00    -0.294 OA
ATOM     34  C   UNL     1      28.559  11.516  66.555  1.00  0.00     0.131 C 
BRANCH  27  35
ATOM     35  O   UNL     1      29.474  13.658  62.757  1.00  0.00    -0.507 OA
ATOM     36  H   UNL     1      29.425  14.389  63.451  1.00  0.00     0.293 HD
ENDBRANCH  27  35
BRANCH  32  37
ATOM     37  C   UNL     1      27.365   9.544  67.531  1.00  0.00    -0.007 A 
ATOM     38  C   UNL     1      28.188   8.412  67.398  1.00  0.00     0.011 A 
ATOM     39  C   UNL     1      26.526   9.655  68.655  1.00  0.00     0.011 A 
ATOM     40  C   UNL     1      28.185   7.417  68.378  1.00  0.00     0.046 A 
ATOM     41  C   UNL     1      26.524   8.655  69.634  1.00  0.00     0.046 A 
ATOM     42  C   UNL     1      27.351   7.535  69.498  1.00  0.00     0.115 A 
BRANCH  42  43
ATOM     43  O   UNL     1      27.337   6.546  70.479  1.00  0.00    -0.508 OA
ATOM     44  H   UNL     1      26.671   6.566  71.244  1.00  0.00     0.293 HD
ENDBRANCH  42  43
ENDBRANCH  32  37
ENDBRANCH  23  24
ENDBRANCH   6  23
BRANCH   3  45
ATOM     45  O   UNL     1      25.752  11.888  55.449  1.00  0.00    -0.387 OA
ATOM     46  H   UNL     1      26.395  12.532  55.052  1.00  0.00     0.211 HD
ENDBRANCH   3  45
BRANCH   4  47
ATOM     47  C   UNL     1      24.829   9.442  56.658  1.00  0.00     0.191 C 
BRANCH  47  48
ATOM     48  O   UNL     1      25.208   8.267  57.319  1.00  0.00    -0.394 OA
ATOM     49  H   UNL     1      24.720   8.271  58.186  1.00  0.00     0.210 HD
ENDBRANCH  47  48
ENDBRANCH   4  47
TORSDOF 14
ENDMDL
MODEL 4
REMARK VINA RESULT:    -7.187      3.621      6.388
REMARK INTER + INTRA:         -13.052
REMARK INTER:                 -12.158
REMARK INTRA:                  -0.893
REMARK UNBOUND:                -1.663
REMARK SMILES C[C@@H]1O[C@H](O[C@@H]2[C@H](Oc3cc(O)c4c(c3)O[C@@H](c3ccc(O)cc3)CC4=O)O[C@H](CO)[C@H](O)[C@@H]2O)[C@@H](O)[C@@H](O)[C@H]1O
REMARK SMILES IDX 6 1 34 2 32 3 29 4 28 5 7 6 5 7 4 8 1 9 2 10 40 11 3 12
REMARK SMILES IDX 38 13 36 14 41 15 39 17 37 19 35 21 8 23 9 24 10 25 15 26
REMARK SMILES IDX 11 27 14 28 13 29 16 30 26 31 17 32 27 33 25 34 12 35 18 37
REMARK SMILES IDX 19 38 24 39 20 40 23 41 21 42 22 43 33 45 30 47 31 48
REMARK H PARENT 41 16 39 18 37 20 35 22 12 36 22 44 33 46 31 49
REMARK Flexibility Score: inf
ROOT
ATOM      1  C   UNL     1      26.272   8.765  58.867  1.00  0.00     0.221 C 
ATOM      2  C   UNL     1      26.887   8.663  57.442  1.00  0.00     0.181 C 
ATOM      3  C   UNL     1      27.545   9.985  56.999  1.00  0.00     0.177 C 
ATOM      4  C   UNL     1      26.738  11.226  57.494  1.00  0.00     0.179 C 
ATOM      5  O   UNL     1      26.373  11.206  58.877  1.00  0.00    -0.332 OA
ATOM      6  C   UNL     1      26.774  10.038  59.577  1.00  0.00     0.339 C 
ENDROOT
BRANCH   1   7
ATOM      7  O   UNL     1      24.852   8.832  58.796  1.00  0.00    -0.337 OA
BRANCH   7   8
ATOM      8  C   UNL     1      24.235   7.589  58.494  1.00  0.00     0.282 C 
ATOM      9  C   UNL     1      25.085   4.131  59.353  1.00  0.00     0.041 C 
ATOM     10  C   UNL     1      24.565   5.266  58.468  1.00  0.00     0.150 C 
ATOM     11  C   UNL     1      23.026   5.120  58.228  1.00  0.00     0.174 C 
ATOM     12  O   UNL     1      24.929   6.498  59.081  1.00  0.00    -0.344 OA
ATOM     13  C   UNL     1      22.251   6.119  59.117  1.00  0.00     0.179 C 
ATOM     14  C   UNL     1      22.741   7.576  58.912  1.00  0.00     0.202 C 
BRANCH  11  15
ATOM     15  O   UNL     1      22.753   5.365  56.868  1.00  0.00    -0.388 OA
ATOM     16  H   UNL     1      21.937   5.926  56.826  1.00  0.00     0.211 HD
ENDBRANCH  11  15
BRANCH  13  17
ATOM     17  O   UNL     1      20.856   6.000  58.961  1.00  0.00    -0.387 OA
ATOM     18  H   UNL     1      20.430   6.184  59.838  1.00  0.00     0.211 HD
ENDBRANCH  13  17
BRANCH  14  19
ATOM     19  O   UNL     1      21.968   8.229  57.937  1.00  0.00    -0.385 OA
ATOM     20  H   UNL     1      22.606   8.609  57.279  1.00  0.00     0.211 HD
ENDBRANCH  14  19
ENDBRANCH   7   8
ENDBRANCH   1   7
BRANCH   2  21
ATOM     21  O   UNL     1      25.911   8.279  56.499  1.00  0.00    -0.387 OA
ATOM     22  H   UNL     1      25.134   8.884  56.615  1.00  0.00     0.211 HD
ENDBRANCH   2  21
BRANCH   6  23
ATOM     23  O   UNL     1      26.225  10.067  60.892  1.00  0.00    -0.462 OA
BRANCH  23  24
ATOM     24  C   UNL     1      26.827  10.665  62.008  1.00  0.00     0.130 A 
ATOM     25  C   UNL     1      27.709  11.754  61.905  1.00  0.00     0.093 A 
ATOM     26  C   UNL     1      26.544  10.135  63.268  1.00  0.00     0.094 A 
ATOM     27  C   UNL     1      28.324  12.291  63.041  1.00  0.00     0.133 A 
ATOM     28  C   UNL     1      27.124  10.675  64.417  1.00  0.00     0.138 A 
ATOM     29  C   UNL     1      28.009  11.769  64.323  1.00  0.00     0.102 A 
ATOM     30  O   UNL     1      26.825  10.103  65.663  1.00  0.00    -0.484 OA
ATOM     31  C   UNL     1      28.557  12.298  65.596  1.00  0.00     0.174 C 
ATOM     32  C   UNL     1      27.160  10.731  66.905  1.00  0.00     0.211 C 
ATOM     33  O   UNL     1      28.997  13.475  65.692  1.00  0.00    -0.294 OA
ATOM     34  C   UNL     1      28.529  11.421  66.812  1.00  0.00     0.131 C 
BRANCH  27  35
ATOM     35  O   UNL     1      29.261  13.310  62.843  1.00  0.00    -0.507 OA
ATOM     36  H   UNL     1      29.181  14.018  62.128  1.00  0.00     0.293 HD
ENDBRANCH  27  35
BRANCH  32  37
ATOM     37  C   UNL     1      27.154   9.711  68.018  1.00  0.00    -0.007 A 
ATOM     38  C   UNL     1      26.359   9.919  69.158  1.00  0.00     0.011 A 
ATOM     39  C   UNL     1      27.985   8.577  67.957  1.00  0.00     0.011 A 
ATOM     40  C   UNL     1      26.381   9.003  70.212  1.00  0.00     0.046 A 
ATOM     41  C   UNL     1      28.005   7.662  69.015  1.00  0.00     0.046 A 
ATOM     42  C   UNL     1      27.206   7.872  70.144  1.00  0.00     0.115 A 
BRANCH  42  43
ATOM     43  O   UNL     1      27.239   6.953  71.191  1.00  0.00    -0.508 OA
ATOM     44  H   UNL     1      26.549   6.215  71.272  1.00  0.00     0.293 HD
ENDBRANCH  42  43
ENDBRANCH  32  37
ENDBRANCH  23  24
ENDBRANCH   6  23
BRANCH   3  45
ATOM     45  O   UNL     1      27.716  10.002  55.604  1.00  0.00    -0.387 OA
ATOM     46  H   UNL     1      27.852  10.949  55.340  1.00  0.00     0.211 HD
ENDBRANCH   3  45
BRANCH   4  47
ATOM     47  C   UNL     1      25.467  11.459  56.661  1.00  0.00     0.191 C 
BRANCH  47  48
ATOM     48  O   UNL     1      25.785  12.193  55.511  1.00  0.00    -0.394 OA
ATOM     49  H   UNL     1      25.701  11.559  54.750  1.00  0.00     0.210 HD
ENDBRANCH  47  48
ENDBRANCH   4  47
TORSDOF 14
ENDMDL
MODEL 5
REMARK VINA RESULT:    -7.179      2.677      4.615
REMARK INTER + INTRA:         -13.038
REMARK INTER:                 -10.439
REMARK INTRA:                  -2.599
REMARK UNBOUND:                -1.663
REMARK SMILES C[C@@H]1O[C@H](O[C@@H]2[C@H](Oc3cc(O)c4c(c3)O[C@@H](c3ccc(O)cc3)CC4=O)O[C@H](CO)[C@H](O)[C@@H]2O)[C@@H](O)[C@@H](O)[C@H]1O
REMARK SMILES IDX 6 1 34 2 32 3 29 4 28 5 7 6 5 7 4 8 1 9 2 10 40 11 3 12
REMARK SMILES IDX 38 13 36 14 41 15 39 17 37 19 35 21 8 23 9 24 10 25 15 26
REMARK SMILES IDX 11 27 14 28 13 29 16 30 26 31 17 32 27 33 25 34 12 35 18 37
REMARK SMILES IDX 19 38 24 39 20 40 23 41 21 42 22 43 33 45 30 47 31 48
REMARK H PARENT 41 16 39 18 37 20 35 22 12 36 22 44 33 46 31 49
REMARK Flexibility Score: inf
ROOT
ATOM      1  C   UNL     1      25.890   5.532  56.341  1.00  0.00     0.221 C 
ATOM      2  C   UNL     1      26.027   4.509  55.177  1.00  0.00     0.181 C 
ATOM      3  C   UNL     1      24.674   4.214  54.501  1.00  0.00     0.177 C 
ATOM      4  C   UNL     1      23.507   4.178  55.538  1.00  0.00     0.179 C 
ATOM      5  O   UNL     1      23.463   5.281  56.448  1.00  0.00    -0.332 OA
ATOM      6  C   UNL     1      24.513   6.222  56.286  1.00  0.00     0.339 C 
ENDROOT
BRANCH   1   7
ATOM      7  O   UNL     1      26.006   4.878  57.599  1.00  0.00    -0.337 OA
BRANCH   7   8
ATOM      8  C   UNL     1      27.129   5.297  58.361  1.00  0.00     0.282 C 
ATOM      9  C   UNL     1      29.621   7.932  57.851  1.00  0.00     0.041 C 
ATOM     10  C   UNL     1      29.106   6.558  58.286  1.00  0.00     0.150 C 
ATOM     11  C   UNL     1      29.179   6.407  59.841  1.00  0.00     0.174 C 
ATOM     12  O   UNL     1      27.792   6.401  57.762  1.00  0.00    -0.344 OA
ATOM     13  C   UNL     1      27.774   6.586  60.460  1.00  0.00     0.179 C 
ATOM     14  C   UNL     1      26.736   5.623  59.826  1.00  0.00     0.202 C 
BRANCH  11  15
ATOM     15  O   UNL     1      29.689   5.132  60.151  1.00  0.00    -0.388 OA
ATOM     16  H   UNL     1      30.316   5.240  60.912  1.00  0.00     0.211 HD
ENDBRANCH  11  15
BRANCH  13  17
ATOM     17  O   UNL     1      27.795   6.493  61.866  1.00  0.00    -0.387 OA
ATOM     18  H   UNL     1      26.864   6.355  62.181  1.00  0.00     0.211 HD
ENDBRANCH  13  17
BRANCH  14  19
ATOM     19  O   UNL     1      26.640   4.434  60.569  1.00  0.00    -0.385 OA
ATOM     20  H   UNL     1      25.876   4.551  61.190  1.00  0.00     0.211 HD
ENDBRANCH  14  19
ENDBRANCH   7   8
ENDBRANCH   1   7
BRANCH   2  21
ATOM     21  O   UNL     1      26.604   3.304  55.632  1.00  0.00    -0.387 OA
ATOM     22  H   UNL     1      26.668   3.362  56.620  1.00  0.00     0.211 HD
ENDBRANCH   2  21
BRANCH   6  23
ATOM     23  O   UNL     1      24.447   7.182  57.338  1.00  0.00    -0.462 OA
BRANCH  23  24
ATOM     24  C   UNL     1      25.245   8.330  57.438  1.00  0.00     0.130 A 
ATOM     25  C   UNL     1      25.893   8.904  56.332  1.00  0.00     0.093 A 
ATOM     26  C   UNL     1      25.409   8.906  58.699  1.00  0.00     0.094 A 
ATOM     27  C   UNL     1      26.718  10.025  56.484  1.00  0.00     0.133 A 
ATOM     28  C   UNL     1      26.204  10.042  58.867  1.00  0.00     0.138 A 
ATOM     29  C   UNL     1      26.858  10.626  57.762  1.00  0.00     0.102 A 
ATOM     30  O   UNL     1      26.356  10.580  60.154  1.00  0.00    -0.484 OA
ATOM     31  C   UNL     1      27.659  11.846  58.026  1.00  0.00     0.174 C 
ATOM     32  C   UNL     1      26.932  11.869  60.391  1.00  0.00     0.211 C 
ATOM     33  O   UNL     1      27.931  12.672  57.115  1.00  0.00    -0.294 OA
ATOM     34  C   UNL     1      28.103  12.125  59.431  1.00  0.00     0.131 C 
BRANCH  27  35
ATOM     35  O   UNL     1      27.402  10.477  55.351  1.00  0.00    -0.507 OA
ATOM     36  H   UNL     1      26.950  10.883  54.545  1.00  0.00     0.293 HD
ENDBRANCH  27  35
BRANCH  32  37
ATOM     37  C   UNL     1      27.389  11.974  61.826  1.00  0.00    -0.007 A 
ATOM     38  C   UNL     1      28.229  13.030  62.221  1.00  0.00     0.011 A 
ATOM     39  C   UNL     1      27.034  10.990  62.766  1.00  0.00     0.011 A 
ATOM     40  C   UNL     1      28.692  13.110  63.537  1.00  0.00     0.046 A 
ATOM     41  C   UNL     1      27.500  11.073  64.082  1.00  0.00     0.046 A 
ATOM     42  C   UNL     1      28.331  12.130  64.471  1.00  0.00     0.115 A 
BRANCH  42  43
ATOM     43  O   UNL     1      28.790  12.197  65.784  1.00  0.00    -0.508 OA
ATOM     44  H   UNL     1      28.721  11.404  66.413  1.00  0.00     0.293 HD
ENDBRANCH  42  43
ENDBRANCH  32  37
ENDBRANCH  23  24
ENDBRANCH   6  23
BRANCH   3  45
ATOM     45  O   UNL     1      24.747   3.022  53.761  1.00  0.00    -0.387 OA
ATOM     46  H   UNL     1      24.055   3.079  53.051  1.00  0.00     0.211 HD
ENDBRANCH   3  45
BRANCH   4  47
ATOM     47  C   UNL     1      23.500   2.875  56.354  1.00  0.00     0.191 C 
BRANCH  47  48
ATOM     48  O   UNL     1      23.581   3.173  57.720  1.00  0.00    -0.394 OA
ATOM     49  H   UNL     1      22.912   2.590  58.167  1.00  0.00     0.210 HD
ENDBRANCH  47  48
ENDBRANCH   4  47
TORSDOF 14
ENDMDL
MODEL 6
REMARK VINA RESULT:    -7.178      4.502     11.199
REMARK INTER + INTRA:         -13.036
REMARK INTER:                 -11.062
REMARK INTRA:                  -1.975
REMARK UNBOUND:                -1.663
REMARK SMILES C[C@@H]1O[C@H](O[C@@H]2[C@H](Oc3cc(O)c4c(c3)O[C@@H](c3ccc(O)cc3)CC4=O)O[C@H](CO)[C@H](O)[C@@H]2O)[C@@H](O)[C@@H](O)[C@H]1O
REMARK SMILES IDX 6 1 34 2 32 3 29 4 28 5 7 6 5 7 4 8 1 9 2 10 40 11 3 12
REMARK SMILES IDX 38 13 36 14 41 15 39 17 37 19 35 21 8 23 9 24 10 25 15 26
REMARK SMILES IDX 11 27 14 28 13 29 16 30 26 31 17 32 27 33 25 34 12 35 18 37
REMARK SMILES IDX 19 38 24 39 20 40 23 41 21 42 22 43 33 45 30 47 31 48
REMARK H PARENT 41 16 39 18 37 20 35 22 12 36 22 44 33 46 31 49
REMARK Flexibility Score: inf
ROOT
ATOM      1  C   UNL     1      29.532  10.985  68.035  1.00  0.00     0.221 C 
ATOM      2  C   UNL     1      30.768  11.291  68.929  1.00  0.00     0.181 C 
ATOM      3  C   UNL     1      31.871  12.041  68.156  1.00  0.00     0.177 C 
ATOM      4  C   UNL     1      31.986  11.538  66.683  1.00  0.00     0.179 C 
ATOM      5  O   UNL     1      30.750  11.449  65.969  1.00  0.00    -0.332 OA
ATOM      6  C   UNL     1      29.603  11.799  66.728  1.00  0.00     0.339 C 
ENDROOT
BRANCH   1   7
ATOM      7  O   UNL     1      29.492   9.604  67.692  1.00  0.00    -0.337 OA
BRANCH   7   8
ATOM      8  C   UNL     1      28.558   8.852  68.453  1.00  0.00     0.282 C 
ATOM      9  C   UNL     1      28.916   6.744  71.427  1.00  0.00     0.041 C 
ATOM     10  C   UNL     1      28.353   7.161  70.067  1.00  0.00     0.150 C 
ATOM     11  C   UNL     1      26.845   7.559  70.191  1.00  0.00     0.174 C 
ATOM     12  O   UNL     1      29.174   8.206  69.557  1.00  0.00    -0.344 OA
ATOM     13  C   UNL     1      26.697   9.098  70.174  1.00  0.00     0.179 C 
ATOM     14  C   UNL     1      27.369   9.729  68.927  1.00  0.00     0.202 C 
BRANCH  11  15
ATOM     15  O   UNL     1      26.134   6.989  69.117  1.00  0.00    -0.388 OA
ATOM     16  H   UNL     1      25.505   6.324  69.498  1.00  0.00     0.211 HD
ENDBRANCH  11  15
BRANCH  13  17
ATOM     17  O   UNL     1      25.356   9.506  70.319  1.00  0.00    -0.387 OA
ATOM     18  H   UNL     1      25.327  10.496  70.270  1.00  0.00     0.211 HD
ENDBRANCH  13  17
BRANCH  14  19
ATOM     19  O   UNL     1      26.441   9.877  67.882  1.00  0.00    -0.385 OA
ATOM     20  H   UNL     1      25.565   9.580  68.238  1.00  0.00     0.211 HD
ENDBRANCH  14  19
ENDBRANCH   7   8
ENDBRANCH   1   7
BRANCH   2  21
ATOM     21  O   UNL     1      31.296  10.105  69.481  1.00  0.00    -0.387 OA
ATOM     22  H   UNL     1      30.844   9.344  69.033  1.00  0.00     0.211 HD
ENDBRANCH   2  21
BRANCH   6  23
ATOM     23  O   UNL     1      28.432  11.525  65.962  1.00  0.00    -0.462 OA
BRANCH  23  24
ATOM     24  C   UNL     1      28.294  11.750  64.585  1.00  0.00     0.130 A 
ATOM     25  C   UNL     1      28.786  12.902  63.949  1.00  0.00     0.093 A 
ATOM     26  C   UNL     1      27.620  10.789  63.829  1.00  0.00     0.094 A 
ATOM     27  C   UNL     1      28.586  13.109  62.580  1.00  0.00     0.133 A 
ATOM     28  C   UNL     1      27.436  10.962  62.455  1.00  0.00     0.138 A 
ATOM     29  C   UNL     1      27.928  12.115  61.808  1.00  0.00     0.102 A 
ATOM     30  O   UNL     1      26.740   9.980  61.734  1.00  0.00    -0.484 OA
ATOM     31  C   UNL     1      27.713  12.204  60.344  1.00  0.00     0.174 C 
ATOM     32  C   UNL     1      26.719   9.939  60.304  1.00  0.00     0.211 C 
ATOM     33  O   UNL     1      28.433  12.931  59.609  1.00  0.00    -0.294 OA
ATOM     34  C   UNL     1      26.644  11.357  59.721  1.00  0.00     0.131 C 
BRANCH  27  35
ATOM     35  O   UNL     1      29.022  14.324  62.043  1.00  0.00    -0.507 OA
ATOM     36  H   UNL     1      29.601  14.401  61.220  1.00  0.00     0.293 HD
ENDBRANCH  27  35
BRANCH  32  37
ATOM     37  C   UNL     1      25.553   9.106  59.828  1.00  0.00    -0.007 A 
ATOM     38  C   UNL     1      25.037   9.292  58.534  1.00  0.00     0.011 A 
ATOM     39  C   UNL     1      24.932   8.182  60.689  1.00  0.00     0.011 A 
ATOM     40  C   UNL     1      23.930   8.557  58.102  1.00  0.00     0.046 A 
ATOM     41  C   UNL     1      23.824   7.449  60.253  1.00  0.00     0.046 A 
ATOM     42  C   UNL     1      23.319   7.634  58.961  1.00  0.00     0.115 A 
BRANCH  42  43
ATOM     43  O   UNL     1      22.213   6.899  58.543  1.00  0.00    -0.508 OA
ATOM     44  H   UNL     1      21.665   6.346  59.192  1.00  0.00     0.293 HD
ENDBRANCH  42  43
ENDBRANCH  32  37
ENDBRANCH  23  24
ENDBRANCH   6  23
BRANCH   3  45
ATOM     45  O   UNL     1      33.097  11.940  68.835  1.00  0.00    -0.387 OA
ATOM     46  H   UNL     1      33.038  12.533  69.630  1.00  0.00     0.211 HD
ENDBRANCH   3  45
BRANCH   4  47
ATOM     47  C   UNL     1      32.700  10.180  66.590  1.00  0.00     0.191 C 
BRANCH  47  48
ATOM     48  O   UNL     1      31.854   9.242  65.986  1.00  0.00    -0.394 OA
ATOM     49  H   UNL     1      32.369   8.854  65.230  1.00  0.00     0.210 HD
ENDBRANCH  47  48
ENDBRANCH   4  47
TORSDOF 14
ENDMDL
MODEL 7
REMARK VINA RESULT:    -7.174      6.178     11.587
REMARK INTER + INTRA:         -13.031
REMARK INTER:                 -11.060
REMARK INTRA:                  -1.971
REMARK UNBOUND:                -1.663
REMARK SMILES C[C@@H]1O[C@H](O[C@@H]2[C@H](Oc3cc(O)c4c(c3)O[C@@H](c3ccc(O)cc3)CC4=O)O[C@H](CO)[C@H](O)[C@@H]2O)[C@@H](O)[C@@H](O)[C@H]1O
REMARK SMILES IDX 6 1 34 2 32 3 29 4 28 5 7 6 5 7 4 8 1 9 2 10 40 11 3 12
REMARK SMILES IDX 38 13 36 14 41 15 39 17 37 19 35 21 8 23 9 24 10 25 15 26
REMARK SMILES IDX 11 27 14 28 13 29 16 30 26 31 17 32 27 33 25 34 12 35 18 37
REMARK SMILES IDX 19 38 24 39 20 40 23 41 21 42 22 43 33 45 30 47 31 48
REMARK H PARENT 41 16 39 18 37 20 35 22 12 36 22 44 33 46 31 49
REMARK Flexibility Score: inf
ROOT
ATOM      1  C   UNL     1      26.901   8.532  69.183  1.00  0.00     0.221 C 
ATOM      2  C   UNL     1      26.087   8.832  70.474  1.00  0.00     0.181 C 
ATOM      3  C   UNL     1      26.029  10.341  70.784  1.00  0.00     0.177 C 
ATOM      4  C   UNL     1      27.374  11.053  70.438  1.00  0.00     0.179 C 
ATOM      5  O   UNL     1      27.907  10.758  69.144  1.00  0.00    -0.332 OA
ATOM      6  C   UNL     1      27.142   9.831  68.388  1.00  0.00     0.339 C 
ENDROOT
BRANCH   1   7
ATOM      7  O   UNL     1      28.169   7.973  69.509  1.00  0.00    -0.337 OA
BRANCH   7   8
ATOM      8  C   UNL     1      28.266   6.582  69.243  1.00  0.00     0.282 C 
ATOM      9  C   UNL     1      27.983   3.627  71.389  1.00  0.00     0.041 C 
ATOM     10  C   UNL     1      28.536   4.476  70.243  1.00  0.00     0.150 C 
ATOM     11  C   UNL     1      28.161   3.849  68.859  1.00  0.00     0.174 C 
ATOM     12  O   UNL     1      28.053   5.804  70.412  1.00  0.00    -0.344 OA
ATOM     13  C   UNL     1      26.991   4.630  68.220  1.00  0.00     0.179 C 
ATOM     14  C   UNL     1      27.298   6.146  68.112  1.00  0.00     0.202 C 
BRANCH  11  15
ATOM     15  O   UNL     1      29.291   3.891  68.020  1.00  0.00    -0.388 OA
ATOM     16  H   UNL     1      29.549   2.954  67.822  1.00  0.00     0.211 HD
ENDBRANCH  11  15
BRANCH  13  17
ATOM     17  O   UNL     1      26.594   4.079  66.986  1.00  0.00    -0.387 OA
ATOM     18  H   UNL     1      27.256   4.349  66.298  1.00  0.00     0.211 HD
ENDBRANCH  13  17
BRANCH  14  19
ATOM     19  O   UNL     1      27.859   6.454  66.861  1.00  0.00    -0.385 OA
ATOM     20  H   UNL     1      28.209   7.379  66.929  1.00  0.00     0.211 HD
ENDBRANCH  14  19
ENDBRANCH   7   8
ENDBRANCH   1   7
BRANCH   2  21
ATOM     21  O   UNL     1      26.622   8.139  71.579  1.00  0.00    -0.387 OA
ATOM     22  H   UNL     1      27.237   8.761  72.048  1.00  0.00     0.211 HD
ENDBRANCH   2  21
BRANCH   6  23
ATOM     23  O   UNL     1      27.849   9.504  67.194  1.00  0.00    -0.462 OA
BRANCH  23  24
ATOM     24  C   UNL     1      28.022  10.358  66.095  1.00  0.00     0.130 A 
ATOM     25  C   UNL     1      28.562  11.649  66.213  1.00  0.00     0.093 A 
ATOM     26  C   UNL     1      27.618   9.899  64.840  1.00  0.00     0.094 A 
ATOM     27  C   UNL     1      28.674  12.486  65.097  1.00  0.00     0.133 A 
ATOM     28  C   UNL     1      27.749  10.708  63.709  1.00  0.00     0.138 A 
ATOM     29  C   UNL     1      28.292  12.005  63.818  1.00  0.00     0.102 A 
ATOM     30  O   UNL     1      27.317  10.216  62.468  1.00  0.00    -0.484 OA
ATOM     31  C   UNL     1      28.421  12.785  62.562  1.00  0.00     0.174 C 
ATOM     32  C   UNL     1      27.636  10.855  61.228  1.00  0.00     0.211 C 
ATOM     33  O   UNL     1      29.237  13.737  62.452  1.00  0.00    -0.294 OA
ATOM     34  C   UNL     1      27.594  12.382  61.377  1.00  0.00     0.131 C 
BRANCH  27  35
ATOM     35  O   UNL     1      29.133  13.789  65.315  1.00  0.00    -0.507 OA
ATOM     36  H   UNL     1      28.640  14.475  65.869  1.00  0.00     0.293 HD
ENDBRANCH  27  35
BRANCH  32  37
ATOM     37  C   UNL     1      26.680  10.400  60.152  1.00  0.00    -0.007 A 
ATOM     38  C   UNL     1      25.967   9.198  60.306  1.00  0.00     0.011 A 
ATOM     39  C   UNL     1      26.536  11.136  58.961  1.00  0.00     0.011 A 
ATOM     40  C   UNL     1      25.114   8.747  59.295  1.00  0.00     0.046 A 
ATOM     41  C   UNL     1      25.681  10.681  57.951  1.00  0.00     0.046 A 
ATOM     42  C   UNL     1      24.970   9.487  58.114  1.00  0.00     0.115 A 
BRANCH  42  43
ATOM     43  O   UNL     1      24.126   9.046  57.098  1.00  0.00    -0.508 OA
ATOM     44  H   UNL     1      24.476   8.831  56.172  1.00  0.00     0.293 HD
ENDBRANCH  42  43
ENDBRANCH  32  37
ENDBRANCH  23  24
ENDBRANCH   6  23
BRANCH   3  45
ATOM     45  O   UNL     1      25.662  10.549  72.125  1.00  0.00    -0.387 OA
ATOM     46  H   UNL     1      25.299   9.689  72.463  1.00  0.00     0.211 HD
ENDBRANCH   3  45
BRANCH   4  47
ATOM     47  C   UNL     1      28.462  10.774  71.487  1.00  0.00     0.191 C 
BRANCH  47  48
ATOM     48  O   UNL     1      29.558  10.153  70.876  1.00  0.00    -0.394 OA
ATOM     49  H   UNL     1      29.383   9.175  70.928  1.00  0.00     0.210 HD
ENDBRANCH  47  48
ENDBRANCH   4  47
TORSDOF 14
ENDMDL
MODEL 8
REMARK VINA RESULT:    -7.146      3.808      6.790
REMARK INTER + INTRA:         -12.985
REMARK INTER:                 -10.661
REMARK INTRA:                  -2.324
REMARK UNBOUND:                -1.663
REMARK SMILES C[C@@H]1O[C@H](O[C@@H]2[C@H](Oc3cc(O)c4c(c3)O[C@@H](c3ccc(O)cc3)CC4=O)O[C@H](CO)[C@H](O)[C@@H]2O)[C@@H](O)[C@@H](O)[C@H]1O
REMARK SMILES IDX 6 1 34 2 32 3 29 4 28 5 7 6 5 7 4 8 1 9 2 10 40 11 3 12
REMARK SMILES IDX 38 13 36 14 41 15 39 17 37 19 35 21 8 23 9 24 10 25 15 26
REMARK SMILES IDX 11 27 14 28 13 29 16 30 26 31 17 32 27 33 25 34 12 35 18 37
REMARK SMILES IDX 19 38 24 39 20 40 23 41 21 42 22 43 33 45 30 47 31 48
REMARK H PARENT 41 16 39 18 37 20 35 22 12 36 22 44 33 46 31 49
REMARK Flexibility Score: inf
ROOT
ATOM      1  C   UNL     1      26.923   7.909  59.768  1.00  0.00     0.221 C 
ATOM      2  C   UNL     1      25.711   6.972  59.502  1.00  0.00     0.181 C 
ATOM      3  C   UNL     1      25.996   5.519  59.931  1.00  0.00     0.177 C 
ATOM      4  C   UNL     1      27.473   5.110  59.635  1.00  0.00     0.179 C 
ATOM      5  O   UNL     1      28.466   6.040  60.077  1.00  0.00    -0.332 OA
ATOM      6  C   UNL     1      27.946   7.212  60.687  1.00  0.00     0.339 C 
ENDROOT
BRANCH   1   7
ATOM      7  O   UNL     1      27.578   8.239  58.549  1.00  0.00    -0.337 OA
BRANCH   7   8
ATOM      8  C   UNL     1      27.348   9.572  58.118  1.00  0.00     0.282 C 
ATOM      9  C   UNL     1      29.369  12.621  58.316  1.00  0.00     0.041 C 
ATOM     10  C   UNL     1      28.085  11.789  58.338  1.00  0.00     0.150 C 
ATOM     11  C   UNL     1      27.178  12.139  57.112  1.00  0.00     0.174 C 
ATOM     12  O   UNL     1      28.456  10.416  58.395  1.00  0.00    -0.344 OA
ATOM     13  C   UNL     1      27.290  11.036  56.035  1.00  0.00     0.179 C 
ATOM     14  C   UNL     1      26.979   9.630  56.612  1.00  0.00     0.202 C 
BRANCH  11  15
ATOM     15  O   UNL     1      25.845  12.257  57.551  1.00  0.00    -0.388 OA
ATOM     16  H   UNL     1      25.793  11.849  58.454  1.00  0.00     0.211 HD
ENDBRANCH  11  15
BRANCH  13  17
ATOM     17  O   UNL     1      26.517  11.325  54.894  1.00  0.00    -0.387 OA
ATOM     18  H   UNL     1      26.032  12.176  55.055  1.00  0.00     0.211 HD
ENDBRANCH  13  17
BRANCH  14  19
ATOM     19  O   UNL     1      25.622   9.311  56.442  1.00  0.00    -0.385 OA
ATOM     20  H   UNL     1      25.104  10.061  56.831  1.00  0.00     0.211 HD
ENDBRANCH  14  19
ENDBRANCH   7   8
ENDBRANCH   1   7
BRANCH   2  21
ATOM     21  O   UNL     1      25.341   7.002  58.141  1.00  0.00    -0.387 OA
ATOM     22  H   UNL     1      24.392   7.289  58.099  1.00  0.00     0.211 HD
ENDBRANCH   2  21
BRANCH   6  23
ATOM     23  O   UNL     1      29.015   8.120  60.942  1.00  0.00    -0.462 OA
BRANCH  23  24
ATOM     24  C   UNL     1      28.998   9.143  61.901  1.00  0.00     0.130 A 
ATOM     25  C   UNL     1      29.618  10.386  61.698  1.00  0.00     0.093 A 
ATOM     26  C   UNL     1      28.348   8.894  63.112  1.00  0.00     0.094 A 
ATOM     27  C   UNL     1      29.617  11.363  62.701  1.00  0.00     0.133 A 
ATOM     28  C   UNL     1      28.309   9.867  64.113  1.00  0.00     0.138 A 
ATOM     29  C   UNL     1      28.928  11.119  63.918  1.00  0.00     0.102 A 
ATOM     30  O   UNL     1      27.660   9.572  65.321  1.00  0.00    -0.484 OA
ATOM     31  C   UNL     1      28.814  12.102  65.022  1.00  0.00     0.174 C 
ATOM     32  C   UNL     1      27.347  10.571  66.297  1.00  0.00     0.211 C 
ATOM     33  O   UNL     1      28.942  13.340  64.826  1.00  0.00    -0.294 OA
ATOM     34  C   UNL     1      28.478  11.605  66.397  1.00  0.00     0.131 C 
BRANCH  27  35
ATOM     35  O   UNL     1      30.338  12.536  62.456  1.00  0.00    -0.507 OA
ATOM     36  H   UNL     1      29.989  13.308  61.907  1.00  0.00     0.293 HD
ENDBRANCH  27  35
BRANCH  32  37
ATOM     37  C   UNL     1      27.100   9.924  67.639  1.00  0.00    -0.007 A 
ATOM     38  C   UNL     1      27.682   8.680  67.938  1.00  0.00     0.011 A 
ATOM     39  C   UNL     1      26.239  10.523  68.577  1.00  0.00     0.011 A 
ATOM     40  C   UNL     1      27.422   8.053  69.159  1.00  0.00     0.046 A 
ATOM     41  C   UNL     1      25.981   9.893  69.798  1.00  0.00     0.046 A 
ATOM     42  C   UNL     1      26.569   8.657  70.092  1.00  0.00     0.115 A 
BRANCH  42  43
ATOM     43  O   UNL     1      26.299   8.040  71.311  1.00  0.00    -0.508 OA
ATOM     44  H   UNL     1      25.738   8.493  72.024  1.00  0.00     0.293 HD
ENDBRANCH  42  43
ENDBRANCH  32  37
ENDBRANCH  23  24
ENDBRANCH   6  23
BRANCH   3  45
ATOM     45  O   UNL     1      25.084   4.642  59.320  1.00  0.00    -0.387 OA
ATOM     46  H   UNL     1      24.271   4.626  59.891  1.00  0.00     0.211 HD
ENDBRANCH   3  45
BRANCH   4  47
ATOM     47  C   UNL     1      27.706   4.824  58.143  1.00  0.00     0.191 C 
BRANCH  47  48
ATOM     48  O   UNL     1      28.685   5.692  57.643  1.00  0.00    -0.394 OA
ATOM     49  H   UNL     1      29.323   5.845  58.389  1.00  0.00     0.210 HD
ENDBRANCH  47  48
ENDBRANCH   4  47
TORSDOF 14
ENDMDL
MODEL 9
REMARK VINA RESULT:    -7.006      2.462      5.586
REMARK INTER + INTRA:         -12.764
REMARK INTER:                 -10.858
REMARK INTRA:                  -1.906
REMARK UNBOUND:                -1.663
REMARK SMILES C[C@@H]1O[C@H](O[C@@H]2[C@H](Oc3cc(O)c4c(c3)O[C@@H](c3ccc(O)cc3)CC4=O)O[C@H](CO)[C@H](O)[C@@H]2O)[C@@H](O)[C@@H](O)[C@H]1O
REMARK SMILES IDX 6 1 34 2 32 3 29 4 28 5 7 6 5 7 4 8 1 9 2 10 40 11 3 12
REMARK SMILES IDX 38 13 36 14 41 15 39 17 37 19 35 21 8 23 9 24 10 25 15 26
REMARK SMILES IDX 11 27 14 28 13 29 16 30 26 31 17 32 27 33 25 34 12 35 18 37
REMARK SMILES IDX 19 38 24 39 20 40 23 41 21 42 22 43 33 45 30 47 31 48
REMARK H PARENT 41 16 39 18 37 20 35 22 12 36 22 44 33 46 31 49
REMARK Flexibility Score: inf
ROOT
ATOM      1  C   UNL     1      24.819   7.763  57.592  1.00  0.00     0.221 C 
ATOM      2  C   UNL     1      23.522   7.755  56.732  1.00  0.00     0.181 C 
ATOM      3  C   UNL     1      22.283   8.173  57.549  1.00  0.00     0.177 C 
ATOM      4  C   UNL     1      22.343   7.625  59.009  1.00  0.00     0.179 C 
ATOM      5  O   UNL     1      23.579   7.846  59.695  1.00  0.00    -0.332 OA
ATOM      6  C   UNL     1      24.573   8.501  58.923  1.00  0.00     0.339 C 
ENDROOT
BRANCH   1   7
ATOM      7  O   UNL     1      25.227   6.434  57.893  1.00  0.00    -0.337 OA
BRANCH   7   8
ATOM      8  C   UNL     1      26.523   6.110  57.412  1.00  0.00     0.282 C 
ATOM      9  C   UNL     1      29.632   5.177  59.109  1.00  0.00     0.041 C 
ATOM     10  C   UNL     1      28.769   5.852  58.041  1.00  0.00     0.150 C 
ATOM     11  C   UNL     1      29.014   5.201  56.639  1.00  0.00     0.174 C 
ATOM     12  O   UNL     1      27.413   5.782  58.469  1.00  0.00    -0.344 OA
ATOM     13  C   UNL     1      27.848   4.252  56.281  1.00  0.00     0.179 C 
ATOM     14  C   UNL     1      26.475   4.968  56.363  1.00  0.00     0.202 C 
BRANCH  11  15
ATOM     15  O   UNL     1      29.124   6.223  55.677  1.00  0.00    -0.388 OA
ATOM     16  H   UNL     1      28.559   5.965  54.904  1.00  0.00     0.211 HD
ENDBRANCH  11  15
BRANCH  13  17
ATOM     17  O   UNL     1      28.042   3.614  55.040  1.00  0.00    -0.387 OA
ATOM     18  H   UNL     1      28.933   3.877  54.692  1.00  0.00     0.211 HD
ENDBRANCH  13  17
BRANCH  14  19
ATOM     19  O   UNL     1      26.108   5.488  55.110  1.00  0.00    -0.385 OA
ATOM     20  H   UNL     1      26.027   4.713  54.496  1.00  0.00     0.211 HD
ENDBRANCH  14  19
ENDBRANCH   7   8
ENDBRANCH   1   7
BRANCH   2  21
ATOM     21  O   UNL     1      23.307   6.485  56.157  1.00  0.00    -0.387 OA
ATOM     22  H   UNL     1      23.850   5.833  56.671  1.00  0.00     0.211 HD
ENDBRANCH   2  21
BRANCH   6  23
ATOM     23  O   UNL     1      25.796   8.525  59.657  1.00  0.00    -0.462 OA
BRANCH  23  24
ATOM     24  C   UNL     1      26.481   9.683  60.051  1.00  0.00     0.130 A 
ATOM     25  C   UNL     1      26.938  10.645  59.136  1.00  0.00     0.093 A 
ATOM     26  C   UNL     1      26.729   9.865  61.413  1.00  0.00     0.094 A 
ATOM     27  C   UNL     1      27.659  11.764  59.568  1.00  0.00     0.133 A 
ATOM     28  C   UNL     1      27.420  10.989  61.868  1.00  0.00     0.138 A 
ATOM     29  C   UNL     1      27.882  11.962  60.956  1.00  0.00     0.102 A 
ATOM     30  O   UNL     1      27.663  11.127  63.243  1.00  0.00    -0.484 OA
ATOM     31  C   UNL     1      28.582  13.137  61.528  1.00  0.00     0.174 C 
ATOM     32  C   UNL     1      28.131  12.347  63.829  1.00  0.00     0.211 C 
ATOM     33  O   UNL     1      28.665  14.229  60.906  1.00  0.00    -0.294 OA
ATOM     34  C   UNL     1      29.153  13.032  62.911  1.00  0.00     0.131 C 
BRANCH  27  35
ATOM     35  O   UNL     1      28.161  12.624  58.586  1.00  0.00    -0.507 OA
ATOM     36  H   UNL     1      27.586  13.239  58.029  1.00  0.00     0.293 HD
ENDBRANCH  27  35
BRANCH  32  37
ATOM     37  C   UNL     1      28.735  12.070  65.184  1.00  0.00    -0.007 A 
ATOM     38  C   UNL     1      29.782  12.876  65.666  1.00  0.00     0.011 A 
ATOM     39  C   UNL     1      28.304  10.973  65.952  1.00  0.00     0.011 A 
ATOM     40  C   UNL     1      30.377  12.599  66.899  1.00  0.00     0.046 A 
ATOM     41  C   UNL     1      28.902  10.698  67.186  1.00  0.00     0.046 A 
ATOM     42  C   UNL     1      29.940  11.508  67.662  1.00  0.00     0.115 A 
BRANCH  42  43
ATOM     43  O   UNL     1      30.528  11.221  68.891  1.00  0.00    -0.508 OA
ATOM     44  H   UNL     1      31.300  11.770  69.253  1.00  0.00     0.293 HD
ENDBRANCH  42  43
ENDBRANCH  32  37
ENDBRANCH  23  24
ENDBRANCH   6  23
BRANCH   3  45
ATOM     45  O   UNL     1      21.108   7.771  56.892  1.00  0.00    -0.387 OA
ATOM     46  H   UNL     1      21.375   7.446  55.992  1.00  0.00     0.211 HD
ENDBRANCH   3  45
BRANCH   4  47
ATOM     47  C   UNL     1      22.011   6.126  59.078  1.00  0.00     0.191 C 
BRANCH  47  48
ATOM     48  O   UNL     1      20.626   5.944  58.980  1.00  0.00    -0.394 OA
ATOM     49  H   UNL     1      20.262   6.798  58.624  1.00  0.00     0.210 HD
ENDBRANCH  47  48
ENDBRANCH   4  47
TORSDOF 14
ENDMDL
