MODEL 1
REMARK VINA RESULT:    -2.568      0.000      0.000
REMARK INTER + INTRA:          -7.606
REMARK INTER:                  -5.570
REMARK INTRA:                  -2.036
REMARK UNBOUND:                -2.036
REMARK SMILES CCCCCCCCCCCCCCCCCCCCCC(=O)[O-]
REMARK SMILES IDX 12 1 11 2 10 3 9 4 8 5 7 6 6 7 5 8 4 9 3 10 2 11 1 12 13 13
REMARK SMILES IDX 14 14 15 15 16 16 17 17 18 18 19 19 20 20 21 21 22 22 23 23
REMARK SMILES IDX 24 24
REMARK H PARENT
REMARK Flexibility Score: inf
ROOT
ATOM      1  C   UNL     1       2.500  25.116  10.224  1.00  0.00     0.000 C 
ENDROOT
BRANCH   1   2
ATOM      2  C   UNL     1       3.817  24.734   9.524  1.00  0.00     0.000 C 
BRANCH   2   3
ATOM      3  C   UNL     1       3.593  23.993   8.197  1.00  0.00     0.000 C 
BRANCH   3   4
ATOM      4  C   UNL     1       3.189  24.938   7.050  1.00  0.00    -0.000 C 
BRANCH   4   5
ATOM      5  C   UNL     1       2.581  24.183   5.856  1.00  0.00    -0.000 C 
BRANCH   5   6
ATOM      6  C   UNL     1       2.079  25.137   4.757  1.00  0.00    -0.000 C 
BRANCH   6   7
ATOM      7  C   UNL     1       1.376  24.397   3.602  1.00  0.00    -0.000 C 
BRANCH   7   8
ATOM      8  C   UNL     1       0.139  25.128   3.043  1.00  0.00    -0.000 C 
BRANCH   8   9
ATOM      9  C   UNL     1      -1.109  25.020   3.949  1.00  0.00    -0.000 C 
BRANCH   9  10
ATOM     10  C   UNL     1      -1.117  26.027   5.116  1.00  0.00    -0.000 C 
BRANCH  10  11
ATOM     11  C   UNL     1      -1.120  25.383   6.514  1.00  0.00    -0.003 C 
ATOM     12  C   UNL     1      -0.301  26.174   7.534  1.00  0.00     0.004 C 
ENDBRANCH  10  11
ENDBRANCH   9  10
ENDBRANCH   8   9
ENDBRANCH   7   8
ENDBRANCH   6   7
ENDBRANCH   5   6
ENDBRANCH   4   5
ENDBRANCH   3   4
ENDBRANCH   2   3
ENDBRANCH   1   2
BRANCH   1  13
ATOM     13  C   UNL     1       1.717  23.876  10.685  1.00  0.00     0.000 C 
BRANCH  13  14
ATOM     14  C   UNL     1       0.199  24.034  10.485  1.00  0.00     0.000 C 
BRANCH  14  15
ATOM     15  C   UNL     1      -0.432  24.968  11.540  1.00  0.00     0.000 C 
BRANCH  15  16
ATOM     16  C   UNL     1      -0.999  24.216  12.757  1.00  0.00     0.000 C 
BRANCH  16  17
ATOM     17  C   UNL     1      -0.864  25.006  14.065  1.00  0.00     0.000 C 
BRANCH  17  18
ATOM     18  C   UNL     1      -0.812  24.064  15.278  1.00  0.00     0.000 C 
BRANCH  18  19
ATOM     19  C   UNL     1       0.608  23.913  15.855  1.00  0.00     0.000 C 
BRANCH  19  20
ATOM     20  C   UNL     1       1.612  24.977  15.378  1.00  0.00     0.006 C 
BRANCH  20  21
ATOM     21  C   UNL     1       2.446  24.506  14.178  1.00  0.00     0.053 C 
BRANCH  21  22
ATOM     22  C   UNL     1       3.408  25.572  13.758  1.00  0.00     0.041 C 
ATOM     23  O   UNL     1       2.987  26.624  13.208  1.00  0.00    -0.550 OA
ATOM     24  O   UNL     1       4.775  25.383  13.929  1.00  0.00    -0.550 OA
ENDBRANCH  21  22
ENDBRANCH  20  21
ENDBRANCH  19  20
ENDBRANCH  18  19
ENDBRANCH  17  18
ENDBRANCH  16  17
ENDBRANCH  15  16
ENDBRANCH  14  15
ENDBRANCH  13  14
ENDBRANCH   1  13
TORSDOF 20
ENDMDL
MODEL 2
REMARK VINA RESULT:    -2.443      1.269      3.303
REMARK INTER + INTRA:          -7.335
REMARK INTER:                  -5.800
REMARK INTRA:                  -1.535
REMARK UNBOUND:                -2.036
REMARK SMILES CCCCCCCCCCCCCCCCCCCCCC(=O)[O-]
REMARK SMILES IDX 12 1 11 2 10 3 9 4 8 5 7 6 6 7 5 8 4 9 3 10 2 11 1 12 13 13
REMARK SMILES IDX 14 14 15 15 16 16 17 17 18 18 19 19 20 20 21 21 22 22 23 23
REMARK SMILES IDX 24 24
REMARK H PARENT
REMARK Flexibility Score: inf
ROOT
ATOM      1  C   UNL     1       0.773  24.338   9.962  1.00  0.00     0.000 C 
ENDROOT
BRANCH   1   2
ATOM      2  C   UNL     1      -0.045  24.028   8.696  1.00  0.00     0.000 C 
BRANCH   2   3
ATOM      3  C   UNL     1      -0.980  25.179   8.293  1.00  0.00     0.000 C 
BRANCH   3   4
ATOM      4  C   UNL     1      -0.499  25.922   7.034  1.00  0.00    -0.000 C 
BRANCH   4   5
ATOM      5  C   UNL     1      -0.236  24.968   5.856  1.00  0.00    -0.000 C 
BRANCH   5   6
ATOM      6  C   UNL     1       1.048  25.329   5.086  1.00  0.00    -0.000 C 
BRANCH   6   7
ATOM      7  C   UNL     1       1.882  24.092   4.705  1.00  0.00    -0.000 C 
BRANCH   7   8
ATOM      8  C   UNL     1       3.196  23.945   5.496  1.00  0.00    -0.000 C 
BRANCH   8   9
ATOM      9  C   UNL     1       3.349  24.973   6.642  1.00  0.00    -0.000 C 
BRANCH   9  10
ATOM     10  C   UNL     1       4.814  25.247   7.036  1.00  0.00    -0.000 C 
BRANCH  10  11
ATOM     11  C   UNL     1       5.099  25.145   8.544  1.00  0.00    -0.003 C 
ATOM     12  C   UNL     1       4.526  23.875   9.173  1.00  0.00     0.004 C 
ENDBRANCH  10  11
ENDBRANCH   9  10
ENDBRANCH   8   9
ENDBRANCH   7   8
ENDBRANCH   6   7
ENDBRANCH   5   6
ENDBRANCH   4   5
ENDBRANCH   3   4
ENDBRANCH   2   3
ENDBRANCH   1   2
BRANCH   1  13
ATOM     13  C   UNL     1      -0.063  24.161  11.240  1.00  0.00     0.000 C 
BRANCH  13  14
ATOM     14  C   UNL     1      -0.571  25.503  11.798  1.00  0.00     0.000 C 
BRANCH  14  15
ATOM     15  C   UNL     1      -0.764  25.459  13.329  1.00  0.00     0.000 C 
BRANCH  15  16
ATOM     16  C   UNL     1      -0.814  24.030  13.895  1.00  0.00     0.000 C 
BRANCH  16  17
ATOM     17  C   UNL     1      -1.005  23.995  15.418  1.00  0.00     0.000 C 
BRANCH  17  18
ATOM     18  C   UNL     1       0.347  23.937  16.144  1.00  0.00     0.000 C 
BRANCH  18  19
ATOM     19  C   UNL     1       1.545  23.965  15.177  1.00  0.00     0.000 C 
BRANCH  19  20
ATOM     20  C   UNL     1       2.183  25.353  14.984  1.00  0.00     0.006 C 
BRANCH  20  21
ATOM     21  C   UNL     1       3.507  25.291  14.210  1.00  0.00     0.053 C 
BRANCH  21  22
ATOM     22  C   UNL     1       3.270  25.503  12.749  1.00  0.00     0.041 C 
ATOM     23  O   UNL     1       3.283  24.524  11.956  1.00  0.00    -0.550 OA
ATOM     24  O   UNL     1       3.084  26.788  12.253  1.00  0.00    -0.550 OA
ENDBRANCH  21  22
ENDBRANCH  20  21
ENDBRANCH  19  20
ENDBRANCH  18  19
ENDBRANCH  17  18
ENDBRANCH  16  17
ENDBRANCH  15  16
ENDBRANCH  14  15
ENDBRANCH  13  14
ENDBRANCH   1  13
TORSDOF 20
ENDMDL
MODEL 3
REMARK VINA RESULT:    -2.389      3.119      8.183
REMARK INTER + INTRA:          -7.217
REMARK INTER:                  -5.662
REMARK INTRA:                  -1.555
REMARK UNBOUND:                -2.036
REMARK SMILES CCCCCCCCCCCCCCCCCCCCCC(=O)[O-]
REMARK SMILES IDX 12 1 11 2 10 3 9 4 8 5 7 6 6 7 5 8 4 9 3 10 2 11 1 12 13 13
REMARK SMILES IDX 14 14 15 15 16 16 17 17 18 18 19 19 20 20 21 21 22 22 23 23
REMARK SMILES IDX 24 24
REMARK H PARENT
REMARK Flexibility Score: inf
ROOT
ATOM      1  C   UNL     1       4.875  24.141  12.975  1.00  0.00     0.000 C 
ENDROOT
BRANCH   1   2
ATOM      2  C   UNL     1       3.580  24.127  13.807  1.00  0.00     0.000 C 
BRANCH   2   3
ATOM      3  C   UNL     1       2.787  25.438  13.698  1.00  0.00     0.000 C 
BRANCH   3   4
ATOM      4  C   UNL     1       1.689  25.558  14.770  1.00  0.00    -0.000 C 
BRANCH   4   5
ATOM      5  C   UNL     1       1.418  24.223  15.484  1.00  0.00    -0.000 C 
BRANCH   5   6
ATOM      6  C   UNL     1       0.069  24.220  16.226  1.00  0.00    -0.000 C 
BRANCH   6   7
ATOM      7  C   UNL     1      -1.125  24.498  15.294  1.00  0.00    -0.000 C 
BRANCH   7   8
ATOM      8  C   UNL     1      -0.975  23.905  13.879  1.00  0.00    -0.000 C 
BRANCH   8   9
ATOM      9  C   UNL     1      -1.124  24.949  12.748  1.00  0.00    -0.000 C 
BRANCH   9  10
ATOM     10  C   UNL     1      -0.067  24.810  11.634  1.00  0.00    -0.000 C 
BRANCH  10  11
ATOM     11  C   UNL     1      -0.609  24.251  10.307  1.00  0.00    -0.003 C 
ATOM     12  C   UNL     1      -0.068  24.993   9.085  1.00  0.00     0.004 C 
ENDBRANCH  10  11
ENDBRANCH   9  10
ENDBRANCH   8   9
ENDBRANCH   7   8
ENDBRANCH   6   7
ENDBRANCH   5   6
ENDBRANCH   4   5
ENDBRANCH   3   4
ENDBRANCH   2   3
ENDBRANCH   1   2
BRANCH   1  13
ATOM     13  C   UNL     1       4.628  24.647  11.544  1.00  0.00     0.000 C 
BRANCH  13  14
ATOM     14  C   UNL     1       3.480  23.894  10.847  1.00  0.00     0.000 C 
BRANCH  14  15
ATOM     15  C   UNL     1       3.335  24.300   9.364  1.00  0.00     0.000 C 
BRANCH  15  16
ATOM     16  C   UNL     1       4.321  25.402   8.937  1.00  0.00     0.000 C 
BRANCH  16  17
ATOM     17  C   UNL     1       5.358  24.914   7.917  1.00  0.00     0.000 C 
BRANCH  17  18
ATOM     18  C   UNL     1       4.676  24.341   6.665  1.00  0.00     0.000 C 
BRANCH  18  19
ATOM     19  C   UNL     1       3.564  25.256   6.121  1.00  0.00     0.000 C 
BRANCH  19  20
ATOM     20  C   UNL     1       2.361  24.513   5.511  1.00  0.00     0.006 C 
BRANCH  20  21
ATOM     21  C   UNL     1       1.016  25.070   5.994  1.00  0.00     0.053 C 
BRANCH  21  22
ATOM     22  C   UNL     1       0.104  25.318   4.835  1.00  0.00     0.041 C 
ATOM     23  O   UNL     1       0.458  24.995   3.670  1.00  0.00    -0.550 OA
ATOM     24  O   UNL     1      -1.119  25.949   5.033  1.00  0.00    -0.550 OA
ENDBRANCH  21  22
ENDBRANCH  20  21
ENDBRANCH  19  20
ENDBRANCH  18  19
ENDBRANCH  17  18
ENDBRANCH  16  17
ENDBRANCH  15  16
ENDBRANCH  14  15
ENDBRANCH  13  14
ENDBRANCH   1  13
TORSDOF 20
ENDMDL
MODEL 4
REMARK VINA RESULT:    -2.170      1.833      7.945
REMARK INTER + INTRA:          -6.743
REMARK INTER:                  -5.118
REMARK INTRA:                  -1.625
REMARK UNBOUND:                -2.036
REMARK SMILES CCCCCCCCCCCCCCCCCCCCCC(=O)[O-]
REMARK SMILES IDX 12 1 11 2 10 3 9 4 8 5 7 6 6 7 5 8 4 9 3 10 2 11 1 12 13 13
REMARK SMILES IDX 14 14 15 15 16 16 17 17 18 18 19 19 20 20 21 21 22 22 23 23
REMARK SMILES IDX 24 24
REMARK H PARENT
REMARK Flexibility Score: inf
ROOT
ATOM      1  C   UNL     1       1.367  24.405   9.843  1.00  0.00     0.000 C 
ENDROOT
BRANCH   1   2
ATOM      2  C   UNL     1       1.697  25.045  11.203  1.00  0.00     0.000 C 
BRANCH   2   3
ATOM      3  C   UNL     1       0.446  25.323  12.051  1.00  0.00     0.000 C 
BRANCH   3   4
ATOM      4  C   UNL     1      -0.541  24.142  12.058  1.00  0.00    -0.000 C 
BRANCH   4   5
ATOM      5  C   UNL     1      -1.125  23.875  13.456  1.00  0.00    -0.000 C 
BRANCH   5   6
ATOM      6  C   UNL     1      -0.923  25.067  14.410  1.00  0.00    -0.000 C 
BRANCH   6   7
ATOM      7  C   UNL     1       0.056  24.752  15.558  1.00  0.00    -0.000 C 
BRANCH   7   8
ATOM      8  C   UNL     1       1.443  24.268  15.092  1.00  0.00    -0.000 C 
BRANCH   8   9
ATOM      9  C   UNL     1       2.582  25.271  15.386  1.00  0.00    -0.000 C 
BRANCH   9  10
ATOM     10  C   UNL     1       3.138  25.963  14.126  1.00  0.00    -0.000 C 
BRANCH  10  11
ATOM     11  C   UNL     1       4.515  25.449  13.671  1.00  0.00    -0.003 C 
ATOM     12  C   UNL     1       4.480  23.998  13.193  1.00  0.00     0.004 C 
ENDBRANCH  10  11
ENDBRANCH   9  10
ENDBRANCH   8   9
ENDBRANCH   7   8
ENDBRANCH   6   7
ENDBRANCH   5   6
ENDBRANCH   4   5
ENDBRANCH   3   4
ENDBRANCH   2   3
ENDBRANCH   1   2
BRANCH   1  13
ATOM     13  C   UNL     1       0.624  25.383   8.917  1.00  0.00     0.000 C 
BRANCH  13  14
ATOM     14  C   UNL     1      -0.505  24.697   8.126  1.00  0.00     0.000 C 
BRANCH  14  15
ATOM     15  C   UNL     1      -1.124  25.635   7.068  1.00  0.00     0.000 C 
BRANCH  15  16
ATOM     16  C   UNL     1      -0.534  25.438   5.660  1.00  0.00     0.000 C 
BRANCH  16  17
ATOM     17  C   UNL     1       0.636  24.446   5.636  1.00  0.00     0.000 C 
BRANCH  17  18
ATOM     18  C   UNL     1       1.944  25.143   5.231  1.00  0.00     0.000 C 
BRANCH  18  19
ATOM     19  C   UNL     1       3.196  24.357   5.659  1.00  0.00     0.000 C 
BRANCH  19  20
ATOM     20  C   UNL     1       4.209  25.165   6.490  1.00  0.00     0.006 C 
BRANCH  20  21
ATOM     21  C   UNL     1       3.914  25.111   7.995  1.00  0.00     0.053 C 
BRANCH  21  22
ATOM     22  C   UNL     1       5.188  25.070   8.778  1.00  0.00     0.041 C 
ATOM     23  O   UNL     1       6.217  25.653   8.345  1.00  0.00    -0.550 OA
ATOM     24  O   UNL     1       5.254  24.347   9.964  1.00  0.00    -0.550 OA
ENDBRANCH  21  22
ENDBRANCH  20  21
ENDBRANCH  19  20
ENDBRANCH  18  19
ENDBRANCH  17  18
ENDBRANCH  16  17
ENDBRANCH  15  16
ENDBRANCH  14  15
ENDBRANCH  13  14
ENDBRANCH   1  13
TORSDOF 20
ENDMDL
MODEL 5
REMARK VINA RESULT:    -2.131      2.044      3.979
REMARK INTER + INTRA:          -6.659
REMARK INTER:                  -5.452
REMARK INTRA:                  -1.206
REMARK UNBOUND:                -2.036
REMARK SMILES CCCCCCCCCCCCCCCCCCCCCC(=O)[O-]
REMARK SMILES IDX 12 1 11 2 10 3 9 4 8 5 7 6 6 7 5 8 4 9 3 10 2 11 1 12 13 13
REMARK SMILES IDX 14 14 15 15 16 16 17 17 18 18 19 19 20 20 21 21 22 22 23 23
REMARK SMILES IDX 24 24
REMARK H PARENT
REMARK Flexibility Score: inf
ROOT
ATOM      1  C   UNL     1       2.495  25.662  10.241  1.00  0.00     0.000 C 
ENDROOT
BRANCH   1   2
ATOM      2  C   UNL     1       2.444  24.163   9.899  1.00  0.00     0.000 C 
BRANCH   2   3
ATOM      3  C   UNL     1       1.700  23.875   8.586  1.00  0.00     0.000 C 
BRANCH   3   4
ATOM      4  C   UNL     1       0.314  24.543   8.531  1.00  0.00    -0.000 C 
BRANCH   4   5
ATOM      5  C   UNL     1      -0.457  24.186   7.249  1.00  0.00    -0.000 C 
BRANCH   5   6
ATOM      6  C   UNL     1      -0.057  25.077   6.059  1.00  0.00    -0.000 C 
BRANCH   6   7
ATOM      7  C   UNL     1       1.432  25.470   6.084  1.00  0.00    -0.000 C 
BRANCH   7   8
ATOM      8  C   UNL     1       2.328  24.621   5.160  1.00  0.00    -0.000 C 
BRANCH   8   9
ATOM      9  C   UNL     1       3.665  24.195   5.810  1.00  0.00    -0.000 C 
BRANCH   9  10
ATOM     10  C   UNL     1       4.400  25.346   6.525  1.00  0.00    -0.000 C 
BRANCH  10  11
ATOM     11  C   UNL     1       4.938  24.990   7.922  1.00  0.00    -0.003 C 
ATOM     12  C   UNL     1       6.256  25.693   8.248  1.00  0.00     0.004 C 
ENDBRANCH  10  11
ENDBRANCH   9  10
ENDBRANCH   8   9
ENDBRANCH   7   8
ENDBRANCH   6   7
ENDBRANCH   5   6
ENDBRANCH   4   5
ENDBRANCH   3   4
ENDBRANCH   2   3
ENDBRANCH   1   2
BRANCH   1  13
ATOM     13  C   UNL     1       2.726  25.899  11.743  1.00  0.00     0.000 C 
BRANCH  13  14
ATOM     14  C   UNL     1       3.556  24.775  12.391  1.00  0.00     0.000 C 
BRANCH  14  15
ATOM     15  C   UNL     1       4.020  25.145  13.817  1.00  0.00     0.000 C 
BRANCH  15  16
ATOM     16  C   UNL     1       3.134  26.209  14.488  1.00  0.00     0.000 C 
BRANCH  16  17
ATOM     17  C   UNL     1       2.230  25.631  15.585  1.00  0.00     0.000 C 
BRANCH  17  18
ATOM     18  C   UNL     1       1.466  24.398  15.079  1.00  0.00     0.000 C 
BRANCH  18  19
ATOM     19  C   UNL     1       0.142  24.168  15.830  1.00  0.00     0.000 C 
BRANCH  19  20
ATOM     20  C   UNL     1      -1.080  23.937  14.923  1.00  0.00     0.006 C 
BRANCH  20  21
ATOM     21  C   UNL     1      -0.708  23.877  13.435  1.00  0.00     0.053 C 
BRANCH  21  22
ATOM     22  C   UNL     1      -0.971  25.194  12.776  1.00  0.00     0.041 C 
ATOM     23  O   UNL     1      -1.125  26.232  13.473  1.00  0.00    -0.550 OA
ATOM     24  O   UNL     1      -1.093  25.269  11.393  1.00  0.00    -0.550 OA
ENDBRANCH  21  22
ENDBRANCH  20  21
ENDBRANCH  19  20
ENDBRANCH  18  19
ENDBRANCH  17  18
ENDBRANCH  16  17
ENDBRANCH  15  16
ENDBRANCH  14  15
ENDBRANCH  13  14
ENDBRANCH   1  13
TORSDOF 20
ENDMDL
MODEL 6
REMARK VINA RESULT:    -1.856      1.411      4.021
REMARK INTER + INTRA:          -6.062
REMARK INTER:                  -4.307
REMARK INTRA:                  -1.756
REMARK UNBOUND:                -2.036
REMARK SMILES CCCCCCCCCCCCCCCCCCCCCC(=O)[O-]
REMARK SMILES IDX 12 1 11 2 10 3 9 4 8 5 7 6 6 7 5 8 4 9 3 10 2 11 1 12 13 13
REMARK SMILES IDX 14 14 15 15 16 16 17 17 18 18 19 19 20 20 21 21 22 22 23 23
REMARK SMILES IDX 24 24
REMARK H PARENT
REMARK Flexibility Score: inf
ROOT
ATOM      1  C   UNL     1      -0.768  27.345   6.429  1.00  0.00     0.000 C 
ENDROOT
BRANCH   1   2
ATOM      2  C   UNL     1      -0.474  26.751   5.040  1.00  0.00     0.000 C 
BRANCH   2   3
ATOM      3  C   UNL     1      -1.125  25.376   4.830  1.00  0.00     0.000 C 
BRANCH   3   4
ATOM      4  C   UNL     1      -0.908  24.827   3.408  1.00  0.00    -0.000 C 
BRANCH   4   5
ATOM      5  C   UNL     1       0.514  25.098   2.886  1.00  0.00    -0.000 C 
BRANCH   5   6
ATOM      6  C   UNL     1       1.458  23.903   3.118  1.00  0.00    -0.000 C 
BRANCH   6   7
ATOM      7  C   UNL     1       2.103  23.916   4.517  1.00  0.00    -0.000 C 
BRANCH   7   8
ATOM      8  C   UNL     1       2.258  25.322   5.130  1.00  0.00    -0.000 C 
BRANCH   8   9
ATOM      9  C   UNL     1       2.878  25.317   6.546  1.00  0.00    -0.000 C 
BRANCH   9  10
ATOM     10  C   UNL     1       4.393  25.030   6.558  1.00  0.00    -0.000 C 
BRANCH  10  11
ATOM     11  C   UNL     1       4.874  24.196   7.758  1.00  0.00    -0.003 C 
ATOM     12  C   UNL     1       3.875  24.186   8.915  1.00  0.00     0.004 C 
ENDBRANCH  10  11
ENDBRANCH   9  10
ENDBRANCH   8   9
ENDBRANCH   7   8
ENDBRANCH   6   7
ENDBRANCH   5   6
ENDBRANCH   4   5
ENDBRANCH   3   4
ENDBRANCH   2   3
ENDBRANCH   1   2
BRANCH   1  13
ATOM     13  C   UNL     1      -1.123  26.255   7.453  1.00  0.00     0.000 C 
BRANCH  13  14
ATOM     14  C   UNL     1       0.104  25.783   8.254  1.00  0.00     0.000 C 
BRANCH  14  15
ATOM     15  C   UNL     1       0.080  24.260   8.509  1.00  0.00     0.000 C 
BRANCH  15  16
ATOM     16  C   UNL     1      -0.371  23.888   9.932  1.00  0.00     0.000 C 
BRANCH  16  17
ATOM     17  C   UNL     1      -0.270  25.060  10.917  1.00  0.00     0.000 C 
BRANCH  17  18
ATOM     18  C   UNL     1      -0.596  24.609  12.349  1.00  0.00     0.000 C 
BRANCH  18  19
ATOM     19  C   UNL     1       0.659  24.462  13.228  1.00  0.00     0.000 C 
BRANCH  19  20
ATOM     20  C   UNL     1       1.906  23.944  12.488  1.00  0.00     0.006 C 
BRANCH  20  21
ATOM     21  C   UNL     1       2.980  25.026  12.314  1.00  0.00     0.053 C 
BRANCH  21  22
ATOM     22  C   UNL     1       3.916  25.028  13.481  1.00  0.00     0.041 C 
ATOM     23  O   UNL     1       4.962  24.327  13.455  1.00  0.00    -0.550 OA
ATOM     24  O   UNL     1       3.610  25.768  14.617  1.00  0.00    -0.550 OA
ENDBRANCH  21  22
ENDBRANCH  20  21
ENDBRANCH  19  20
ENDBRANCH  18  19
ENDBRANCH  17  18
ENDBRANCH  16  17
ENDBRANCH  15  16
ENDBRANCH  14  15
ENDBRANCH  13  14
ENDBRANCH   1  13
TORSDOF 20
ENDMDL
MODEL 7
REMARK VINA RESULT:    -0.160      2.244      8.322
REMARK INTER + INTRA:          -2.384
REMARK INTER:                  -0.515
REMARK INTRA:                  -1.869
REMARK UNBOUND:                -2.036
REMARK SMILES CCCCCCCCCCCCCCCCCCCCCC(=O)[O-]
REMARK SMILES IDX 12 1 11 2 10 3 9 4 8 5 7 6 6 7 5 8 4 9 3 10 2 11 1 12 13 13
REMARK SMILES IDX 14 14 15 15 16 16 17 17 18 18 19 19 20 20 21 21 22 22 23 23
REMARK SMILES IDX 24 24
REMARK H PARENT
REMARK Flexibility Score: inf
ROOT
ATOM      1  C   UNL     1       1.203  24.747   9.033  1.00  0.00     0.000 C 
ENDROOT
BRANCH   1   2
ATOM      2  C   UNL     1       0.589  23.989  10.223  1.00  0.00     0.000 C 
BRANCH   2   3
ATOM      3  C   UNL     1      -0.351  24.865  11.066  1.00  0.00     0.000 C 
BRANCH   3   4
ATOM      4  C   UNL     1       0.153  25.061  12.507  1.00  0.00    -0.000 C 
BRANCH   4   5
ATOM      5  C   UNL     1      -0.358  23.967  13.460  1.00  0.00    -0.000 C 
BRANCH   5   6
ATOM      6  C   UNL     1       0.099  24.198  14.913  1.00  0.00    -0.000 C 
BRANCH   6   7
ATOM      7  C   UNL     1       1.412  24.998  15.005  1.00  0.00    -0.000 C 
BRANCH   7   8
ATOM      8  C   UNL     1       2.686  24.142  14.866  1.00  0.00    -0.000 C 
BRANCH   8   9
ATOM      9  C   UNL     1       3.911  24.930  14.348  1.00  0.00    -0.000 C 
BRANCH   9  10
ATOM     10  C   UNL     1       3.803  25.337  12.865  1.00  0.00    -0.000 C 
BRANCH  10  11
ATOM     11  C   UNL     1       3.978  24.177  11.870  1.00  0.00    -0.003 C 
ATOM     12  C   UNL     1       4.723  24.590  10.601  1.00  0.00     0.004 C 
ENDBRANCH  10  11
ENDBRANCH   9  10
ENDBRANCH   8   9
ENDBRANCH   7   8
ENDBRANCH   6   7
ENDBRANCH   5   6
ENDBRANCH   4   5
ENDBRANCH   3   4
ENDBRANCH   2   3
ENDBRANCH   1   2
BRANCH   1  13
ATOM     13  C   UNL     1       0.539  26.118   8.824  1.00  0.00     0.000 C 
BRANCH  13  14
ATOM     14  C   UNL     1      -0.040  26.277   7.406  1.00  0.00     0.000 C 
BRANCH  14  15
ATOM     15  C   UNL     1      -1.083  25.186   7.079  1.00  0.00     0.000 C 
BRANCH  15  16
ATOM     16  C   UNL     1      -0.938  24.612   5.659  1.00  0.00     0.000 C 
BRANCH  16  17
ATOM     17  C   UNL     1      -0.860  25.700   4.579  1.00  0.00     0.000 C 
BRANCH  17  18
ATOM     18  C   UNL     1       0.486  25.650   3.840  1.00  0.00     0.000 C 
BRANCH  18  19
ATOM     19  C   UNL     1       1.028  24.218   3.684  1.00  0.00     0.000 C 
BRANCH  19  20
ATOM     20  C   UNL     1       2.295  23.916   4.504  1.00  0.00     0.006 C 
BRANCH  20  21
ATOM     21  C   UNL     1       2.695  25.080   5.421  1.00  0.00     0.053 C 
BRANCH  21  22
ATOM     22  C   UNL     1       3.686  24.623   6.445  1.00  0.00     0.041 C 
ATOM     23  O   UNL     1       4.910  24.877   6.299  1.00  0.00    -0.550 OA
ATOM     24  O   UNL     1       3.263  23.875   7.538  1.00  0.00    -0.550 OA
ENDBRANCH  21  22
ENDBRANCH  20  21
ENDBRANCH  19  20
ENDBRANCH  18  19
ENDBRANCH  17  18
ENDBRANCH  16  17
ENDBRANCH  15  16
ENDBRANCH  14  15
ENDBRANCH  13  14
ENDBRANCH   1  13
TORSDOF 20
ENDMDL
