MODEL 1
REMARK VINA RESULT:    -4.845      0.000      0.000
REMARK INTER + INTRA:          -6.338
REMARK INTER:                  -6.828
REMARK INTRA:                   0.490
REMARK UNBOUND:                 0.490
REMARK SMILES CC1=CCC(=C(C)C)C(=O)CC(C)=CCC1
REMARK SMILES IDX 12 1 14 2 13 3 15 4 16 5 2 6 1 7 3 8 11 10 9 11 10 12 5 13
REMARK SMILES IDX 6 14 7 15 8 16 4 17
REMARK H PARENT
REMARK Flexibility Score: 60.00
ROOT
ATOM      1  C   UNL     1     120.124 177.852 124.397  1.00  0.00    -0.070 C 
ATOM      2  C   UNL     1     118.905 178.031 124.958  1.00  0.00    -0.027 C 
ATOM      3  C   UNL     1     120.711 178.990 123.602  1.00  0.00     0.039 C 
ENDROOT
BRANCH   2   4
ATOM      4  C   UNL     1     118.117 176.997 125.727  1.00  0.00     0.032 C 
BRANCH   4   5
ATOM      5  C   UNL     1     117.916 177.373 127.205  1.00  0.00     0.034 C 
BRANCH   5   6
ATOM      6  C   UNL     1     118.844 176.612 128.134  1.00  0.00    -0.077 C 
ATOM      7  C   UNL     1     118.303 175.400 128.849  1.00  0.00     0.039 C 
ATOM      8  C   UNL     1     120.138 176.945 128.345  1.00  0.00    -0.023 CG0
ATOM      9  G   UNL     1     120.879 178.082 127.682  1.00  0.00     0.000 G0
ENDBRANCH   5   6
ENDBRANCH   4   5
ENDBRANCH   2   4
BRANCH   1  10
ATOM     10  C   UNL     1     120.922 176.565 124.505  1.00  0.00     0.111 C 
BRANCH  10  11
ATOM     11  C   UNL     1     121.615 176.430 125.839  1.00  0.00     0.163 C 
ATOM     12  O   UNL     1     121.856 175.269 126.268  1.00  0.00    -0.294 OA
BRANCH  11  13
ATOM     13  C   UNL     1     121.945 177.610 126.696  1.00  0.00    -0.002 C 
ATOM     14  C   UNL     1     123.105 178.302 126.500  1.00  0.00    -0.069 C 
ATOM     15  C   UNL     1     123.411 179.561 127.280  1.00  0.00     0.039 C 
ATOM     16  C   UNL     1     124.114 177.869 125.459  1.00  0.00     0.039 C 
BRANCH  13  17
ATOM     17  C   UNL     1     120.892 178.108 127.677  1.00  0.00     0.066 CG0
ATOM     18  G   UNL     1     120.149 176.965 128.329  1.00  0.00     0.000 G0
ENDBRANCH  13  17
ENDBRANCH  11  13
ENDBRANCH  10  11
ENDBRANCH   1  10
TORSDOF 0
ENDMDL
MODEL 2
REMARK VINA RESULT:    -4.774      6.564      8.983
REMARK INTER + INTRA:          -6.238
REMARK INTER:                  -6.777
REMARK INTRA:                   0.539
REMARK UNBOUND:                 0.490
REMARK SMILES CC1=CCC(=C(C)C)C(=O)CC(C)=CCC1
REMARK SMILES IDX 12 1 14 2 13 3 15 4 16 5 2 6 1 7 3 8 11 10 9 11 10 12 5 13
REMARK SMILES IDX 6 14 7 15 8 16 4 17
REMARK H PARENT
REMARK Flexibility Score: 60.00
ROOT
ATOM      1  C   UNL     1     124.476 177.003 122.680  1.00  0.00    -0.070 C 
ATOM      2  C   UNL     1     123.648 177.625 121.807  1.00  0.00    -0.027 C 
ATOM      3  C   UNL     1     124.209 177.178 124.153  1.00  0.00     0.039 C 
ENDROOT
BRANCH   2   4
ATOM      4  C   UNL     1     123.784 177.635 120.303  1.00  0.00     0.032 C 
BRANCH   4   5
ATOM      5  C   UNL     1     124.880 178.594 119.806  1.00  0.00     0.034 C 
BRANCH   5   6
ATOM      6  C   UNL     1     125.755 177.975 118.731  1.00  0.00    -0.077 C 
ATOM      7  C   UNL     1     125.123 177.636 117.404  1.00  0.00     0.039 C 
ATOM      8  C   UNL     1     127.075 177.728 118.884  1.00  0.00    -0.023 CG0
ATOM      9  G   UNL     1     127.900 178.048 120.108  1.00  0.00     0.000 G0
ENDBRANCH   5   6
ENDBRANCH   4   5
ENDBRANCH   2   4
BRANCH   1  10
ATOM     10  C   UNL     1     125.667 176.160 122.260  1.00  0.00     0.111 C 
BRANCH  10  11
ATOM     11  C   UNL     1     126.952 176.950 122.247  1.00  0.00     0.163 C 
ATOM     12  O   UNL     1     127.179 177.731 123.210  1.00  0.00    -0.294 OA
BRANCH  11  13
ATOM     13  C   UNL     1     127.914 176.899 121.103  1.00  0.00    -0.002 C 
ATOM     14  C   UNL     1     128.672 175.785 120.887  1.00  0.00    -0.069 C 
ATOM     15  C   UNL     1     129.572 175.667 119.678  1.00  0.00     0.039 C 
ATOM     16  C   UNL     1     128.608 174.596 121.822  1.00  0.00     0.039 C 
BRANCH  13  17
ATOM     17  C   UNL     1     127.913 178.050 120.105  1.00  0.00     0.066 CG0
ATOM     18  G   UNL     1     127.104 177.721 118.872  1.00  0.00     0.000 G0
ENDBRANCH  13  17
ENDBRANCH  11  13
ENDBRANCH  10  11
ENDBRANCH   1  10
TORSDOF 0
ENDMDL
MODEL 3
REMARK VINA RESULT:    -4.724      5.498      7.908
REMARK INTER + INTRA:          -6.167
REMARK INTER:                  -6.470
REMARK INTRA:                   0.302
REMARK UNBOUND:                 0.490
REMARK SMILES CC1=CCC(=C(C)C)C(=O)CC(C)=CCC1
REMARK SMILES IDX 12 1 14 2 13 3 15 4 16 5 2 6 1 7 3 8 11 10 9 11 10 12 5 13
REMARK SMILES IDX 6 14 7 15 8 16 4 17
REMARK H PARENT
REMARK Flexibility Score: 60.00
ROOT
ATOM      1  C   UNL     1     123.869 176.884 123.791  1.00  0.00    -0.070 C 
ATOM      2  C   UNL     1     123.105 177.064 122.687  1.00  0.00    -0.027 C 
ATOM      3  C   UNL     1     123.262 176.146 124.957  1.00  0.00     0.039 C 
ENDROOT
BRANCH   2   4
ATOM      4  C   UNL     1     123.498 177.833 121.448  1.00  0.00     0.032 C 
BRANCH   4   5
ATOM      5  C   UNL     1     123.927 176.921 120.286  1.00  0.00     0.034 C 
BRANCH   5   6
ATOM      6  C   UNL     1     125.122 177.466 119.525  1.00  0.00    -0.077 C 
ATOM      7  C   UNL     1     124.875 178.501 118.456  1.00  0.00     0.039 C 
ATOM      8  C   UNL     1     126.400 177.095 119.762  1.00  0.00    -0.023 CG0
ATOM      9  G   UNL     1     126.858 176.123 120.825  1.00  0.00     0.000 G0
ENDBRANCH   5   6
ENDBRANCH   4   5
ENDBRANCH   2   4
BRANCH   1  10
ATOM     10  C   UNL     1     125.290 177.400 123.928  1.00  0.00     0.111 C 
BRANCH  10  11
ATOM     11  C   UNL     1     126.305 176.449 123.343  1.00  0.00     0.163 C 
ATOM     12  O   UNL     1     126.483 175.343 123.920  1.00  0.00    -0.294 OA
BRANCH  11  13
ATOM     13  C   UNL     1     127.153 176.806 122.164  1.00  0.00    -0.002 C 
ATOM     14  C   UNL     1     128.237 177.621 122.315  1.00  0.00    -0.069 C 
ATOM     15  C   UNL     1     129.170 177.910 121.161  1.00  0.00     0.039 C 
ATOM     16  C   UNL     1     128.582 178.232 123.655  1.00  0.00     0.039 C 
BRANCH  13  17
ATOM     17  C   UNL     1     126.868 176.118 120.835  1.00  0.00     0.066 CG0
ATOM     18  G   UNL     1     126.410 177.102 119.783  1.00  0.00     0.000 G0
ENDBRANCH  13  17
ENDBRANCH  11  13
ENDBRANCH  10  11
ENDBRANCH   1  10
TORSDOF 0
ENDMDL
MODEL 4
REMARK VINA RESULT:    -4.694      2.036      3.702
REMARK INTER + INTRA:          -6.124
REMARK INTER:                  -6.585
REMARK INTRA:                   0.460
REMARK UNBOUND:                 0.490
REMARK SMILES CC1=CCC(=C(C)C)C(=O)CC(C)=CCC1
REMARK SMILES IDX 12 1 14 2 13 3 15 4 16 5 2 6 1 7 3 8 11 10 9 11 10 12 5 13
REMARK SMILES IDX 6 14 7 15 8 16 4 17
REMARK H PARENT
REMARK Flexibility Score: 60.00
ROOT
ATOM      1  C   UNL     1     121.666 178.667 126.897  1.00  0.00    -0.070 C 
ATOM      2  C   UNL     1     121.146 179.212 125.772  1.00  0.00    -0.027 C 
ATOM      3  C   UNL     1     123.132 178.315 126.901  1.00  0.00     0.039 C 
ENDROOT
BRANCH   2   4
ATOM      4  C   UNL     1     119.697 179.567 125.541  1.00  0.00     0.032 C 
BRANCH   4   5
ATOM      5  C   UNL     1     118.998 178.621 124.550  1.00  0.00     0.034 C 
BRANCH   5   6
ATOM      6  C   UNL     1     118.032 177.669 125.233  1.00  0.00    -0.077 C 
ATOM      7  C   UNL     1     116.578 178.059 125.307  1.00  0.00     0.039 C 
ATOM      8  C   UNL     1     118.395 176.479 125.762  1.00  0.00    -0.023 CG0
ATOM      9  G   UNL     1     119.784 175.885 125.737  1.00  0.00     0.000 G0
ENDBRANCH   5   6
ENDBRANCH   4   5
ENDBRANCH   2   4
BRANCH   1  10
ATOM     10  C   UNL     1     120.853 178.371 128.145  1.00  0.00     0.111 C 
BRANCH  10  11
ATOM     11  C   UNL     1     120.062 177.092 128.024  1.00  0.00     0.163 C 
ATOM     12  O   UNL     1     119.067 176.936 128.782  1.00  0.00    -0.294 OA
BRANCH  11  13
ATOM     13  C   UNL     1     120.465 175.983 127.106  1.00  0.00    -0.002 C 
ATOM     14  C   UNL     1     121.326 175.013 127.530  1.00  0.00    -0.069 C 
ATOM     15  C   UNL     1     121.665 173.826 126.657  1.00  0.00     0.039 C 
ATOM     16  C   UNL     1     121.944 175.057 128.911  1.00  0.00     0.039 C 
BRANCH  13  17
ATOM     17  C   UNL     1     119.774 175.880 125.752  1.00  0.00     0.066 CG0
ATOM     18  G   UNL     1     118.390 176.486 125.781  1.00  0.00     0.000 G0
ENDBRANCH  13  17
ENDBRANCH  11  13
ENDBRANCH  10  11
ENDBRANCH   1  10
TORSDOF 0
ENDMDL
MODEL 5
REMARK VINA RESULT:    -4.638      6.354      8.634
REMARK INTER + INTRA:          -6.046
REMARK INTER:                  -6.467
REMARK INTRA:                   0.422
REMARK UNBOUND:                 0.490
REMARK SMILES CC1=CCC(=C(C)C)C(=O)CC(C)=CCC1
REMARK SMILES IDX 12 1 14 2 13 3 15 4 16 5 2 6 1 7 3 8 11 10 9 11 10 12 5 13
REMARK SMILES IDX 6 14 7 15 8 16 4 17
REMARK H PARENT
REMARK Flexibility Score: 60.00
ROOT
ATOM      1  C   UNL     1     124.554 177.610 121.874  1.00  0.00    -0.070 C 
ATOM      2  C   UNL     1     124.449 177.253 123.176  1.00  0.00    -0.027 C 
ATOM      3  C   UNL     1     123.283 177.877 121.109  1.00  0.00     0.039 C 
ENDROOT
BRANCH   2   4
ATOM      4  C   UNL     1     125.588 176.876 124.091  1.00  0.00     0.032 C 
BRANCH   4   5
ATOM      5  C   UNL     1     126.201 175.505 123.755  1.00  0.00     0.034 C 
BRANCH   5   6
ATOM      6  C   UNL     1     127.708 175.563 123.586  1.00  0.00    -0.077 C 
ATOM      7  C   UNL     1     128.543 175.983 124.769  1.00  0.00     0.039 C 
ATOM      8  C   UNL     1     128.351 175.240 122.442  1.00  0.00    -0.023 CG0
ATOM      9  G   UNL     1     127.702 174.742 121.171  1.00  0.00     0.000 G0
ENDBRANCH   5   6
ENDBRANCH   4   5
ENDBRANCH   2   4
BRANCH   1  10
ATOM     10  C   UNL     1     125.876 177.737 121.138  1.00  0.00     0.111 C 
BRANCH  10  11
ATOM     11  C   UNL     1     126.134 176.570 120.218  1.00  0.00     0.163 C 
ATOM     12  O   UNL     1     125.174 176.137 119.525  1.00  0.00    -0.294 OA
BRANCH  11  13
ATOM     13  C   UNL     1     127.452 175.867 120.163  1.00  0.00    -0.002 C 
ATOM     14  C   UNL     1     128.442 176.318 119.339  1.00  0.00    -0.069 C 
ATOM     15  C   UNL     1     129.817 175.690 119.344  1.00  0.00     0.039 C 
ATOM     16  C   UNL     1     128.222 177.498 118.417  1.00  0.00     0.039 C 
BRANCH  13  17
ATOM     17  C   UNL     1     127.712 174.741 121.156  1.00  0.00     0.066 CG0
ATOM     18  G   UNL     1     128.339 175.253 122.432  1.00  0.00     0.000 G0
ENDBRANCH  13  17
ENDBRANCH  11  13
ENDBRANCH  10  11
ENDBRANCH   1  10
TORSDOF 0
ENDMDL
MODEL 6
REMARK VINA RESULT:    -4.632      1.606      3.147
REMARK INTER + INTRA:          -6.037
REMARK INTER:                  -6.155
REMARK INTRA:                   0.118
REMARK UNBOUND:                 0.490
REMARK SMILES CC1=CCC(=C(C)C)C(=O)CC(C)=CCC1
REMARK SMILES IDX 12 1 14 2 13 3 15 4 16 5 2 6 1 7 3 8 11 10 9 11 10 12 5 13
REMARK SMILES IDX 6 14 7 15 8 16 4 17
REMARK H PARENT
REMARK Flexibility Score: 60.00
ROOT
ATOM      1  C   UNL     1     121.569 177.431 123.998  1.00  0.00    -0.070 C 
ATOM      2  C   UNL     1     120.682 178.401 123.672  1.00  0.00    -0.027 C 
ATOM      3  C   UNL     1     123.006 177.620 123.583  1.00  0.00     0.039 C 
ENDROOT
BRANCH   2   4
ATOM      4  C   UNL     1     119.194 178.372 123.930  1.00  0.00     0.032 C 
BRANCH   4   5
ATOM      5  C   UNL     1     118.822 178.830 125.350  1.00  0.00     0.034 C 
BRANCH   5   6
ATOM      6  C   UNL     1     117.860 177.880 126.039  1.00  0.00    -0.077 C 
ATOM      7  C   UNL     1     116.460 177.758 125.489  1.00  0.00     0.039 C 
ATOM      8  C   UNL     1     118.188 177.117 127.106  1.00  0.00    -0.023 CG0
ATOM      9  G   UNL     1     119.547 177.051 127.763  1.00  0.00     0.000 G0
ENDBRANCH   5   6
ENDBRANCH   4   5
ENDBRANCH   2   4
BRANCH   1  10
ATOM     10  C   UNL     1     121.195 176.159 124.737  1.00  0.00     0.111 C 
BRANCH  10  11
ATOM     11  C   UNL     1     121.447 176.262 126.221  1.00  0.00     0.163 C 
ATOM     12  O   UNL     1     122.606 176.577 126.605  1.00  0.00    -0.294 OA
BRANCH  11  13
ATOM     13  C   UNL     1     120.403 175.928 127.238  1.00  0.00    -0.002 C 
ATOM     14  C   UNL     1     120.326 174.669 127.760  1.00  0.00    -0.069 C 
ATOM     15  C   UNL     1     119.350 174.334 128.865  1.00  0.00     0.039 C 
ATOM     16  C   UNL     1     121.248 173.564 127.291  1.00  0.00     0.039 C 
BRANCH  13  17
ATOM     17  C   UNL     1     119.538 177.056 127.784  1.00  0.00     0.066 CG0
ATOM     18  G   UNL     1     118.187 177.104 127.107  1.00  0.00     0.000 G0
ENDBRANCH  13  17
ENDBRANCH  11  13
ENDBRANCH  10  11
ENDBRANCH   1  10
TORSDOF 0
ENDMDL
MODEL 7
REMARK VINA RESULT:    -4.586      5.800      8.242
REMARK INTER + INTRA:          -5.973
REMARK INTER:                  -6.253
REMARK INTRA:                   0.280
REMARK UNBOUND:                 0.490
REMARK SMILES CC1=CCC(=C(C)C)C(=O)CC(C)=CCC1
REMARK SMILES IDX 12 1 14 2 13 3 15 4 16 5 2 6 1 7 3 8 11 10 9 11 10 12 5 13
REMARK SMILES IDX 6 14 7 15 8 16 4 17
REMARK H PARENT
REMARK Flexibility Score: 60.00
ROOT
ATOM      1  C   UNL     1     123.754 177.361 122.736  1.00  0.00    -0.070 C 
ATOM      2  C   UNL     1     123.424 177.720 121.473  1.00  0.00    -0.027 C 
ATOM      3  C   UNL     1     122.636 177.050 123.698  1.00  0.00     0.039 C 
ENDROOT
BRANCH   2   4
ATOM      4  C   UNL     1     124.384 178.138 120.386  1.00  0.00     0.032 C 
BRANCH   4   5
ATOM      5  C   UNL     1     124.808 176.970 119.478  1.00  0.00     0.034 C 
BRANCH   5   6
ATOM      6  C   UNL     1     126.315 176.840 119.358  1.00  0.00    -0.077 C 
ATOM      7  C   UNL     1     127.044 177.795 118.446  1.00  0.00     0.039 C 
ATOM      8  C   UNL     1     127.050 175.930 120.037  1.00  0.00    -0.023 CG0
ATOM      9  G   UNL     1     126.518 174.931 121.038  1.00  0.00     0.000 G0
ENDBRANCH   5   6
ENDBRANCH   4   5
ENDBRANCH   2   4
BRANCH   1  10
ATOM     10  C   UNL     1     125.183 177.273 123.242  1.00  0.00     0.111 C 
BRANCH  10  11
ATOM     11  C   UNL     1     125.680 175.850 123.313  1.00  0.00     0.163 C 
ATOM     12  O   UNL     1     125.155 175.079 124.162  1.00  0.00    -0.294 OA
BRANCH  11  13
ATOM     13  C   UNL     1     126.816 175.354 122.478  1.00  0.00    -0.002 C 
ATOM     14  C   UNL     1     128.049 175.162 123.032  1.00  0.00    -0.069 C 
ATOM     15  C   UNL     1     129.185 174.562 122.235  1.00  0.00     0.039 C 
ATOM     16  C   UNL     1     128.321 175.497 124.482  1.00  0.00     0.039 C 
BRANCH  13  17
ATOM     17  C   UNL     1     126.526 174.924 121.045  1.00  0.00     0.066 CG0
ATOM     18  G   UNL     1     127.040 175.933 120.044  1.00  0.00     0.000 G0
ENDBRANCH  13  17
ENDBRANCH  11  13
ENDBRANCH  10  11
ENDBRANCH   1  10
TORSDOF 0
ENDMDL
MODEL 8
REMARK VINA RESULT:    -4.485      2.334      3.031
REMARK INTER + INTRA:          -5.831
REMARK INTER:                  -6.182
REMARK INTRA:                   0.352
REMARK UNBOUND:                 0.490
REMARK SMILES CC1=CCC(=C(C)C)C(=O)CC(C)=CCC1
REMARK SMILES IDX 12 1 14 2 13 3 15 4 16 5 2 6 1 7 3 8 11 10 9 11 10 12 5 13
REMARK SMILES IDX 6 14 7 15 8 16 4 17
REMARK H PARENT
REMARK Flexibility Score: 60.00
ROOT
ATOM      1  C   UNL     1     120.770 175.767 124.928  1.00  0.00    -0.070 C 
ATOM      2  C   UNL     1     120.644 174.454 125.233  1.00  0.00    -0.027 C 
ATOM      3  C   UNL     1     122.035 176.215 124.242  1.00  0.00     0.039 C 
ENDROOT
BRANCH   2   4
ATOM      4  C   UNL     1     119.495 173.818 125.979  1.00  0.00     0.032 C 
BRANCH   4   5
ATOM      5  C   UNL     1     119.796 173.599 127.471  1.00  0.00     0.034 C 
BRANCH   5   6
ATOM      6  C   UNL     1     121.257 173.827 127.813  1.00  0.00    -0.077 C 
ATOM      7  C   UNL     1     122.250 172.750 127.456  1.00  0.00     0.039 C 
ATOM      8  C   UNL     1     121.728 174.949 128.403  1.00  0.00    -0.023 CG0
ATOM      9  G   UNL     1     120.907 176.160 128.783  1.00  0.00     0.000 G0
ENDBRANCH   5   6
ENDBRANCH   4   5
ENDBRANCH   2   4
BRANCH   1  10
ATOM     10  C   UNL     1     119.720 176.814 125.254  1.00  0.00     0.111 C 
BRANCH  10  11
ATOM     11  C   UNL     1     119.574 177.036 126.740  1.00  0.00     0.163 C 
ATOM     12  O   UNL     1     118.413 177.185 127.207  1.00  0.00    -0.294 OA
BRANCH  11  13
ATOM     13  C   UNL     1     120.753 177.166 127.651  1.00  0.00    -0.002 C 
ATOM     14  C   UNL     1     121.592 178.237 127.547  1.00  0.00    -0.069 C 
ATOM     15  C   UNL     1     122.727 178.445 128.524  1.00  0.00     0.039 C 
ATOM     16  C   UNL     1     121.395 179.291 126.479  1.00  0.00     0.039 C 
BRANCH  13  17
ATOM     17  C   UNL     1     120.901 176.162 128.788  1.00  0.00     0.066 CG0
ATOM     18  G   UNL     1     121.732 174.969 128.377  1.00  0.00     0.000 G0
ENDBRANCH  13  17
ENDBRANCH  11  13
ENDBRANCH  10  11
ENDBRANCH   1  10
TORSDOF 0
ENDMDL
MODEL 9
REMARK VINA RESULT:    -4.332      6.415      8.757
REMARK INTER + INTRA:          -5.615
REMARK INTER:                  -6.102
REMARK INTRA:                   0.487
REMARK UNBOUND:                 0.490
REMARK SMILES CC1=CCC(=C(C)C)C(=O)CC(C)=CCC1
REMARK SMILES IDX 12 1 14 2 13 3 15 4 16 5 2 6 1 7 3 8 11 10 9 11 10 12 5 13
REMARK SMILES IDX 6 14 7 15 8 16 4 17
REMARK H PARENT
REMARK Flexibility Score: 60.00
ROOT
ATOM      1  C   UNL     1     126.257 177.161 123.685  1.00  0.00    -0.070 C 
ATOM      2  C   UNL     1     126.768 176.059 124.284  1.00  0.00    -0.027 C 
ATOM      3  C   UNL     1     124.763 177.355 123.718  1.00  0.00     0.039 C 
ENDROOT
BRANCH   2   4
ATOM      4  C   UNL     1     128.220 175.646 124.301  1.00  0.00     0.032 C 
BRANCH   4   5
ATOM      5  C   UNL     1     128.590 174.704 123.142  1.00  0.00     0.034 C 
BRANCH   5   6
ATOM      6  C   UNL     1     127.379 174.019 122.535  1.00  0.00    -0.077 C 
ATOM      7  C   UNL     1     126.692 172.942 123.336  1.00  0.00     0.039 C 
ATOM      8  C   UNL     1     126.865 174.331 121.324  1.00  0.00    -0.023 CG0
ATOM      9  G   UNL     1     127.371 175.415 120.399  1.00  0.00     0.000 G0
ENDBRANCH   5   6
ENDBRANCH   4   5
ENDBRANCH   2   4
BRANCH   1  10
ATOM     10  C   UNL     1     127.101 178.198 122.966  1.00  0.00     0.111 C 
BRANCH  10  11
ATOM     11  C   UNL     1     127.586 177.712 121.622  1.00  0.00     0.163 C 
ATOM     12  O   UNL     1     128.680 178.162 121.187  1.00  0.00    -0.294 OA
BRANCH  11  13
ATOM     13  C   UNL     1     126.781 176.789 120.764  1.00  0.00    -0.002 C 
ATOM     14  C   UNL     1     125.611 177.212 120.202  1.00  0.00    -0.069 C 
ATOM     15  C   UNL     1     124.835 176.335 119.247  1.00  0.00     0.039 C 
ATOM     16  C   UNL     1     125.064 178.598 120.472  1.00  0.00     0.039 C 
BRANCH  13  17
ATOM     17  C   UNL     1     127.372 175.430 120.412  1.00  0.00     0.066 CG0
ATOM     18  G   UNL     1     126.859 174.342 121.325  1.00  0.00     0.000 G0
ENDBRANCH  13  17
ENDBRANCH  11  13
ENDBRANCH  10  11
ENDBRANCH   1  10
TORSDOF 0
ENDMDL
