MODEL 1
REMARK VINA RESULT:    -5.076      0.000      0.000
REMARK INTER + INTRA:          -5.567
REMARK INTER:                  -5.373
REMARK INTRA:                  -0.194
REMARK UNBOUND:                -0.194
REMARK SMILES CC1=CC[C@@H](C(C)C)C=C1
REMARK SMILES IDX 1 1 2 2 3 3 4 4 5 5 9 6 10 7 6 8 7 9 8 10
REMARK H PARENT
REMARK Flexibility Score: inf
ROOT
ATOM      1  C   UNL     1     109.196 111.420 114.175  1.00  0.00     0.044 C 
ATOM      2  C   UNL     1     109.329 111.405 112.681  1.00  0.00    -0.055 C 
ATOM      3  C   UNL     1     109.145 110.266 111.996  1.00  0.00    -0.023 C 
ATOM      4  C   UNL     1     109.137 110.268 110.488  1.00  0.00     0.035 C 
ATOM      5  C   UNL     1     110.112 111.332 109.920  1.00  0.00     0.018 C 
ATOM      6  C   UNL     1     109.890 112.648 110.649  1.00  0.00    -0.023 C 
ATOM      7  C   UNL     1     109.583 112.664 111.950  1.00  0.00    -0.001 C 
ENDROOT
BRANCH   5   8
ATOM      8  C   UNL     1     109.990 111.509 108.374  1.00  0.00    -0.010 C 
ATOM      9  C   UNL     1     109.376 110.259 107.715  1.00  0.00     0.008 C 
ATOM     10  C   UNL     1     109.139 112.732 107.987  1.00  0.00     0.008 C 
ENDBRANCH   5   8
TORSDOF 1
ENDMDL
MODEL 2
REMARK VINA RESULT:    -5.067      2.962      4.847
REMARK INTER + INTRA:          -5.558
REMARK INTER:                  -5.364
REMARK INTRA:                  -0.195
REMARK UNBOUND:                -0.194
REMARK SMILES CC1=CC[C@@H](C(C)C)C=C1
REMARK SMILES IDX 1 1 2 2 3 3 4 4 5 5 9 6 10 7 6 8 7 9 8 10
REMARK H PARENT
REMARK Flexibility Score: inf
ROOT
ATOM      1  C   UNL     1     109.190 111.425 119.021  1.00  0.00     0.044 C 
ATOM      2  C   UNL     1     109.330 111.420 117.527  1.00  0.00    -0.055 C 
ATOM      3  C   UNL     1     109.121 110.293 116.830  1.00  0.00    -0.023 C 
ATOM      4  C   UNL     1     109.119 110.309 115.322  1.00  0.00     0.035 C 
ATOM      5  C   UNL     1     110.121 111.354 114.768  1.00  0.00     0.018 C 
ATOM      6  C   UNL     1     109.927 112.669 115.508  1.00  0.00    -0.023 C 
ATOM      7  C   UNL     1     109.616 112.680 116.809  1.00  0.00    -0.001 C 
ENDROOT
BRANCH   5   8
ATOM      8  C   UNL     1     110.009 111.549 113.224  1.00  0.00    -0.010 C 
ATOM      9  C   UNL     1     109.351 110.328 112.553  1.00  0.00     0.008 C 
ATOM     10  C   UNL     1     109.205 112.806 112.845  1.00  0.00     0.008 C 
ENDBRANCH   5   8
TORSDOF 1
ENDMDL
MODEL 3
REMARK VINA RESULT:    -5.041      3.157      3.817
REMARK INTER + INTRA:          -5.531
REMARK INTER:                  -5.336
REMARK INTRA:                  -0.195
REMARK UNBOUND:                -0.194
REMARK SMILES CC1=CC[C@@H](C(C)C)C=C1
REMARK SMILES IDX 1 1 2 2 3 3 4 4 5 5 9 6 10 7 6 8 7 9 8 10
REMARK H PARENT
REMARK Flexibility Score: inf
ROOT
ATOM      1  C   UNL     1     112.779 110.960 114.023  1.00  0.00     0.044 C 
ATOM      2  C   UNL     1     112.725 110.937 112.524  1.00  0.00    -0.055 C 
ATOM      3  C   UNL     1     112.945 112.058 111.820  1.00  0.00    -0.023 C 
ATOM      4  C   UNL     1     113.032 112.017 110.315  1.00  0.00     0.035 C 
ATOM      5  C   UNL     1     112.090 110.937 109.724  1.00  0.00     0.018 C 
ATOM      6  C   UNL     1     112.274 109.641 110.497  1.00  0.00    -0.023 C 
ATOM      7  C   UNL     1     112.511 109.659 111.813  1.00  0.00    -0.001 C 
ENDROOT
BRANCH   5   8
ATOM      8  C   UNL     1     112.293 110.720 108.192  1.00  0.00    -0.010 C 
ATOM      9  C   UNL     1     112.975 111.940 107.541  1.00  0.00     0.008 C 
ATOM     10  C   UNL     1     113.134 109.468 107.881  1.00  0.00     0.008 C 
ENDBRANCH   5   8
TORSDOF 1
ENDMDL
MODEL 4
REMARK VINA RESULT:    -5.017      4.289      6.058
REMARK INTER + INTRA:          -5.505
REMARK INTER:                  -5.310
REMARK INTRA:                  -0.196
REMARK UNBOUND:                -0.194
REMARK SMILES CC1=CC[C@@H](C(C)C)C=C1
REMARK SMILES IDX 1 1 2 2 3 3 4 4 5 5 9 6 10 7 6 8 7 9 8 10
REMARK H PARENT
REMARK Flexibility Score: inf
ROOT
ATOM      1  C   UNL     1     112.824 111.026 118.895  1.00  0.00     0.044 C 
ATOM      2  C   UNL     1     112.751 111.007 117.397  1.00  0.00    -0.055 C 
ATOM      3  C   UNL     1     112.954 112.132 116.694  1.00  0.00    -0.023 C 
ATOM      4  C   UNL     1     113.023 112.098 115.189  1.00  0.00     0.035 C 
ATOM      5  C   UNL     1     112.082 111.013 114.605  1.00  0.00     0.018 C 
ATOM      6  C   UNL     1     112.285 109.715 115.371  1.00  0.00    -0.023 C 
ATOM      7  C   UNL     1     112.539 109.730 116.684  1.00  0.00    -0.001 C 
ENDROOT
BRANCH   5   8
ATOM      8  C   UNL     1     112.268 110.803 113.070  1.00  0.00    -0.010 C 
ATOM      9  C   UNL     1     112.998 111.999 112.427  1.00  0.00     0.008 C 
ATOM     10  C   UNL     1     113.053 109.519 112.742  1.00  0.00     0.008 C 
ENDBRANCH   5   8
TORSDOF 1
ENDMDL
MODEL 5
REMARK VINA RESULT:    -4.989      3.332      3.589
REMARK INTER + INTRA:          -5.475
REMARK INTER:                  -5.350
REMARK INTRA:                  -0.126
REMARK UNBOUND:                -0.194
REMARK SMILES CC1=CC[C@@H](C(C)C)C=C1
REMARK SMILES IDX 1 1 2 2 3 3 4 4 5 5 9 6 10 7 6 8 7 9 8 10
REMARK H PARENT
REMARK Flexibility Score: inf
ROOT
ATOM      1  C   UNL     1     113.194 110.952 113.819  1.00  0.00     0.044 C 
ATOM      2  C   UNL     1     112.929 110.883 112.344  1.00  0.00    -0.055 C 
ATOM      3  C   UNL     1     112.559 109.726 111.775  1.00  0.00    -0.023 C 
ATOM      4  C   UNL     1     112.155 109.676 110.324  1.00  0.00     0.035 C 
ATOM      5  C   UNL     1     112.955 110.700 109.479  1.00  0.00     0.018 C 
ATOM      6  C   UNL     1     112.945 112.045 110.190  1.00  0.00    -0.023 C 
ATOM      7  C   UNL     1     112.993 112.111 111.525  1.00  0.00    -0.001 C 
ENDROOT
BRANCH   5   8
ATOM      8  C   UNL     1     112.431 110.827 108.014  1.00  0.00    -0.010 C 
ATOM      9  C   UNL     1     112.996 112.086 107.326  1.00  0.00     0.008 C 
ATOM     10  C   UNL     1     112.785 109.601 107.153  1.00  0.00     0.008 C 
ENDBRANCH   5   8
TORSDOF 1
ENDMDL
MODEL 6
REMARK VINA RESULT:    -4.987      3.995      5.266
REMARK INTER + INTRA:          -5.473
REMARK INTER:                  -5.274
REMARK INTRA:                  -0.199
REMARK UNBOUND:                -0.194
REMARK SMILES CC1=CC[C@@H](C(C)C)C=C1
REMARK SMILES IDX 1 1 2 2 3 3 4 4 5 5 9 6 10 7 6 8 7 9 8 10
REMARK H PARENT
REMARK Flexibility Score: inf
ROOT
ATOM      1  C   UNL     1     112.852 111.637 118.273  1.00  0.00     0.044 C 
ATOM      2  C   UNL     1     112.790 111.369 116.799  1.00  0.00    -0.055 C 
ATOM      3  C   UNL     1     112.604 110.121 116.343  1.00  0.00    -0.023 C 
ATOM      4  C   UNL     1     112.399 109.860 114.873  1.00  0.00     0.035 C 
ATOM      5  C   UNL     1     113.206 110.859 114.005  1.00  0.00     0.018 C 
ATOM      6  C   UNL     1     112.981 112.268 114.530  1.00  0.00    -0.023 C 
ATOM      7  C   UNL     1     112.847 112.494 115.841  1.00  0.00    -0.001 C 
ENDROOT
BRANCH   5   8
ATOM      8  C   UNL     1     112.869 110.758 112.484  1.00  0.00    -0.010 C 
ATOM      9  C   UNL     1     111.441 110.221 112.263  1.00  0.00     0.008 C 
ATOM     10  C   UNL     1     112.999 112.111 111.761  1.00  0.00     0.008 C 
ENDBRANCH   5   8
TORSDOF 1
ENDMDL
MODEL 7
REMARK VINA RESULT:    -4.985      2.501      4.511
REMARK INTER + INTRA:          -5.471
REMARK INTER:                  -5.271
REMARK INTRA:                  -0.199
REMARK UNBOUND:                -0.194
REMARK SMILES CC1=CC[C@@H](C(C)C)C=C1
REMARK SMILES IDX 1 1 2 2 3 3 4 4 5 5 9 6 10 7 6 8 7 9 8 10
REMARK H PARENT
REMARK Flexibility Score: inf
ROOT
ATOM      1  C   UNL     1     109.430 110.650 118.200  1.00  0.00     0.044 C 
ATOM      2  C   UNL     1     109.480 110.899 116.722  1.00  0.00    -0.055 C 
ATOM      3  C   UNL     1     109.717 112.132 116.249  1.00  0.00    -0.023 C 
ATOM      4  C   UNL     1     109.909 112.367 114.773  1.00  0.00     0.035 C 
ATOM      5  C   UNL     1     109.040 111.400 113.929  1.00  0.00     0.018 C 
ATOM      6  C   UNL     1     109.206 109.987 114.467  1.00  0.00    -0.023 C 
ATOM      7  C   UNL     1     109.351 109.769 115.778  1.00  0.00    -0.001 C 
ENDROOT
BRANCH   5   8
ATOM      8  C   UNL     1     109.355 111.468 112.402  1.00  0.00    -0.010 C 
ATOM      9  C   UNL     1     110.753 112.063 112.146  1.00  0.00     0.008 C 
ATOM     10  C   UNL     1     109.280 110.088 111.723  1.00  0.00     0.008 C 
ENDBRANCH   5   8
TORSDOF 1
ENDMDL
MODEL 8
REMARK VINA RESULT:    -4.958      3.390      5.839
REMARK INTER + INTRA:          -5.442
REMARK INTER:                  -5.252
REMARK INTRA:                  -0.190
REMARK UNBOUND:                -0.194
REMARK SMILES CC1=CC[C@@H](C(C)C)C=C1
REMARK SMILES IDX 1 1 2 2 3 3 4 4 5 5 9 6 10 7 6 8 7 9 8 10
REMARK H PARENT
REMARK Flexibility Score: inf
ROOT
ATOM      1  C   UNL     1     112.920 110.678 108.762  1.00  0.00     0.044 C 
ATOM      2  C   UNL     1     112.869 110.809 110.255  1.00  0.00    -0.055 C 
ATOM      3  C   UNL     1     113.081 111.998 110.840  1.00  0.00    -0.023 C 
ATOM      4  C   UNL     1     112.893 112.170 112.325  1.00  0.00     0.035 C 
ATOM      5  C   UNL     1     113.277 110.881 113.096  1.00  0.00     0.018 C 
ATOM      6  C   UNL     1     112.629 109.685 112.416  1.00  0.00    -0.023 C 
ATOM      7  C   UNL     1     112.500 109.643 111.086  1.00  0.00    -0.001 C 
ENDROOT
BRANCH   5   8
ATOM      8  C   UNL     1     112.909 110.942 114.612  1.00  0.00    -0.010 C 
ATOM      9  C   UNL     1     113.020 112.380 115.155  1.00  0.00     0.008 C 
ATOM     10  C   UNL     1     111.488 110.421 114.895  1.00  0.00     0.008 C 
ENDBRANCH   5   8
TORSDOF 1
ENDMDL
MODEL 9
REMARK VINA RESULT:    -4.933      0.764      2.015
REMARK INTER + INTRA:          -5.416
REMARK INTER:                  -5.218
REMARK INTRA:                  -0.198
REMARK UNBOUND:                -0.194
REMARK SMILES CC1=CC[C@@H](C(C)C)C=C1
REMARK SMILES IDX 1 1 2 2 3 3 4 4 5 5 9 6 10 7 6 8 7 9 8 10
REMARK H PARENT
REMARK Flexibility Score: inf
ROOT
ATOM      1  C   UNL     1     109.129 111.170 113.679  1.00  0.00     0.044 C 
ATOM      2  C   UNL     1     109.373 111.248 112.201  1.00  0.00    -0.055 C 
ATOM      3  C   UNL     1     109.804 112.390 111.644  1.00  0.00    -0.023 C 
ATOM      4  C   UNL     1     110.186 112.439 110.186  1.00  0.00     0.035 C 
ATOM      5  C   UNL     1     109.310 111.479 109.340  1.00  0.00     0.018 C 
ATOM      6  C   UNL     1     109.250 110.125 110.030  1.00  0.00    -0.023 C 
ATOM      7  C   UNL     1     109.221 110.039 111.364  1.00  0.00    -0.001 C 
ENDROOT
BRANCH   5   8
ATOM      8  C   UNL     1     109.801 111.344 107.864  1.00  0.00    -0.010 C 
ATOM      9  C   UNL     1     111.337 111.436 107.776  1.00  0.00     0.008 C 
ATOM     10  C   UNL     1     109.352 110.023 107.213  1.00  0.00     0.008 C 
ENDBRANCH   5   8
TORSDOF 1
ENDMDL
