MODEL 1
REMARK VINA RESULT:    -5.132      0.000      0.000
REMARK INTER + INTRA:          -5.831
REMARK INTER:                  -5.582
REMARK INTRA:                  -0.248
REMARK UNBOUND:                -0.248
REMARK SMILES O=C([O-])c1ccccc1O
REMARK SMILES IDX 4 1 9 2 5 3 8 4 6 5 7 6 2 7 1 8 3 9 10 10
REMARK H PARENT 10 11
REMARK Flexibility Score: inf
ROOT
ATOM      1  C   UNL     1      -5.379   9.768 -14.873  1.00  0.00     0.039 A 
ATOM      2  C   UNL     1      -5.809  10.976 -15.480  1.00  0.00     0.124 A 
ATOM      3  C   UNL     1      -5.075   8.665 -15.692  1.00  0.00     0.014 A 
ATOM      4  C   UNL     1      -5.983  11.030 -16.869  1.00  0.00     0.047 A 
ATOM      5  C   UNL     1      -5.233   8.742 -17.078  1.00  0.00     0.001 A 
ATOM      6  C   UNL     1      -5.697   9.919 -17.664  1.00  0.00     0.004 A 
ENDROOT
BRANCH   1   7
ATOM      7  C   UNL     1      -5.273   9.611 -13.406  1.00  0.00     0.075 C 
ATOM      8  O   UNL     1      -6.202  10.020 -12.658  1.00  0.00    -0.545 OA
ATOM      9  O   UNL     1      -4.128   9.077 -12.827  1.00  0.00    -0.545 OA
ENDBRANCH   1   7
BRANCH   2  10
ATOM     10  O   UNL     1      -6.037  12.144 -14.751  1.00  0.00    -0.507 OA
ATOM     11  H   UNL     1      -6.184  13.048 -15.180  1.00  0.00     0.293 HD
ENDBRANCH   2  10
TORSDOF 2
ENDMDL
MODEL 2
REMARK VINA RESULT:    -5.131      0.098      1.023
REMARK INTER + INTRA:          -5.829
REMARK INTER:                  -5.578
REMARK INTRA:                  -0.251
REMARK UNBOUND:                -0.248
REMARK SMILES O=C([O-])c1ccccc1O
REMARK SMILES IDX 4 1 9 2 5 3 8 4 6 5 7 6 2 7 1 8 3 9 10 10
REMARK H PARENT 10 11
REMARK Flexibility Score: inf
ROOT
ATOM      1  C   UNL     1      -5.360   9.771 -14.872  1.00  0.00     0.039 A 
ATOM      2  C   UNL     1      -5.825  10.948 -15.515  1.00  0.00     0.124 A 
ATOM      3  C   UNL     1      -5.034   8.650 -15.658  1.00  0.00     0.014 A 
ATOM      4  C   UNL     1      -6.011  10.952 -16.903  1.00  0.00     0.047 A 
ATOM      5  C   UNL     1      -5.205   8.678 -17.044  1.00  0.00     0.001 A 
ATOM      6  C   UNL     1      -5.703   9.823 -17.664  1.00  0.00     0.004 A 
ENDROOT
BRANCH   1   7
ATOM      7  C   UNL     1      -5.239   9.665 -13.401  1.00  0.00     0.075 C 
ATOM      8  O   UNL     1      -4.264   9.053 -12.889  1.00  0.00    -0.545 OA
ATOM      9  O   UNL     1      -6.227  10.176 -12.568  1.00  0.00    -0.545 OA
ENDBRANCH   1   7
BRANCH   2  10
ATOM     10  O   UNL     1      -6.078  12.133 -14.822  1.00  0.00    -0.507 OA
ATOM     11  H   UNL     1      -5.460  12.934 -14.846  1.00  0.00     0.293 HD
ENDBRANCH   2  10
TORSDOF 2
ENDMDL
MODEL 3
REMARK VINA RESULT:    -5.107      1.863      2.376
REMARK INTER + INTRA:          -5.803
REMARK INTER:                  -5.550
REMARK INTRA:                  -0.253
REMARK UNBOUND:                -0.248
REMARK SMILES O=C([O-])c1ccccc1O
REMARK SMILES IDX 4 1 9 2 5 3 8 4 6 5 7 6 2 7 1 8 3 9 10 10
REMARK H PARENT 10 11
REMARK Flexibility Score: inf
ROOT
ATOM      1  C   UNL     1      -5.931   9.011 -13.871  1.00  0.00     0.039 A 
ATOM      2  C   UNL     1      -4.680   9.677 -13.811  1.00  0.00     0.124 A 
ATOM      3  C   UNL     1      -6.307   8.375 -15.068  1.00  0.00     0.014 A 
ATOM      4  C   UNL     1      -3.875   9.743 -14.955  1.00  0.00     0.047 A 
ATOM      5  C   UNL     1      -5.483   8.432 -16.194  1.00  0.00     0.001 A 
ATOM      6  C   UNL     1      -4.274   9.124 -16.141  1.00  0.00     0.004 A 
ENDROOT
BRANCH   1   7
ATOM      7  C   UNL     1      -6.875   8.992 -12.731  1.00  0.00     0.075 C 
ATOM      8  O   UNL     1      -7.627   7.997 -12.549  1.00  0.00    -0.545 OA
ATOM      9  O   UNL     1      -6.996  10.090 -11.889  1.00  0.00    -0.545 OA
ENDBRANCH   1   7
BRANCH   2  10
ATOM     10  O   UNL     1      -4.188  10.249 -12.636  1.00  0.00    -0.507 OA
ATOM     11  H   UNL     1      -3.515  11.004 -12.625  1.00  0.00     0.293 HD
ENDBRANCH   2  10
TORSDOF 2
ENDMDL
MODEL 4
REMARK VINA RESULT:    -5.066      1.562      2.015
REMARK INTER + INTRA:          -5.759
REMARK INTER:                  -5.506
REMARK INTRA:                  -0.253
REMARK UNBOUND:                -0.248
REMARK SMILES O=C([O-])c1ccccc1O
REMARK SMILES IDX 4 1 9 2 5 3 8 4 6 5 7 6 2 7 1 8 3 9 10 10
REMARK H PARENT 10 11
REMARK Flexibility Score: inf
ROOT
ATOM      1  C   UNL     1      -5.202   9.402 -14.370  1.00  0.00     0.039 A 
ATOM      2  C   UNL     1      -6.386   9.022 -15.054  1.00  0.00     0.124 A 
ATOM      3  C   UNL     1      -4.008   9.542 -15.102  1.00  0.00     0.014 A 
ATOM      4  C   UNL     1      -6.332   8.733 -16.423  1.00  0.00     0.047 A 
ATOM      5  C   UNL     1      -3.977   9.271 -16.472  1.00  0.00     0.001 A 
ATOM      6  C   UNL     1      -5.134   8.857 -17.129  1.00  0.00     0.004 A 
ENDROOT
BRANCH   1   7
ATOM      7  C   UNL     1      -5.167   9.621 -12.907  1.00  0.00     0.075 C 
ATOM      8  O   UNL     1      -4.222   9.149 -12.220  1.00  0.00    -0.545 OA
ATOM      9  O   UNL     1      -6.203  10.286 -12.262  1.00  0.00    -0.545 OA
ENDBRANCH   1   7
BRANCH   2  10
ATOM     10  O   UNL     1      -7.630   8.953 -14.424  1.00  0.00    -0.507 OA
ATOM     11  H   UNL     1      -7.866   9.491 -13.601  1.00  0.00     0.293 HD
ENDBRANCH   2  10
TORSDOF 2
ENDMDL
MODEL 5
REMARK VINA RESULT:    -5.045      2.240      2.800
REMARK INTER + INTRA:          -5.736
REMARK INTER:                  -5.484
REMARK INTRA:                  -0.252
REMARK UNBOUND:                -0.248
REMARK SMILES O=C([O-])c1ccccc1O
REMARK SMILES IDX 4 1 9 2 5 3 8 4 6 5 7 6 2 7 1 8 3 9 10 10
REMARK H PARENT 10 11
REMARK Flexibility Score: inf
ROOT
ATOM      1  C   UNL     1      -5.928   9.451 -14.734  1.00  0.00     0.039 A 
ATOM      2  C   UNL     1      -6.913  10.302 -14.169  1.00  0.00     0.124 A 
ATOM      3  C   UNL     1      -6.290   8.143 -15.106  1.00  0.00     0.014 A 
ATOM      4  C   UNL     1      -8.202   9.807 -13.933  1.00  0.00     0.047 A 
ATOM      5  C   UNL     1      -7.586   7.672 -14.883  1.00  0.00     0.001 A 
ATOM      6  C   UNL     1      -8.537   8.500 -14.288  1.00  0.00     0.004 A 
ENDROOT
BRANCH   1   7
ATOM      7  C   UNL     1      -4.522   9.876 -14.915  1.00  0.00     0.075 C 
ATOM      8  O   UNL     1      -3.875   9.505 -15.930  1.00  0.00    -0.545 OA
ATOM      9  O   UNL     1      -3.876  10.629 -13.942  1.00  0.00    -0.545 OA
ENDBRANCH   1   7
BRANCH   2  10
ATOM     10  O   UNL     1      -6.664  11.641 -13.863  1.00  0.00    -0.507 OA
ATOM     11  H   UNL     1      -5.991  11.937 -13.169  1.00  0.00     0.293 HD
ENDBRANCH   2  10
TORSDOF 2
ENDMDL
MODEL 6
REMARK VINA RESULT:    -4.642      2.050      3.081
REMARK INTER + INTRA:          -5.297
REMARK INTER:                  -5.082
REMARK INTRA:                  -0.215
REMARK UNBOUND:                -0.248
REMARK SMILES O=C([O-])c1ccccc1O
REMARK SMILES IDX 4 1 9 2 5 3 8 4 6 5 7 6 2 7 1 8 3 9 10 10
REMARK H PARENT 10 11
REMARK Flexibility Score: inf
ROOT
ATOM      1  C   UNL     1      -6.800   8.712 -12.913  1.00  0.00     0.039 A 
ATOM      2  C   UNL     1      -5.583   9.266 -13.390  1.00  0.00     0.124 A 
ATOM      3  C   UNL     1      -7.535   7.857 -13.754  1.00  0.00     0.014 A 
ATOM      4  C   UNL     1      -5.172   9.004 -14.703  1.00  0.00     0.047 A 
ATOM      5  C   UNL     1      -7.099   7.589 -15.054  1.00  0.00     0.001 A 
ATOM      6  C   UNL     1      -5.925   8.170 -15.531  1.00  0.00     0.004 A 
ENDROOT
BRANCH   1   7
ATOM      7  C   UNL     1      -7.344   9.031 -11.574  1.00  0.00     0.075 C 
ATOM      8  O   UNL     1      -7.681   8.103 -10.792  1.00  0.00    -0.545 OA
ATOM      9  O   UNL     1      -7.556  10.349 -11.187  1.00  0.00    -0.545 OA
ENDBRANCH   1   7
BRANCH   2  10
ATOM     10  O   UNL     1      -4.745  10.044 -12.590  1.00  0.00    -0.507 OA
ATOM     11  H   UNL     1      -3.852  10.401 -12.902  1.00  0.00     0.293 HD
ENDBRANCH   2  10
TORSDOF 2
ENDMDL
MODEL 7
REMARK VINA RESULT:    -4.634      2.465      3.535
REMARK INTER + INTRA:          -5.289
REMARK INTER:                  -5.068
REMARK INTRA:                  -0.222
REMARK UNBOUND:                -0.248
REMARK SMILES O=C([O-])c1ccccc1O
REMARK SMILES IDX 4 1 9 2 5 3 8 4 6 5 7 6 2 7 1 8 3 9 10 10
REMARK H PARENT 10 11
REMARK Flexibility Score: inf
ROOT
ATOM      1  C   UNL     1      -5.751   9.177 -14.175  1.00  0.00     0.039 A 
ATOM      2  C   UNL     1      -6.363   8.405 -15.195  1.00  0.00     0.124 A 
ATOM      3  C   UNL     1      -6.248   9.088 -12.862  1.00  0.00     0.014 A 
ATOM      4  C   UNL     1      -7.484   7.622 -14.892  1.00  0.00     0.047 A 
ATOM      5  C   UNL     1      -7.354   8.284 -12.572  1.00  0.00     0.001 A 
ATOM      6  C   UNL     1      -7.977   7.561 -13.588  1.00  0.00     0.004 A 
ENDROOT
BRANCH   1   7
ATOM      7  C   UNL     1      -4.629  10.104 -14.447  1.00  0.00     0.075 C 
ATOM      8  O   UNL     1      -3.875   9.910 -15.437  1.00  0.00    -0.545 OA
ATOM      9  O   UNL     1      -4.350  11.156 -13.583  1.00  0.00    -0.545 OA
ENDBRANCH   1   7
BRANCH   2  10
ATOM     10  O   UNL     1      -5.874   8.361 -16.502  1.00  0.00    -0.507 OA
ATOM     11  H   UNL     1      -5.707   7.499 -17.004  1.00  0.00     0.293 HD
ENDBRANCH   2  10
TORSDOF 2
ENDMDL
MODEL 8
REMARK VINA RESULT:    -4.500      2.413      3.811
REMARK INTER + INTRA:          -5.143
REMARK INTER:                  -4.901
REMARK INTRA:                  -0.242
REMARK UNBOUND:                -0.248
REMARK SMILES O=C([O-])c1ccccc1O
REMARK SMILES IDX 4 1 9 2 5 3 8 4 6 5 7 6 2 7 1 8 3 9 10 10
REMARK H PARENT 10 11
REMARK Flexibility Score: inf
ROOT
ATOM      1  C   UNL     1      -5.728   8.806 -15.492  1.00  0.00     0.039 A 
ATOM      2  C   UNL     1      -5.016   9.488 -14.472  1.00  0.00     0.124 A 
ATOM      3  C   UNL     1      -6.924   8.143 -15.162  1.00  0.00     0.014 A 
ATOM      4  C   UNL     1      -5.480   9.438 -13.151  1.00  0.00     0.047 A 
ATOM      5  C   UNL     1      -7.385   8.121 -13.843  1.00  0.00     0.001 A 
ATOM      6  C   UNL     1      -6.658   8.758 -12.838  1.00  0.00     0.004 A 
ENDROOT
BRANCH   1   7
ATOM      7  C   UNL     1      -5.238   8.733 -16.887  1.00  0.00     0.075 C 
ATOM      8  O   UNL     1      -4.052   8.378 -17.123  1.00  0.00    -0.545 OA
ATOM      9  O   UNL     1      -6.051   9.116 -17.948  1.00  0.00    -0.545 OA
ENDBRANCH   1   7
BRANCH   2  10
ATOM     10  O   UNL     1      -3.875  10.250 -14.731  1.00  0.00    -0.507 OA
ATOM     11  H   UNL     1      -2.934   9.897 -14.620  1.00  0.00     0.293 HD
ENDBRANCH   2  10
TORSDOF 2
ENDMDL
