MODEL 1
REMARK VINA RESULT:    -5.775      0.000      0.000
REMARK INTER + INTRA:          -5.775
REMARK INTER:                  -5.775
REMARK INTRA:                   0.000
REMARK UNBOUND:                 0.000
REMARK SMILES O=c1ccc2ccc3occc3c2o1
REMARK SMILES IDX 6 1 7 2 8 3 12 4 11 5 10 6 9 7 13 8 5 9 4 10 3 11 2 12 1 13
REMARK SMILES IDX 14 14
REMARK H PARENT
REMARK Flexibility Score: inf
ROOT
ATOM      1  C   UNL     1       6.505 -30.249  14.774  1.00  0.00     0.016 A 
ATOM      2  C   UNL     1       7.183 -30.182  13.543  1.00  0.00     0.048 A 
ATOM      3  C   UNL     1       8.528 -29.810  13.553  1.00  0.00     0.137 A 
ATOM      4  C   UNL     1       9.187 -29.516  14.716  1.00  0.00     0.064 A 
ATOM      5  C   UNL     1      10.480 -29.193  14.371  1.00  0.00     0.054 A 
ATOM      6  C   UNL     1      10.515 -29.318  12.987  1.00  0.00     0.196 A 
ATOM      7  O   UNL     1       9.332 -29.689  12.527  1.00  0.00    -0.464 OA
ATOM      8  C   UNL     1       8.552 -29.570  15.954  1.00  0.00     0.149 A 
ATOM      9  C   UNL     1       7.183 -29.944  15.980  1.00  0.00     0.018 A 
ATOM     10  C   UNL     1       6.540 -30.001  17.220  1.00  0.00     0.019 A 
ATOM     11  C   UNL     1       7.255 -29.692  18.378  1.00  0.00     0.094 A 
ATOM     12  C   UNL     1       8.605 -29.331  18.271  1.00  0.00     0.336 A 
ATOM     13  O   UNL     1       9.262 -29.049  19.306  1.00  0.00    -0.246 OA
ATOM     14  O   UNL     1       9.198 -29.282  17.080  1.00  0.00    -0.422 OA
ENDROOT
TORSDOF 0
ENDMDL
MODEL 2
REMARK VINA RESULT:    -5.680      1.416      4.161
REMARK INTER + INTRA:          -5.680
REMARK INTER:                  -5.680
REMARK INTRA:                   0.000
REMARK UNBOUND:                 0.000
REMARK SMILES O=c1ccc2ccc3occc3c2o1
REMARK SMILES IDX 6 1 7 2 8 3 12 4 11 5 10 6 9 7 13 8 5 9 4 10 3 11 2 12 1 13
REMARK SMILES IDX 14 14
REMARK H PARENT
REMARK Flexibility Score: inf
ROOT
ATOM      1  C   UNL     1       6.907 -30.329  14.220  1.00  0.00     0.016 A 
ATOM      2  C   UNL     1       6.270 -30.483  15.466  1.00  0.00     0.048 A 
ATOM      3  C   UNL     1       6.993 -30.166  16.616  1.00  0.00     0.137 A 
ATOM      4  C   UNL     1       8.285 -29.717  16.557  1.00  0.00     0.064 A 
ATOM      5  C   UNL     1       8.693 -29.502  17.854  1.00  0.00     0.054 A 
ATOM      6  C   UNL     1       7.591 -29.845  18.629  1.00  0.00     0.196 A 
ATOM      7  O   UNL     1       6.590 -30.238  17.860  1.00  0.00    -0.464 OA
ATOM      8  C   UNL     1       8.950 -29.552  15.344  1.00  0.00     0.149 A 
ATOM      9  C   UNL     1       8.244 -29.866  14.154  1.00  0.00     0.018 A 
ATOM     10  C   UNL     1       8.906 -29.702  12.934  1.00  0.00     0.019 A 
ATOM     11  C   UNL     1      10.223 -29.240  12.925  1.00  0.00     0.094 A 
ATOM     12  C   UNL     1      10.853 -28.952  14.143  1.00  0.00     0.336 A 
ATOM     13  O   UNL     1      12.041 -28.536  14.151  1.00  0.00    -0.246 OA
ATOM     14  O   UNL     1      10.205 -29.115  15.294  1.00  0.00    -0.422 OA
ENDROOT
TORSDOF 0
ENDMDL
MODEL 3
REMARK VINA RESULT:    -5.434      1.178      4.279
REMARK INTER + INTRA:          -5.434
REMARK INTER:                  -5.434
REMARK INTRA:                   0.000
REMARK UNBOUND:                 0.000
REMARK SMILES O=c1ccc2ccc3occc3c2o1
REMARK SMILES IDX 6 1 7 2 8 3 12 4 11 5 10 6 9 7 13 8 5 9 4 10 3 11 2 12 1 13
REMARK SMILES IDX 14 14
REMARK H PARENT
REMARK Flexibility Score: inf
ROOT
ATOM      1  C   UNL     1       5.998 -30.460  15.771  1.00  0.00     0.016 A 
ATOM      2  C   UNL     1       6.250 -30.268  17.142  1.00  0.00     0.048 A 
ATOM      3  C   UNL     1       7.494 -29.760  17.515  1.00  0.00     0.137 A 
ATOM      4  C   UNL     1       8.455 -29.449  16.591  1.00  0.00     0.064 A 
ATOM      5  C   UNL     1       9.544 -28.979  17.289  1.00  0.00     0.054 A 
ATOM      6  C   UNL     1       9.157 -29.038  18.623  1.00  0.00     0.196 A 
ATOM      7  O   UNL     1       7.926 -29.509  18.726  1.00  0.00    -0.464 OA
ATOM      8  C   UNL     1       8.244 -29.625  15.225  1.00  0.00     0.149 A 
ATOM      9  C   UNL     1       6.989 -30.140  14.811  1.00  0.00     0.018 A 
ATOM     10  C   UNL     1       6.771 -30.318  13.442  1.00  0.00     0.019 A 
ATOM     11  C   UNL     1       7.782 -29.987  12.538  1.00  0.00     0.094 A 
ATOM     12  C   UNL     1       8.994 -29.482  13.025  1.00  0.00     0.336 A 
ATOM     13  O   UNL     1       9.915 -29.179  12.222  1.00  0.00    -0.246 OA
ATOM     14  O   UNL     1       9.182 -29.321  14.333  1.00  0.00    -0.422 OA
ENDROOT
TORSDOF 0
ENDMDL
MODEL 4
REMARK VINA RESULT:    -5.269      1.488      4.844
REMARK INTER + INTRA:          -5.269
REMARK INTER:                  -5.269
REMARK INTRA:                   0.000
REMARK UNBOUND:                 0.000
REMARK SMILES O=c1ccc2ccc3occc3c2o1
REMARK SMILES IDX 6 1 7 2 8 3 12 4 11 5 10 6 9 7 13 8 5 9 4 10 3 11 2 12 1 13
REMARK SMILES IDX 14 14
REMARK H PARENT
REMARK Flexibility Score: inf
ROOT
ATOM      1  C   UNL     1      10.152 -28.321  17.489  1.00  0.00     0.016 A 
ATOM      2  C   UNL     1       9.035 -28.708  18.253  1.00  0.00     0.048 A 
ATOM      3  C   UNL     1       8.020 -29.423  17.616  1.00  0.00     0.137 A 
ATOM      4  C   UNL     1       8.089 -29.748  16.288  1.00  0.00     0.064 A 
ATOM      5  C   UNL     1       6.940 -30.443  15.986  1.00  0.00     0.054 A 
ATOM      6  C   UNL     1       6.236 -30.491  17.184  1.00  0.00     0.196 A 
ATOM      7  O   UNL     1       6.908 -29.873  18.140  1.00  0.00    -0.464 OA
ATOM      8  C   UNL     1       9.177 -29.383  15.498  1.00  0.00     0.149 A 
ATOM      9  C   UNL     1      10.227 -28.655  16.115  1.00  0.00     0.018 A 
ATOM     10  C   UNL     1      11.322 -28.286  15.328  1.00  0.00     0.019 A 
ATOM     11  C   UNL     1      11.347 -28.641  13.978  1.00  0.00     0.094 A 
ATOM     12  C   UNL     1      10.271 -29.361  13.442  1.00  0.00     0.336 A 
ATOM     13  O   UNL     1      10.279 -29.688  12.227  1.00  0.00    -0.246 OA
ATOM     14  O   UNL     1       9.238 -29.702  14.209  1.00  0.00    -0.422 OA
ENDROOT
TORSDOF 0
ENDMDL
MODEL 5
REMARK VINA RESULT:    -5.119      1.298      2.638
REMARK INTER + INTRA:          -5.119
REMARK INTER:                  -5.119
REMARK INTRA:                   0.000
REMARK UNBOUND:                 0.000
REMARK SMILES O=c1ccc2ccc3occc3c2o1
REMARK SMILES IDX 6 1 7 2 8 3 12 4 11 5 10 6 9 7 13 8 5 9 4 10 3 11 2 12 1 13
REMARK SMILES IDX 14 14
REMARK H PARENT
REMARK Flexibility Score: inf
ROOT
ATOM      1  C   UNL     1      11.116 -28.366  15.526  1.00  0.00     0.016 A 
ATOM      2  C   UNL     1      11.131 -28.728  14.165  1.00  0.00     0.048 A 
ATOM      3  C   UNL     1      10.044 -29.443  13.664  1.00  0.00     0.137 A 
ATOM      4  C   UNL     1       8.982 -29.793  14.455  1.00  0.00     0.064 A 
ATOM      5  C   UNL     1       8.098 -30.480  13.655  1.00  0.00     0.054 A 
ATOM      6  C   UNL     1       8.701 -30.500  12.403  1.00  0.00     0.196 A 
ATOM      7  O   UNL     1       9.863 -29.872  12.440  1.00  0.00    -0.464 OA
ATOM      8  C   UNL     1       8.930 -29.454  15.805  1.00  0.00     0.149 A 
ATOM      9  C   UNL     1      10.021 -28.726  16.348  1.00  0.00     0.018 A 
ATOM     10  C   UNL     1       9.974 -28.383  17.702  1.00  0.00     0.019 A 
ATOM     11  C   UNL     1       8.869 -28.762  18.467  1.00  0.00     0.094 A 
ATOM     12  C   UNL     1       7.831 -29.479  17.859  1.00  0.00     0.336 A 
ATOM     13  O   UNL     1       6.829 -29.828  18.536  1.00  0.00    -0.246 OA
ATOM     14  O   UNL     1       7.896 -29.797  16.568  1.00  0.00    -0.422 OA
ENDROOT
TORSDOF 0
ENDMDL
MODEL 6
REMARK VINA RESULT:    -5.013      1.286      4.970
REMARK INTER + INTRA:          -5.013
REMARK INTER:                  -5.013
REMARK INTRA:                   0.000
REMARK UNBOUND:                 0.000
REMARK SMILES O=c1ccc2ccc3occc3c2o1
REMARK SMILES IDX 6 1 7 2 8 3 12 4 11 5 10 6 9 7 13 8 5 9 4 10 3 11 2 12 1 13
REMARK SMILES IDX 14 14
REMARK H PARENT
REMARK Flexibility Score: inf
ROOT
ATOM      1  C   UNL     1      10.745 -28.288  16.135  1.00  0.00     0.016 A 
ATOM      2  C   UNL     1      10.128 -28.271  17.400  1.00  0.00     0.048 A 
ATOM      3  C   UNL     1       8.960 -29.015  17.571  1.00  0.00     0.137 A 
ATOM      4  C   UNL     1       8.414 -29.747  16.551  1.00  0.00     0.064 A 
ATOM      5  C   UNL     1       7.283 -30.349  17.053  1.00  0.00     0.054 A 
ATOM      6  C   UNL     1       7.221 -29.930  18.377  1.00  0.00     0.196 A 
ATOM      7  O   UNL     1       8.238 -29.132  18.657  1.00  0.00    -0.464 OA
ATOM      8  C   UNL     1       8.994 -29.789  15.285  1.00  0.00     0.149 A 
ATOM      9  C   UNL     1      10.183 -29.044  15.077  1.00  0.00     0.018 A 
ATOM     10  C   UNL     1      10.770 -29.083  13.809  1.00  0.00     0.019 A 
ATOM     11  C   UNL     1      10.176 -29.844  12.801  1.00  0.00     0.094 A 
ATOM     12  C   UNL     1       9.002 -30.553  13.085  1.00  0.00     0.336 A 
ATOM     13  O   UNL     1       8.454 -31.244  12.186  1.00  0.00    -0.246 OA
ATOM     14  O   UNL     1       8.458 -30.502  14.299  1.00  0.00    -0.422 OA
ENDROOT
TORSDOF 0
ENDMDL
MODEL 7
REMARK VINA RESULT:    -5.005      1.993      3.252
REMARK INTER + INTRA:          -5.005
REMARK INTER:                  -5.005
REMARK INTRA:                   0.000
REMARK UNBOUND:                 0.000
REMARK SMILES O=c1ccc2ccc3occc3c2o1
REMARK SMILES IDX 6 1 7 2 8 3 12 4 11 5 10 6 9 7 13 8 5 9 4 10 3 11 2 12 1 13
REMARK SMILES IDX 14 14
REMARK H PARENT
REMARK Flexibility Score: inf
ROOT
ATOM      1  C   UNL     1       9.025 -28.854  17.840  1.00  0.00     0.016 A 
ATOM      2  C   UNL     1      10.212 -28.323  17.300  1.00  0.00     0.048 A 
ATOM      3  C   UNL     1      10.514 -28.613  15.970  1.00  0.00     0.137 A 
ATOM      4  C   UNL     1       9.695 -29.389  15.194  1.00  0.00     0.064 A 
ATOM      5  C   UNL     1      10.283 -29.473  13.953  1.00  0.00     0.054 A 
ATOM      6  C   UNL     1      11.448 -28.723  14.065  1.00  0.00     0.196 A 
ATOM      7  O   UNL     1      11.559 -28.222  15.283  1.00  0.00    -0.464 OA
ATOM      8  C   UNL     1       8.512 -29.932  15.691  1.00  0.00     0.149 A 
ATOM      9  C   UNL     1       8.174 -29.657  17.042  1.00  0.00     0.018 A 
ATOM     10  C   UNL     1       6.989 -30.199  17.546  1.00  0.00     0.019 A 
ATOM     11  C   UNL     1       6.186 -30.983  16.716  1.00  0.00     0.094 A 
ATOM     12  C   UNL     1       6.588 -31.210  15.393  1.00  0.00     0.336 A 
ATOM     13  O   UNL     1       5.875 -31.915  14.633  1.00  0.00    -0.246 OA
ATOM     14  O   UNL     1       7.721 -30.685  14.932  1.00  0.00    -0.422 OA
ENDROOT
TORSDOF 0
ENDMDL
MODEL 8
REMARK VINA RESULT:    -4.920      1.650      2.160
REMARK INTER + INTRA:          -4.920
REMARK INTER:                  -4.920
REMARK INTRA:                   0.000
REMARK UNBOUND:                 0.000
REMARK SMILES O=c1ccc2ccc3occc3c2o1
REMARK SMILES IDX 6 1 7 2 8 3 12 4 11 5 10 6 9 7 13 8 5 9 4 10 3 11 2 12 1 13
REMARK SMILES IDX 14 14
REMARK H PARENT
REMARK Flexibility Score: inf
ROOT
ATOM      1  C   UNL     1       6.249 -31.180  16.670  1.00  0.00     0.016 A 
ATOM      2  C   UNL     1       5.875 -31.516  15.355  1.00  0.00     0.048 A 
ATOM      3  C   UNL     1       6.636 -31.002  14.305  1.00  0.00     0.137 A 
ATOM      4  C   UNL     1       7.719 -30.194  14.524  1.00  0.00     0.064 A 
ATOM      5  C   UNL     1       8.233 -29.871  13.289  1.00  0.00     0.054 A 
ATOM      6  C   UNL     1       7.404 -30.523  12.383  1.00  0.00     0.196 A 
ATOM      7  O   UNL     1       6.459 -31.191  13.021  1.00  0.00    -0.464 OA
ATOM      8  C   UNL     1       8.121 -29.839  15.810  1.00  0.00     0.149 A 
ATOM      9  C   UNL     1       7.369 -30.344  16.902  1.00  0.00     0.018 A 
ATOM     10  C   UNL     1       7.768 -29.991  18.194  1.00  0.00     0.019 A 
ATOM     11  C   UNL     1       8.879 -29.164  18.367  1.00  0.00     0.094 A 
ATOM     12  C   UNL     1       9.571 -28.706  17.238  1.00  0.00     0.336 A 
ATOM     13  O   UNL     1      10.574 -27.960  17.378  1.00  0.00    -0.246 OA
ATOM     14  O   UNL     1       9.174 -29.053  16.016  1.00  0.00    -0.422 OA
ENDROOT
TORSDOF 0
ENDMDL
MODEL 9
REMARK VINA RESULT:    -4.750      1.814      3.147
REMARK INTER + INTRA:          -4.750
REMARK INTER:                  -4.750
REMARK INTRA:                   0.000
REMARK UNBOUND:                 0.000
REMARK SMILES O=c1ccc2ccc3occc3c2o1
REMARK SMILES IDX 6 1 7 2 8 3 12 4 11 5 10 6 9 7 13 8 5 9 4 10 3 11 2 12 1 13
REMARK SMILES IDX 14 14
REMARK H PARENT
REMARK Flexibility Score: inf
ROOT
ATOM      1  C   UNL     1       9.049 -29.730  14.188  1.00  0.00     0.016 A 
ATOM      2  C   UNL     1       8.171 -30.714  13.695  1.00  0.00     0.048 A 
ATOM      3  C   UNL     1       7.409 -31.433  14.616  1.00  0.00     0.137 A 
ATOM      4  C   UNL     1       7.496 -31.205  15.963  1.00  0.00     0.064 A 
ATOM      5  C   UNL     1       6.621 -32.075  16.573  1.00  0.00     0.054 A 
ATOM      6  C   UNL     1       6.050 -32.789  15.526  1.00  0.00     0.196 A 
ATOM      7  O   UNL     1       6.541 -32.383  14.367  1.00  0.00    -0.464 OA
ATOM      8  C   UNL     1       8.352 -30.240  16.489  1.00  0.00     0.149 A 
ATOM      9  C   UNL     1       9.142 -29.490  15.581  1.00  0.00     0.018 A 
ATOM     10  C   UNL     1      10.003 -28.520  16.104  1.00  0.00     0.019 A 
ATOM     11  C   UNL     1      10.056 -28.323  17.485  1.00  0.00     0.094 A 
ATOM     12  C   UNL     1       9.244 -29.105  18.317  1.00  0.00     0.336 A 
ATOM     13  O   UNL     1       9.281 -28.939  19.564  1.00  0.00    -0.246 OA
ATOM     14  O   UNL     1       8.431 -30.023  17.799  1.00  0.00    -0.422 OA
ENDROOT
TORSDOF 0
ENDMDL
