MODEL 1
REMARK VINA RESULT:    -4.828      0.000      0.000
REMARK INTER + INTRA:         -16.869
REMARK INTER:                 -12.165
REMARK INTRA:                  -4.704
REMARK UNBOUND:                -4.704
REMARK SMILES CCCCCCCCCCCCCCCCCCCCCCCCCCCC(=O)[O-]
REMARK SMILES IDX 15 1 16 2 17 3 18 4 19 5 20 6 21 7 22 8 23 9 24 10 25 11
REMARK SMILES IDX 26 12 27 13 28 14 29 15 30 16 14 17 13 18 12 19 11 20 10 21
REMARK SMILES IDX 9 22 8 23 7 24 6 25 5 26 4 27 3 28 2 29 1 30
REMARK H PARENT
REMARK Flexibility Score: inf
ROOT
ATOM      1  C   UNL     1       6.992 -14.569  23.542  1.00  0.00     0.000 C 
ENDROOT
BRANCH   1   2
ATOM      2  C   UNL     1       5.957 -15.606  24.029  1.00  0.00     0.000 C 
BRANCH   2   3
ATOM      3  C   UNL     1       6.537 -16.809  24.808  1.00  0.00     0.000 C 
BRANCH   3   4
ATOM      4  C   UNL     1       7.235 -16.436  26.131  1.00  0.00     0.000 C 
BRANCH   4   5
ATOM      5  C   UNL     1       8.621 -17.087  26.313  1.00  0.00     0.000 C 
BRANCH   5   6
ATOM      6  C   UNL     1       9.764 -16.121  25.951  1.00  0.00     0.000 C 
BRANCH   6   7
ATOM      7  C   UNL     1      10.098 -16.122  24.450  1.00  0.00     0.000 C 
BRANCH   7   8
ATOM      8  C   UNL     1      10.594 -14.755  23.951  1.00  0.00     0.000 C 
BRANCH   8   9
ATOM      9  C   UNL     1      11.880 -14.857  23.109  1.00  0.00     0.000 C 
BRANCH   9  10
ATOM     10  C   UNL     1      12.923 -15.867  23.626  1.00  0.00     0.000 C 
BRANCH  10  11
ATOM     11  C   UNL     1      12.807 -17.241  22.946  1.00  0.00     0.000 C 
BRANCH  11  12
ATOM     12  C   UNL     1      13.359 -18.386  23.815  1.00  0.00     0.006 C 
BRANCH  12  13
ATOM     13  C   UNL     1      13.041 -18.257  25.315  1.00  0.00     0.053 C 
BRANCH  13  14
ATOM     14  C   UNL     1      13.763 -19.280  26.139  1.00  0.00     0.041 C 
ATOM     15  O   UNL     1      14.962 -19.567  25.885  1.00  0.00    -0.550 OA
ATOM     16  O   UNL     1      13.111 -19.915  27.190  1.00  0.00    -0.550 OA
ENDBRANCH  13  14
ENDBRANCH  12  13
ENDBRANCH  11  12
ENDBRANCH  10  11
ENDBRANCH   9  10
ENDBRANCH   8   9
ENDBRANCH   7   8
ENDBRANCH   6   7
ENDBRANCH   5   6
ENDBRANCH   4   5
ENDBRANCH   3   4
ENDBRANCH   2   3
ENDBRANCH   1   2
BRANCH   1  17
ATOM     17  C   UNL     1       6.477 -13.547  22.509  1.00  0.00     0.000 C 
BRANCH  17  18
ATOM     18  C   UNL     1       5.656 -14.192  21.380  1.00  0.00     0.000 C 
BRANCH  18  19
ATOM     19  C   UNL     1       5.981 -13.599  20.000  1.00  0.00     0.000 C 
BRANCH  19  20
ATOM     20  C   UNL     1       6.820 -14.547  19.130  1.00  0.00     0.000 C 
BRANCH  20  21
ATOM     21  C   UNL     1       7.090 -15.870  19.862  1.00  0.00     0.000 C 
BRANCH  21  22
ATOM     22  C   UNL     1       8.590 -16.169  20.021  1.00  0.00    -0.000 C 
BRANCH  22  23
ATOM     23  C   UNL     1       8.884 -17.116  21.193  1.00  0.00    -0.000 C 
BRANCH  23  24
ATOM     24  C   UNL     1       7.668 -17.995  21.511  1.00  0.00    -0.000 C 
BRANCH  24  25
ATOM     25  C   UNL     1       7.731 -19.320  20.744  1.00  0.00    -0.000 C 
BRANCH  25  26
ATOM     26  C   UNL     1       7.315 -20.498  21.638  1.00  0.00    -0.000 C 
BRANCH  26  27
ATOM     27  C   UNL     1       6.595 -20.048  22.919  1.00  0.00    -0.000 C 
BRANCH  27  28
ATOM     28  C   UNL     1       7.304 -20.425  24.235  1.00  0.00    -0.000 C 
BRANCH  28  29
ATOM     29  C   UNL     1       8.736 -20.963  24.043  1.00  0.00    -0.003 C 
ATOM     30  C   UNL     1       9.808 -19.902  24.298  1.00  0.00     0.004 C 
ENDBRANCH  28  29
ENDBRANCH  27  28
ENDBRANCH  26  27
ENDBRANCH  25  26
ENDBRANCH  24  25
ENDBRANCH  23  24
ENDBRANCH  22  23
ENDBRANCH  21  22
ENDBRANCH  20  21
ENDBRANCH  19  20
ENDBRANCH  18  19
ENDBRANCH  17  18
ENDBRANCH   1  17
TORSDOF 26
ENDMDL
MODEL 2
REMARK VINA RESULT:    -4.778      1.446      5.779
REMARK INTER + INTRA:         -16.745
REMARK INTER:                 -11.859
REMARK INTRA:                  -4.886
REMARK UNBOUND:                -4.704
REMARK SMILES CCCCCCCCCCCCCCCCCCCCCCCCCCCC(=O)[O-]
REMARK SMILES IDX 15 1 16 2 17 3 18 4 19 5 20 6 21 7 22 8 23 9 24 10 25 11
REMARK SMILES IDX 26 12 27 13 28 14 29 15 30 16 14 17 13 18 12 19 11 20 10 21
REMARK SMILES IDX 9 22 8 23 7 24 6 25 5 26 4 27 3 28 2 29 1 30
REMARK H PARENT
REMARK Flexibility Score: inf
ROOT
ATOM      1  C   UNL     1       7.903 -18.422  21.810  1.00  0.00     0.000 C 
ENDROOT
BRANCH   1   2
ATOM      2  C   UNL     1       7.502 -19.551  20.835  1.00  0.00     0.000 C 
BRANCH   2   3
ATOM      3  C   UNL     1       8.653 -20.136  19.985  1.00  0.00     0.000 C 
BRANCH   3   4
ATOM      4  C   UNL     1       9.075 -21.565  20.380  1.00  0.00     0.000 C 
BRANCH   4   5
ATOM      5  C   UNL     1       8.266 -22.156  21.552  1.00  0.00     0.000 C 
BRANCH   5   6
ATOM      6  C   UNL     1       9.154 -22.451  22.775  1.00  0.00     0.000 C 
BRANCH   6   7
ATOM      7  C   UNL     1       9.116 -21.331  23.828  1.00  0.00     0.000 C 
BRANCH   7   8
ATOM      8  C   UNL     1       7.706 -21.096  24.395  1.00  0.00     0.000 C 
BRANCH   8   9
ATOM      9  C   UNL     1       7.723 -20.485  25.808  1.00  0.00     0.000 C 
BRANCH   9  10
ATOM     10  C   UNL     1       8.888 -19.517  26.088  1.00  0.00     0.000 C 
BRANCH  10  11
ATOM     11  C   UNL     1       9.762 -19.965  27.272  1.00  0.00     0.000 C 
BRANCH  11  12
ATOM     12  C   UNL     1      11.203 -19.428  27.188  1.00  0.00     0.006 C 
BRANCH  12  13
ATOM     13  C   UNL     1      12.135 -20.244  26.277  1.00  0.00     0.053 C 
BRANCH  13  14
ATOM     14  C   UNL     1      13.372 -19.484  25.902  1.00  0.00     0.041 C 
ATOM     15  O   UNL     1      13.942 -18.746  26.747  1.00  0.00    -0.550 OA
ATOM     16  O   UNL     1      13.896 -19.594  24.619  1.00  0.00    -0.550 OA
ENDBRANCH  13  14
ENDBRANCH  12  13
ENDBRANCH  11  12
ENDBRANCH  10  11
ENDBRANCH   9  10
ENDBRANCH   8   9
ENDBRANCH   7   8
ENDBRANCH   6   7
ENDBRANCH   5   6
ENDBRANCH   4   5
ENDBRANCH   3   4
ENDBRANCH   2   3
ENDBRANCH   1   2
BRANCH   1  17
ATOM     17  C   UNL     1       9.403 -18.066  21.837  1.00  0.00     0.000 C 
BRANCH  17  18
ATOM     18  C   UNL     1       9.852 -17.449  23.172  1.00  0.00     0.000 C 
BRANCH  18  19
ATOM     19  C   UNL     1      10.330 -15.996  23.019  1.00  0.00     0.000 C 
BRANCH  19  20
ATOM     20  C   UNL     1      10.109 -15.163  24.291  1.00  0.00     0.000 C 
BRANCH  20  21
ATOM     21  C   UNL     1       9.568 -16.037  25.433  1.00  0.00     0.000 C 
BRANCH  21  22
ATOM     22  C   UNL     1       8.303 -15.452  26.083  1.00  0.00    -0.000 C 
BRANCH  22  23
ATOM     23  C   UNL     1       7.126 -16.439  26.080  1.00  0.00    -0.000 C 
BRANCH  23  24
ATOM     24  C   UNL     1       6.655 -16.733  24.650  1.00  0.00    -0.000 C 
BRANCH  24  25
ATOM     25  C   UNL     1       6.007 -15.495  24.020  1.00  0.00    -0.000 C 
BRANCH  25  26
ATOM     26  C   UNL     1       6.734 -15.087  22.730  1.00  0.00    -0.000 C 
BRANCH  26  27
ATOM     27  C   UNL     1       6.043 -13.926  21.998  1.00  0.00    -0.000 C 
BRANCH  27  28
ATOM     28  C   UNL     1       5.994 -14.057  20.463  1.00  0.00    -0.000 C 
BRANCH  28  29
ATOM     29  C   UNL     1       6.786 -15.260  19.911  1.00  0.00    -0.003 C 
ATOM     30  C   UNL     1       7.464 -14.960  18.573  1.00  0.00     0.004 C 
ENDBRANCH  28  29
ENDBRANCH  27  28
ENDBRANCH  26  27
ENDBRANCH  25  26
ENDBRANCH  24  25
ENDBRANCH  23  24
ENDBRANCH  22  23
ENDBRANCH  21  22
ENDBRANCH  20  21
ENDBRANCH  19  20
ENDBRANCH  18  19
ENDBRANCH  17  18
ENDBRANCH   1  17
TORSDOF 26
ENDMDL
MODEL 3
REMARK VINA RESULT:    -4.670      2.672      5.445
REMARK INTER + INTRA:         -16.472
REMARK INTER:                 -10.798
REMARK INTRA:                  -5.674
REMARK UNBOUND:                -4.704
REMARK SMILES CCCCCCCCCCCCCCCCCCCCCCCCCCCC(=O)[O-]
REMARK SMILES IDX 15 1 16 2 17 3 18 4 19 5 20 6 21 7 22 8 23 9 24 10 25 11
REMARK SMILES IDX 26 12 27 13 28 14 29 15 30 16 14 17 13 18 12 19 11 20 10 21
REMARK SMILES IDX 9 22 8 23 7 24 6 25 5 26 4 27 3 28 2 29 1 30
REMARK H PARENT
REMARK Flexibility Score: inf
ROOT
ATOM      1  C   UNL     1       9.371 -16.786  26.529  1.00  0.00     0.000 C 
ENDROOT
BRANCH   1   2
ATOM      2  C   UNL     1       8.149 -15.883  26.249  1.00  0.00     0.000 C 
BRANCH   2   3
ATOM      3  C   UNL     1       6.871 -16.620  25.789  1.00  0.00     0.000 C 
BRANCH   3   4
ATOM      4  C   UNL     1       6.332 -16.166  24.418  1.00  0.00     0.000 C 
BRANCH   4   5
ATOM      5  C   UNL     1       6.794 -14.756  23.998  1.00  0.00     0.000 C 
BRANCH   5   6
ATOM      6  C   UNL     1       6.691 -14.545  22.476  1.00  0.00     0.000 C 
BRANCH   6   7
ATOM      7  C   UNL     1       7.179 -15.757  21.667  1.00  0.00     0.000 C 
BRANCH   7   8
ATOM      8  C   UNL     1       6.929 -15.604  20.158  1.00  0.00     0.000 C 
BRANCH   8   9
ATOM      9  C   UNL     1       7.757 -16.589  19.311  1.00  0.00     0.000 C 
BRANCH   9  10
ATOM     10  C   UNL     1       7.732 -18.051  19.796  1.00  0.00     0.000 C 
BRANCH  10  11
ATOM     11  C   UNL     1       9.012 -18.821  19.431  1.00  0.00     0.000 C 
BRANCH  11  12
ATOM     12  C   UNL     1       8.751 -20.309  19.135  1.00  0.00     0.006 C 
BRANCH  12  13
ATOM     13  C   UNL     1       9.661 -21.281  19.906  1.00  0.00     0.053 C 
BRANCH  13  14
ATOM     14  C   UNL     1       8.879 -22.254  20.736  1.00  0.00     0.041 C 
ATOM     15  O   UNL     1       7.635 -22.366  20.578  1.00  0.00    -0.550 OA
ATOM     16  O   UNL     1       9.526 -23.039  21.683  1.00  0.00    -0.550 OA
ENDBRANCH  13  14
ENDBRANCH  12  13
ENDBRANCH  11  12
ENDBRANCH  10  11
ENDBRANCH   9  10
ENDBRANCH   8   9
ENDBRANCH   7   8
ENDBRANCH   6   7
ENDBRANCH   5   6
ENDBRANCH   4   5
ENDBRANCH   3   4
ENDBRANCH   2   3
ENDBRANCH   1   2
BRANCH   1  17
ATOM     17  C   UNL     1      10.617 -16.509  25.663  1.00  0.00     0.000 C 
BRANCH  17  18
ATOM     18  C   UNL     1      10.293 -15.751  24.366  1.00  0.00     0.000 C 
BRANCH  18  19
ATOM     19  C   UNL     1      10.444 -16.631  23.115  1.00  0.00     0.000 C 
BRANCH  19  20
ATOM     20  C   UNL     1      10.925 -18.052  23.445  1.00  0.00     0.000 C 
BRANCH  20  21
ATOM     21  C   UNL     1       9.915 -19.101  22.955  1.00  0.00     0.000 C 
BRANCH  21  22
ATOM     22  C   UNL     1       8.468 -18.768  23.354  1.00  0.00    -0.000 C 
BRANCH  22  23
ATOM     23  C   UNL     1       7.512 -19.953  23.157  1.00  0.00    -0.000 C 
BRANCH  23  24
ATOM     24  C   UNL     1       7.758 -21.042  24.210  1.00  0.00    -0.000 C 
BRANCH  24  25
ATOM     25  C   UNL     1       7.492 -20.511  25.622  1.00  0.00    -0.000 C 
BRANCH  25  26
ATOM     26  C   UNL     1       8.767 -20.554  26.478  1.00  0.00    -0.000 C 
BRANCH  26  27
ATOM     27  C   UNL     1       9.850 -21.472  25.889  1.00  0.00    -0.000 C 
BRANCH  27  28
ATOM     28  C   UNL     1      11.275 -20.884  25.886  1.00  0.00    -0.000 C 
BRANCH  28  29
ATOM     29  C   UNL     1      11.494 -19.766  26.925  1.00  0.00    -0.003 C 
ATOM     30  C   UNL     1      12.293 -20.236  28.142  1.00  0.00     0.004 C 
ENDBRANCH  28  29
ENDBRANCH  27  28
ENDBRANCH  26  27
ENDBRANCH  25  26
ENDBRANCH  24  25
ENDBRANCH  23  24
ENDBRANCH  22  23
ENDBRANCH  21  22
ENDBRANCH  20  21
ENDBRANCH  19  20
ENDBRANCH  18  19
ENDBRANCH  17  18
ENDBRANCH   1  17
TORSDOF 26
ENDMDL
MODEL 4
REMARK VINA RESULT:    -4.633      2.530      4.632
REMARK INTER + INTRA:         -16.379
REMARK INTER:                 -10.943
REMARK INTRA:                  -5.436
REMARK UNBOUND:                -4.704
REMARK SMILES CCCCCCCCCCCCCCCCCCCCCCCCCCCC(=O)[O-]
REMARK SMILES IDX 15 1 16 2 17 3 18 4 19 5 20 6 21 7 22 8 23 9 24 10 25 11
REMARK SMILES IDX 26 12 27 13 28 14 29 15 30 16 14 17 13 18 12 19 11 20 10 21
REMARK SMILES IDX 9 22 8 23 7 24 6 25 5 26 4 27 3 28 2 29 1 30
REMARK H PARENT
REMARK Flexibility Score: inf
ROOT
ATOM      1  C   UNL     1       9.583 -16.697  26.618  1.00  0.00     0.000 C 
ENDROOT
BRANCH   1   2
ATOM      2  C   UNL     1       8.321 -15.895  26.232  1.00  0.00     0.000 C 
BRANCH   2   3
ATOM      3  C   UNL     1       7.026 -16.726  26.082  1.00  0.00     0.000 C 
BRANCH   3   4
ATOM      4  C   UNL     1       6.367 -16.635  24.692  1.00  0.00     0.000 C 
BRANCH   4   5
ATOM      5  C   UNL     1       7.193 -17.283  23.563  1.00  0.00     0.000 C 
BRANCH   5   6
ATOM      6  C   UNL     1       6.931 -18.797  23.452  1.00  0.00     0.000 C 
BRANCH   6   7
ATOM      7  C   UNL     1       7.911 -19.638  24.286  1.00  0.00     0.000 C 
BRANCH   7   8
ATOM      8  C   UNL     1       7.232 -20.835  24.972  1.00  0.00     0.000 C 
BRANCH   8   9
ATOM      9  C   UNL     1       7.373 -20.805  26.505  1.00  0.00     0.000 C 
BRANCH   9  10
ATOM     10  C   UNL     1       8.707 -20.237  27.029  1.00  0.00     0.000 C 
BRANCH  10  11
ATOM     11  C   UNL     1       9.921 -21.078  26.600  1.00  0.00     0.000 C 
BRANCH  11  12
ATOM     12  C   UNL     1      11.263 -20.431  26.989  1.00  0.00     0.006 C 
BRANCH  12  13
ATOM     13  C   UNL     1      11.219 -19.603  28.284  1.00  0.00     0.053 C 
BRANCH  13  14
ATOM     14  C   UNL     1      12.467 -19.756  29.101  1.00  0.00     0.041 C 
ATOM     15  O   UNL     1      12.399 -20.161  30.291  1.00  0.00    -0.550 OA
ATOM     16  O   UNL     1      13.705 -19.454  28.546  1.00  0.00    -0.550 OA
ENDBRANCH  13  14
ENDBRANCH  12  13
ENDBRANCH  11  12
ENDBRANCH  10  11
ENDBRANCH   9  10
ENDBRANCH   8   9
ENDBRANCH   7   8
ENDBRANCH   6   7
ENDBRANCH   5   6
ENDBRANCH   4   5
ENDBRANCH   3   4
ENDBRANCH   2   3
ENDBRANCH   1   2
BRANCH   1  17
ATOM     17  C   UNL     1      10.753 -16.623  25.616  1.00  0.00     0.000 C 
BRANCH  17  18
ATOM     18  C   UNL     1      10.450 -15.731  24.401  1.00  0.00     0.000 C 
BRANCH  18  19
ATOM     19  C   UNL     1      10.887 -16.373  23.075  1.00  0.00     0.000 C 
BRANCH  19  20
ATOM     20  C   UNL     1      10.875 -17.909  23.127  1.00  0.00     0.000 C 
BRANCH  20  21
ATOM     21  C   UNL     1      11.027 -18.507  21.720  1.00  0.00     0.000 C 
BRANCH  21  22
ATOM     22  C   UNL     1       9.680 -18.900  21.092  1.00  0.00    -0.000 C 
BRANCH  22  23
ATOM     23  C   UNL     1       9.816 -20.026  20.056  1.00  0.00    -0.000 C 
BRANCH  23  24
ATOM     24  C   UNL     1       8.464 -20.703  19.796  1.00  0.00    -0.000 C 
BRANCH  24  25
ATOM     25  C   UNL     1       8.003 -21.499  21.022  1.00  0.00    -0.000 C 
BRANCH  25  26
ATOM     26  C   UNL     1       8.974 -22.648  21.332  1.00  0.00    -0.000 C 
BRANCH  26  27
ATOM     27  C   UNL     1       9.451 -22.647  22.794  1.00  0.00    -0.000 C 
BRANCH  27  28
ATOM     28  C   UNL     1      10.810 -21.960  23.038  1.00  0.00    -0.000 C 
BRANCH  28  29
ATOM     29  C   UNL     1      11.846 -22.854  23.748  1.00  0.00    -0.003 C 
ATOM     30  C   UNL     1      13.049 -22.067  24.271  1.00  0.00     0.004 C 
ENDBRANCH  28  29
ENDBRANCH  27  28
ENDBRANCH  26  27
ENDBRANCH  25  26
ENDBRANCH  24  25
ENDBRANCH  23  24
ENDBRANCH  22  23
ENDBRANCH  21  22
ENDBRANCH  20  21
ENDBRANCH  19  20
ENDBRANCH  18  19
ENDBRANCH  17  18
ENDBRANCH   1  17
TORSDOF 26
ENDMDL
MODEL 5
REMARK VINA RESULT:    -4.615      2.156      4.809
REMARK INTER + INTRA:         -16.333
REMARK INTER:                 -10.847
REMARK INTRA:                  -5.485
REMARK UNBOUND:                -4.704
REMARK SMILES CCCCCCCCCCCCCCCCCCCCCCCCCCCC(=O)[O-]
REMARK SMILES IDX 15 1 16 2 17 3 18 4 19 5 20 6 21 7 22 8 23 9 24 10 25 11
REMARK SMILES IDX 26 12 27 13 28 14 29 15 30 16 14 17 13 18 12 19 11 20 10 21
REMARK SMILES IDX 9 22 8 23 7 24 6 25 5 26 4 27 3 28 2 29 1 30
REMARK H PARENT
REMARK Flexibility Score: inf
ROOT
ATOM      1  C   UNL     1       7.449 -19.605  25.527  1.00  0.00     0.000 C 
ENDROOT
BRANCH   1   2
ATOM      2  C   UNL     1       8.372 -18.368  25.483  1.00  0.00     0.000 C 
BRANCH   2   3
ATOM      3  C   UNL     1       7.664 -17.004  25.657  1.00  0.00     0.000 C 
BRANCH   3   4
ATOM      4  C   UNL     1       6.391 -16.833  24.806  1.00  0.00     0.000 C 
BRANCH   4   5
ATOM      5  C   UNL     1       6.360 -15.533  23.978  1.00  0.00     0.000 C 
BRANCH   5   6
ATOM      6  C   UNL     1       7.625 -15.368  23.115  1.00  0.00     0.000 C 
BRANCH   6   7
ATOM      7  C   UNL     1       7.598 -16.225  21.840  1.00  0.00     0.000 C 
BRANCH   7   8
ATOM      8  C   UNL     1       8.963 -16.854  21.518  1.00  0.00     0.000 C 
BRANCH   8   9
ATOM      9  C   UNL     1      10.135 -16.121  22.197  1.00  0.00     0.000 C 
BRANCH   9  10
ATOM     10  C   UNL     1      10.976 -16.981  23.159  1.00  0.00     0.000 C 
BRANCH  10  11
ATOM     11  C   UNL     1      10.940 -18.478  22.806  1.00  0.00     0.000 C 
BRANCH  11  12
ATOM     12  C   UNL     1      11.776 -19.340  23.770  1.00  0.00     0.006 C 
BRANCH  12  13
ATOM     13  C   UNL     1      12.395 -18.563  24.944  1.00  0.00     0.053 C 
BRANCH  13  14
ATOM     14  C   UNL     1      13.820 -18.955  25.197  1.00  0.00     0.041 C 
ATOM     15  O   UNL     1      14.200 -19.246  26.361  1.00  0.00    -0.550 OA
ATOM     16  O   UNL     1      14.728 -18.999  24.145  1.00  0.00    -0.550 OA
ENDBRANCH  13  14
ENDBRANCH  12  13
ENDBRANCH  11  12
ENDBRANCH  10  11
ENDBRANCH   9  10
ENDBRANCH   8   9
ENDBRANCH   7   8
ENDBRANCH   6   7
ENDBRANCH   5   6
ENDBRANCH   4   5
ENDBRANCH   3   4
ENDBRANCH   2   3
ENDBRANCH   1   2
BRANCH   1  17
ATOM     17  C   UNL     1       7.615 -20.602  24.363  1.00  0.00     0.000 C 
BRANCH  17  18
ATOM     18  C   UNL     1       7.022 -20.090  23.041  1.00  0.00     0.000 C 
BRANCH  18  19
ATOM     19  C   UNL     1       7.947 -20.346  21.841  1.00  0.00     0.000 C 
BRANCH  19  20
ATOM     20  C   UNL     1       7.663 -21.688  21.149  1.00  0.00     0.000 C 
BRANCH  20  21
ATOM     21  C   UNL     1       8.674 -22.758  21.590  1.00  0.00     0.000 C 
BRANCH  21  22
ATOM     22  C   UNL     1      10.125 -22.388  21.239  1.00  0.00    -0.000 C 
BRANCH  22  23
ATOM     23  C   UNL     1      11.106 -22.693  22.381  1.00  0.00    -0.000 C 
BRANCH  23  24
ATOM     24  C   UNL     1      10.364 -22.893  23.708  1.00  0.00    -0.000 C 
BRANCH  24  25
ATOM     25  C   UNL     1      11.296 -23.475  24.777  1.00  0.00    -0.000 C 
BRANCH  25  26
ATOM     26  C   UNL     1      11.632 -22.425  25.847  1.00  0.00    -0.000 C 
BRANCH  26  27
ATOM     27  C   UNL     1      10.431 -21.535  26.207  1.00  0.00    -0.000 C 
BRANCH  27  28
ATOM     28  C   UNL     1      10.325 -21.150  27.696  1.00  0.00    -0.000 C 
BRANCH  28  29
ATOM     29  C   UNL     1      10.950 -19.782  28.035  1.00  0.00    -0.003 C 
ATOM     30  C   UNL     1      12.053 -19.879  29.090  1.00  0.00     0.004 C 
ENDBRANCH  28  29
ENDBRANCH  27  28
ENDBRANCH  26  27
ENDBRANCH  25  26
ENDBRANCH  24  25
ENDBRANCH  23  24
ENDBRANCH  22  23
ENDBRANCH  21  22
ENDBRANCH  20  21
ENDBRANCH  19  20
ENDBRANCH  18  19
ENDBRANCH  17  18
ENDBRANCH   1  17
TORSDOF 26
ENDMDL
MODEL 6
REMARK VINA RESULT:    -4.614      3.124      6.589
REMARK INTER + INTRA:         -16.332
REMARK INTER:                 -10.363
REMARK INTRA:                  -5.969
REMARK UNBOUND:                -4.704
REMARK SMILES CCCCCCCCCCCCCCCCCCCCCCCCCCCC(=O)[O-]
REMARK SMILES IDX 15 1 16 2 17 3 18 4 19 5 20 6 21 7 22 8 23 9 24 10 25 11
REMARK SMILES IDX 26 12 27 13 28 14 29 15 30 16 14 17 13 18 12 19 11 20 10 21
REMARK SMILES IDX 9 22 8 23 7 24 6 25 5 26 4 27 3 28 2 29 1 30
REMARK H PARENT
REMARK Flexibility Score: inf
ROOT
ATOM      1  C   UNL     1       7.284 -19.865  23.050  1.00  0.00     0.000 C 
ENDROOT
BRANCH   1   2
ATOM      2  C   UNL     1       8.078 -18.568  22.781  1.00  0.00     0.000 C 
BRANCH   2   3
ATOM      3  C   UNL     1       9.615 -18.695  22.890  1.00  0.00     0.000 C 
BRANCH   3   4
ATOM      4  C   UNL     1      10.350 -18.727  21.536  1.00  0.00     0.000 C 
BRANCH   4   5
ATOM      5  C   UNL     1      11.581 -17.800  21.468  1.00  0.00     0.000 C 
BRANCH   5   6
ATOM      6  C   UNL     1      12.881 -18.538  21.838  1.00  0.00     0.000 C 
BRANCH   6   7
ATOM      7  C   UNL     1      13.738 -17.770  22.855  1.00  0.00     0.000 C 
BRANCH   7   8
ATOM      8  C   UNL     1      12.984 -16.596  23.502  1.00  0.00     0.000 C 
BRANCH   8   9
ATOM      9  C   UNL     1      12.339 -16.970  24.850  1.00  0.00     0.000 C 
BRANCH   9  10
ATOM     10  C   UNL     1      11.052 -16.198  25.198  1.00  0.00     0.000 C 
BRANCH  10  11
ATOM     11  C   UNL     1      10.601 -15.255  24.070  1.00  0.00     0.000 C 
BRANCH  11  12
ATOM     12  C   UNL     1       9.206 -14.652  24.317  1.00  0.00     0.006 C 
BRANCH  12  13
ATOM     13  C   UNL     1       8.461 -15.244  25.524  1.00  0.00     0.053 C 
BRANCH  13  14
ATOM     14  C   UNL     1       7.170 -15.898  25.132  1.00  0.00     0.041 C 
ATOM     15  O   UNL     1       6.478 -15.420  24.195  1.00  0.00    -0.550 OA
ATOM     16  O   UNL     1       6.733 -17.036  25.800  1.00  0.00    -0.550 OA
ENDBRANCH  13  14
ENDBRANCH  12  13
ENDBRANCH  11  12
ENDBRANCH  10  11
ENDBRANCH   9  10
ENDBRANCH   8   9
ENDBRANCH   7   8
ENDBRANCH   6   7
ENDBRANCH   5   6
ENDBRANCH   4   5
ENDBRANCH   3   4
ENDBRANCH   2   3
ENDBRANCH   1   2
BRANCH   1  17
ATOM     17  C   UNL     1       8.128 -21.096  23.438  1.00  0.00     0.000 C 
BRANCH  17  18
ATOM     18  C   UNL     1       8.460 -22.001  22.241  1.00  0.00     0.000 C 
BRANCH  18  19
ATOM     19  C   UNL     1       9.838 -22.668  22.370  1.00  0.00     0.000 C 
BRANCH  19  20
ATOM     20  C   UNL     1      10.509 -22.385  23.723  1.00  0.00     0.000 C 
BRANCH  20  21
ATOM     21  C   UNL     1      11.847 -21.654  23.531  1.00  0.00     0.000 C 
BRANCH  21  22
ATOM     22  C   UNL     1      12.187 -20.716  24.700  1.00  0.00    -0.000 C 
BRANCH  22  23
ATOM     23  C   UNL     1      13.637 -20.871  25.181  1.00  0.00    -0.000 C 
BRANCH  23  24
ATOM     24  C   UNL     1      13.899 -20.017  26.429  1.00  0.00    -0.000 C 
BRANCH  24  25
ATOM     25  C   UNL     1      13.434 -20.741  27.697  1.00  0.00    -0.000 C 
BRANCH  25  26
ATOM     26  C   UNL     1      12.702 -19.778  28.645  1.00  0.00    -0.000 C 
BRANCH  26  27
ATOM     27  C   UNL     1      11.174 -19.832  28.487  1.00  0.00    -0.000 C 
BRANCH  27  28
ATOM     28  C   UNL     1      10.587 -18.843  27.460  1.00  0.00    -0.000 C 
BRANCH  28  29
ATOM     29  C   UNL     1       9.318 -19.356  26.751  1.00  0.00    -0.003 C 
ATOM     30  C   UNL     1       9.142 -20.870  26.871  1.00  0.00     0.004 C 
ENDBRANCH  28  29
ENDBRANCH  27  28
ENDBRANCH  26  27
ENDBRANCH  25  26
ENDBRANCH  24  25
ENDBRANCH  23  24
ENDBRANCH  22  23
ENDBRANCH  21  22
ENDBRANCH  20  21
ENDBRANCH  19  20
ENDBRANCH  18  19
ENDBRANCH  17  18
ENDBRANCH   1  17
TORSDOF 26
ENDMDL
MODEL 7
REMARK VINA RESULT:    -4.596      1.953      4.910
REMARK INTER + INTRA:         -16.285
REMARK INTER:                 -10.148
REMARK INTRA:                  -6.137
REMARK UNBOUND:                -4.704
REMARK SMILES CCCCCCCCCCCCCCCCCCCCCCCCCCCC(=O)[O-]
REMARK SMILES IDX 15 1 16 2 17 3 18 4 19 5 20 6 21 7 22 8 23 9 24 10 25 11
REMARK SMILES IDX 26 12 27 13 28 14 29 15 30 16 14 17 13 18 12 19 11 20 10 21
REMARK SMILES IDX 9 22 8 23 7 24 6 25 5 26 4 27 3 28 2 29 1 30
REMARK H PARENT
REMARK Flexibility Score: inf
ROOT
ATOM      1  C   UNL     1       7.141 -20.386  23.439  1.00  0.00     0.000 C 
ENDROOT
BRANCH   1   2
ATOM      2  C   UNL     1       7.351 -19.110  22.595  1.00  0.00     0.000 C 
BRANCH   2   3
ATOM      3  C   UNL     1       7.600 -17.814  23.400  1.00  0.00     0.000 C 
BRANCH   3   4
ATOM      4  C   UNL     1       6.570 -17.547  24.514  1.00  0.00     0.000 C 
BRANCH   4   5
ATOM      5  C   UNL     1       6.321 -16.050  24.792  1.00  0.00     0.000 C 
BRANCH   5   6
ATOM      6  C   UNL     1       6.414 -15.202  23.511  1.00  0.00     0.000 C 
BRANCH   6   7
ATOM      7  C   UNL     1       7.526 -14.142  23.573  1.00  0.00     0.000 C 
BRANCH   7   8
ATOM      8  C   UNL     1       8.512 -14.383  24.727  1.00  0.00     0.000 C 
BRANCH   8   9
ATOM      9  C   UNL     1       9.918 -14.781  24.240  1.00  0.00     0.000 C 
BRANCH   9  10
ATOM     10  C   UNL     1      10.526 -16.016  24.932  1.00  0.00     0.000 C 
BRANCH  10  11
ATOM     11  C   UNL     1       9.783 -16.401  26.222  1.00  0.00     0.000 C 
BRANCH  11  12
ATOM     12  C   UNL     1       9.884 -17.904  26.544  1.00  0.00     0.006 C 
BRANCH  12  13
ATOM     13  C   UNL     1      10.549 -18.747  25.443  1.00  0.00     0.053 C 
BRANCH  13  14
ATOM     14  C   UNL     1      11.033 -20.071  25.955  1.00  0.00     0.041 C 
ATOM     15  O   UNL     1      11.586 -20.888  25.173  1.00  0.00    -0.550 OA
ATOM     16  O   UNL     1      10.876 -20.400  27.296  1.00  0.00    -0.550 OA
ENDBRANCH  13  14
ENDBRANCH  12  13
ENDBRANCH  11  12
ENDBRANCH  10  11
ENDBRANCH   9  10
ENDBRANCH   8   9
ENDBRANCH   7   8
ENDBRANCH   6   7
ENDBRANCH   5   6
ENDBRANCH   4   5
ENDBRANCH   3   4
ENDBRANCH   2   3
ENDBRANCH   1   2
BRANCH   1  17
ATOM     17  C   UNL     1       8.375 -21.298  23.586  1.00  0.00     0.000 C 
BRANCH  17  18
ATOM     18  C   UNL     1       9.097 -21.556  22.254  1.00  0.00     0.000 C 
BRANCH  18  19
ATOM     19  C   UNL     1       8.278 -22.439  21.299  1.00  0.00     0.000 C 
BRANCH  19  20
ATOM     20  C   UNL     1       8.342 -21.954  19.843  1.00  0.00     0.000 C 
BRANCH  20  21
ATOM     21  C   UNL     1       8.636 -20.448  19.777  1.00  0.00     0.000 C 
BRANCH  21  22
ATOM     22  C   UNL     1       9.689 -20.092  18.715  1.00  0.00    -0.000 C 
BRANCH  22  23
ATOM     23  C   UNL     1      11.112 -20.487  19.137  1.00  0.00    -0.000 C 
BRANCH  23  24
ATOM     24  C   UNL     1      11.864 -19.291  19.734  1.00  0.00    -0.000 C 
BRANCH  24  25
ATOM     25  C   UNL     1      11.867 -19.353  21.266  1.00  0.00    -0.000 C 
BRANCH  25  26
ATOM     26  C   UNL     1      10.912 -18.307  21.863  1.00  0.00    -0.000 C 
BRANCH  26  27
ATOM     27  C   UNL     1      10.961 -16.962  21.120  1.00  0.00    -0.000 C 
BRANCH  27  28
ATOM     28  C   UNL     1       9.596 -16.274  20.922  1.00  0.00    -0.000 C 
BRANCH  28  29
ATOM     29  C   UNL     1       8.934 -16.574  19.562  1.00  0.00    -0.003 C 
ATOM     30  C   UNL     1       7.437 -16.862  19.681  1.00  0.00     0.004 C 
ENDBRANCH  28  29
ENDBRANCH  27  28
ENDBRANCH  26  27
ENDBRANCH  25  26
ENDBRANCH  24  25
ENDBRANCH  23  24
ENDBRANCH  22  23
ENDBRANCH  21  22
ENDBRANCH  20  21
ENDBRANCH  19  20
ENDBRANCH  18  19
ENDBRANCH  17  18
ENDBRANCH   1  17
TORSDOF 26
ENDMDL
MODEL 8
REMARK VINA RESULT:    -4.563      2.939      6.316
REMARK INTER + INTRA:         -16.203
REMARK INTER:                 -10.272
REMARK INTRA:                  -5.931
REMARK UNBOUND:                -4.704
REMARK SMILES CCCCCCCCCCCCCCCCCCCCCCCCCCCC(=O)[O-]
REMARK SMILES IDX 15 1 16 2 17 3 18 4 19 5 20 6 21 7 22 8 23 9 24 10 25 11
REMARK SMILES IDX 26 12 27 13 28 14 29 15 30 16 14 17 13 18 12 19 11 20 10 21
REMARK SMILES IDX 9 22 8 23 7 24 6 25 5 26 4 27 3 28 2 29 1 30
REMARK H PARENT
REMARK Flexibility Score: inf
ROOT
ATOM      1  C   UNL     1      10.108 -22.062  23.898  1.00  0.00     0.000 C 
ENDROOT
BRANCH   1   2
ATOM      2  C   UNL     1      11.327 -21.682  23.029  1.00  0.00     0.000 C 
BRANCH   2   3
ATOM      3  C   UNL     1      11.783 -20.208  23.129  1.00  0.00     0.000 C 
BRANCH   3   4
ATOM      4  C   UNL     1      11.667 -19.413  21.814  1.00  0.00     0.000 C 
BRANCH   4   5
ATOM      5  C   UNL     1      10.630 -18.273  21.860  1.00  0.00     0.000 C 
BRANCH   5   6
ATOM      6  C   UNL     1      11.278 -16.918  22.200  1.00  0.00     0.000 C 
BRANCH   6   7
ATOM      7  C   UNL     1      10.290 -15.921  22.827  1.00  0.00     0.000 C 
BRANCH   7   8
ATOM      8  C   UNL     1      10.705 -15.485  24.242  1.00  0.00     0.000 C 
BRANCH   8   9
ATOM      9  C   UNL     1      10.498 -16.590  25.294  1.00  0.00     0.000 C 
BRANCH   9  10
ATOM     10  C   UNL     1       9.197 -17.402  25.145  1.00  0.00     0.000 C 
BRANCH  10  11
ATOM     11  C   UNL     1       8.123 -16.999  26.169  1.00  0.00     0.000 C 
BRANCH  11  12
ATOM     12  C   UNL     1       6.768 -16.671  25.516  1.00  0.00     0.006 C 
BRANCH  12  13
ATOM     13  C   UNL     1       6.828 -16.464  23.993  1.00  0.00     0.053 C 
BRANCH  13  14
ATOM     14  C   UNL     1       6.729 -15.017  23.612  1.00  0.00     0.041 C 
ATOM     15  O   UNL     1       5.957 -14.658  22.684  1.00  0.00    -0.550 OA
ATOM     16  O   UNL     1       7.489 -14.066  24.281  1.00  0.00    -0.550 OA
ENDBRANCH  13  14
ENDBRANCH  12  13
ENDBRANCH  11  12
ENDBRANCH  10  11
ENDBRANCH   9  10
ENDBRANCH   8   9
ENDBRANCH   7   8
ENDBRANCH   6   7
ENDBRANCH   5   6
ENDBRANCH   4   5
ENDBRANCH   3   4
ENDBRANCH   2   3
ENDBRANCH   1   2
BRANCH   1  17
ATOM     17  C   UNL     1       9.377 -20.884  24.572  1.00  0.00     0.000 C 
BRANCH  17  18
ATOM     18  C   UNL     1       7.876 -21.145  24.778  1.00  0.00     0.000 C 
BRANCH  18  19
ATOM     19  C   UNL     1       6.994 -20.231  23.914  1.00  0.00     0.000 C 
BRANCH  19  20
ATOM     20  C   UNL     1       7.665 -19.841  22.588  1.00  0.00     0.000 C 
BRANCH  20  21
ATOM     21  C   UNL     1       7.032 -20.595  21.409  1.00  0.00     0.000 C 
BRANCH  21  22
ATOM     22  C   UNL     1       7.724 -21.938  21.120  1.00  0.00    -0.000 C 
BRANCH  22  23
ATOM     23  C   UNL     1       8.976 -21.782  20.244  1.00  0.00    -0.000 C 
BRANCH  23  24
ATOM     24  C   UNL     1       8.669 -20.966  18.982  1.00  0.00    -0.000 C 
BRANCH  24  25
ATOM     25  C   UNL     1       9.801 -19.978  18.678  1.00  0.00    -0.000 C 
BRANCH  25  26
ATOM     26  C   UNL     1       9.244 -18.587  18.340  1.00  0.00    -0.000 C 
BRANCH  26  27
ATOM     27  C   UNL     1       7.746 -18.451  18.658  1.00  0.00    -0.000 C 
BRANCH  27  28
ATOM     28  C   UNL     1       7.387 -17.322  19.645  1.00  0.00    -0.000 C 
BRANCH  28  29
ATOM     29  C   UNL     1       8.394 -16.154  19.654  1.00  0.00    -0.003 C 
ATOM     30  C   UNL     1       8.169 -15.169  18.506  1.00  0.00     0.004 C 
ENDBRANCH  28  29
ENDBRANCH  27  28
ENDBRANCH  26  27
ENDBRANCH  25  26
ENDBRANCH  24  25
ENDBRANCH  23  24
ENDBRANCH  22  23
ENDBRANCH  21  22
ENDBRANCH  20  21
ENDBRANCH  19  20
ENDBRANCH  18  19
ENDBRANCH  17  18
ENDBRANCH   1  17
TORSDOF 26
ENDMDL
MODEL 9
REMARK VINA RESULT:    -4.522      2.521      6.344
REMARK INTER + INTRA:         -16.100
REMARK INTER:                 -10.304
REMARK INTRA:                  -5.796
REMARK UNBOUND:                -4.704
REMARK SMILES CCCCCCCCCCCCCCCCCCCCCCCCCCCC(=O)[O-]
REMARK SMILES IDX 15 1 16 2 17 3 18 4 19 5 20 6 21 7 22 8 23 9 24 10 25 11
REMARK SMILES IDX 26 12 27 13 28 14 29 15 30 16 14 17 13 18 12 19 11 20 10 21
REMARK SMILES IDX 9 22 8 23 7 24 6 25 5 26 4 27 3 28 2 29 1 30
REMARK H PARENT
REMARK Flexibility Score: inf
ROOT
ATOM      1  C   UNL     1       6.762 -20.104  22.732  1.00  0.00     0.000 C 
ENDROOT
BRANCH   1   2
ATOM      2  C   UNL     1       7.509 -19.696  21.443  1.00  0.00     0.000 C 
BRANCH   2   3
ATOM      3  C   UNL     1       7.938 -20.864  20.525  1.00  0.00     0.000 C 
BRANCH   3   4
ATOM      4  C   UNL     1       9.397 -21.321  20.712  1.00  0.00     0.000 C 
BRANCH   4   5
ATOM      5  C   UNL     1       9.539 -22.739  21.302  1.00  0.00     0.000 C 
BRANCH   5   6
ATOM      6  C   UNL     1       9.599 -22.721  22.840  1.00  0.00     0.000 C 
BRANCH   6   7
ATOM      7  C   UNL     1      10.965 -23.156  23.393  1.00  0.00     0.000 C 
BRANCH   7   8
ATOM      8  C   UNL     1      11.033 -23.092  24.928  1.00  0.00     0.000 C 
BRANCH   8   9
ATOM      9  C   UNL     1      12.043 -24.091  25.524  1.00  0.00     0.000 C 
BRANCH   9  10
ATOM     10  C   UNL     1      13.504 -23.605  25.556  1.00  0.00     0.000 C 
BRANCH  10  11
ATOM     11  C   UNL     1      13.623 -22.095  25.824  1.00  0.00     0.000 C 
BRANCH  11  12
ATOM     12  C   UNL     1      14.347 -21.343  24.692  1.00  0.00     0.006 C 
BRANCH  12  13
ATOM     13  C   UNL     1      14.846 -19.940  25.076  1.00  0.00     0.053 C 
BRANCH  13  14
ATOM     14  C   UNL     1      15.361 -19.175  23.894  1.00  0.00     0.041 C 
ATOM     15  O   UNL     1      16.593 -19.167  23.634  1.00  0.00    -0.550 OA
ATOM     16  O   UNL     1      14.480 -18.474  23.079  1.00  0.00    -0.550 OA
ENDBRANCH  13  14
ENDBRANCH  12  13
ENDBRANCH  11  12
ENDBRANCH  10  11
ENDBRANCH   9  10
ENDBRANCH   8   9
ENDBRANCH   7   8
ENDBRANCH   6   7
ENDBRANCH   5   6
ENDBRANCH   4   5
ENDBRANCH   3   4
ENDBRANCH   2   3
ENDBRANCH   1   2
BRANCH   1  17
ATOM     17  C   UNL     1       7.519 -19.850  24.050  1.00  0.00     0.000 C 
BRANCH  17  18
ATOM     18  C   UNL     1       7.442 -21.034  25.028  1.00  0.00     0.000 C 
BRANCH  18  19
ATOM     19  C   UNL     1       8.336 -20.839  26.262  1.00  0.00     0.000 C 
BRANCH  19  20
ATOM     20  C   UNL     1       8.380 -19.379  26.738  1.00  0.00     0.000 C 
BRANCH  20  21
ATOM     21  C   UNL     1       9.821 -18.945  27.046  1.00  0.00     0.000 C 
BRANCH  21  22
ATOM     22  C   UNL     1      10.857 -19.628  26.138  1.00  0.00    -0.000 C 
BRANCH  22  23
ATOM     23  C   UNL     1      11.295 -18.738  24.966  1.00  0.00    -0.000 C 
BRANCH  23  24
ATOM     24  C   UNL     1      11.186 -19.488  23.632  1.00  0.00    -0.000 C 
BRANCH  24  25
ATOM     25  C   UNL     1      10.825 -18.532  22.491  1.00  0.00    -0.000 C 
BRANCH  25  26
ATOM     26  C   UNL     1      10.577 -17.111  23.019  1.00  0.00    -0.000 C 
BRANCH  26  27
ATOM     27  C   UNL     1       9.169 -16.589  22.689  1.00  0.00    -0.000 C 
BRANCH  27  28
ATOM     28  C   UNL     1       8.585 -15.592  23.709  1.00  0.00    -0.000 C 
BRANCH  28  29
ATOM     29  C   UNL     1       7.940 -16.261  24.940  1.00  0.00    -0.003 C 
ATOM     30  C   UNL     1       8.289 -15.553  26.250  1.00  0.00     0.004 C 
ENDBRANCH  28  29
ENDBRANCH  27  28
ENDBRANCH  26  27
ENDBRANCH  25  26
ENDBRANCH  24  25
ENDBRANCH  23  24
ENDBRANCH  22  23
ENDBRANCH  21  22
ENDBRANCH  20  21
ENDBRANCH  19  20
ENDBRANCH  18  19
ENDBRANCH  17  18
ENDBRANCH   1  17
TORSDOF 26
ENDMDL
