MODEL 1
REMARK VINA RESULT:    -4.661      0.000      0.000
REMARK INTER + INTRA:         -11.090
REMARK INTER:                  -8.475
REMARK INTRA:                  -2.614
REMARK UNBOUND:                -2.614
REMARK SMILES CCCCCCCCCCCCCC[C@@H](C)C(=O)[O-]
REMARK SMILES IDX 9 1 10 2 11 3 12 4 13 5 14 6 15 7 16 8 17 9 18 10 19 11 8 12
REMARK SMILES IDX 7 13 6 14 5 15 4 16 3 17 2 18 1 19
REMARK H PARENT
REMARK Flexibility Score: inf
ROOT
ATOM      1  C   UNL     1     -24.952 -62.452   2.765  1.00  0.00     0.000 C 
ENDROOT
BRANCH   1   2
ATOM      2  C   UNL     1     -23.676 -63.256   2.439  1.00  0.00     0.000 C 
BRANCH   2   3
ATOM      3  C   UNL     1     -22.471 -62.374   2.067  1.00  0.00     0.000 C 
BRANCH   3   4
ATOM      4  C   UNL     1     -22.065 -62.514   0.591  1.00  0.00     0.000 C 
BRANCH   4   5
ATOM      5  C   UNL     1     -22.003 -61.160  -0.134  1.00  0.00     0.001 C 
BRANCH   5   6
ATOM      6  C   UNL     1     -22.867 -60.084   0.548  1.00  0.00     0.009 C 
BRANCH   6   7
ATOM      7  C   UNL     1     -24.256 -59.951  -0.109  1.00  0.00     0.032 C 
ATOM      8  C   UNL     1     -25.260 -59.336   0.870  1.00  0.00     0.014 C 
BRANCH   7   9
ATOM      9  C   UNL     1     -24.190 -59.115  -1.359  1.00  0.00     0.044 C 
ATOM     10  O   UNL     1     -23.382 -58.152  -1.433  1.00  0.00    -0.550 OA
ATOM     11  O   UNL     1     -25.016 -59.399  -2.441  1.00  0.00    -0.550 OA
ENDBRANCH   7   9
ENDBRANCH   6   7
ENDBRANCH   5   6
ENDBRANCH   4   5
ENDBRANCH   3   4
ENDBRANCH   2   3
ENDBRANCH   1   2
BRANCH   1  12
ATOM     12  C   UNL     1     -25.775 -63.100   3.891  1.00  0.00     0.000 C 
BRANCH  12  13
ATOM     13  C   UNL     1     -24.919 -63.957   4.842  1.00  0.00    -0.000 C 
BRANCH  13  14
ATOM     14  C   UNL     1     -24.422 -63.190   6.085  1.00  0.00    -0.000 C 
BRANCH  14  15
ATOM     15  C   UNL     1     -22.885 -63.164   6.175  1.00  0.00    -0.000 C 
BRANCH  15  16
ATOM     16  C   UNL     1     -22.284 -61.830   5.706  1.00  0.00    -0.000 C 
BRANCH  16  17
ATOM     17  C   UNL     1     -23.259 -60.652   5.868  1.00  0.00    -0.000 C 
BRANCH  17  18
ATOM     18  C   UNL     1     -23.365 -59.797   4.595  1.00  0.00    -0.003 C 
ATOM     19  C   UNL     1     -24.711 -59.082   4.469  1.00  0.00     0.004 C 
ENDBRANCH  17  18
ENDBRANCH  16  17
ENDBRANCH  15  16
ENDBRANCH  14  15
ENDBRANCH  13  14
ENDBRANCH  12  13
ENDBRANCH   1  12
TORSDOF 14
ENDMDL
MODEL 2
REMARK VINA RESULT:    -4.512      1.427      1.936
REMARK INTER + INTRA:         -10.819
REMARK INTER:                  -8.840
REMARK INTRA:                  -1.979
REMARK UNBOUND:                -2.614
REMARK SMILES CCCCCCCCCCCCCC[C@@H](C)C(=O)[O-]
REMARK SMILES IDX 9 1 10 2 11 3 12 4 13 5 14 6 15 7 16 8 17 9 18 10 19 11 8 12
REMARK SMILES IDX 7 13 6 14 5 15 4 16 3 17 2 18 1 19
REMARK H PARENT
REMARK Flexibility Score: inf
ROOT
ATOM      1  C   UNL     1     -24.244 -61.907   2.332  1.00  0.00     0.000 C 
ENDROOT
BRANCH   1   2
ATOM      2  C   UNL     1     -22.812 -62.090   1.786  1.00  0.00     0.000 C 
BRANCH   2   3
ATOM      3  C   UNL     1     -22.240 -60.826   1.121  1.00  0.00     0.000 C 
BRANCH   3   4
ATOM      4  C   UNL     1     -21.888 -61.040  -0.360  1.00  0.00     0.000 C 
BRANCH   4   5
ATOM      5  C   UNL     1     -22.202 -59.809  -1.224  1.00  0.00     0.001 C 
BRANCH   5   6
ATOM      6  C   UNL     1     -23.364 -58.971  -0.661  1.00  0.00     0.009 C 
BRANCH   6   7
ATOM      7  C   UNL     1     -24.739 -59.530  -1.082  1.00  0.00     0.032 C 
ATOM      8  C   UNL     1     -25.751 -59.389   0.060  1.00  0.00     0.014 C 
BRANCH   7   9
ATOM      9  C   UNL     1     -25.260 -58.830  -2.309  1.00  0.00     0.044 C 
ATOM     10  O   UNL     1     -24.985 -57.617  -2.509  1.00  0.00    -0.550 OA
ATOM     11  O   UNL     1     -26.043 -59.515  -3.231  1.00  0.00    -0.550 OA
ENDBRANCH   7   9
ENDBRANCH   6   7
ENDBRANCH   5   6
ENDBRANCH   4   5
ENDBRANCH   3   4
ENDBRANCH   2   3
ENDBRANCH   1   2
BRANCH   1  12
ATOM     12  C   UNL     1     -24.375 -62.381   3.789  1.00  0.00     0.000 C 
BRANCH  12  13
ATOM     13  C   UNL     1     -23.068 -62.970   4.348  1.00  0.00    -0.000 C 
BRANCH  13  14
ATOM     14  C   UNL     1     -22.372 -62.058   5.380  1.00  0.00    -0.000 C 
BRANCH  14  15
ATOM     15  C   UNL     1     -23.311 -60.962   5.914  1.00  0.00    -0.000 C 
BRANCH  15  16
ATOM     16  C   UNL     1     -22.803 -59.543   5.611  1.00  0.00    -0.000 C 
BRANCH  16  17
ATOM     17  C   UNL     1     -23.342 -58.994   4.279  1.00  0.00    -0.000 C 
BRANCH  17  18
ATOM     18  C   UNL     1     -22.742 -57.625   3.922  1.00  0.00    -0.003 C 
ATOM     19  C   UNL     1     -22.915 -57.268   2.445  1.00  0.00     0.004 C 
ENDBRANCH  17  18
ENDBRANCH  16  17
ENDBRANCH  15  16
ENDBRANCH  14  15
ENDBRANCH  13  14
ENDBRANCH  12  13
ENDBRANCH   1  12
TORSDOF 14
ENDMDL
MODEL 3
REMARK VINA RESULT:    -4.429      1.186      1.669
REMARK INTER + INTRA:         -10.668
REMARK INTER:                  -8.587
REMARK INTRA:                  -2.080
REMARK UNBOUND:                -2.614
REMARK SMILES CCCCCCCCCCCCCC[C@@H](C)C(=O)[O-]
REMARK SMILES IDX 9 1 10 2 11 3 12 4 13 5 14 6 15 7 16 8 17 9 18 10 19 11 8 12
REMARK SMILES IDX 7 13 6 14 5 15 4 16 3 17 2 18 1 19
REMARK H PARENT
REMARK Flexibility Score: inf
ROOT
ATOM      1  C   UNL     1     -23.396 -63.143   2.077  1.00  0.00     0.000 C 
ENDROOT
BRANCH   1   2
ATOM      2  C   UNL     1     -23.450 -61.612   1.891  1.00  0.00     0.000 C 
BRANCH   2   3
ATOM      3  C   UNL     1     -22.227 -61.038   1.154  1.00  0.00     0.000 C 
BRANCH   3   4
ATOM      4  C   UNL     1     -22.305 -61.232  -0.369  1.00  0.00     0.000 C 
BRANCH   4   5
ATOM      5  C   UNL     1     -22.175 -59.909  -1.139  1.00  0.00     0.001 C 
BRANCH   5   6
ATOM      6  C   UNL     1     -23.296 -58.912  -0.796  1.00  0.00     0.009 C 
BRANCH   6   7
ATOM      7  C   UNL     1     -24.692 -59.460  -1.155  1.00  0.00     0.032 C 
ATOM      8  C   UNL     1     -25.642 -59.342   0.040  1.00  0.00     0.014 C 
BRANCH   7   9
ATOM      9  C   UNL     1     -25.274 -58.737  -2.339  1.00  0.00     0.044 C 
ATOM     10  O   UNL     1     -26.075 -59.328  -3.111  1.00  0.00    -0.550 OA
ATOM     11  O   UNL     1     -24.936 -57.411  -2.590  1.00  0.00    -0.550 OA
ENDBRANCH   7   9
ENDBRANCH   6   7
ENDBRANCH   5   6
ENDBRANCH   4   5
ENDBRANCH   3   4
ENDBRANCH   2   3
ENDBRANCH   1   2
BRANCH   1  12
ATOM     12  C   UNL     1     -24.301 -63.621   3.225  1.00  0.00     0.000 C 
BRANCH  12  13
ATOM     13  C   UNL     1     -23.508 -64.169   4.425  1.00  0.00    -0.000 C 
BRANCH  13  14
ATOM     14  C   UNL     1     -23.385 -63.168   5.592  1.00  0.00    -0.000 C 
BRANCH  14  15
ATOM     15  C   UNL     1     -22.182 -62.223   5.423  1.00  0.00    -0.000 C 
BRANCH  15  16
ATOM     16  C   UNL     1     -22.528 -60.757   5.732  1.00  0.00    -0.000 C 
BRANCH  16  17
ATOM     17  C   UNL     1     -24.039 -60.532   5.914  1.00  0.00    -0.000 C 
BRANCH  17  18
ATOM     18  C   UNL     1     -24.661 -59.745   4.750  1.00  0.00    -0.003 C 
ATOM     19  C   UNL     1     -25.987 -60.339   4.273  1.00  0.00     0.004 C 
ENDBRANCH  17  18
ENDBRANCH  16  17
ENDBRANCH  15  16
ENDBRANCH  14  15
ENDBRANCH  13  14
ENDBRANCH  12  13
ENDBRANCH   1  12
TORSDOF 14
ENDMDL
MODEL 4
REMARK VINA RESULT:    -4.396      1.585      3.533
REMARK INTER + INTRA:         -10.607
REMARK INTER:                  -8.094
REMARK INTRA:                  -2.514
REMARK UNBOUND:                -2.614
REMARK SMILES CCCCCCCCCCCCCC[C@@H](C)C(=O)[O-]
REMARK SMILES IDX 9 1 10 2 11 3 12 4 13 5 14 6 15 7 16 8 17 9 18 10 19 11 8 12
REMARK SMILES IDX 7 13 6 14 5 15 4 16 3 17 2 18 1 19
REMARK H PARENT
REMARK Flexibility Score: inf
ROOT
ATOM      1  C   UNL     1     -23.841 -59.772   6.241  1.00  0.00     0.000 C 
ENDROOT
BRANCH   1   2
ATOM      2  C   UNL     1     -24.225 -58.571   5.351  1.00  0.00     0.000 C 
BRANCH   2   3
ATOM      3  C   UNL     1     -23.374 -58.454   4.074  1.00  0.00     0.000 C 
BRANCH   3   4
ATOM      4  C   UNL     1     -23.909 -57.395   3.097  1.00  0.00     0.000 C 
BRANCH   4   5
ATOM      5  C   UNL     1     -23.914 -57.886   1.641  1.00  0.00     0.001 C 
BRANCH   5   6
ATOM      6  C   UNL     1     -23.193 -59.235   1.468  1.00  0.00     0.009 C 
BRANCH   6   7
ATOM      7  C   UNL     1     -23.593 -59.944   0.158  1.00  0.00     0.032 C 
ATOM      8  C   UNL     1     -24.965 -59.460  -0.320  1.00  0.00     0.014 C 
BRANCH   7   9
ATOM      9  C   UNL     1     -22.569 -59.713  -0.921  1.00  0.00     0.044 C 
ATOM     10  O   UNL     1     -21.883 -60.675  -1.357  1.00  0.00    -0.550 OA
ATOM     11  O   UNL     1     -22.376 -58.440  -1.446  1.00  0.00    -0.550 OA
ENDBRANCH   7   9
ENDBRANCH   6   7
ENDBRANCH   5   6
ENDBRANCH   4   5
ENDBRANCH   3   4
ENDBRANCH   2   3
ENDBRANCH   1   2
BRANCH   1  12
ATOM     12  C   UNL     1     -22.584 -60.495   5.729  1.00  0.00     0.000 C 
BRANCH  12  13
ATOM     13  C   UNL     1     -22.739 -62.026   5.710  1.00  0.00    -0.000 C 
BRANCH  13  14
ATOM     14  C   UNL     1     -22.643 -62.639   4.297  1.00  0.00    -0.000 C 
BRANCH  14  15
ATOM     15  C   UNL     1     -23.504 -63.907   4.154  1.00  0.00    -0.000 C 
BRANCH  15  16
ATOM     16  C   UNL     1     -24.850 -63.637   3.464  1.00  0.00    -0.000 C 
BRANCH  16  17
ATOM     17  C   UNL     1     -24.976 -62.191   2.956  1.00  0.00    -0.000 C 
BRANCH  17  18
ATOM     18  C   UNL     1     -26.072 -61.403   3.691  1.00  0.00    -0.003 C 
ATOM     19  C   UNL     1     -26.576 -60.201   2.891  1.00  0.00     0.004 C 
ENDBRANCH  17  18
ENDBRANCH  16  17
ENDBRANCH  15  16
ENDBRANCH  14  15
ENDBRANCH  13  14
ENDBRANCH  12  13
ENDBRANCH   1  12
TORSDOF 14
ENDMDL
MODEL 5
REMARK VINA RESULT:    -4.347      1.725      2.717
REMARK INTER + INTRA:         -10.518
REMARK INTER:                  -8.560
REMARK INTRA:                  -1.959
REMARK UNBOUND:                -2.614
REMARK SMILES CCCCCCCCCCCCCC[C@@H](C)C(=O)[O-]
REMARK SMILES IDX 9 1 10 2 11 3 12 4 13 5 14 6 15 7 16 8 17 9 18 10 19 11 8 12
REMARK SMILES IDX 7 13 6 14 5 15 4 16 3 17 2 18 1 19
REMARK H PARENT
REMARK Flexibility Score: inf
ROOT
ATOM      1  C   UNL     1     -23.512 -63.314   2.517  1.00  0.00     0.000 C 
ENDROOT
BRANCH   1   2
ATOM      2  C   UNL     1     -23.343 -62.354   1.321  1.00  0.00     0.000 C 
BRANCH   2   3
ATOM      3  C   UNL     1     -21.912 -61.812   1.165  1.00  0.00     0.000 C 
BRANCH   3   4
ATOM      4  C   UNL     1     -21.876 -60.371   0.631  1.00  0.00     0.000 C 
BRANCH   4   5
ATOM      5  C   UNL     1     -22.244 -60.286  -0.859  1.00  0.00     0.001 C 
BRANCH   5   6
ATOM      6  C   UNL     1     -23.119 -59.061  -1.183  1.00  0.00     0.009 C 
BRANCH   6   7
ATOM      7  C   UNL     1     -24.590 -59.449  -1.437  1.00  0.00     0.032 C 
ATOM      8  C   UNL     1     -25.373 -59.485  -0.120  1.00  0.00     0.014 C 
BRANCH   7   9
ATOM      9  C   UNL     1     -25.250 -58.492  -2.392  1.00  0.00     0.044 C 
ATOM     10  O   UNL     1     -25.820 -58.925  -3.428  1.00  0.00    -0.550 OA
ATOM     11  O   UNL     1     -25.238 -57.125  -2.139  1.00  0.00    -0.550 OA
ENDBRANCH   7   9
ENDBRANCH   6   7
ENDBRANCH   5   6
ENDBRANCH   4   5
ENDBRANCH   3   4
ENDBRANCH   2   3
ENDBRANCH   1   2
BRANCH   1  12
ATOM     12  C   UNL     1     -24.735 -62.957   3.380  1.00  0.00     0.000 C 
BRANCH  12  13
ATOM     13  C   UNL     1     -25.337 -61.585   3.027  1.00  0.00    -0.000 C 
BRANCH  13  14
ATOM     14  C   UNL     1     -25.171 -60.533   4.143  1.00  0.00    -0.000 C 
BRANCH  14  15
ATOM     15  C   UNL     1     -23.817 -59.805   4.059  1.00  0.00    -0.000 C 
BRANCH  15  16
ATOM     16  C   UNL     1     -23.847 -58.600   3.105  1.00  0.00    -0.000 C 
BRANCH  16  17
ATOM     17  C   UNL     1     -22.761 -57.560   3.431  1.00  0.00    -0.000 C 
BRANCH  17  18
ATOM     18  C   UNL     1     -23.273 -56.447   4.358  1.00  0.00    -0.003 C 
ATOM     19  C   UNL     1     -22.196 -55.927   5.312  1.00  0.00     0.004 C 
ENDBRANCH  17  18
ENDBRANCH  16  17
ENDBRANCH  15  16
ENDBRANCH  14  15
ENDBRANCH  13  14
ENDBRANCH  12  13
ENDBRANCH   1  12
TORSDOF 14
ENDMDL
MODEL 6
REMARK VINA RESULT:    -4.320      1.713      3.575
REMARK INTER + INTRA:         -10.471
REMARK INTER:                  -7.926
REMARK INTRA:                  -2.544
REMARK UNBOUND:                -2.614
REMARK SMILES CCCCCCCCCCCCCC[C@@H](C)C(=O)[O-]
REMARK SMILES IDX 9 1 10 2 11 3 12 4 13 5 14 6 15 7 16 8 17 9 18 10 19 11 8 12
REMARK SMILES IDX 7 13 6 14 5 15 4 16 3 17 2 18 1 19
REMARK H PARENT
REMARK Flexibility Score: inf
ROOT
ATOM      1  C   UNL     1     -23.141 -60.328   5.929  1.00  0.00     0.000 C 
ENDROOT
BRANCH   1   2
ATOM      2  C   UNL     1     -23.012 -59.623   4.562  1.00  0.00     0.000 C 
BRANCH   2   3
ATOM      3  C   UNL     1     -22.941 -58.089   4.666  1.00  0.00     0.000 C 
BRANCH   3   4
ATOM      4  C   UNL     1     -23.399 -57.385   3.378  1.00  0.00     0.000 C 
BRANCH   4   5
ATOM      5  C   UNL     1     -23.511 -58.349   2.187  1.00  0.00     0.001 C 
BRANCH   5   6
ATOM      6  C   UNL     1     -22.498 -58.033   1.072  1.00  0.00     0.009 C 
BRANCH   6   7
ATOM      7  C   UNL     1     -21.875 -59.311   0.473  1.00  0.00     0.032 C 
ATOM      8  C   UNL     1     -22.437 -60.558   1.163  1.00  0.00     0.014 C 
BRANCH   7   9
ATOM      9  C   UNL     1     -22.124 -59.396  -1.008  1.00  0.00     0.044 C 
ATOM     10  O   UNL     1     -22.317 -58.347  -1.678  1.00  0.00    -0.550 OA
ATOM     11  O   UNL     1     -22.141 -60.629  -1.650  1.00  0.00    -0.550 OA
ENDBRANCH   7   9
ENDBRANCH   6   7
ENDBRANCH   5   6
ENDBRANCH   4   5
ENDBRANCH   3   4
ENDBRANCH   2   3
ENDBRANCH   1   2
BRANCH   1  12
ATOM     12  C   UNL     1     -22.729 -61.808   5.860  1.00  0.00     0.000 C 
BRANCH  12  13
ATOM     13  C   UNL     1     -22.663 -62.346   4.419  1.00  0.00    -0.000 C 
BRANCH  13  14
ATOM     14  C   UNL     1     -23.794 -63.339   4.079  1.00  0.00    -0.000 C 
BRANCH  14  15
ATOM     15  C   UNL     1     -24.773 -62.770   3.036  1.00  0.00    -0.000 C 
BRANCH  15  16
ATOM     16  C   UNL     1     -25.816 -61.824   3.651  1.00  0.00    -0.000 C 
BRANCH  16  17
ATOM     17  C   UNL     1     -26.126 -60.618   2.749  1.00  0.00    -0.000 C 
BRANCH  17  18
ATOM     18  C   UNL     1     -26.868 -59.499   3.497  1.00  0.00    -0.003 C 
ATOM     19  C   UNL     1     -26.690 -59.581   5.014  1.00  0.00     0.004 C 
ENDBRANCH  17  18
ENDBRANCH  16  17
ENDBRANCH  15  16
ENDBRANCH  14  15
ENDBRANCH  13  14
ENDBRANCH  12  13
ENDBRANCH   1  12
TORSDOF 14
ENDMDL
MODEL 7
REMARK VINA RESULT:    -4.288      2.037      3.634
REMARK INTER + INTRA:         -10.411
REMARK INTER:                  -8.370
REMARK INTRA:                  -2.041
REMARK UNBOUND:                -2.614
REMARK SMILES CCCCCCCCCCCCCC[C@@H](C)C(=O)[O-]
REMARK SMILES IDX 9 1 10 2 11 3 12 4 13 5 14 6 15 7 16 8 17 9 18 10 19 11 8 12
REMARK SMILES IDX 7 13 6 14 5 15 4 16 3 17 2 18 1 19
REMARK H PARENT
REMARK Flexibility Score: inf
ROOT
ATOM      1  C   UNL     1     -22.325 -61.555   0.023  1.00  0.00     0.000 C 
ENDROOT
BRANCH   1   2
ATOM      2  C   UNL     1     -21.885 -60.092   0.239  1.00  0.00     0.000 C 
BRANCH   2   3
ATOM      3  C   UNL     1     -22.660 -59.083  -0.625  1.00  0.00     0.000 C 
BRANCH   3   4
ATOM      4  C   UNL     1     -23.910 -59.695  -1.279  1.00  0.00     0.000 C 
BRANCH   4   5
ATOM      5  C   UNL     1     -25.215 -59.093  -0.734  1.00  0.00     0.001 C 
BRANCH   5   6
ATOM      6  C   UNL     1     -25.067 -57.609  -0.351  1.00  0.00     0.009 C 
BRANCH   6   7
ATOM      7  C   UNL     1     -26.143 -56.727  -1.017  1.00  0.00     0.032 C 
ATOM      8  C   UNL     1     -25.964 -55.260  -0.612  1.00  0.00     0.014 C 
BRANCH   7   9
ATOM      9  C   UNL     1     -26.096 -56.848  -2.516  1.00  0.00     0.044 C 
ATOM     10  O   UNL     1     -25.044 -56.550  -3.142  1.00  0.00    -0.550 OA
ATOM     11  O   UNL     1     -27.208 -57.292  -3.222  1.00  0.00    -0.550 OA
ENDBRANCH   7   9
ENDBRANCH   6   7
ENDBRANCH   5   6
ENDBRANCH   4   5
ENDBRANCH   3   4
ENDBRANCH   2   3
ENDBRANCH   1   2
BRANCH   1  12
ATOM     12  C   UNL     1     -21.984 -62.448   1.228  1.00  0.00     0.000 C 
BRANCH  12  13
ATOM     13  C   UNL     1     -23.178 -63.296   1.702  1.00  0.00    -0.000 C 
BRANCH  13  14
ATOM     14  C   UNL     1     -23.621 -62.985   3.147  1.00  0.00    -0.000 C 
BRANCH  14  15
ATOM     15  C   UNL     1     -25.012 -62.327   3.200  1.00  0.00    -0.000 C 
BRANCH  15  16
ATOM     16  C   UNL     1     -25.077 -61.007   2.415  1.00  0.00    -0.000 C 
BRANCH  16  17
ATOM     17  C   UNL     1     -24.942 -59.772   3.322  1.00  0.00    -0.000 C 
BRANCH  17  18
ATOM     18  C   UNL     1     -23.809 -58.835   2.875  1.00  0.00    -0.003 C 
ATOM     19  C   UNL     1     -23.157 -58.092   4.042  1.00  0.00     0.004 C 
ENDBRANCH  17  18
ENDBRANCH  16  17
ENDBRANCH  15  16
ENDBRANCH  14  15
ENDBRANCH  13  14
ENDBRANCH  12  13
ENDBRANCH   1  12
TORSDOF 14
ENDMDL
MODEL 8
REMARK VINA RESULT:    -4.277      1.300      1.960
REMARK INTER + INTRA:         -10.392
REMARK INTER:                  -8.123
REMARK INTRA:                  -2.268
REMARK UNBOUND:                -2.614
REMARK SMILES CCCCCCCCCCCCCC[C@@H](C)C(=O)[O-]
REMARK SMILES IDX 9 1 10 2 11 3 12 4 13 5 14 6 15 7 16 8 17 9 18 10 19 11 8 12
REMARK SMILES IDX 7 13 6 14 5 15 4 16 3 17 2 18 1 19
REMARK H PARENT
REMARK Flexibility Score: inf
ROOT
ATOM      1  C   UNL     1     -24.104 -63.628   2.867  1.00  0.00     0.000 C 
ENDROOT
BRANCH   1   2
ATOM      2  C   UNL     1     -23.756 -62.336   2.098  1.00  0.00     0.000 C 
BRANCH   2   3
ATOM      3  C   UNL     1     -22.286 -62.264   1.650  1.00  0.00     0.000 C 
BRANCH   3   4
ATOM      4  C   UNL     1     -22.041 -61.185   0.583  1.00  0.00     0.000 C 
BRANCH   4   5
ATOM      5  C   UNL     1     -23.138 -60.108   0.571  1.00  0.00     0.001 C 
BRANCH   5   6
ATOM      6  C   UNL     1     -23.687 -59.838  -0.841  1.00  0.00     0.009 C 
BRANCH   6   7
ATOM      7  C   UNL     1     -25.201 -59.546  -0.830  1.00  0.00     0.032 C 
ATOM      8  C   UNL     1     -25.745 -59.574   0.602  1.00  0.00     0.014 C 
BRANCH   7   9
ATOM      9  C   UNL     1     -25.505 -58.214  -1.461  1.00  0.00     0.044 C 
ATOM     10  O   UNL     1     -26.618 -57.659  -1.261  1.00  0.00    -0.550 OA
ATOM     11  O   UNL     1     -24.562 -57.586  -2.267  1.00  0.00    -0.550 OA
ENDBRANCH   7   9
ENDBRANCH   6   7
ENDBRANCH   5   6
ENDBRANCH   4   5
ENDBRANCH   3   4
ENDBRANCH   2   3
ENDBRANCH   1   2
BRANCH   1  12
ATOM     12  C   UNL     1     -25.435 -63.509   3.629  1.00  0.00     0.000 C 
BRANCH  12  13
ATOM     13  C   UNL     1     -25.999 -62.077   3.630  1.00  0.00    -0.000 C 
BRANCH  13  14
ATOM     14  C   UNL     1     -26.812 -61.734   4.896  1.00  0.00    -0.000 C 
BRANCH  14  15
ATOM     15  C   UNL     1     -26.078 -62.144   6.186  1.00  0.00    -0.000 C 
BRANCH  15  16
ATOM     16  C   UNL     1     -24.871 -61.244   6.495  1.00  0.00    -0.000 C 
BRANCH  16  17
ATOM     17  C   UNL     1     -23.529 -61.982   6.347  1.00  0.00    -0.000 C 
BRANCH  17  18
ATOM     18  C   UNL     1     -22.539 -61.227   5.447  1.00  0.00    -0.003 C 
ATOM     19  C   UNL     1     -23.129 -59.944   4.860  1.00  0.00     0.004 C 
ENDBRANCH  17  18
ENDBRANCH  16  17
ENDBRANCH  15  16
ENDBRANCH  14  15
ENDBRANCH  13  14
ENDBRANCH  12  13
ENDBRANCH   1  12
TORSDOF 14
ENDMDL
MODEL 9
REMARK VINA RESULT:    -4.209      2.842      5.567
REMARK INTER + INTRA:         -10.268
REMARK INTER:                  -8.245
REMARK INTRA:                  -2.022
REMARK UNBOUND:                -2.614
REMARK SMILES CCCCCCCCCCCCCC[C@@H](C)C(=O)[O-]
REMARK SMILES IDX 9 1 10 2 11 3 12 4 13 5 14 6 15 7 16 8 17 9 18 10 19 11 8 12
REMARK SMILES IDX 7 13 6 14 5 15 4 16 3 17 2 18 1 19
REMARK H PARENT
REMARK Flexibility Score: inf
ROOT
ATOM      1  C   UNL     1     -23.196 -59.699  -1.270  1.00  0.00     0.000 C 
ENDROOT
BRANCH   1   2
ATOM      2  C   UNL     1     -24.304 -59.409  -0.236  1.00  0.00     0.000 C 
BRANCH   2   3
ATOM      3  C   UNL     1     -24.559 -57.908  -0.012  1.00  0.00     0.000 C 
BRANCH   3   4
ATOM      4  C   UNL     1     -23.757 -57.337   1.169  1.00  0.00     0.000 C 
BRANCH   4   5
ATOM      5  C   UNL     1     -24.216 -57.904   2.521  1.00  0.00     0.001 C 
BRANCH   5   6
ATOM      6  C   UNL     1     -23.039 -58.372   3.397  1.00  0.00     0.009 C 
BRANCH   6   7
ATOM      7  C   UNL     1     -23.428 -58.474   4.886  1.00  0.00     0.032 C 
ATOM      8  C   UNL     1     -22.980 -59.818   5.469  1.00  0.00     0.014 C 
BRANCH   7   9
ATOM      9  C   UNL     1     -22.827 -57.349   5.685  1.00  0.00     0.044 C 
ATOM     10  O   UNL     1     -23.182 -57.162   6.879  1.00  0.00    -0.550 OA
ATOM     11  O   UNL     1     -21.875 -56.511   5.115  1.00  0.00    -0.550 OA
ENDBRANCH   7   9
ENDBRANCH   6   7
ENDBRANCH   5   6
ENDBRANCH   4   5
ENDBRANCH   3   4
ENDBRANCH   2   3
ENDBRANCH   1   2
BRANCH   1  12
ATOM     12  C   UNL     1     -22.046 -60.526  -0.671  1.00  0.00     0.000 C 
BRANCH  12  13
ATOM     13  C   UNL     1     -22.295 -60.927   0.794  1.00  0.00    -0.000 C 
BRANCH  13  14
ATOM     14  C   UNL     1     -22.425 -62.450   1.003  1.00  0.00    -0.000 C 
BRANCH  14  15
ATOM     15  C   UNL     1     -23.328 -62.797   2.201  1.00  0.00    -0.000 C 
BRANCH  15  16
ATOM     16  C   UNL     1     -24.316 -61.671   2.548  1.00  0.00    -0.000 C 
BRANCH  16  17
ATOM     17  C   UNL     1     -25.430 -62.135   3.501  1.00  0.00    -0.000 C 
BRANCH  17  18
ATOM     18  C   UNL     1     -25.450 -63.661   3.684  1.00  0.00    -0.003 C 
ATOM     19  C   UNL     1     -25.285 -64.086   5.144  1.00  0.00     0.004 C 
ENDBRANCH  17  18
ENDBRANCH  16  17
ENDBRANCH  15  16
ENDBRANCH  14  15
ENDBRANCH  13  14
ENDBRANCH  12  13
ENDBRANCH   1  12
TORSDOF 14
ENDMDL
