MODEL 1
REMARK VINA RESULT:    -4.995      0.000      0.000
REMARK INTER + INTRA:          -9.338
REMARK INTER:                  -7.622
REMARK INTRA:                  -1.716
REMARK UNBOUND:                -1.716
REMARK SMILES CCCCCCCCCC=CC(=O)[O-]
REMARK SMILES IDX 7 1 8 2 9 3 10 4 11 5 12 6 13 7 14 8 6 9 5 10 4 11 3 12 2 13
REMARK SMILES IDX 1 14
REMARK H PARENT
REMARK Flexibility Score: inf
ROOT
ATOM      1  C   UNL     1     -11.760   2.733 -37.296  1.00  0.00     0.000 C 
ENDROOT
BRANCH   1   2
ATOM      2  C   UNL     1     -13.052   3.423 -37.758  1.00  0.00     0.004 C 
BRANCH   2   3
ATOM      3  C   UNL     1     -14.215   2.436 -37.950  1.00  0.00     0.027 C 
BRANCH   3   4
ATOM      4  C   UNL     1     -15.186   2.513 -36.806  1.00  0.00    -0.025 C 
ATOM      5  C   UNL     1     -15.714   1.411 -36.262  1.00  0.00     0.020 C 
BRANCH   5   6
ATOM      6  C   UNL     1     -16.654   1.463 -35.131  1.00  0.00     0.064 C 
ATOM      7  O   UNL     1     -17.654   2.229 -35.150  1.00  0.00    -0.545 OA
ATOM      8  O   UNL     1     -16.435   0.653 -34.025  1.00  0.00    -0.545 OA
ENDBRANCH   5   6
ENDBRANCH   3   4
ENDBRANCH   2   3
ENDBRANCH   1   2
BRANCH   1   9
ATOM      9  C   UNL     1     -11.864   1.198 -37.327  1.00  0.00     0.000 C 
BRANCH   9  10
ATOM     10  C   UNL     1     -11.854   0.578 -35.921  1.00  0.00     0.000 C 
BRANCH  10  11
ATOM     11  C   UNL     1     -11.783   1.636 -34.806  1.00  0.00    -0.000 C 
BRANCH  11  12
ATOM     12  C   UNL     1     -12.933   1.509 -33.790  1.00  0.00    -0.000 C 
BRANCH  12  13
ATOM     13  C   UNL     1     -13.620   2.837 -33.427  1.00  0.00    -0.003 C 
ATOM     14  C   UNL     1     -12.861   4.063 -33.937  1.00  0.00     0.004 C 
ENDBRANCH  12  13
ENDBRANCH  11  12
ENDBRANCH  10  11
ENDBRANCH   9  10
ENDBRANCH   1   9
TORSDOF 9
ENDMDL
MODEL 2
REMARK VINA RESULT:    -4.971      2.042      3.961
REMARK INTER + INTRA:          -9.302
REMARK INTER:                  -7.775
REMARK INTRA:                  -1.527
REMARK UNBOUND:                -1.716
REMARK SMILES CCCCCCCCCC=CC(=O)[O-]
REMARK SMILES IDX 7 1 8 2 9 3 10 4 11 5 12 6 13 7 14 8 6 9 5 10 4 11 3 12 2 13
REMARK SMILES IDX 1 14
REMARK H PARENT
REMARK Flexibility Score: inf
ROOT
ATOM      1  C   UNL     1     -11.619   0.791 -36.344  1.00  0.00     0.000 C 
ENDROOT
BRANCH   1   2
ATOM      2  C   UNL     1     -11.802   1.839 -35.235  1.00  0.00     0.004 C 
BRANCH   2   3
ATOM      3  C   UNL     1     -12.622   1.308 -34.048  1.00  0.00     0.027 C 
BRANCH   3   4
ATOM      4  C   UNL     1     -13.525   2.372 -33.493  1.00  0.00    -0.025 C 
ATOM      5  C   UNL     1     -13.323   3.668 -33.758  1.00  0.00     0.020 C 
BRANCH   5   6
ATOM      6  C   UNL     1     -14.204   4.725 -33.239  1.00  0.00     0.064 C 
ATOM      7  O   UNL     1     -15.395   4.835 -33.637  1.00  0.00    -0.545 OA
ATOM      8  O   UNL     1     -13.715   5.616 -32.292  1.00  0.00    -0.545 OA
ENDBRANCH   5   6
ENDBRANCH   3   4
ENDBRANCH   2   3
ENDBRANCH   1   2
BRANCH   1   9
ATOM      9  C   UNL     1     -12.848   0.680 -37.264  1.00  0.00     0.000 C 
BRANCH   9  10
ATOM     10  C   UNL     1     -13.550   2.031 -37.475  1.00  0.00     0.000 C 
BRANCH  10  11
ATOM     11  C   UNL     1     -15.079   1.896 -37.578  1.00  0.00    -0.000 C 
BRANCH  11  12
ATOM     12  C   UNL     1     -15.827   2.815 -36.595  1.00  0.00    -0.000 C 
BRANCH  12  13
ATOM     13  C   UNL     1     -16.695   2.078 -35.560  1.00  0.00    -0.003 C 
ATOM     14  C   UNL     1     -16.274   0.623 -35.353  1.00  0.00     0.004 C 
ENDBRANCH  12  13
ENDBRANCH  11  12
ENDBRANCH  10  11
ENDBRANCH   9  10
ENDBRANCH   1   9
TORSDOF 9
ENDMDL
MODEL 3
REMARK VINA RESULT:    -4.908      2.236      4.252
REMARK INTER + INTRA:          -9.206
REMARK INTER:                  -7.697
REMARK INTRA:                  -1.510
REMARK UNBOUND:                -1.716
REMARK SMILES CCCCCCCCCC=CC(=O)[O-]
REMARK SMILES IDX 7 1 8 2 9 3 10 4 11 5 12 6 13 7 14 8 6 9 5 10 4 11 3 12 2 13
REMARK SMILES IDX 1 14
REMARK H PARENT
REMARK Flexibility Score: inf
ROOT
ATOM      1  C   UNL     1     -16.704   1.660 -33.335  1.00  0.00     0.000 C 
ENDROOT
BRANCH   1   2
ATOM      2  C   UNL     1     -16.969   1.693 -34.849  1.00  0.00     0.004 C 
BRANCH   2   3
ATOM      3  C   UNL     1     -16.168   0.626 -35.613  1.00  0.00     0.027 C 
BRANCH   3   4
ATOM      4  C   UNL     1     -15.307   1.252 -36.673  1.00  0.00    -0.025 C 
ATOM      5  C   UNL     1     -15.254   2.578 -36.838  1.00  0.00     0.020 C 
BRANCH   5   6
ATOM      6  C   UNL     1     -14.405   3.213 -37.859  1.00  0.00     0.064 C 
ATOM      7  O   UNL     1     -13.426   3.936 -37.534  1.00  0.00    -0.545 OA
ATOM      8  O   UNL     1     -14.687   3.008 -39.203  1.00  0.00    -0.545 OA
ENDBRANCH   5   6
ENDBRANCH   3   4
ENDBRANCH   2   3
ENDBRANCH   1   2
BRANCH   1   9
ATOM      9  C   UNL     1     -15.809   2.820 -32.865  1.00  0.00     0.000 C 
BRANCH   9  10
ATOM     10  C   UNL     1     -14.373   2.367 -32.555  1.00  0.00     0.000 C 
BRANCH  10  11
ATOM     11  C   UNL     1     -13.379   2.738 -33.669  1.00  0.00    -0.000 C 
BRANCH  11  12
ATOM     12  C   UNL     1     -12.564   1.531 -34.167  1.00  0.00    -0.000 C 
BRANCH  12  13
ATOM     13  C   UNL     1     -11.615   1.835 -35.339  1.00  0.00    -0.003 C 
ATOM     14  C   UNL     1     -11.650   0.767 -36.432  1.00  0.00     0.004 C 
ENDBRANCH  12  13
ENDBRANCH  11  12
ENDBRANCH  10  11
ENDBRANCH   9  10
ENDBRANCH   1   9
TORSDOF 9
ENDMDL
MODEL 4
REMARK VINA RESULT:    -4.876      2.075      4.117
REMARK INTER + INTRA:          -9.158
REMARK INTER:                  -7.604
REMARK INTRA:                  -1.554
REMARK UNBOUND:                -1.716
REMARK SMILES CCCCCCCCCC=CC(=O)[O-]
REMARK SMILES IDX 7 1 8 2 9 3 10 4 11 5 12 6 13 7 14 8 6 9 5 10 4 11 3 12 2 13
REMARK SMILES IDX 1 14
REMARK H PARENT
REMARK Flexibility Score: inf
ROOT
ATOM      1  C   UNL     1     -15.810   2.650 -32.885  1.00  0.00     0.000 C 
ENDROOT
BRANCH   1   2
ATOM      2  C   UNL     1     -16.513   1.461 -33.558  1.00  0.00     0.004 C 
BRANCH   2   3
ATOM      3  C   UNL     1     -17.127   1.828 -34.919  1.00  0.00     0.027 C 
BRANCH   3   4
ATOM      4  C   UNL     1     -16.071   1.916 -35.984  1.00  0.00    -0.025 C 
ATOM      5  C   UNL     1     -15.765   3.079 -36.570  1.00  0.00     0.020 C 
BRANCH   5   6
ATOM      6  C   UNL     1     -14.723   3.190 -37.603  1.00  0.00     0.064 C 
ATOM      7  O   UNL     1     -14.647   2.355 -38.544  1.00  0.00    -0.545 OA
ATOM      8  O   UNL     1     -13.810   4.234 -37.541  1.00  0.00    -0.545 OA
ENDBRANCH   5   6
ENDBRANCH   3   4
ENDBRANCH   2   3
ENDBRANCH   1   2
BRANCH   1   9
ATOM      9  C   UNL     1     -14.324   2.375 -32.598  1.00  0.00     0.000 C 
BRANCH   9  10
ATOM     10  C   UNL     1     -13.388   3.296 -33.396  1.00  0.00     0.000 C 
BRANCH  10  11
ATOM     11  C   UNL     1     -12.666   2.562 -34.540  1.00  0.00    -0.000 C 
BRANCH  11  12
ATOM     12  C   UNL     1     -12.772   1.031 -34.427  1.00  0.00    -0.000 C 
BRANCH  12  13
ATOM     13  C   UNL     1     -12.577   0.274 -35.753  1.00  0.00    -0.003 C 
ATOM     14  C   UNL     1     -11.713   1.037 -36.757  1.00  0.00     0.004 C 
ENDBRANCH  12  13
ENDBRANCH  11  12
ENDBRANCH  10  11
ENDBRANCH   9  10
ENDBRANCH   1   9
TORSDOF 9
ENDMDL
MODEL 5
REMARK VINA RESULT:    -4.861      2.376      5.009
REMARK INTER + INTRA:          -9.134
REMARK INTER:                  -7.788
REMARK INTRA:                  -1.346
REMARK UNBOUND:                -1.716
REMARK SMILES CCCCCCCCCC=CC(=O)[O-]
REMARK SMILES IDX 7 1 8 2 9 3 10 4 11 5 12 6 13 7 14 8 6 9 5 10 4 11 3 12 2 13
REMARK SMILES IDX 1 14
REMARK H PARENT
REMARK Flexibility Score: inf
ROOT
ATOM      1  C   UNL     1     -15.157   3.643 -33.265  1.00  0.00     0.000 C 
ENDROOT
BRANCH   1   2
ATOM      2  C   UNL     1     -13.701   3.350 -32.873  1.00  0.00     0.004 C 
BRANCH   2   3
ATOM      3  C   UNL     1     -12.688   4.060 -33.786  1.00  0.00     0.027 C 
BRANCH   3   4
ATOM      4  C   UNL     1     -12.325   3.201 -34.964  1.00  0.00    -0.025 C 
ATOM      5  C   UNL     1     -12.134   1.883 -34.836  1.00  0.00     0.020 C 
BRANCH   5   6
ATOM      6  C   UNL     1     -11.795   1.020 -35.978  1.00  0.00     0.064 C 
ATOM      7  O   UNL     1     -12.183  -0.178 -36.027  1.00  0.00    -0.545 OA
ATOM      8  O   UNL     1     -11.036   1.536 -37.020  1.00  0.00    -0.545 OA
ENDBRANCH   5   6
ENDBRANCH   3   4
ENDBRANCH   2   3
ENDBRANCH   1   2
BRANCH   1   9
ATOM      9  C   UNL     1     -16.098   2.461 -32.972  1.00  0.00     0.000 C 
BRANCH   9  10
ATOM     10  C   UNL     1     -17.126   2.234 -34.093  1.00  0.00     0.000 C 
BRANCH  10  11
ATOM     11  C   UNL     1     -16.524   2.421 -35.497  1.00  0.00    -0.000 C 
BRANCH  11  12
ATOM     12  C   UNL     1     -15.768   1.176 -35.993  1.00  0.00    -0.000 C 
BRANCH  12  13
ATOM     13  C   UNL     1     -15.103   1.335 -37.372  1.00  0.00    -0.003 C 
ATOM     14  C   UNL     1     -14.845   2.794 -37.748  1.00  0.00     0.004 C 
ENDBRANCH  12  13
ENDBRANCH  11  12
ENDBRANCH  10  11
ENDBRANCH   9  10
ENDBRANCH   1   9
TORSDOF 9
ENDMDL
MODEL 6
REMARK VINA RESULT:    -4.810      1.786      3.385
REMARK INTER + INTRA:          -9.056
REMARK INTER:                  -7.506
REMARK INTRA:                  -1.549
REMARK UNBOUND:                -1.716
REMARK SMILES CCCCCCCCCC=CC(=O)[O-]
REMARK SMILES IDX 7 1 8 2 9 3 10 4 11 5 12 6 13 7 14 8 6 9 5 10 4 11 3 12 2 13
REMARK SMILES IDX 1 14
REMARK H PARENT
REMARK Flexibility Score: inf
ROOT
ATOM      1  C   UNL     1     -12.426   1.122 -34.218  1.00  0.00     0.000 C 
ENDROOT
BRANCH   1   2
ATOM      2  C   UNL     1     -12.869   0.181 -35.349  1.00  0.00     0.004 C 
BRANCH   2   3
ATOM      3  C   UNL     1     -12.694   0.807 -36.743  1.00  0.00     0.027 C 
BRANCH   3   4
ATOM      4  C   UNL     1     -14.022   1.158 -37.350  1.00  0.00    -0.025 C 
ATOM      5  C   UNL     1     -14.429   2.428 -37.454  1.00  0.00     0.020 C 
BRANCH   5   6
ATOM      6  C   UNL     1     -15.719   2.795 -38.060  1.00  0.00     0.064 C 
ATOM      7  O   UNL     1     -16.658   3.261 -37.360  1.00  0.00    -0.545 OA
ATOM      8  O   UNL     1     -15.903   2.628 -39.426  1.00  0.00    -0.545 OA
ENDBRANCH   5   6
ENDBRANCH   3   4
ENDBRANCH   2   3
ENDBRANCH   1   2
BRANCH   1   9
ATOM      9  C   UNL     1     -11.859   2.453 -34.741  1.00  0.00     0.000 C 
BRANCH   9  10
ATOM     10  C   UNL     1     -12.587   3.674 -34.158  1.00  0.00     0.000 C 
BRANCH  10  11
ATOM     11  C   UNL     1     -13.727   3.284 -33.200  1.00  0.00    -0.000 C 
BRANCH  11  12
ATOM     12  C   UNL     1     -15.116   3.377 -33.856  1.00  0.00    -0.000 C 
BRANCH  12  13
ATOM     13  C   UNL     1     -16.125   2.317 -33.379  1.00  0.00    -0.003 C 
ATOM     14  C   UNL     1     -16.374   1.219 -34.413  1.00  0.00     0.004 C 
ENDBRANCH  12  13
ENDBRANCH  11  12
ENDBRANCH  10  11
ENDBRANCH   9  10
ENDBRANCH   1   9
TORSDOF 9
ENDMDL
MODEL 7
REMARK VINA RESULT:    -4.793      1.216      2.218
REMARK INTER + INTRA:          -9.030
REMARK INTER:                  -7.670
REMARK INTRA:                  -1.359
REMARK UNBOUND:                -1.716
REMARK SMILES CCCCCCCCCC=CC(=O)[O-]
REMARK SMILES IDX 7 1 8 2 9 3 10 4 11 5 12 6 13 7 14 8 6 9 5 10 4 11 3 12 2 13
REMARK SMILES IDX 1 14
REMARK H PARENT
REMARK Flexibility Score: inf
ROOT
ATOM      1  C   UNL     1     -13.934   3.837 -37.254  1.00  0.00     0.000 C 
ENDROOT
BRANCH   1   2
ATOM      2  C   UNL     1     -14.354   2.630 -38.108  1.00  0.00     0.004 C 
BRANCH   2   3
ATOM      3  C   UNL     1     -15.628   1.948 -37.584  1.00  0.00     0.027 C 
BRANCH   3   4
ATOM      4  C   UNL     1     -15.844   2.249 -36.128  1.00  0.00    -0.025 C 
ATOM      5  C   UNL     1     -16.953   1.858 -35.491  1.00  0.00     0.020 C 
BRANCH   5   6
ATOM      6  C   UNL     1     -17.178   2.129 -34.062  1.00  0.00     0.064 C 
ATOM      7  O   UNL     1     -16.939   1.253 -33.188  1.00  0.00    -0.545 OA
ATOM      8  O   UNL     1     -17.660   3.370 -33.671  1.00  0.00    -0.545 OA
ENDBRANCH   5   6
ENDBRANCH   3   4
ENDBRANCH   2   3
ENDBRANCH   1   2
BRANCH   1   9
ATOM      9  C   UNL     1     -12.476   3.743 -36.772  1.00  0.00     0.000 C 
BRANCH   9  10
ATOM     10  C   UNL     1     -11.760   2.490 -37.301  1.00  0.00     0.000 C 
BRANCH  10  11
ATOM     11  C   UNL     1     -11.506   1.443 -36.202  1.00  0.00    -0.000 C 
BRANCH  11  12
ATOM     12  C   UNL     1     -11.789   1.980 -34.788  1.00  0.00    -0.000 C 
BRANCH  12  13
ATOM     13  C   UNL     1     -12.854   1.195 -34.003  1.00  0.00    -0.003 C 
ATOM     14  C   UNL     1     -13.374  -0.029 -34.759  1.00  0.00     0.004 C 
ENDBRANCH  12  13
ENDBRANCH  11  12
ENDBRANCH  10  11
ENDBRANCH   9  10
ENDBRANCH   1   9
TORSDOF 9
ENDMDL
MODEL 8
REMARK VINA RESULT:    -4.764      2.505      4.914
REMARK INTER + INTRA:          -8.986
REMARK INTER:                  -7.396
REMARK INTRA:                  -1.590
REMARK UNBOUND:                -1.716
REMARK SMILES CCCCCCCCCC=CC(=O)[O-]
REMARK SMILES IDX 7 1 8 2 9 3 10 4 11 5 12 6 13 7 14 8 6 9 5 10 4 11 3 12 2 13
REMARK SMILES IDX 1 14
REMARK H PARENT
REMARK Flexibility Score: inf
ROOT
ATOM      1  C   UNL     1     -14.775   4.584 -33.197  1.00  0.00     0.000 C 
ENDROOT
BRANCH   1   2
ATOM      2  C   UNL     1     -13.494   3.764 -33.416  1.00  0.00     0.004 C 
BRANCH   2   3
ATOM      3  C   UNL     1     -13.649   2.297 -32.984  1.00  0.00     0.027 C 
BRANCH   3   4
ATOM      4  C   UNL     1     -13.251   1.361 -34.090  1.00  0.00    -0.025 C 
ATOM      5  C   UNL     1     -12.294   1.683 -34.967  1.00  0.00     0.020 C 
BRANCH   5   6
ATOM      6  C   UNL     1     -11.878   0.775 -36.048  1.00  0.00     0.064 C 
ATOM      7  O   UNL     1     -12.243  -0.431 -36.062  1.00  0.00    -0.545 OA
ATOM      8  O   UNL     1     -11.071   1.256 -37.070  1.00  0.00    -0.545 OA
ENDBRANCH   5   6
ENDBRANCH   3   4
ENDBRANCH   2   3
ENDBRANCH   1   2
BRANCH   1   9
ATOM      9  C   UNL     1     -15.457   4.982 -34.518  1.00  0.00     0.000 C 
BRANCH   9  10
ATOM     10  C   UNL     1     -14.798   4.327 -35.742  1.00  0.00     0.000 C 
BRANCH  10  11
ATOM     11  C   UNL     1     -15.669   3.220 -36.363  1.00  0.00    -0.000 C 
BRANCH  11  12
ATOM     12  C   UNL     1     -16.964   2.964 -35.572  1.00  0.00    -0.000 C 
BRANCH  12  13
ATOM     13  C   UNL     1     -16.970   1.663 -34.751  1.00  0.00    -0.003 C 
ATOM     14  C   UNL     1     -17.337   1.882 -33.284  1.00  0.00     0.004 C 
ENDBRANCH  12  13
ENDBRANCH  11  12
ENDBRANCH  10  11
ENDBRANCH   9  10
ENDBRANCH   1   9
TORSDOF 9
ENDMDL
MODEL 9
REMARK VINA RESULT:    -4.760      1.223      3.426
REMARK INTER + INTRA:          -8.979
REMARK INTER:                  -7.495
REMARK INTRA:                  -1.485
REMARK UNBOUND:                -1.716
REMARK SMILES CCCCCCCCCC=CC(=O)[O-]
REMARK SMILES IDX 7 1 8 2 9 3 10 4 11 5 12 6 13 7 14 8 6 9 5 10 4 11 3 12 2 13
REMARK SMILES IDX 1 14
REMARK H PARENT
REMARK Flexibility Score: inf
ROOT
ATOM      1  C   UNL     1     -11.914   0.902 -36.994  1.00  0.00     0.000 C 
ENDROOT
BRANCH   1   2
ATOM      2  C   UNL     1     -12.617   0.264 -35.785  1.00  0.00     0.004 C 
BRANCH   2   3
ATOM      3  C   UNL     1     -12.680   1.206 -34.571  1.00  0.00     0.027 C 
BRANCH   3   4
ATOM      4  C   UNL     1     -14.101   1.472 -34.165  1.00  0.00    -0.025 C 
ATOM      5  C   UNL     1     -15.130   1.094 -34.932  1.00  0.00     0.020 C 
BRANCH   5   6
ATOM      6  C   UNL     1     -16.530   1.330 -34.545  1.00  0.00     0.064 C 
ATOM      7  O   UNL     1     -17.371   1.762 -35.378  1.00  0.00    -0.545 OA
ATOM      8  O   UNL     1     -16.930   1.071 -33.242  1.00  0.00    -0.545 OA
ENDBRANCH   5   6
ENDBRANCH   3   4
ENDBRANCH   2   3
ENDBRANCH   1   2
BRANCH   1   9
ATOM      9  C   UNL     1     -11.647   2.405 -36.799  1.00  0.00     0.000 C 
BRANCH   9  10
ATOM     10  C   UNL     1     -12.511   3.281 -37.720  1.00  0.00     0.000 C 
BRANCH  10  11
ATOM     11  C   UNL     1     -13.601   4.053 -36.955  1.00  0.00    -0.000 C 
BRANCH  11  12
ATOM     12  C   UNL     1     -15.025   3.664 -37.391  1.00  0.00    -0.000 C 
BRANCH  12  13
ATOM     13  C   UNL     1     -15.098   2.469 -38.357  1.00  0.00    -0.003 C 
ATOM     14  C   UNL     1     -15.884   2.777 -39.632  1.00  0.00     0.004 C 
ENDBRANCH  12  13
ENDBRANCH  11  12
ENDBRANCH  10  11
ENDBRANCH   9  10
ENDBRANCH   1   9
TORSDOF 9
ENDMDL
