MODEL 1
REMARK VINA RESULT:    -5.543      0.000      0.000
REMARK INTER + INTRA:          -7.510
REMARK INTER:                  -7.488
REMARK INTRA:                  -0.022
REMARK UNBOUND:                -0.022
REMARK SMILES CC[C@@H](CC[C@H](C)[C@H]1CC[C@H]2[C@H]3CC(=O)C4=CC(=O)CC[C@]4(C)[C@@H]3CC[C@]12C)C(C)C
REMARK SMILES IDX 4 1 3 2 2 3 1 4 29 5 30 6 31 7 5 8 6 9 7 10 8 11 9 12 27 13
REMARK SMILES IDX 10 14 11 15 26 16 28 17 12 18 25 19 24 20 13 21 22 22 14 23
REMARK SMILES IDX 16 24 21 25 23 26 15 27 17 28 20 29 18 30 19 31
REMARK H PARENT
REMARK Flexibility Score: inf
ROOT
ATOM      1  C   UNL     1       3.931  -1.777 -10.060  1.00  0.00     0.004 C 
ENDROOT
BRANCH   1   2
ATOM      2  C   UNL     1       4.438  -3.112 -10.693  1.00  0.00    -0.009 C 
BRANCH   2   3
ATOM      3  C   UNL     1       3.221  -3.982 -11.125  1.00  0.00     0.000 C 
ATOM      4  C   UNL     1       1.882  -3.513 -10.556  1.00  0.00     0.004 C 
ENDBRANCH   2   3
BRANCH   2   5
ATOM      5  C   UNL     1       5.422  -3.930  -9.760  1.00  0.00    -0.014 C 
ATOM      6  C   UNL     1       6.911  -3.883 -10.154  1.00  0.00     0.007 C 
ATOM      7  C   UNL     1       5.000  -5.409  -9.670  1.00  0.00     0.007 C 
ENDBRANCH   2   5
ENDBRANCH   1   2
BRANCH   1   8
ATOM      8  C   UNL     1       5.024  -0.795  -9.568  1.00  0.00     0.004 C 
BRANCH   8   9
ATOM      9  C   UNL     1       5.837  -0.066 -10.675  1.00  0.00    -0.011 C 
ATOM     10  C   UNL     1       7.354  -0.235 -10.417  1.00  0.00     0.008 C 
BRANCH   9  11
ATOM     11  C   UNL     1       5.472   1.459 -10.748  1.00  0.00    -0.002 C 
ATOM     12  C   UNL     1       4.122   1.785 -10.041  1.00  0.00     0.005 C 
ATOM     13  C   UNL     1       6.470   2.497 -10.134  1.00  0.00    -0.026 C 
ATOM     14  C   UNL     1       4.234   3.199  -9.455  1.00  0.00     0.005 C 
ATOM     15  C   UNL     1       5.539   3.720 -10.026  1.00  0.00    -0.001 C 
ATOM     16  C   UNL     1       7.688   2.873 -11.051  1.00  0.00     0.007 C 
ATOM     17  C   UNL     1       6.961   1.993  -8.742  1.00  0.00     0.012 C 
ATOM     18  C   UNL     1       6.163   5.026  -9.459  1.00  0.00     0.004 C 
ATOM     19  C   UNL     1       8.008   4.396 -11.112  1.00  0.00     0.005 C 
ATOM     20  C   UNL     1       7.681   5.122  -9.781  1.00  0.00     0.003 C 
ATOM     21  C   UNL     1       5.940   5.295  -7.960  1.00  0.00     0.085 C 
ATOM     22  C   UNL     1       8.200   6.605  -9.653  1.00  0.00    -0.000 C 
ATOM     23  C   UNL     1       6.648   6.556  -7.539  1.00  0.00     0.159 C 
ATOM     24  C   UNL     1       7.451   7.331  -8.522  1.00  0.00     0.005 C 
ATOM     25  C   UNL     1       8.001   7.409 -10.974  1.00  0.00     0.020 C 
ATOM     26  C   UNL     1       9.707   6.573  -9.281  1.00  0.00     0.017 C 
ATOM     27  O   UNL     1       6.516   6.968  -6.355  1.00  0.00    -0.295 OA
ATOM     28  C   UNL     1       7.436   8.674  -8.461  1.00  0.00     0.055 C 
ATOM     29  C   UNL     1       8.432   8.881 -10.847  1.00  0.00     0.081 C 
ATOM     30  C   UNL     1       7.969   9.500  -9.558  1.00  0.00     0.156 C 
ATOM     31  O   UNL     1       8.027  10.749  -9.417  1.00  0.00    -0.295 OA
ENDBRANCH   9  11
ENDBRANCH   8   9
ENDBRANCH   1   8
TORSDOF 6
ENDMDL
MODEL 2
REMARK VINA RESULT:    -5.379      3.292      5.338
REMARK INTER + INTRA:          -7.287
REMARK INTER:                  -6.400
REMARK INTRA:                  -0.887
REMARK UNBOUND:                -0.022
REMARK SMILES CC[C@@H](CC[C@H](C)[C@H]1CC[C@H]2[C@H]3CC(=O)C4=CC(=O)CC[C@]4(C)[C@@H]3CC[C@]12C)C(C)C
REMARK SMILES IDX 4 1 3 2 2 3 1 4 29 5 30 6 31 7 5 8 6 9 7 10 8 11 9 12 27 13
REMARK SMILES IDX 10 14 11 15 26 16 28 17 12 18 25 19 24 20 13 21 22 22 14 23
REMARK SMILES IDX 16 24 21 25 23 26 15 27 17 28 20 29 18 30 19 31
REMARK H PARENT
REMARK Flexibility Score: inf
ROOT
ATOM      1  C   UNL     1       7.445   2.277  -7.064  1.00  0.00     0.004 C 
ENDROOT
BRANCH   1   2
ATOM      2  C   UNL     1       7.178   2.075  -5.538  1.00  0.00    -0.009 C 
BRANCH   2   3
ATOM      3  C   UNL     1       6.376   3.288  -4.982  1.00  0.00     0.000 C 
ATOM      4  C   UNL     1       5.044   3.537  -5.690  1.00  0.00     0.004 C 
ENDBRANCH   2   3
BRANCH   2   5
ATOM      5  C   UNL     1       8.488   1.818  -4.688  1.00  0.00    -0.014 C 
ATOM      6  C   UNL     1       9.421   3.033  -4.514  1.00  0.00     0.007 C 
ATOM      7  C   UNL     1       9.318   0.663  -5.282  1.00  0.00     0.007 C 
ENDBRANCH   2   5
ENDBRANCH   1   2
BRANCH   1   8
ATOM      8  C   UNL     1       6.335   1.779  -8.025  1.00  0.00     0.004 C 
BRANCH   8   9
ATOM      9  C   UNL     1       6.067   2.662  -9.276  1.00  0.00    -0.011 C 
ATOM     10  C   UNL     1       6.020   1.781 -10.548  1.00  0.00     0.008 C 
BRANCH   9  11
ATOM     11  C   UNL     1       7.158   3.779  -9.437  1.00  0.00    -0.002 C 
ATOM     12  C   UNL     1       7.631   3.944 -10.913  1.00  0.00     0.005 C 
ATOM     13  C   UNL     1       6.803   5.239  -8.998  1.00  0.00    -0.026 C 
ATOM     14  C   UNL     1       7.985   5.422 -11.125  1.00  0.00     0.005 C 
ATOM     15  C   UNL     1       7.922   6.009  -9.727  1.00  0.00    -0.001 C 
ATOM     16  C   UNL     1       6.923   5.520  -7.458  1.00  0.00     0.007 C 
ATOM     17  C   UNL     1       5.381   5.613  -9.519  1.00  0.00     0.012 C 
ATOM     18  C   UNL     1       7.950   7.551  -9.535  1.00  0.00     0.004 C 
ATOM     19  C   UNL     1       7.632   6.858  -7.096  1.00  0.00     0.005 C 
ATOM     20  C   UNL     1       7.377   7.966  -8.151  1.00  0.00     0.003 C 
ATOM     21  C   UNL     1       7.279   8.389 -10.639  1.00  0.00     0.085 C 
ATOM     22  C   UNL     1       7.836   9.422  -7.755  1.00  0.00    -0.000 C 
ATOM     23  C   UNL     1       7.327   9.854 -10.292  1.00  0.00     0.159 C 
ATOM     24  C   UNL     1       7.937  10.303  -9.011  1.00  0.00     0.005 C 
ATOM     25  C   UNL     1       9.220   9.422  -7.038  1.00  0.00     0.020 C 
ATOM     26  C   UNL     1       6.763  10.044  -6.822  1.00  0.00     0.017 C 
ATOM     27  O   UNL     1       6.884  10.696 -11.119  1.00  0.00    -0.295 OA
ATOM     28  C   UNL     1       8.651  11.442  -8.995  1.00  0.00     0.055 C 
ATOM     29  C   UNL     1       9.722  10.840  -6.710  1.00  0.00     0.081 C 
ATOM     30  C   UNL     1       9.508  11.796  -7.850  1.00  0.00     0.156 C 
ATOM     31  O   UNL     1      10.081  12.917  -7.831  1.00  0.00    -0.295 OA
ENDBRANCH   9  11
ENDBRANCH   8   9
ENDBRANCH   1   8
TORSDOF 6
ENDMDL
MODEL 3
REMARK VINA RESULT:    -5.271      3.926      9.873
REMARK INTER + INTRA:          -7.142
REMARK INTER:                  -6.444
REMARK INTRA:                  -0.698
REMARK UNBOUND:                -0.022
REMARK SMILES CC[C@@H](CC[C@H](C)[C@H]1CC[C@H]2[C@H]3CC(=O)C4=CC(=O)CC[C@]4(C)[C@@H]3CC[C@]12C)C(C)C
REMARK SMILES IDX 4 1 3 2 2 3 1 4 29 5 30 6 31 7 5 8 6 9 7 10 8 11 9 12 27 13
REMARK SMILES IDX 10 14 11 15 26 16 28 17 12 18 25 19 24 20 13 21 22 22 14 23
REMARK SMILES IDX 16 24 21 25 23 26 15 27 17 28 20 29 18 30 19 31
REMARK H PARENT
REMARK Flexibility Score: inf
ROOT
ATOM      1  C   UNL     1       7.704  10.798 -10.315  1.00  0.00     0.004 C 
ENDROOT
BRANCH   1   2
ATOM      2  C   UNL     1       8.911  11.418  -9.540  1.00  0.00    -0.009 C 
BRANCH   2   3
ATOM      3  C   UNL     1       8.792  11.074  -8.026  1.00  0.00     0.000 C 
ATOM      4  C   UNL     1      10.100  10.608  -7.385  1.00  0.00     0.004 C 
ENDBRANCH   2   3
BRANCH   2   5
ATOM      5  C   UNL     1       9.079  12.977  -9.759  1.00  0.00    -0.014 C 
ATOM      6  C   UNL     1       8.594  13.871  -8.601  1.00  0.00     0.007 C 
ATOM      7  C   UNL     1       8.366  13.437 -11.045  1.00  0.00     0.007 C 
ENDBRANCH   2   5
ENDBRANCH   1   2
BRANCH   1   8
ATOM      8  C   UNL     1       7.995   9.500 -11.110  1.00  0.00     0.004 C 
BRANCH   8   9
ATOM      9  C   UNL     1       7.145   8.257 -10.725  1.00  0.00    -0.011 C 
ATOM     10  C   UNL     1       5.686   8.683 -10.429  1.00  0.00     0.008 C 
BRANCH   9  11
ATOM     11  C   UNL     1       7.748   7.508  -9.484  1.00  0.00    -0.002 C 
ATOM     12  C   UNL     1       7.282   8.123  -8.131  1.00  0.00     0.005 C 
ATOM     13  C   UNL     1       7.451   5.980  -9.317  1.00  0.00    -0.026 C 
ATOM     14  C   UNL     1       7.196   6.983  -7.107  1.00  0.00     0.005 C 
ATOM     15  C   UNL     1       7.821   5.806  -7.831  1.00  0.00    -0.001 C 
ATOM     16  C   UNL     1       8.358   5.027 -10.174  1.00  0.00     0.007 C 
ATOM     17  C   UNL     1       5.941   5.705  -9.595  1.00  0.00     0.012 C 
ATOM     18  C   UNL     1       7.683   4.375  -7.240  1.00  0.00     0.004 C 
ATOM     19  C   UNL     1       8.903   3.787  -9.407  1.00  0.00     0.005 C 
ATOM     20  C   UNL     1       7.916   3.283  -8.322  1.00  0.00     0.003 C 
ATOM     21  C   UNL     1       6.378   4.072  -6.481  1.00  0.00     0.085 C 
ATOM     22  C   UNL     1       8.257   1.890  -7.665  1.00  0.00    -0.000 C 
ATOM     23  C   UNL     1       6.357   2.639  -6.019  1.00  0.00     0.159 C 
ATOM     24  C   UNL     1       7.487   1.727  -6.344  1.00  0.00     0.005 C 
ATOM     25  C   UNL     1       9.781   1.742  -7.372  1.00  0.00     0.020 C 
ATOM     26  C   UNL     1       7.796   0.763  -8.627  1.00  0.00     0.017 C 
ATOM     27  O   UNL     1       5.390   2.233  -5.318  1.00  0.00    -0.295 OA
ATOM     28  C   UNL     1       7.879   0.824  -5.428  1.00  0.00     0.055 C 
ATOM     29  C   UNL     1      10.125   0.420  -6.661  1.00  0.00     0.081 C 
ATOM     30  C   UNL     1       9.151   0.094  -5.564  1.00  0.00     0.156 C 
ATOM     31  O   UNL     1       9.432  -0.813  -4.738  1.00  0.00    -0.295 OA
ENDBRANCH   9  11
ENDBRANCH   8   9
ENDBRANCH   1   8
TORSDOF 6
ENDMDL
MODEL 4
REMARK VINA RESULT:    -5.027      3.056     10.102
REMARK INTER + INTRA:          -6.811
REMARK INTER:                  -6.689
REMARK INTRA:                  -0.123
REMARK UNBOUND:                -0.022
REMARK SMILES CC[C@@H](CC[C@H](C)[C@H]1CC[C@H]2[C@H]3CC(=O)C4=CC(=O)CC[C@]4(C)[C@@H]3CC[C@]12C)C(C)C
REMARK SMILES IDX 4 1 3 2 2 3 1 4 29 5 30 6 31 7 5 8 6 9 7 10 8 11 9 12 27 13
REMARK SMILES IDX 10 14 11 15 26 16 28 17 12 18 25 19 24 20 13 21 22 22 14 23
REMARK SMILES IDX 16 24 21 25 23 26 15 27 17 28 20 29 18 30 19 31
REMARK H PARENT
REMARK Flexibility Score: inf
ROOT
ATOM      1  C   UNL     1       8.911  10.259  -7.826  1.00  0.00     0.004 C 
ENDROOT
BRANCH   1   2
ATOM      2  C   UNL     1       9.910  11.446  -7.641  1.00  0.00    -0.009 C 
BRANCH   2   3
ATOM      3  C   UNL     1      10.125  11.717  -6.123  1.00  0.00     0.000 C 
ATOM      4  C   UNL     1       9.806  10.524  -5.222  1.00  0.00     0.004 C 
ENDBRANCH   2   3
BRANCH   2   5
ATOM      5  C   UNL     1       9.482  12.767  -8.401  1.00  0.00    -0.014 C 
ATOM      6  C   UNL     1       9.973  14.088  -7.775  1.00  0.00     0.007 C 
ATOM      7  C   UNL     1       7.951  12.851  -8.549  1.00  0.00     0.007 C 
ENDBRANCH   2   5
ENDBRANCH   1   2
BRANCH   1   8
ATOM      8  C   UNL     1       9.332   9.163  -8.838  1.00  0.00     0.004 C 
BRANCH   8   9
ATOM      9  C   UNL     1       8.561   9.144 -10.187  1.00  0.00    -0.011 C 
ATOM     10  C   UNL     1       7.156   9.770 -10.004  1.00  0.00     0.008 C 
BRANCH   9  11
ATOM     11  C   UNL     1       8.429   7.687 -10.755  1.00  0.00    -0.002 C 
ATOM     12  C   UNL     1       9.800   6.952 -10.839  1.00  0.00     0.005 C 
ATOM     13  C   UNL     1       7.511   6.670  -9.998  1.00  0.00    -0.026 C 
ATOM     14  C   UNL     1       9.543   5.459 -10.596  1.00  0.00     0.005 C 
ATOM     15  C   UNL     1       8.030   5.351 -10.603  1.00  0.00    -0.001 C 
ATOM     16  C   UNL     1       5.977   6.795 -10.311  1.00  0.00     0.007 C 
ATOM     17  C   UNL     1       7.772   6.769  -8.463  1.00  0.00     0.012 C 
ATOM     18  C   UNL     1       7.347   4.042 -10.118  1.00  0.00     0.004 C 
ATOM     19  C   UNL     1       5.252   5.440 -10.553  1.00  0.00     0.005 C 
ATOM     20  C   UNL     1       5.864   4.285  -9.719  1.00  0.00     0.003 C 
ATOM     21  C   UNL     1       8.062   3.276  -8.991  1.00  0.00     0.085 C 
ATOM     22  C   UNL     1       5.049   2.934  -9.699  1.00  0.00    -0.000 C 
ATOM     23  C   UNL     1       7.259   2.068  -8.582  1.00  0.00     0.159 C 
ATOM     24  C   UNL     1       5.952   1.780  -9.231  1.00  0.00     0.005 C 
ATOM     25  C   UNL     1       4.477   2.577 -11.104  1.00  0.00     0.020 C 
ATOM     26  C   UNL     1       3.887   3.072  -8.680  1.00  0.00     0.017 C 
ATOM     27  O   UNL     1       7.729   1.283  -7.715  1.00  0.00    -0.295 OA
ATOM     28  C   UNL     1       5.617   0.503  -9.481  1.00  0.00     0.055 C 
ATOM     29  C   UNL     1       3.743   1.224 -11.123  1.00  0.00     0.081 C 
ATOM     30  C   UNL     1       4.488   0.163 -10.363  1.00  0.00     0.156 C 
ATOM     31  O   UNL     1       4.146  -1.042 -10.492  1.00  0.00    -0.295 OA
ENDBRANCH   9  11
ENDBRANCH   8   9
ENDBRANCH   1   8
TORSDOF 6
ENDMDL
MODEL 5
REMARK VINA RESULT:    -4.982      1.261      1.782
REMARK INTER + INTRA:          -6.751
REMARK INTER:                  -7.387
REMARK INTRA:                   0.637
REMARK UNBOUND:                -0.022
REMARK SMILES CC[C@@H](CC[C@H](C)[C@H]1CC[C@H]2[C@H]3CC(=O)C4=CC(=O)CC[C@]4(C)[C@@H]3CC[C@]12C)C(C)C
REMARK SMILES IDX 4 1 3 2 2 3 1 4 29 5 30 6 31 7 5 8 6 9 7 10 8 11 9 12 27 13
REMARK SMILES IDX 10 14 11 15 26 16 28 17 12 18 25 19 24 20 13 21 22 22 14 23
REMARK SMILES IDX 16 24 21 25 23 26 15 27 17 28 20 29 18 30 19 31
REMARK H PARENT
REMARK Flexibility Score: inf
ROOT
ATOM      1  C   UNL     1       5.792  -1.241 -10.564  1.00  0.00     0.004 C 
ENDROOT
BRANCH   1   2
ATOM      2  C   UNL     1       4.586  -2.154 -10.956  1.00  0.00    -0.009 C 
BRANCH   2   3
ATOM      3  C   UNL     1       3.378  -1.855 -10.021  1.00  0.00     0.000 C 
ATOM      4  C   UNL     1       2.042  -1.708 -10.749  1.00  0.00     0.004 C 
ENDBRANCH   2   3
BRANCH   2   5
ATOM      5  C   UNL     1       4.930  -3.699 -10.967  1.00  0.00    -0.014 C 
ATOM      6  C   UNL     1       3.936  -4.611 -10.223  1.00  0.00     0.007 C 
ATOM      7  C   UNL     1       6.336  -3.959 -10.391  1.00  0.00     0.007 C 
ENDBRANCH   2   5
ENDBRANCH   1   2
BRANCH   1   8
ATOM      8  C   UNL     1       5.438   0.174 -10.040  1.00  0.00     0.004 C 
BRANCH   8   9
ATOM      9  C   UNL     1       6.640   1.108  -9.724  1.00  0.00    -0.011 C 
ATOM     10  C   UNL     1       6.875   1.171  -8.195  1.00  0.00     0.008 C 
BRANCH   9  11
ATOM     11  C   UNL     1       6.411   2.553 -10.292  1.00  0.00    -0.002 C 
ATOM     12  C   UNL     1       4.919   2.994 -10.219  1.00  0.00     0.005 C 
ATOM     13  C   UNL     1       7.182   3.745  -9.632  1.00  0.00    -0.026 C 
ATOM     14  C   UNL     1       4.894   4.513  -9.995  1.00  0.00     0.005 C 
ATOM     15  C   UNL     1       6.344   4.923 -10.167  1.00  0.00    -0.001 C 
ATOM     16  C   UNL     1       8.665   3.927 -10.112  1.00  0.00     0.007 C 
ATOM     17  C   UNL     1       7.114   3.619  -8.079  1.00  0.00     0.012 C 
ATOM     18  C   UNL     1       6.797   6.350  -9.750  1.00  0.00     0.004 C 
ATOM     19  C   UNL     1       9.071   5.398 -10.422  1.00  0.00     0.005 C 
ATOM     20  C   UNL     1       8.332   6.418  -9.517  1.00  0.00     0.003 C 
ATOM     21  C   UNL     1       6.069   6.973  -8.545  1.00  0.00     0.085 C 
ATOM     22  C   UNL     1       8.855   7.905  -9.576  1.00  0.00    -0.000 C 
ATOM     23  C   UNL     1       6.650   8.323  -8.217  1.00  0.00     0.159 C 
ATOM     24  C   UNL     1       7.794   8.860  -9.003  1.00  0.00     0.005 C 
ATOM     25  C   UNL     1       9.186   8.349 -11.033  1.00  0.00     0.020 C 
ATOM     26  C   UNL     1      10.125   8.019  -8.692  1.00  0.00     0.017 C 
ATOM     27  O   UNL     1       6.128   9.010  -7.298  1.00  0.00    -0.295 OA
ATOM     28  C   UNL     1       7.833  10.175  -9.279  1.00  0.00     0.055 C 
ATOM     29  C   UNL     1       9.625   9.822 -11.122  1.00  0.00     0.081 C 
ATOM     30  C   UNL     1       8.768  10.723 -10.277  1.00  0.00     0.156 C 
ATOM     31  O   UNL     1       8.843  11.970 -10.433  1.00  0.00    -0.295 OA
ENDBRANCH   9  11
ENDBRANCH   8   9
ENDBRANCH   1   8
TORSDOF 6
ENDMDL
MODEL 6
REMARK VINA RESULT:    -4.878      1.743      3.329
REMARK INTER + INTRA:          -6.610
REMARK INTER:                  -5.378
REMARK INTRA:                  -1.232
REMARK UNBOUND:                -0.022
REMARK SMILES CC[C@@H](CC[C@H](C)[C@H]1CC[C@H]2[C@H]3CC(=O)C4=CC(=O)CC[C@]4(C)[C@@H]3CC[C@]12C)C(C)C
REMARK SMILES IDX 4 1 3 2 2 3 1 4 29 5 30 6 31 7 5 8 6 9 7 10 8 11 9 12 27 13
REMARK SMILES IDX 10 14 11 15 26 16 28 17 12 18 25 19 24 20 13 21 22 22 14 23
REMARK SMILES IDX 16 24 21 25 23 26 15 27 17 28 20 29 18 30 19 31
REMARK H PARENT
REMARK Flexibility Score: inf
ROOT
ATOM      1  C   UNL     1       5.924   1.138 -10.379  1.00  0.00     0.004 C 
ENDROOT
BRANCH   1   2
ATOM      2  C   UNL     1       4.531   0.669 -10.909  1.00  0.00    -0.009 C 
BRANCH   2   3
ATOM      3  C   UNL     1       3.499   1.826 -10.766  1.00  0.00     0.000 C 
ATOM      4  C   UNL     1       4.024   3.042 -10.003  1.00  0.00     0.004 C 
ENDBRANCH   2   3
BRANCH   2   5
ATOM      5  C   UNL     1       4.001  -0.658 -10.226  1.00  0.00    -0.014 C 
ATOM      6  C   UNL     1       4.693  -1.961 -10.671  1.00  0.00     0.007 C 
ATOM      7  C   UNL     1       2.484  -0.826 -10.445  1.00  0.00     0.007 C 
ENDBRANCH   2   5
ENDBRANCH   1   2
BRANCH   1   8
ATOM      8  C   UNL     1       6.318   0.645  -8.964  1.00  0.00     0.004 C 
BRANCH   8   9
ATOM      9  C   UNL     1       7.192   1.616  -8.120  1.00  0.00    -0.011 C 
ATOM     10  C   UNL     1       7.356   1.068  -6.681  1.00  0.00     0.008 C 
BRANCH   9  11
ATOM     11  C   UNL     1       6.574   3.058  -8.077  1.00  0.00    -0.002 C 
ATOM     12  C   UNL     1       6.070   3.451  -6.656  1.00  0.00     0.005 C 
ATOM     13  C   UNL     1       7.472   4.269  -8.499  1.00  0.00    -0.026 C 
ATOM     14  C   UNL     1       6.262   4.965  -6.497  1.00  0.00     0.005 C 
ATOM     15  C   UNL     1       6.653   5.424  -7.889  1.00  0.00    -0.001 C 
ATOM     16  C   UNL     1       7.593   4.503 -10.046  1.00  0.00     0.007 C 
ATOM     17  C   UNL     1       8.883   4.127  -7.849  1.00  0.00     0.012 C 
ATOM     18  C   UNL     1       7.206   6.861  -8.102  1.00  0.00     0.004 C 
ATOM     19  C   UNL     1       7.455   5.988 -10.491  1.00  0.00     0.005 C 
ATOM     20  C   UNL     1       8.005   6.976  -9.430  1.00  0.00     0.003 C 
ATOM     21  C   UNL     1       8.040   7.449  -6.950  1.00  0.00     0.085 C 
ATOM     22  C   UNL     1       8.144   8.480  -9.886  1.00  0.00    -0.000 C 
ATOM     23  C   UNL     1       8.558   8.815  -7.317  1.00  0.00     0.159 C 
ATOM     24  C   UNL     1       8.265   9.395  -8.656  1.00  0.00     0.005 C 
ATOM     25  C   UNL     1       6.921   8.947 -10.732  1.00  0.00     0.020 C 
ATOM     26  C   UNL     1       9.445   8.627 -10.719  1.00  0.00     0.017 C 
ATOM     27  O   UNL     1       9.206   9.477  -6.462  1.00  0.00    -0.295 OA
ATOM     28  C   UNL     1       8.020  10.713  -8.754  1.00  0.00     0.055 C 
ATOM     29  C   UNL     1       7.001  10.434 -11.124  1.00  0.00     0.081 C 
ATOM     30  C   UNL     1       7.451  11.299  -9.980  1.00  0.00     0.156 C 
ATOM     31  O   UNL     1       7.330  12.549 -10.068  1.00  0.00    -0.295 OA
ENDBRANCH   9  11
ENDBRANCH   8   9
ENDBRANCH   1   8
TORSDOF 6
ENDMDL
MODEL 7
REMARK VINA RESULT:    -4.593      3.191      4.358
REMARK INTER + INTRA:          -6.226
REMARK INTER:                  -5.964
REMARK INTRA:                  -0.262
REMARK UNBOUND:                -0.022
REMARK SMILES CC[C@@H](CC[C@H](C)[C@H]1CC[C@H]2[C@H]3CC(=O)C4=CC(=O)CC[C@]4(C)[C@@H]3CC[C@]12C)C(C)C
REMARK SMILES IDX 4 1 3 2 2 3 1 4 29 5 30 6 31 7 5 8 6 9 7 10 8 11 9 12 27 13
REMARK SMILES IDX 10 14 11 15 26 16 28 17 12 18 25 19 24 20 13 21 22 22 14 23
REMARK SMILES IDX 16 24 21 25 23 26 15 27 17 28 20 29 18 30 19 31
REMARK H PARENT
REMARK Flexibility Score: inf
ROOT
ATOM      1  C   UNL     1       6.775   0.994  -8.364  1.00  0.00     0.004 C 
ENDROOT
BRANCH   1   2
ATOM      2  C   UNL     1       6.849   1.442  -6.869  1.00  0.00    -0.009 C 
BRANCH   2   3
ATOM      3  C   UNL     1       6.088   2.788  -6.688  1.00  0.00     0.000 C 
ATOM      4  C   UNL     1       5.664   3.080  -5.249  1.00  0.00     0.004 C 
ENDBRANCH   2   3
BRANCH   2   5
ATOM      5  C   UNL     1       8.325   1.541  -6.304  1.00  0.00    -0.014 C 
ATOM      6  C   UNL     1       9.393   0.745  -7.080  1.00  0.00     0.007 C 
ATOM      7  C   UNL     1       8.384   1.102  -4.828  1.00  0.00     0.007 C 
ENDBRANCH   2   5
ENDBRANCH   1   2
BRANCH   1   8
ATOM      8  C   UNL     1       6.070   1.972  -9.337  1.00  0.00     0.004 C 
BRANCH   8   9
ATOM      9  C   UNL     1       6.963   2.595 -10.448  1.00  0.00    -0.011 C 
ATOM     10  C   UNL     1       8.451   2.543 -10.024  1.00  0.00     0.008 C 
BRANCH   9  11
ATOM     11  C   UNL     1       6.545   4.075 -10.760  1.00  0.00    -0.002 C 
ATOM     12  C   UNL     1       5.063   4.371 -10.379  1.00  0.00     0.005 C 
ATOM     13  C   UNL     1       7.341   5.236 -10.076  1.00  0.00    -0.026 C 
ATOM     14  C   UNL     1       4.980   5.840  -9.941  1.00  0.00     0.005 C 
ATOM     15  C   UNL     1       6.348   6.395 -10.292  1.00  0.00    -0.001 C 
ATOM     16  C   UNL     1       8.702   5.608 -10.764  1.00  0.00     0.007 C 
ATOM     17  C   UNL     1       7.557   4.906  -8.566  1.00  0.00     0.012 C 
ATOM     18  C   UNL     1       6.775   7.791  -9.758  1.00  0.00     0.004 C 
ATOM     19  C   UNL     1       8.951   7.136 -10.927  1.00  0.00     0.005 C 
ATOM     20  C   UNL     1       8.319   7.963  -9.777  1.00  0.00     0.003 C 
ATOM     21  C   UNL     1       6.232   8.188  -8.374  1.00  0.00     0.085 C 
ATOM     22  C   UNL     1       8.727   9.485  -9.711  1.00  0.00    -0.000 C 
ATOM     23  C   UNL     1       6.773   9.531  -7.960  1.00  0.00     0.159 C 
ATOM     24  C   UNL     1       7.724  10.262  -8.840  1.00  0.00     0.005 C 
ATOM     25  C   UNL     1       8.766  10.140 -11.125  1.00  0.00     0.020 C 
ATOM     26  C   UNL     1      10.123   9.596  -9.042  1.00  0.00     0.017 C 
ATOM     27  O   UNL     1       6.379  10.046  -6.879  1.00  0.00    -0.295 OA
ATOM     28  C   UNL     1       7.629  11.600  -8.931  1.00  0.00     0.055 C 
ATOM     29  C   UNL     1       9.087  11.645 -11.076  1.00  0.00     0.081 C 
ATOM     30  C   UNL     1       8.337  12.351  -9.983  1.00  0.00     0.156 C 
ATOM     31  O   UNL     1       8.302  13.609  -9.971  1.00  0.00    -0.295 OA
ENDBRANCH   9  11
ENDBRANCH   8   9
ENDBRANCH   1   8
TORSDOF 6
ENDMDL
