MODEL 1
REMARK VINA RESULT:    -6.462      0.000      0.000
REMARK INTER + INTRA:          -8.185
REMARK INTER:                  -7.784
REMARK INTRA:                  -0.401
REMARK UNBOUND:                -0.401
REMARK SMILES O=c1c(O)c(-c2ccc(O)cc2O)oc2cc(O)cc(O)c12
REMARK SMILES IDX 5 1 3 2 2 3 1 4 22 5 20 6 19 7 17 8 16 9 15 10 14 11 6 12
REMARK SMILES IDX 8 13 7 14 9 15 11 16 12 17 10 18 13 20 4 22 21 24 18 26
REMARK H PARENT 10 19 13 21 4 23 21 25 18 27
REMARK Flexibility Score: inf
ROOT
ATOM      1  C   UNL     1     -41.914 -39.348 -20.295  1.00  0.00     0.184 A 
ATOM      2  C   UNL     1     -40.542 -39.427 -20.580  1.00  0.00     0.208 A 
ATOM      3  C   UNL     1     -39.786 -38.245 -20.620  1.00  0.00     0.238 A 
ATOM      4  O   UNL     1     -38.570 -38.316 -20.936  1.00  0.00    -0.285 OA
ATOM      5  C   UNL     1     -40.408 -37.002 -20.349  1.00  0.00     0.111 A 
ATOM      6  C   UNL     1     -39.732 -35.745 -20.323  1.00  0.00     0.134 A 
ATOM      7  C   UNL     1     -40.472 -34.566 -20.163  1.00  0.00     0.093 A 
ATOM      8  C   UNL     1     -41.850 -34.602 -19.963  1.00  0.00     0.123 A 
ATOM      9  C   UNL     1     -42.514 -35.829 -19.927  1.00  0.00     0.094 A 
ATOM     10  C   UNL     1     -41.810 -37.020 -20.121  1.00  0.00     0.146 A 
ATOM     11  O   UNL     1     -42.481 -38.165 -20.094  1.00  0.00    -0.451 OA
ENDROOT
BRANCH   1  12
ATOM     12  C   UNL     1     -42.754 -40.561 -20.216  1.00  0.00     0.063 A 
ATOM     13  C   UNL     1     -43.468 -42.524 -18.966  1.00  0.00     0.047 A 
ATOM     14  C   UNL     1     -42.646 -41.402 -19.093  1.00  0.00     0.020 A 
ATOM     15  C   UNL     1     -44.414 -42.819 -19.954  1.00  0.00     0.119 A 
ATOM     16  C   UNL     1     -44.530 -41.989 -21.073  1.00  0.00     0.093 A 
ATOM     17  C   UNL     1     -43.705 -40.867 -21.218  1.00  0.00     0.130 A 
BRANCH  15  18
ATOM     18  O   UNL     1     -45.242 -43.932 -19.835  1.00  0.00    -0.508 OA
ATOM     19  H   UNL     1     -45.940 -43.997 -19.102  1.00  0.00     0.293 HD
ENDBRANCH  15  18
BRANCH  17  20
ATOM     20  O   UNL     1     -43.840 -40.093 -22.373  1.00  0.00    -0.507 OA
ATOM     21  H   UNL     1     -43.561 -39.123 -22.423  1.00  0.00     0.293 HD
ENDBRANCH  17  20
ENDBRANCH   1  12
BRANCH   2  22
ATOM     22  O   UNL     1     -39.954 -40.668 -20.841  1.00  0.00    -0.502 OA
ATOM     23  H   UNL     1     -39.798 -41.008 -21.782  1.00  0.00     0.293 HD
ENDBRANCH   2  22
BRANCH   6  24
ATOM     24  O   UNL     1     -38.344 -35.601 -20.423  1.00  0.00    -0.507 OA
ATOM     25  H   UNL     1     -37.877 -34.934 -21.017  1.00  0.00     0.293 HD
ENDBRANCH   6  24
BRANCH   8  26
ATOM     26  O   UNL     1     -42.551 -33.411 -19.791  1.00  0.00    -0.508 OA
ATOM     27  H   UNL     1     -42.119 -32.511 -19.965  1.00  0.00     0.293 HD
ENDBRANCH   8  26
TORSDOF 6
ENDMDL
MODEL 2
REMARK VINA RESULT:    -5.817      1.664      6.893
REMARK INTER + INTRA:          -7.407
REMARK INTER:                  -6.991
REMARK INTRA:                  -0.417
REMARK UNBOUND:                -0.401
REMARK SMILES O=c1c(O)c(-c2ccc(O)cc2O)oc2cc(O)cc(O)c12
REMARK SMILES IDX 5 1 3 2 2 3 1 4 22 5 20 6 19 7 17 8 16 9 15 10 14 11 6 12
REMARK SMILES IDX 8 13 7 14 9 15 11 16 12 17 10 18 13 20 4 22 21 24 18 26
REMARK H PARENT 10 19 13 21 4 23 21 25 18 27
REMARK Flexibility Score: inf
ROOT
ATOM      1  C   UNL     1     -42.025 -39.667 -20.579  1.00  0.00     0.184 A 
ATOM      2  C   UNL     1     -42.886 -39.886 -21.664  1.00  0.00     0.208 A 
ATOM      3  C   UNL     1     -43.861 -40.891 -21.569  1.00  0.00     0.238 A 
ATOM      4  O   UNL     1     -44.590 -41.124 -22.568  1.00  0.00    -0.285 OA
ATOM      5  C   UNL     1     -43.978 -41.647 -20.377  1.00  0.00     0.111 A 
ATOM      6  C   UNL     1     -44.954 -42.664 -20.153  1.00  0.00     0.134 A 
ATOM      7  C   UNL     1     -44.899 -43.430 -18.982  1.00  0.00     0.093 A 
ATOM      8  C   UNL     1     -43.946 -43.173 -17.998  1.00  0.00     0.123 A 
ATOM      9  C   UNL     1     -43.022 -42.142 -18.179  1.00  0.00     0.094 A 
ATOM     10  C   UNL     1     -43.028 -41.386 -19.354  1.00  0.00     0.146 A 
ATOM     11  O   UNL     1     -42.124 -40.424 -19.493  1.00  0.00    -0.451 OA
ENDROOT
BRANCH   1  12
ATOM     12  C   UNL     1     -40.996 -38.607 -20.614  1.00  0.00     0.063 A 
ATOM     13  C   UNL     1     -40.333 -36.328 -20.076  1.00  0.00     0.047 A 
ATOM     14  C   UNL     1     -41.303 -37.332 -20.106  1.00  0.00     0.020 A 
ATOM     15  C   UNL     1     -39.040 -36.585 -20.545  1.00  0.00     0.119 A 
ATOM     16  C   UNL     1     -38.724 -37.849 -21.050  1.00  0.00     0.093 A 
ATOM     17  C   UNL     1     -39.691 -38.861 -21.096  1.00  0.00     0.130 A 
BRANCH  15  18
ATOM     18  O   UNL     1     -38.063 -35.593 -20.514  1.00  0.00    -0.508 OA
ATOM     19  H   UNL     1     -38.304 -34.615 -20.397  1.00  0.00     0.293 HD
ENDBRANCH  15  18
BRANCH  17  20
ATOM     20  O   UNL     1     -39.329 -40.094 -21.644  1.00  0.00    -0.507 OA
ATOM     21  H   UNL     1     -39.974 -40.682 -22.154  1.00  0.00     0.293 HD
ENDBRANCH  17  20
ENDBRANCH   1  12
BRANCH   2  22
ATOM     22  O   UNL     1     -42.750 -39.123 -22.828  1.00  0.00    -0.502 OA
ATOM     23  H   UNL     1     -42.024 -38.425 -22.937  1.00  0.00     0.293 HD
ENDBRANCH   2  22
BRANCH   6  24
ATOM     24  O   UNL     1     -46.007 -42.943 -21.031  1.00  0.00    -0.507 OA
ATOM     25  H   UNL     1     -45.930 -43.517 -21.856  1.00  0.00     0.293 HD
ENDBRANCH   6  24
BRANCH   8  26
ATOM     26  O   UNL     1     -43.930 -43.944 -16.838  1.00  0.00    -0.508 OA
ATOM     27  H   UNL     1     -43.092 -44.425 -16.532  1.00  0.00     0.293 HD
ENDBRANCH   8  26
TORSDOF 6
ENDMDL
MODEL 3
REMARK VINA RESULT:    -5.764      1.721      6.884
REMARK INTER + INTRA:          -7.344
REMARK INTER:                  -6.930
REMARK INTRA:                  -0.414
REMARK UNBOUND:                -0.401
REMARK SMILES O=c1c(O)c(-c2ccc(O)cc2O)oc2cc(O)cc(O)c12
REMARK SMILES IDX 5 1 3 2 2 3 1 4 22 5 20 6 19 7 17 8 16 9 15 10 14 11 6 12
REMARK SMILES IDX 8 13 7 14 9 15 11 16 12 17 10 18 13 20 4 22 21 24 18 26
REMARK H PARENT 10 19 13 21 4 23 21 25 18 27
REMARK Flexibility Score: inf
ROOT
ATOM      1  C   UNL     1     -43.355 -38.858 -19.699  1.00  0.00     0.184 A 
ATOM      2  C   UNL     1     -43.763 -39.604 -20.815  1.00  0.00     0.208 A 
ATOM      3  C   UNL     1     -44.021 -40.975 -20.661  1.00  0.00     0.238 A 
ATOM      4  O   UNL     1     -44.327 -41.651 -21.678  1.00  0.00    -0.285 OA
ATOM      5  C   UNL     1     -43.893 -41.576 -19.384  1.00  0.00     0.111 A 
ATOM      6  C   UNL     1     -44.167 -42.948 -19.103  1.00  0.00     0.134 A 
ATOM      7  C   UNL     1     -43.889 -43.461 -17.829  1.00  0.00     0.093 A 
ATOM      8  C   UNL     1     -43.410 -42.639 -16.811  1.00  0.00     0.123 A 
ATOM      9  C   UNL     1     -43.194 -41.282 -17.058  1.00  0.00     0.094 A 
ATOM     10  C   UNL     1     -43.426 -40.749 -18.328  1.00  0.00     0.146 A 
ATOM     11  O   UNL     1     -43.194 -39.457 -18.526  1.00  0.00    -0.451 OA
ENDROOT
BRANCH   1  12
ATOM     12  C   UNL     1     -43.092 -37.407 -19.797  1.00  0.00     0.063 A 
ATOM     13  C   UNL     1     -43.876 -35.122 -19.499  1.00  0.00     0.047 A 
ATOM     14  C   UNL     1     -44.114 -36.498 -19.469  1.00  0.00     0.020 A 
ATOM     15  C   UNL     1     -42.613 -34.635 -19.849  1.00  0.00     0.119 A 
ATOM     16  C   UNL     1     -41.590 -35.529 -20.176  1.00  0.00     0.093 A 
ATOM     17  C   UNL     1     -41.818 -36.910 -20.160  1.00  0.00     0.130 A 
BRANCH  15  18
ATOM     18  O   UNL     1     -42.363 -33.264 -19.877  1.00  0.00    -0.508 OA
ATOM     19  H   UNL     1     -41.843 -32.836 -20.635  1.00  0.00     0.293 HD
ENDBRANCH  15  18
BRANCH  17  20
ATOM     20  O   UNL     1     -40.770 -37.757 -20.530  1.00  0.00    -0.507 OA
ATOM     21  H   UNL     1     -40.167 -38.214 -19.859  1.00  0.00     0.293 HD
ENDBRANCH  17  20
ENDBRANCH   1  12
BRANCH   2  22
ATOM     22  O   UNL     1     -43.884 -38.984 -22.062  1.00  0.00    -0.502 OA
ATOM     23  H   UNL     1     -44.779 -38.706 -22.445  1.00  0.00     0.293 HD
ENDBRANCH   2  22
BRANCH   6  24
ATOM     24  O   UNL     1     -44.732 -43.837 -20.023  1.00  0.00    -0.507 OA
ATOM     25  H   UNL     1     -45.718 -43.913 -20.219  1.00  0.00     0.293 HD
ENDBRANCH   6  24
BRANCH   8  26
ATOM     26  O   UNL     1     -43.160 -43.180 -15.552  1.00  0.00    -0.508 OA
ATOM     27  H   UNL     1     -43.228 -44.176 -15.379  1.00  0.00     0.293 HD
ENDBRANCH   8  26
TORSDOF 6
ENDMDL
MODEL 4
REMARK VINA RESULT:    -5.706      1.507      3.429
REMARK INTER + INTRA:          -7.274
REMARK INTER:                  -6.860
REMARK INTRA:                  -0.414
REMARK UNBOUND:                -0.401
REMARK SMILES O=c1c(O)c(-c2ccc(O)cc2O)oc2cc(O)cc(O)c12
REMARK SMILES IDX 5 1 3 2 2 3 1 4 22 5 20 6 19 7 17 8 16 9 15 10 14 11 6 12
REMARK SMILES IDX 8 13 7 14 9 15 11 16 12 17 10 18 13 20 4 22 21 24 18 26
REMARK H PARENT 10 19 13 21 4 23 21 25 18 27
REMARK Flexibility Score: inf
ROOT
ATOM      1  C   UNL     1     -43.338 -38.620 -19.609  1.00  0.00     0.184 A 
ATOM      2  C   UNL     1     -44.211 -37.549 -19.360  1.00  0.00     0.208 A 
ATOM      3  C   UNL     1     -43.718 -36.238 -19.434  1.00  0.00     0.238 A 
ATOM      4  O   UNL     1     -44.490 -35.285 -19.150  1.00  0.00    -0.285 OA
ATOM      5  C   UNL     1     -42.363 -36.013 -19.782  1.00  0.00     0.111 A 
ATOM      6  C   UNL     1     -41.765 -34.725 -19.926  1.00  0.00     0.134 A 
ATOM      7  C   UNL     1     -40.387 -34.625 -20.155  1.00  0.00     0.093 A 
ATOM      8  C   UNL     1     -39.599 -35.763 -20.311  1.00  0.00     0.123 A 
ATOM      9  C   UNL     1     -40.182 -37.029 -20.231  1.00  0.00     0.094 A 
ATOM     10  C   UNL     1     -41.548 -37.161 -19.966  1.00  0.00     0.146 A 
ATOM     11  O   UNL     1     -42.062 -38.382 -19.884  1.00  0.00    -0.451 OA
ENDROOT
BRANCH   1  12
ATOM     12  C   UNL     1     -43.808 -40.021 -19.569  1.00  0.00     0.063 A 
ATOM     13  C   UNL     1     -44.594 -41.990 -20.763  1.00  0.00     0.047 A 
ATOM     14  C   UNL     1     -44.200 -40.650 -20.763  1.00  0.00     0.020 A 
ATOM     15  C   UNL     1     -44.595 -42.722 -19.571  1.00  0.00     0.119 A 
ATOM     16  C   UNL     1     -44.205 -42.107 -18.378  1.00  0.00     0.093 A 
ATOM     17  C   UNL     1     -43.818 -40.761 -18.364  1.00  0.00     0.130 A 
BRANCH  15  18
ATOM     18  O   UNL     1     -44.981 -44.061 -19.560  1.00  0.00    -0.508 OA
ATOM     19  H   UNL     1     -44.871 -44.651 -20.377  1.00  0.00     0.293 HD
ENDBRANCH  15  18
BRANCH  17  20
ATOM     20  O   UNL     1     -43.473 -40.188 -17.137  1.00  0.00    -0.507 OA
ATOM     21  H   UNL     1     -43.075 -40.717 -16.373  1.00  0.00     0.293 HD
ENDBRANCH  17  20
ENDBRANCH   1  12
BRANCH   2  22
ATOM     22  O   UNL     1     -45.544 -37.800 -19.021  1.00  0.00    -0.502 OA
ATOM     23  H   UNL     1     -46.316 -37.316 -19.462  1.00  0.00     0.293 HD
ENDBRANCH   2  22
BRANCH   6  24
ATOM     24  O   UNL     1     -42.478 -33.522 -19.878  1.00  0.00    -0.507 OA
ATOM     25  H   UNL     1     -43.484 -33.450 -19.873  1.00  0.00     0.293 HD
ENDBRANCH   6  24
BRANCH   8  26
ATOM     26  O   UNL     1     -38.234 -35.626 -20.554  1.00  0.00    -0.508 OA
ATOM     27  H   UNL     1     -37.810 -34.718 -20.705  1.00  0.00     0.293 HD
ENDBRANCH   8  26
TORSDOF 6
ENDMDL
MODEL 5
REMARK VINA RESULT:    -5.705      3.093      5.152
REMARK INTER + INTRA:          -7.273
REMARK INTER:                  -6.985
REMARK INTRA:                  -0.288
REMARK UNBOUND:                -0.401
REMARK SMILES O=c1c(O)c(-c2ccc(O)cc2O)oc2cc(O)cc(O)c12
REMARK SMILES IDX 5 1 3 2 2 3 1 4 22 5 20 6 19 7 17 8 16 9 15 10 14 11 6 12
REMARK SMILES IDX 8 13 7 14 9 15 11 16 12 17 10 18 13 20 4 22 21 24 18 26
REMARK H PARENT 10 19 13 21 4 23 21 25 18 27
REMARK Flexibility Score: inf
ROOT
ATOM      1  C   UNL     1     -43.798 -36.961 -19.764  1.00  0.00     0.184 A 
ATOM      2  C   UNL     1     -42.994 -35.813 -19.698  1.00  0.00     0.208 A 
ATOM      3  C   UNL     1     -41.630 -35.918 -20.010  1.00  0.00     0.238 A 
ATOM      4  O   UNL     1     -40.902 -34.898 -19.891  1.00  0.00    -0.285 OA
ATOM      5  C   UNL     1     -41.093 -37.166 -20.410  1.00  0.00     0.111 A 
ATOM      6  C   UNL     1     -39.734 -37.382 -20.787  1.00  0.00     0.134 A 
ATOM      7  C   UNL     1     -39.286 -38.684 -21.047  1.00  0.00     0.093 A 
ATOM      8  C   UNL     1     -40.162 -39.767 -21.008  1.00  0.00     0.123 A 
ATOM      9  C   UNL     1     -41.507 -39.561 -20.697  1.00  0.00     0.094 A 
ATOM     10  C   UNL     1     -41.975 -38.279 -20.396  1.00  0.00     0.146 A 
ATOM     11  O   UNL     1     -43.258 -38.128 -20.092  1.00  0.00    -0.451 OA
ENDROOT
BRANCH   1  12
ATOM     12  C   UNL     1     -45.245 -36.905 -19.469  1.00  0.00     0.063 A 
ATOM     13  C   UNL     1     -47.538 -37.217 -20.222  1.00  0.00     0.047 A 
ATOM     14  C   UNL     1     -46.167 -37.207 -20.487  1.00  0.00     0.020 A 
ATOM     15  C   UNL     1     -48.008 -36.933 -18.936  1.00  0.00     0.119 A 
ATOM     16  C   UNL     1     -47.100 -36.632 -17.916  1.00  0.00     0.093 A 
ATOM     17  C   UNL     1     -45.723 -36.609 -18.172  1.00  0.00     0.130 A 
BRANCH  15  18
ATOM     18  O   UNL     1     -49.373 -36.945 -18.659  1.00  0.00    -0.508 OA
ATOM     19  H   UNL     1     -49.916 -37.799 -18.711  1.00  0.00     0.293 HD
ENDBRANCH  15  18
BRANCH  17  20
ATOM     20  O   UNL     1     -44.864 -36.268 -17.124  1.00  0.00    -0.507 OA
ATOM     21  H   UNL     1     -44.670 -35.312 -16.858  1.00  0.00     0.293 HD
ENDBRANCH  17  20
ENDBRANCH   1  12
BRANCH   2  22
ATOM     22  O   UNL     1     -43.551 -34.593 -19.304  1.00  0.00    -0.502 OA
ATOM     23  H   UNL     1     -43.048 -33.927 -18.730  1.00  0.00     0.293 HD
ENDBRANCH   2  22
BRANCH   6  24
ATOM     24  O   UNL     1     -38.794 -36.357 -20.945  1.00  0.00    -0.507 OA
ATOM     25  H   UNL     1     -38.080 -36.124 -20.274  1.00  0.00     0.293 HD
ENDBRANCH   6  24
BRANCH   8  26
ATOM     26  O   UNL     1     -39.686 -41.046 -21.288  1.00  0.00    -0.508 OA
ATOM     27  H   UNL     1     -40.172 -41.875 -20.967  1.00  0.00     0.293 HD
ENDBRANCH   8  26
TORSDOF 6
ENDMDL
MODEL 6
REMARK VINA RESULT:    -5.687      3.531      7.015
REMARK INTER + INTRA:          -7.252
REMARK INTER:                  -6.906
REMARK INTRA:                  -0.346
REMARK UNBOUND:                -0.401
REMARK SMILES O=c1c(O)c(-c2ccc(O)cc2O)oc2cc(O)cc(O)c12
REMARK SMILES IDX 5 1 3 2 2 3 1 4 22 5 20 6 19 7 17 8 16 9 15 10 14 11 6 12
REMARK SMILES IDX 8 13 7 14 9 15 11 16 12 17 10 18 13 20 4 22 21 24 18 26
REMARK H PARENT 10 19 13 21 4 23 21 25 18 27
REMARK Flexibility Score: inf
ROOT
ATOM      1  C   UNL     1     -43.404 -36.447 -20.362  1.00  0.00     0.184 A 
ATOM      2  C   UNL     1     -44.304 -36.414 -19.286  1.00  0.00     0.208 A 
ATOM      3  C   UNL     1     -45.645 -36.762 -19.509  1.00  0.00     0.238 A 
ATOM      4  O   UNL     1     -46.460 -36.672 -18.554  1.00  0.00    -0.285 OA
ATOM      5  C   UNL     1     -46.062 -37.165 -20.801  1.00  0.00     0.111 A 
ATOM      6  C   UNL     1     -47.388 -37.577 -21.134  1.00  0.00     0.134 A 
ATOM      7  C   UNL     1     -47.715 -37.837 -22.471  1.00  0.00     0.093 A 
ATOM      8  C   UNL     1     -46.752 -37.764 -23.475  1.00  0.00     0.123 A 
ATOM      9  C   UNL     1     -45.439 -37.419 -23.154  1.00  0.00     0.094 A 
ATOM     10  C   UNL     1     -45.090 -37.117 -21.835  1.00  0.00     0.146 A 
ATOM     11  O   UNL     1     -43.833 -36.779 -21.573  1.00  0.00    -0.451 OA
ENDROOT
BRANCH   1  12
ATOM     12  C   UNL     1     -41.975 -36.114 -20.181  1.00  0.00     0.063 A 
ATOM     13  C   UNL     1     -39.653 -36.841 -20.156  1.00  0.00     0.047 A 
ATOM     14  C   UNL     1     -41.014 -37.136 -20.267  1.00  0.00     0.020 A 
ATOM     15  C   UNL     1     -39.234 -35.520 -19.965  1.00  0.00     0.119 A 
ATOM     16  C   UNL     1     -40.181 -34.497 -19.879  1.00  0.00     0.093 A 
ATOM     17  C   UNL     1     -41.549 -34.781 -19.978  1.00  0.00     0.130 A 
BRANCH  15  18
ATOM     18  O   UNL     1     -37.879 -35.214 -19.858  1.00  0.00    -0.508 OA
ATOM     19  H   UNL     1     -37.195 -35.918 -19.606  1.00  0.00     0.293 HD
ENDBRANCH  15  18
BRANCH  17  20
ATOM     20  O   UNL     1     -42.453 -33.723 -19.850  1.00  0.00    -0.507 OA
ATOM     21  H   UNL     1     -43.452 -33.836 -19.952  1.00  0.00     0.293 HD
ENDBRANCH  17  20
ENDBRANCH   1  12
BRANCH   2  22
ATOM     22  O   UNL     1     -43.864 -36.016 -18.020  1.00  0.00    -0.502 OA
ATOM     23  H   UNL     1     -43.150 -35.309 -17.891  1.00  0.00     0.293 HD
ENDBRANCH   2  22
BRANCH   6  24
ATOM     24  O   UNL     1     -48.406 -37.770 -20.194  1.00  0.00    -0.507 OA
ATOM     25  H   UNL     1     -49.386 -37.849 -20.417  1.00  0.00     0.293 HD
ENDBRANCH   6  24
BRANCH   8  26
ATOM     26  O   UNL     1     -47.110 -38.045 -24.792  1.00  0.00    -0.508 OA
ATOM     27  H   UNL     1     -46.711 -38.830 -25.294  1.00  0.00     0.293 HD
ENDBRANCH   8  26
TORSDOF 6
ENDMDL
MODEL 7
REMARK VINA RESULT:    -5.680      2.036      7.132
REMARK INTER + INTRA:          -7.243
REMARK INTER:                  -6.873
REMARK INTRA:                  -0.370
REMARK UNBOUND:                -0.401
REMARK SMILES O=c1c(O)c(-c2ccc(O)cc2O)oc2cc(O)cc(O)c12
REMARK SMILES IDX 5 1 3 2 2 3 1 4 22 5 20 6 19 7 17 8 16 9 15 10 14 11 6 12
REMARK SMILES IDX 8 13 7 14 9 15 11 16 12 17 10 18 13 20 4 22 21 24 18 26
REMARK H PARENT 10 19 13 21 4 23 21 25 18 27
REMARK Flexibility Score: inf
ROOT
ATOM      1  C   UNL     1     -42.633 -40.394 -21.694  1.00  0.00     0.184 A 
ATOM      2  C   UNL     1     -43.049 -40.529 -23.027  1.00  0.00     0.208 A 
ATOM      3  C   UNL     1     -44.090 -41.420 -23.330  1.00  0.00     0.238 A 
ATOM      4  O   UNL     1     -44.418 -41.581 -24.534  1.00  0.00    -0.285 OA
ATOM      5  C   UNL     1     -44.719 -42.146 -22.289  1.00  0.00     0.111 A 
ATOM      6  C   UNL     1     -45.811 -43.048 -22.474  1.00  0.00     0.134 A 
ATOM      7  C   UNL     1     -46.274 -43.803 -21.389  1.00  0.00     0.093 A 
ATOM      8  C   UNL     1     -45.731 -43.642 -20.116  1.00  0.00     0.123 A 
ATOM      9  C   UNL     1     -44.703 -42.721 -19.910  1.00  0.00     0.094 A 
ATOM     10  C   UNL     1     -44.194 -41.980 -20.980  1.00  0.00     0.146 A 
ATOM     11  O   UNL     1     -43.206 -41.125 -20.746  1.00  0.00    -0.451 OA
ENDROOT
BRANCH   1  12
ATOM     12  C   UNL     1     -41.558 -39.453 -21.314  1.00  0.00     0.063 A 
ATOM     13  C   UNL     1     -40.902 -37.330 -20.324  1.00  0.00     0.047 A 
ATOM     14  C   UNL     1     -41.898 -38.214 -20.744  1.00  0.00     0.020 A 
ATOM     15  C   UNL     1     -39.553 -37.673 -20.460  1.00  0.00     0.119 A 
ATOM     16  C   UNL     1     -39.204 -38.903 -21.024  1.00  0.00     0.093 A 
ATOM     17  C   UNL     1     -40.194 -39.795 -21.460  1.00  0.00     0.130 A 
BRANCH  15  18
ATOM     18  O   UNL     1     -38.551 -36.801 -20.040  1.00  0.00    -0.508 OA
ATOM     19  H   UNL     1     -38.453 -35.875 -20.442  1.00  0.00     0.293 HD
ENDBRANCH  15  18
BRANCH  17  20
ATOM     20  O   UNL     1     -39.787 -40.995 -22.048  1.00  0.00    -0.507 OA
ATOM     21  H   UNL     1     -39.138 -41.038 -22.822  1.00  0.00     0.293 HD
ENDBRANCH  17  20
ENDBRANCH   1  12
BRANCH   2  22
ATOM     22  O   UNL     1     -42.412 -39.796 -24.034  1.00  0.00    -0.502 OA
ATOM     23  H   UNL     1     -41.444 -39.510 -23.966  1.00  0.00     0.293 HD
ENDBRANCH   2  22
BRANCH   6  24
ATOM     24  O   UNL     1     -46.487 -43.219 -23.686  1.00  0.00    -0.507 OA
ATOM     25  H   UNL     1     -47.178 -42.584 -24.053  1.00  0.00     0.293 HD
ENDBRANCH   6  24
BRANCH   8  26
ATOM     26  O   UNL     1     -46.228 -44.399 -19.056  1.00  0.00    -0.508 OA
ATOM     27  H   UNL     1     -45.682 -44.559 -18.218  1.00  0.00     0.293 HD
ENDBRANCH   8  26
TORSDOF 6
ENDMDL
MODEL 8
REMARK VINA RESULT:    -5.655      6.892      8.864
REMARK INTER + INTRA:          -7.213
REMARK INTER:                  -6.797
REMARK INTRA:                  -0.417
REMARK UNBOUND:                -0.401
REMARK SMILES O=c1c(O)c(-c2ccc(O)cc2O)oc2cc(O)cc(O)c12
REMARK SMILES IDX 5 1 3 2 2 3 1 4 22 5 20 6 19 7 17 8 16 9 15 10 14 11 6 12
REMARK SMILES IDX 8 13 7 14 9 15 11 16 12 17 10 18 13 20 4 22 21 24 18 26
REMARK H PARENT 10 19 13 21 4 23 21 25 18 27
REMARK Flexibility Score: inf
ROOT
ATOM      1  C   UNL     1     -49.207 -38.347 -19.956  1.00  0.00     0.184 A 
ATOM      2  C   UNL     1     -50.379 -37.578 -19.893  1.00  0.00     0.208 A 
ATOM      3  C   UNL     1     -50.891 -37.019 -21.074  1.00  0.00     0.238 A 
ATOM      4  O   UNL     1     -51.907 -36.280 -21.002  1.00  0.00    -0.285 OA
ATOM      5  C   UNL     1     -50.237 -37.259 -22.307  1.00  0.00     0.111 A 
ATOM      6  C   UNL     1     -50.688 -36.775 -23.572  1.00  0.00     0.134 A 
ATOM      7  C   UNL     1     -49.895 -36.971 -24.710  1.00  0.00     0.093 A 
ATOM      8  C   UNL     1     -48.703 -37.690 -24.641  1.00  0.00     0.123 A 
ATOM      9  C   UNL     1     -48.280 -38.218 -23.420  1.00  0.00     0.094 A 
ATOM     10  C   UNL     1     -49.031 -38.007 -22.261  1.00  0.00     0.146 A 
ATOM     11  O   UNL     1     -48.587 -38.514 -21.117  1.00  0.00    -0.451 OA
ENDROOT
BRANCH   1  12
ATOM     12  C   UNL     1     -48.636 -38.981 -18.749  1.00  0.00     0.063 A 
ATOM     13  C   UNL     1     -48.465 -40.929 -17.300  1.00  0.00     0.047 A 
ATOM     14  C   UNL     1     -49.031 -40.285 -18.403  1.00  0.00     0.020 A 
ATOM     15  C   UNL     1     -47.493 -40.281 -16.531  1.00  0.00     0.119 A 
ATOM     16  C   UNL     1     -47.093 -38.985 -16.865  1.00  0.00     0.093 A 
ATOM     17  C   UNL     1     -47.660 -38.325 -17.963  1.00  0.00     0.130 A 
BRANCH  15  18
ATOM     18  O   UNL     1     -46.919 -40.916 -15.431  1.00  0.00    -0.508 OA
ATOM     19  H   UNL     1     -46.078 -40.556 -14.992  1.00  0.00     0.293 HD
ENDBRANCH  15  18
BRANCH  17  20
ATOM     20  O   UNL     1     -47.248 -37.017 -18.231  1.00  0.00    -0.507 OA
ATOM     21  H   UNL     1     -47.851 -36.323 -18.650  1.00  0.00     0.293 HD
ENDBRANCH  17  20
ENDBRANCH   1  12
BRANCH   2  22
ATOM     22  O   UNL     1     -51.005 -37.361 -18.662  1.00  0.00    -0.502 OA
ATOM     23  H   UNL     1     -50.811 -36.548 -18.091  1.00  0.00     0.293 HD
ENDBRANCH   2  22
BRANCH   6  24
ATOM     24  O   UNL     1     -51.909 -36.122 -23.769  1.00  0.00    -0.507 OA
ATOM     25  H   UNL     1     -52.460 -36.175 -24.612  1.00  0.00     0.293 HD
ENDBRANCH   6  24
BRANCH   8  26
ATOM     26  O   UNL     1     -47.948 -37.880 -25.796  1.00  0.00    -0.508 OA
ATOM     27  H   UNL     1     -47.730 -38.808 -26.140  1.00  0.00     0.293 HD
ENDBRANCH   8  26
TORSDOF 6
ENDMDL
MODEL 9
REMARK VINA RESULT:    -5.649      4.178      6.350
REMARK INTER + INTRA:          -7.206
REMARK INTER:                  -6.862
REMARK INTRA:                  -0.344
REMARK UNBOUND:                -0.401
REMARK SMILES O=c1c(O)c(-c2ccc(O)cc2O)oc2cc(O)cc(O)c12
REMARK SMILES IDX 5 1 3 2 2 3 1 4 22 5 20 6 19 7 17 8 16 9 15 10 14 11 6 12
REMARK SMILES IDX 8 13 7 14 9 15 11 16 12 17 10 18 13 20 4 22 21 24 18 26
REMARK H PARENT 10 19 13 21 4 23 21 25 18 27
REMARK Flexibility Score: inf
ROOT
ATOM      1  C   UNL     1     -45.225 -40.137 -18.352  1.00  0.00     0.184 A 
ATOM      2  C   UNL     1     -46.438 -40.771 -18.657  1.00  0.00     0.208 A 
ATOM      3  C   UNL     1     -47.607 -39.999 -18.747  1.00  0.00     0.238 A 
ATOM      4  O   UNL     1     -48.702 -40.582 -18.960  1.00  0.00    -0.285 OA
ATOM      5  C   UNL     1     -47.540 -38.597 -18.557  1.00  0.00     0.111 A 
ATOM      6  C   UNL     1     -48.653 -37.710 -18.663  1.00  0.00     0.134 A 
ATOM      7  C   UNL     1     -48.494 -36.358 -18.335  1.00  0.00     0.093 A 
ATOM      8  C   UNL     1     -47.250 -35.849 -17.968  1.00  0.00     0.123 A 
ATOM      9  C   UNL     1     -46.140 -36.695 -17.917  1.00  0.00     0.094 A 
ATOM     10  C   UNL     1     -46.276 -38.056 -18.202  1.00  0.00     0.146 A 
ATOM     11  O   UNL     1     -45.200 -38.829 -18.129  1.00  0.00    -0.451 OA
ENDROOT
BRANCH   1  12
ATOM     12  C   UNL     1     -43.959 -40.896 -18.268  1.00  0.00     0.063 A 
ATOM     13  C   UNL     1     -41.750 -41.370 -19.171  1.00  0.00     0.047 A 
ATOM     14  C   UNL     1     -42.977 -40.708 -19.257  1.00  0.00     0.020 A 
ATOM     15  C   UNL     1     -41.483 -42.222 -18.095  1.00  0.00     0.119 A 
ATOM     16  C   UNL     1     -42.452 -42.415 -17.106  1.00  0.00     0.093 A 
ATOM     17  C   UNL     1     -43.691 -41.765 -17.185  1.00  0.00     0.130 A 
BRANCH  15  18
ATOM     18  O   UNL     1     -40.261 -42.883 -17.997  1.00  0.00    -0.508 OA
ATOM     19  H   UNL     1     -39.948 -43.291 -17.123  1.00  0.00     0.293 HD
ENDBRANCH  15  18
BRANCH  17  20
ATOM     20  O   UNL     1     -44.635 -42.022 -16.188  1.00  0.00    -0.507 OA
ATOM     21  H   UNL     1     -45.310 -41.337 -15.878  1.00  0.00     0.293 HD
ENDBRANCH  17  20
ENDBRANCH   1  12
BRANCH   2  22
ATOM     22  O   UNL     1     -46.474 -42.157 -18.843  1.00  0.00    -0.502 OA
ATOM     23  H   UNL     1     -46.421 -42.582 -19.760  1.00  0.00     0.293 HD
ENDBRANCH   2  22
BRANCH   6  24
ATOM     24  O   UNL     1     -49.922 -38.098 -19.108  1.00  0.00    -0.507 OA
ATOM     25  H   UNL     1     -50.522 -37.537 -19.692  1.00  0.00     0.293 HD
ENDBRANCH   6  24
BRANCH   8  26
ATOM     26  O   UNL     1     -47.124 -34.495 -17.663  1.00  0.00    -0.508 OA
ATOM     27  H   UNL     1     -46.265 -33.988 -17.844  1.00  0.00     0.293 HD
ENDBRANCH   8  26
TORSDOF 6
ENDMDL
