MODEL 1
REMARK VINA RESULT:    -4.145      0.000      0.000
REMARK INTER + INTRA:          -4.145
REMARK INTER:                  -4.145
REMARK INTRA:                   0.000
REMARK UNBOUND:                 0.000
REMARK SMILES CC1=CC(=O)[C@H]2C[C@@H]1C2(C)C
REMARK SMILES IDX 1 1 2 2 3 3 4 4 5 5 6 6 7 7 8 8 9 9 10 10 11 11
REMARK H PARENT
REMARK Flexibility Score: inf
ROOT
ATOM      1  C   UNL     1      84.368  30.631  64.737  1.00  0.00     0.040 C 
ATOM      2  C   UNL     1      85.542  31.450  65.171  1.00  0.00    -0.066 C 
ATOM      3  C   UNL     1      85.732  32.717  64.707  1.00  0.00     0.047 C 
ATOM      4  C   UNL     1      86.964  33.422  65.192  1.00  0.00     0.159 C 
ATOM      5  O   UNL     1      87.270  34.580  64.805  1.00  0.00    -0.295 OA
ATOM      6  C   UNL     1      87.819  32.636  66.185  1.00  0.00     0.067 C 
ATOM      7  C   UNL     1      86.798  32.057  67.188  1.00  0.00     0.021 C 
ATOM      8  C   UNL     1      86.584  30.911  66.174  1.00  0.00     0.022 C 
ATOM      9  C   UNL     1      88.017  31.195  65.637  1.00  0.00    -0.019 C 
ATOM     10  C   UNL     1      88.281  31.012  64.116  1.00  0.00     0.012 C 
ATOM     11  C   UNL     1      89.104  30.411  66.416  1.00  0.00     0.012 C 
ENDROOT
TORSDOF 0
ENDMDL
MODEL 2
REMARK VINA RESULT:    -4.104      1.132      2.807
REMARK INTER + INTRA:          -4.104
REMARK INTER:                  -4.104
REMARK INTRA:                   0.000
REMARK UNBOUND:                 0.000
REMARK SMILES CC1=CC(=O)[C@H]2C[C@@H]1C2(C)C
REMARK SMILES IDX 1 1 2 2 3 3 4 4 5 5 6 6 7 7 8 8 9 9 10 10 11 11
REMARK H PARENT
REMARK Flexibility Score: inf
ROOT
ATOM      1  C   UNL     1      88.320  29.367  65.039  1.00  0.00     0.040 C 
ATOM      2  C   UNL     1      87.690  30.720  65.143  1.00  0.00    -0.066 C 
ATOM      3  C   UNL     1      88.384  31.850  64.830  1.00  0.00     0.047 C 
ATOM      4  C   UNL     1      87.652  33.147  65.005  1.00  0.00     0.159 C 
ATOM      5  O   UNL     1      88.196  34.261  64.787  1.00  0.00    -0.295 OA
ATOM      6  C   UNL     1      86.200  33.021  65.469  1.00  0.00     0.067 C 
ATOM      7  C   UNL     1      85.616  31.901  64.581  1.00  0.00     0.021 C 
ATOM      8  C   UNL     1      86.225  30.902  65.591  1.00  0.00     0.022 C 
ATOM      9  C   UNL     1      86.146  32.028  66.664  1.00  0.00    -0.019 C 
ATOM     10  C   UNL     1      87.270  32.099  67.736  1.00  0.00     0.012 C 
ATOM     11  C   UNL     1      84.778  32.053  67.391  1.00  0.00     0.012 C 
ENDROOT
TORSDOF 0
ENDMDL
MODEL 3
REMARK VINA RESULT:    -4.100      1.537      3.280
REMARK INTER + INTRA:          -4.100
REMARK INTER:                  -4.100
REMARK INTRA:                   0.000
REMARK UNBOUND:                 0.000
REMARK SMILES CC1=CC(=O)[C@H]2C[C@@H]1C2(C)C
REMARK SMILES IDX 1 1 2 2 3 3 4 4 5 5 6 6 7 7 8 8 9 9 10 10 11 11
REMARK H PARENT
REMARK Flexibility Score: inf
ROOT
ATOM      1  C   UNL     1      88.740  29.342  64.738  1.00  0.00     0.040 C 
ATOM      2  C   UNL     1      88.159  30.630  65.230  1.00  0.00    -0.066 C 
ATOM      3  C   UNL     1      88.015  30.879  66.561  1.00  0.00     0.047 C 
ATOM      4  C   UNL     1      87.390  32.192  66.926  1.00  0.00     0.159 C 
ATOM      5  O   UNL     1      87.168  32.522  68.120  1.00  0.00    -0.295 OA
ATOM      6  C   UNL     1      87.041  33.101  65.747  1.00  0.00     0.067 C 
ATOM      7  C   UNL     1      88.293  33.048  64.846  1.00  0.00     0.021 C 
ATOM      8  C   UNL     1      87.710  31.742  64.259  1.00  0.00     0.022 C 
ATOM      9  C   UNL     1      86.300  32.255  64.672  1.00  0.00    -0.019 C 
ATOM     10  C   UNL     1      85.250  31.211  65.149  1.00  0.00     0.012 C 
ATOM     11  C   UNL     1      85.647  33.134  63.576  1.00  0.00     0.012 C 
ENDROOT
TORSDOF 0
ENDMDL
MODEL 4
REMARK VINA RESULT:    -4.057      1.972      2.933
REMARK INTER + INTRA:          -4.057
REMARK INTER:                  -4.057
REMARK INTRA:                   0.000
REMARK UNBOUND:                 0.000
REMARK SMILES CC1=CC(=O)[C@H]2C[C@@H]1C2(C)C
REMARK SMILES IDX 1 1 2 2 3 3 4 4 5 5 6 6 7 7 8 8 9 9 10 10 11 11
REMARK H PARENT
REMARK Flexibility Score: inf
ROOT
ATOM      1  C   UNL     1      83.796  31.947  65.202  1.00  0.00     0.040 C 
ATOM      2  C   UNL     1      85.258  31.635  65.141  1.00  0.00    -0.066 C 
ATOM      3  C   UNL     1      85.707  30.349  65.110  1.00  0.00     0.047 C 
ATOM      4  C   UNL     1      87.195  30.168  65.081  1.00  0.00     0.159 C 
ATOM      5  O   UNL     1      87.733  29.030  65.091  1.00  0.00    -0.295 OA
ATOM      6  C   UNL     1      88.011  31.460  65.040  1.00  0.00     0.067 C 
ATOM      7  C   UNL     1      87.302  32.321  63.973  1.00  0.00     0.021 C 
ATOM      8  C   UNL     1      86.325  32.748  65.091  1.00  0.00     0.022 C 
ATOM      9  C   UNL     1      87.452  32.433  66.117  1.00  0.00    -0.019 C 
ATOM     10  C   UNL     1      87.044  31.849  67.500  1.00  0.00     0.012 C 
ATOM     11  C   UNL     1      88.386  33.645  66.359  1.00  0.00     0.012 C 
ENDROOT
TORSDOF 0
ENDMDL
MODEL 5
REMARK VINA RESULT:    -3.933      1.577      2.999
REMARK INTER + INTRA:          -3.933
REMARK INTER:                  -3.933
REMARK INTRA:                   0.000
REMARK UNBOUND:                 0.000
REMARK SMILES CC1=CC(=O)[C@H]2C[C@@H]1C2(C)C
REMARK SMILES IDX 1 1 2 2 3 3 4 4 5 5 6 6 7 7 8 8 9 9 10 10 11 11
REMARK H PARENT
REMARK Flexibility Score: inf
ROOT
ATOM      1  C   UNL     1      87.610  34.892  64.780  1.00  0.00     0.040 C 
ATOM      2  C   UNL     1      87.287  33.432  64.817  1.00  0.00    -0.066 C 
ATOM      3  C   UNL     1      86.013  32.984  64.644  1.00  0.00     0.047 C 
ATOM      4  C   UNL     1      85.813  31.500  64.734  1.00  0.00     0.159 C 
ATOM      5  O   UNL     1      84.678  30.968  64.631  1.00  0.00    -0.295 OA
ATOM      6  C   UNL     1      87.085  30.682  64.961  1.00  0.00     0.067 C 
ATOM      7  C   UNL     1      88.102  31.281  63.966  1.00  0.00     0.021 C 
ATOM      8  C   UNL     1      88.379  32.363  65.034  1.00  0.00     0.022 C 
ATOM      9  C   UNL     1      87.901  31.343  66.108  1.00  0.00    -0.019 C 
ATOM     10  C   UNL     1      87.130  31.886  67.345  1.00  0.00     0.012 C 
ATOM     11  C   UNL     1      89.051  30.435  66.613  1.00  0.00     0.012 C 
ENDROOT
TORSDOF 0
ENDMDL
MODEL 6
REMARK VINA RESULT:    -3.905      1.859      3.442
REMARK INTER + INTRA:          -3.905
REMARK INTER:                  -3.905
REMARK INTRA:                   0.000
REMARK UNBOUND:                 0.000
REMARK SMILES CC1=CC(=O)[C@H]2C[C@@H]1C2(C)C
REMARK SMILES IDX 1 1 2 2 3 3 4 4 5 5 6 6 7 7 8 8 9 9 10 10 11 11
REMARK H PARENT
REMARK Flexibility Score: inf
ROOT
ATOM      1  C   UNL     1      88.618  34.649  65.128  1.00  0.00     0.040 C 
ATOM      2  C   UNL     1      88.103  33.266  65.377  1.00  0.00    -0.066 C 
ATOM      3  C   UNL     1      88.569  32.199  64.669  1.00  0.00     0.047 C 
ATOM      4  C   UNL     1      87.951  30.871  64.989  1.00  0.00     0.159 C 
ATOM      5  O   UNL     1      88.268  29.818  64.377  1.00  0.00    -0.295 OA
ATOM      6  C   UNL     1      86.909  30.887  66.108  1.00  0.00     0.067 C 
ATOM      7  C   UNL     1      87.559  31.740  67.218  1.00  0.00     0.021 C 
ATOM      8  C   UNL     1      87.036  32.977  66.453  1.00  0.00     0.022 C 
ATOM      9  C   UNL     1      85.927  32.065  65.853  1.00  0.00    -0.019 C 
ATOM     10  C   UNL     1      85.462  32.338  64.394  1.00  0.00     0.012 C 
ATOM     11  C   UNL     1      84.671  31.992  66.757  1.00  0.00     0.012 C 
ENDROOT
TORSDOF 0
ENDMDL
MODEL 7
REMARK VINA RESULT:    -3.894      1.612      2.369
REMARK INTER + INTRA:          -3.894
REMARK INTER:                  -3.894
REMARK INTRA:                   0.000
REMARK UNBOUND:                 0.000
REMARK SMILES CC1=CC(=O)[C@H]2C[C@@H]1C2(C)C
REMARK SMILES IDX 1 1 2 2 3 3 4 4 5 5 6 6 7 7 8 8 9 9 10 10 11 11
REMARK H PARENT
REMARK Flexibility Score: inf
ROOT
ATOM      1  C   UNL     1      83.512  31.907  65.178  1.00  0.00     0.040 C 
ATOM      2  C   UNL     1      84.948  31.760  65.573  1.00  0.00    -0.066 C 
ATOM      3  C   UNL     1      85.395  32.181  66.789  1.00  0.00     0.047 C 
ATOM      4  C   UNL     1      86.861  32.008  67.052  1.00  0.00     0.159 C 
ATOM      5  O   UNL     1      87.401  32.393  68.122  1.00  0.00    -0.295 OA
ATOM      6  C   UNL     1      87.652  31.334  65.931  1.00  0.00     0.067 C 
ATOM      7  C   UNL     1      86.778  30.129  65.523  1.00  0.00     0.021 C 
ATOM      8  C   UNL     1      85.987  31.113  64.633  1.00  0.00     0.022 C 
ATOM      9  C   UNL     1      87.264  32.002  64.581  1.00  0.00    -0.019 C 
ATOM     10  C   UNL     1      87.083  33.546  64.545  1.00  0.00     0.012 C 
ATOM     11  C   UNL     1      88.217  31.598  63.427  1.00  0.00     0.012 C 
ENDROOT
TORSDOF 0
ENDMDL
MODEL 8
REMARK VINA RESULT:    -3.697      1.677      2.647
REMARK INTER + INTRA:          -3.697
REMARK INTER:                  -3.697
REMARK INTRA:                   0.000
REMARK UNBOUND:                 0.000
REMARK SMILES CC1=CC(=O)[C@H]2C[C@@H]1C2(C)C
REMARK SMILES IDX 1 1 2 2 3 3 4 4 5 5 6 6 7 7 8 8 9 9 10 10 11 11
REMARK H PARENT
REMARK Flexibility Score: inf
ROOT
ATOM      1  C   UNL     1      88.484  29.107  64.917  1.00  0.00     0.040 C 
ATOM      2  C   UNL     1      87.711  30.249  65.498  1.00  0.00    -0.066 C 
ATOM      3  C   UNL     1      86.381  30.403  65.250  1.00  0.00     0.047 C 
ATOM      4  C   UNL     1      85.727  31.605  65.863  1.00  0.00     0.159 C 
ATOM      5  O   UNL     1      84.513  31.878  65.675  1.00  0.00    -0.295 OA
ATOM      6  C   UNL     1      86.637  32.474  66.731  1.00  0.00     0.067 C 
ATOM      7  C   UNL     1      87.403  31.461  67.608  1.00  0.00     0.021 C 
ATOM      8  C   UNL     1      88.375  31.296  66.418  1.00  0.00     0.022 C 
ATOM      9  C   UNL     1      87.964  32.725  65.959  1.00  0.00    -0.019 C 
ATOM     10  C   UNL     1      87.888  33.013  64.432  1.00  0.00     0.012 C 
ATOM     11  C   UNL     1      88.830  33.828  66.618  1.00  0.00     0.012 C 
ENDROOT
TORSDOF 0
ENDMDL
MODEL 9
REMARK VINA RESULT:    -3.407      2.036      3.578
REMARK INTER + INTRA:          -3.407
REMARK INTER:                  -3.407
REMARK INTRA:                   0.000
REMARK UNBOUND:                 0.000
REMARK SMILES CC1=CC(=O)[C@H]2C[C@@H]1C2(C)C
REMARK SMILES IDX 1 1 2 2 3 3 4 4 5 5 6 6 7 7 8 8 9 9 10 10 11 11
REMARK H PARENT
REMARK Flexibility Score: inf
ROOT
ATOM      1  C   UNL     1      87.811  32.748  67.983  1.00  0.00     0.040 C 
ATOM      2  C   UNL     1      87.122  32.047  66.856  1.00  0.00    -0.066 C 
ATOM      3  C   UNL     1      87.363  30.734  66.585  1.00  0.00     0.047 C 
ATOM      4  C   UNL     1      86.634  30.154  65.410  1.00  0.00     0.159 C 
ATOM      5  O   UNL     1      86.802  28.965  65.035  1.00  0.00    -0.295 OA
ATOM      6  C   UNL     1      85.676  31.110  64.699  1.00  0.00     0.067 C 
ATOM      7  C   UNL     1      84.901  31.792  65.847  1.00  0.00     0.021 C 
ATOM      8  C   UNL     1      86.095  32.767  65.957  1.00  0.00     0.022 C 
ATOM      9  C   UNL     1      86.408  32.462  64.463  1.00  0.00    -0.019 C 
ATOM     10  C   UNL     1      87.897  32.427  64.017  1.00  0.00     0.012 C 
ATOM     11  C   UNL     1      85.633  33.392  63.496  1.00  0.00     0.012 C 
ENDROOT
TORSDOF 0
ENDMDL
