MODEL 1
REMARK VINA RESULT:    -8.873      0.000      0.000
REMARK INTER + INTRA:         -13.717
REMARK INTER:                 -12.504
REMARK INTRA:                  -1.213
REMARK UNBOUND:                -1.213
REMARK SMILES C=C(CC[C@H](C(=O)[O-])[C@H]1[C@H](O)C[C@]2(C)C3=C(CC[C@@]12C)[C@@]1(C)CC[C@H](O)C(C)(C)[C@@H]1CC3)C(C)C
REMARK SMILES IDX 4 1 5 2 6 3 7 4 8 5 9 6 10 7 19 8 12 9 13 10 18 11 20 12
REMARK SMILES IDX 14 13 15 14 17 15 16 16 32 17 21 18 31 19 30 20 23 21 22 22
REMARK SMILES IDX 27 23 24 24 25 25 28 26 29 27 11 28 26 30 3 32 2 33 1 34
REMARK SMILES IDX 33 35 34 36 35 37
REMARK H PARENT 11 29 26 31
REMARK Flexibility Score: inf
ROOT
ATOM      1  C   UNL     1     -32.504  31.536 -40.941  1.00  0.00     0.014 C 
ENDROOT
BRANCH   1   2
ATOM      2  C   UNL     1     -33.144  32.127 -42.237  1.00  0.00     0.042 C 
BRANCH   2   3
ATOM      3  C   UNL     1     -33.209  31.031 -43.275  1.00  0.00     0.045 C 
ATOM      4  O   UNL     1     -34.222  30.903 -44.011  1.00  0.00    -0.550 OA
ATOM      5  O   UNL     1     -32.138  30.162 -43.429  1.00  0.00    -0.550 OA
ENDBRANCH   2   3
BRANCH   2   6
ATOM      6  C   UNL     1     -32.480  33.424 -42.829  1.00  0.00     0.033 C 
ATOM      7  C   UNL     1     -32.784  33.630 -44.349  1.00  0.00     0.119 C 
ATOM      8  C   UNL     1     -32.831  34.817 -42.183  1.00  0.00    -0.017 C 
ATOM      9  C   UNL     1     -33.254  35.082 -44.536  1.00  0.00     0.043 C 
ATOM     10  C   UNL     1     -33.842  35.463 -43.176  1.00  0.00    -0.003 C 
ATOM     11  C   UNL     1     -33.467  34.866 -40.781  1.00  0.00     0.012 C 
ATOM     12  C   UNL     1     -31.476  35.614 -42.107  1.00  0.00     0.013 C 
ATOM     13  C   UNL     1     -35.299  34.896 -43.125  1.00  0.00     0.017 C 
ATOM     14  C   UNL     1     -33.988  36.946 -42.864  1.00  0.00    -0.064 C 
ATOM     15  C   UNL     1     -33.904  36.310 -40.398  1.00  0.00     0.032 C 
ATOM     16  C   UNL     1     -34.095  37.334 -41.550  1.00  0.00    -0.064 C 
ATOM     17  C   UNL     1     -34.023  37.933 -44.020  1.00  0.00     0.032 C 
ATOM     18  C   UNL     1     -34.591  38.756 -41.190  1.00  0.00    -0.008 C 
ATOM     19  C   UNL     1     -34.691  39.266 -43.677  1.00  0.00     0.009 C 
ATOM     20  C   UNL     1     -34.167  39.764 -42.320  1.00  0.00     0.007 C 
ATOM     21  C   UNL     1     -33.950  39.229 -39.853  1.00  0.00     0.014 C 
ATOM     22  C   UNL     1     -36.129  38.614 -41.016  1.00  0.00     0.016 C 
ATOM     23  C   UNL     1     -34.378  41.309 -42.024  1.00  0.00    -0.006 C 
ATOM     24  C   UNL     1     -34.290  40.682 -39.516  1.00  0.00     0.033 C 
ATOM     25  C   UNL     1     -33.791  41.637 -40.612  1.00  0.00     0.120 C 
ATOM     26  C   UNL     1     -33.564  42.135 -43.058  1.00  0.00     0.014 C 
ATOM     27  C   UNL     1     -35.861  41.780 -42.126  1.00  0.00     0.014 C 
BRANCH   7  28
ATOM     28  O   UNL     1     -31.637  33.383 -45.120  1.00  0.00    -0.393 OA
ATOM     29  H   UNL     1     -30.867  33.376 -44.490  1.00  0.00     0.210 HD
ENDBRANCH   7  28
BRANCH  25  30
ATOM     30  O   UNL     1     -34.102  42.959 -40.232  1.00  0.00    -0.393 OA
ATOM     31  H   UNL     1     -33.558  43.171 -39.428  1.00  0.00     0.210 HD
ENDBRANCH  25  30
ENDBRANCH   2   6
ENDBRANCH   1   2
BRANCH   1  32
ATOM     32  C   UNL     1     -31.004  31.858 -40.750  1.00  0.00     0.031 C 
BRANCH  32  33
ATOM     33  C   UNL     1     -30.592  32.333 -39.357  1.00  0.00    -0.075 C 
ATOM     34  C   UNL     1     -30.465  33.666 -39.178  1.00  0.00     0.008 C 
BRANCH  33  35
ATOM     35  C   UNL     1     -30.178  31.365 -38.244  1.00  0.00     0.008 C 
ATOM     36  C   UNL     1     -29.870  32.070 -36.911  1.00  0.00     0.012 C 
ATOM     37  C   UNL     1     -28.980  30.523 -38.709  1.00  0.00     0.012 C 
ENDBRANCH  33  35
ENDBRANCH  32  33
ENDBRANCH   1  32
TORSDOF 8
ENDMDL
MODEL 2
REMARK VINA RESULT:    -8.740      2.921      5.252
REMARK INTER + INTRA:         -13.530
REMARK INTER:                 -12.831
REMARK INTRA:                  -0.699
REMARK UNBOUND:                -1.213
REMARK SMILES C=C(CC[C@H](C(=O)[O-])[C@H]1[C@H](O)C[C@]2(C)C3=C(CC[C@@]12C)[C@@]1(C)CC[C@H](O)C(C)(C)[C@@H]1CC3)C(C)C
REMARK SMILES IDX 4 1 5 2 6 3 7 4 8 5 9 6 10 7 19 8 12 9 13 10 18 11 20 12
REMARK SMILES IDX 14 13 15 14 17 15 16 16 32 17 21 18 31 19 30 20 23 21 22 22
REMARK SMILES IDX 27 23 24 24 25 25 28 26 29 27 11 28 26 30 3 32 2 33 1 34
REMARK SMILES IDX 33 35 34 36 35 37
REMARK H PARENT 11 29 26 31
REMARK Flexibility Score: inf
ROOT
ATOM      1  C   UNL     1     -29.804  28.989 -37.074  1.00  0.00     0.014 C 
ENDROOT
BRANCH   1   2
ATOM      2  C   UNL     1     -30.657  29.319 -38.339  1.00  0.00     0.042 C 
BRANCH   2   3
ATOM      3  C   UNL     1     -31.055  28.018 -38.995  1.00  0.00     0.045 C 
ATOM      4  O   UNL     1     -32.208  27.869 -39.480  1.00  0.00    -0.550 OA
ATOM      5  O   UNL     1     -30.140  26.977 -39.076  1.00  0.00    -0.550 OA
ENDBRANCH   2   3
BRANCH   2   6
ATOM      6  C   UNL     1     -30.020  30.305 -39.386  1.00  0.00     0.033 C 
ATOM      7  C   UNL     1     -29.647  29.610 -40.737  1.00  0.00     0.119 C 
ATOM      8  C   UNL     1     -30.844  31.572 -39.831  1.00  0.00    -0.017 C 
ATOM      9  C   UNL     1     -30.215  30.472 -41.876  1.00  0.00     0.043 C 
ATOM     10  C   UNL     1     -31.400  31.202 -41.239  1.00  0.00    -0.003 C 
ATOM     11  C   UNL     1     -32.035  32.043 -38.976  1.00  0.00     0.012 C 
ATOM     12  C   UNL     1     -29.814  32.761 -39.890  1.00  0.00     0.013 C 
ATOM     13  C   UNL     1     -32.613  30.215 -41.250  1.00  0.00     0.017 C 
ATOM     14  C   UNL     1     -31.908  32.457 -41.933  1.00  0.00    -0.064 C 
ATOM     15  C   UNL     1     -32.826  33.189 -39.672  1.00  0.00     0.032 C 
ATOM     16  C   UNL     1     -32.650  33.356 -41.206  1.00  0.00    -0.064 C 
ATOM     17  C   UNL     1     -31.587  32.654 -43.407  1.00  0.00     0.032 C 
ATOM     18  C   UNL     1     -33.478  34.451 -41.923  1.00  0.00    -0.008 C 
ATOM     19  C   UNL     1     -32.545  33.604 -44.129  1.00  0.00     0.009 C 
ATOM     20  C   UNL     1     -32.768  34.856 -43.265  1.00  0.00     0.007 C 
ATOM     21  C   UNL     1     -33.585  35.719 -41.028  1.00  0.00     0.014 C 
ATOM     22  C   UNL     1     -34.887  33.825 -42.119  1.00  0.00     0.016 C 
ATOM     23  C   UNL     1     -33.337  36.126 -44.027  1.00  0.00    -0.006 C 
ATOM     24  C   UNL     1     -34.272  36.888 -41.738  1.00  0.00     0.033 C 
ATOM     25  C   UNL     1     -33.501  37.298 -43.004  1.00  0.00     0.120 C 
ATOM     26  C   UNL     1     -32.296  36.588 -45.084  1.00  0.00     0.014 C 
ATOM     27  C   UNL     1     -34.676  35.868 -44.785  1.00  0.00     0.014 C 
BRANCH   7  28
ATOM     28  O   UNL     1     -28.254  29.489 -40.861  1.00  0.00    -0.393 OA
ATOM     29  H   UNL     1     -27.862  29.835 -40.014  1.00  0.00     0.210 HD
ENDBRANCH   7  28
BRANCH  25  30
ATOM     30  O   UNL     1     -34.160  38.395 -43.596  1.00  0.00    -0.393 OA
ATOM     31  H   UNL     1     -35.063  38.084 -43.869  1.00  0.00     0.210 HD
ENDBRANCH  25  30
ENDBRANCH   2   6
ENDBRANCH   1   2
BRANCH   1  32
ATOM     32  C   UNL     1     -28.940  30.157 -36.547  1.00  0.00     0.031 C 
BRANCH  32  33
ATOM     33  C   UNL     1     -28.797  30.255 -35.028  1.00  0.00    -0.075 C 
ATOM     34  C   UNL     1     -28.632  29.096 -34.353  1.00  0.00     0.008 C 
BRANCH  33  35
ATOM     35  C   UNL     1     -28.991  31.568 -34.264  1.00  0.00     0.008 C 
ATOM     36  C   UNL     1     -29.762  31.393 -32.944  1.00  0.00     0.012 C 
ATOM     37  C   UNL     1     -29.684  32.598 -35.170  1.00  0.00     0.012 C 
ENDBRANCH  33  35
ENDBRANCH  32  33
ENDBRANCH   1  32
TORSDOF 8
ENDMDL
MODEL 3
REMARK VINA RESULT:    -8.551      2.307      8.462
REMARK INTER + INTRA:         -13.264
REMARK INTER:                 -12.930
REMARK INTRA:                  -0.334
REMARK UNBOUND:                -1.213
REMARK SMILES C=C(CC[C@H](C(=O)[O-])[C@H]1[C@H](O)C[C@]2(C)C3=C(CC[C@@]12C)[C@@]1(C)CC[C@H](O)C(C)(C)[C@@H]1CC3)C(C)C
REMARK SMILES IDX 4 1 5 2 6 3 7 4 8 5 9 6 10 7 19 8 12 9 13 10 18 11 20 12
REMARK SMILES IDX 14 13 15 14 17 15 16 16 32 17 21 18 31 19 30 20 23 21 22 22
REMARK SMILES IDX 27 23 24 24 25 25 28 26 29 27 11 28 26 30 3 32 2 33 1 34
REMARK SMILES IDX 33 35 34 36 35 37
REMARK H PARENT 11 29 26 31
REMARK Flexibility Score: inf
ROOT
ATOM      1  C   UNL     1     -34.723  37.133 -41.486  1.00  0.00     0.014 C 
ENDROOT
BRANCH   1   2
ATOM      2  C   UNL     1     -34.465  37.128 -43.025  1.00  0.00     0.042 C 
BRANCH   2   3
ATOM      3  C   UNL     1     -35.801  37.111 -43.730  1.00  0.00     0.045 C 
ATOM      4  O   UNL     1     -36.512  36.072 -43.734  1.00  0.00    -0.550 OA
ATOM      5  O   UNL     1     -36.258  38.255 -44.371  1.00  0.00    -0.550 OA
ENDBRANCH   2   3
BRANCH   2   6
ATOM      6  C   UNL     1     -33.519  36.002 -43.583  1.00  0.00     0.033 C 
ATOM      7  C   UNL     1     -32.039  36.476 -43.763  1.00  0.00     0.119 C 
ATOM      8  C   UNL     1     -33.387  34.656 -42.776  1.00  0.00    -0.017 C 
ATOM      9  C   UNL     1     -31.131  35.421 -43.110  1.00  0.00     0.043 C 
ATOM     10  C   UNL     1     -32.017  34.773 -42.044  1.00  0.00    -0.003 C 
ATOM     11  C   UNL     1     -34.446  34.297 -41.717  1.00  0.00     0.012 C 
ATOM     12  C   UNL     1     -33.394  33.504 -43.850  1.00  0.00     0.013 C 
ATOM     13  C   UNL     1     -31.996  35.708 -40.791  1.00  0.00     0.017 C 
ATOM     14  C   UNL     1     -31.600  33.406 -41.520  1.00  0.00    -0.064 C 
ATOM     15  C   UNL     1     -34.044  33.029 -40.908  1.00  0.00     0.032 C 
ATOM     16  C   UNL     1     -32.547  32.617 -40.913  1.00  0.00    -0.064 C 
ATOM     17  C   UNL     1     -30.149  32.978 -41.679  1.00  0.00     0.032 C 
ATOM     18  C   UNL     1     -32.122  31.395 -40.062  1.00  0.00    -0.008 C 
ATOM     19  C   UNL     1     -29.711  31.894 -40.691  1.00  0.00     0.009 C 
ATOM     20  C   UNL     1     -30.785  30.795 -40.631  1.00  0.00     0.007 C 
ATOM     21  C   UNL     1     -33.214  30.289 -40.122  1.00  0.00     0.014 C 
ATOM     22  C   UNL     1     -32.001  31.939 -38.611  1.00  0.00     0.016 C 
ATOM     23  C   UNL     1     -30.312  29.401 -40.040  1.00  0.00    -0.006 C 
ATOM     24  C   UNL     1     -32.790  29.000 -39.416  1.00  0.00     0.033 C 
ATOM     25  C   UNL     1     -31.521  28.409 -40.054  1.00  0.00     0.120 C 
ATOM     26  C   UNL     1     -29.223  28.802 -40.974  1.00  0.00     0.014 C 
ATOM     27  C   UNL     1     -29.691  29.491 -38.612  1.00  0.00     0.014 C 
BRANCH   7  28
ATOM     28  O   UNL     1     -31.728  36.616 -45.125  1.00  0.00    -0.393 OA
ATOM     29  H   UNL     1     -32.581  36.500 -45.624  1.00  0.00     0.210 HD
ENDBRANCH   7  28
BRANCH  25  30
ATOM     30  O   UNL     1     -31.198  27.210 -39.385  1.00  0.00    -0.393 OA
ATOM     31  H   UNL     1     -32.039  26.689 -39.293  1.00  0.00     0.210 HD
ENDBRANCH  25  30
ENDBRANCH   2   6
ENDBRANCH   1   2
BRANCH   1  32
ATOM     32  C   UNL     1     -35.370  38.425 -40.937  1.00  0.00     0.031 C 
BRANCH  32  33
ATOM     33  C   UNL     1     -34.404  39.506 -40.454  1.00  0.00    -0.075 C 
ATOM     34  C   UNL     1     -33.865  39.341 -39.226  1.00  0.00     0.008 C 
BRANCH  33  35
ATOM     35  C   UNL     1     -34.165  40.804 -41.230  1.00  0.00     0.008 C 
ATOM     36  C   UNL     1     -33.872  42.010 -40.320  1.00  0.00     0.012 C 
ATOM     37  C   UNL     1     -35.364  41.089 -42.147  1.00  0.00     0.012 C 
ENDBRANCH  33  35
ENDBRANCH  32  33
ENDBRANCH   1  32
TORSDOF 8
ENDMDL
MODEL 4
REMARK VINA RESULT:    -8.373      2.472      9.078
REMARK INTER + INTRA:         -13.013
REMARK INTER:                 -12.176
REMARK INTRA:                  -0.836
REMARK UNBOUND:                -1.213
REMARK SMILES C=C(CC[C@H](C(=O)[O-])[C@H]1[C@H](O)C[C@]2(C)C3=C(CC[C@@]12C)[C@@]1(C)CC[C@H](O)C(C)(C)[C@@H]1CC3)C(C)C
REMARK SMILES IDX 4 1 5 2 6 3 7 4 8 5 9 6 10 7 19 8 12 9 13 10 18 11 20 12
REMARK SMILES IDX 14 13 15 14 17 15 16 16 32 17 21 18 31 19 30 20 23 21 22 22
REMARK SMILES IDX 27 23 24 24 25 25 28 26 29 27 11 28 26 30 3 32 2 33 1 34
REMARK SMILES IDX 33 35 34 36 35 37
REMARK H PARENT 11 29 26 31
REMARK Flexibility Score: inf
ROOT
ATOM      1  C   UNL     1     -33.509  36.174 -44.833  1.00  0.00     0.014 C 
ENDROOT
BRANCH   1   2
ATOM      2  C   UNL     1     -33.749  34.830 -44.077  1.00  0.00     0.042 C 
BRANCH   2   3
ATOM      3  C   UNL     1     -35.228  34.523 -44.114  1.00  0.00     0.045 C 
ATOM      4  O   UNL     1     -36.057  35.284 -43.547  1.00  0.00    -0.550 OA
ATOM      5  O   UNL     1     -35.684  33.399 -44.789  1.00  0.00    -0.550 OA
ENDBRANCH   2   3
BRANCH   2   6
ATOM      6  C   UNL     1     -33.190  34.730 -42.610  1.00  0.00     0.033 C 
ATOM      7  C   UNL     1     -34.316  34.670 -41.527  1.00  0.00     0.119 C 
ATOM      8  C   UNL     1     -32.248  33.524 -42.239  1.00  0.00    -0.017 C 
ATOM      9  C   UNL     1     -33.992  33.501 -40.583  1.00  0.00     0.043 C 
ATOM     10  C   UNL     1     -33.161  32.545 -41.443  1.00  0.00    -0.003 C 
ATOM     11  C   UNL     1     -31.573  32.713 -43.362  1.00  0.00     0.012 C 
ATOM     12  C   UNL     1     -31.100  34.128 -41.348  1.00  0.00     0.013 C 
ATOM     13  C   UNL     1     -34.162  31.703 -42.300  1.00  0.00     0.017 C 
ATOM     14  C   UNL     1     -32.302  31.517 -40.722  1.00  0.00    -0.064 C 
ATOM     15  C   UNL     1     -30.835  31.461 -42.804  1.00  0.00     0.032 C 
ATOM     16  C   UNL     1     -31.249  30.950 -41.397  1.00  0.00    -0.064 C 
ATOM     17  C   UNL     1     -32.655  31.151 -39.288  1.00  0.00     0.032 C 
ATOM     18  C   UNL     1     -30.568  29.668 -40.856  1.00  0.00    -0.008 C 
ATOM     19  C   UNL     1     -32.119  29.787 -38.847  1.00  0.00     0.009 C 
ATOM     20  C   UNL     1     -30.652  29.650 -39.286  1.00  0.00     0.007 C 
ATOM     21  C   UNL     1     -29.066  29.642 -41.262  1.00  0.00     0.014 C 
ATOM     22  C   UNL     1     -31.320  28.493 -41.541  1.00  0.00     0.016 C 
ATOM     23  C   UNL     1     -29.808  28.537 -38.532  1.00  0.00    -0.006 C 
ATOM     24  C   UNL     1     -28.305  28.471 -40.637  1.00  0.00     0.033 C 
ATOM     25  C   UNL     1     -28.351  28.536 -39.101  1.00  0.00     0.120 C 
ATOM     26  C   UNL     1     -29.708  28.914 -37.028  1.00  0.00     0.014 C 
ATOM     27  C   UNL     1     -30.428  27.108 -38.606  1.00  0.00     0.014 C 
BRANCH   7  28
ATOM     28  O   UNL     1     -34.377  35.876 -40.810  1.00  0.00    -0.393 OA
ATOM     29  H   UNL     1     -33.472  36.020 -40.421  1.00  0.00     0.210 HD
ENDBRANCH   7  28
BRANCH  25  30
ATOM     30  O   UNL     1     -27.609  27.455 -38.583  1.00  0.00    -0.393 OA
ATOM     31  H   UNL     1     -28.140  27.062 -37.841  1.00  0.00     0.210 HD
ENDBRANCH  25  30
ENDBRANCH   2   6
ENDBRANCH   1   2
BRANCH   1  32
ATOM     32  C   UNL     1     -33.184  37.383 -43.926  1.00  0.00     0.031 C 
BRANCH  32  33
ATOM     33  C   UNL     1     -34.360  38.296 -43.578  1.00  0.00    -0.075 C 
ATOM     34  C   UNL     1     -35.266  38.525 -44.554  1.00  0.00     0.008 C 
BRANCH  33  35
ATOM     35  C   UNL     1     -34.448  39.058 -42.253  1.00  0.00     0.008 C 
ATOM     36  C   UNL     1     -35.852  39.021 -41.624  1.00  0.00     0.012 C 
ATOM     37  C   UNL     1     -33.976  40.506 -42.454  1.00  0.00     0.012 C 
ENDBRANCH  33  35
ENDBRANCH  32  33
ENDBRANCH   1  32
TORSDOF 8
ENDMDL
MODEL 5
REMARK VINA RESULT:    -8.240      2.242      8.727
REMARK INTER + INTRA:         -12.825
REMARK INTER:                 -12.198
REMARK INTRA:                  -0.628
REMARK UNBOUND:                -1.213
REMARK SMILES C=C(CC[C@H](C(=O)[O-])[C@H]1[C@H](O)C[C@]2(C)C3=C(CC[C@@]12C)[C@@]1(C)CC[C@H](O)C(C)(C)[C@@H]1CC3)C(C)C
REMARK SMILES IDX 4 1 5 2 6 3 7 4 8 5 9 6 10 7 19 8 12 9 13 10 18 11 20 12
REMARK SMILES IDX 14 13 15 14 17 15 16 16 32 17 21 18 31 19 30 20 23 21 22 22
REMARK SMILES IDX 27 23 24 24 25 25 28 26 29 27 11 28 26 30 3 32 2 33 1 34
REMARK SMILES IDX 33 35 34 36 35 37
REMARK H PARENT 11 29 26 31
REMARK Flexibility Score: inf
ROOT
ATOM      1  C   UNL     1     -35.010  38.090 -40.845  1.00  0.00     0.014 C 
ENDROOT
BRANCH   1   2
ATOM      2  C   UNL     1     -34.211  37.694 -42.126  1.00  0.00     0.042 C 
BRANCH   2   3
ATOM      3  C   UNL     1     -34.386  38.790 -43.151  1.00  0.00     0.045 C 
ATOM      4  O   UNL     1     -33.457  39.608 -43.383  1.00  0.00    -0.550 OA
ATOM      5  O   UNL     1     -35.577  38.892 -43.856  1.00  0.00    -0.550 OA
ENDBRANCH   2   3
BRANCH   2   6
ATOM      6  C   UNL     1     -34.523  36.284 -42.750  1.00  0.00     0.033 C 
ATOM      7  C   UNL     1     -34.022  36.141 -44.225  1.00  0.00     0.119 C 
ATOM      8  C   UNL     1     -33.961  34.998 -42.036  1.00  0.00    -0.017 C 
ATOM      9  C   UNL     1     -33.243  34.819 -44.324  1.00  0.00     0.043 C 
ATOM     10  C   UNL     1     -32.737  34.575 -42.901  1.00  0.00    -0.003 C 
ATOM     11  C   UNL     1     -33.482  35.089 -40.574  1.00  0.00     0.012 C 
ATOM     12  C   UNL     1     -35.121  33.935 -42.081  1.00  0.00     0.013 C 
ATOM     13  C   UNL     1     -31.444  35.435 -42.714  1.00  0.00     0.017 C 
ATOM     14  C   UNL     1     -32.320  33.157 -42.537  1.00  0.00    -0.064 C 
ATOM     15  C   UNL     1     -32.798  33.769 -40.111  1.00  0.00     0.032 C 
ATOM     16  C   UNL     1     -32.276  32.805 -41.210  1.00  0.00    -0.064 C 
ATOM     17  C   UNL     1     -31.957  32.195 -43.658  1.00  0.00     0.032 C 
ATOM     18  C   UNL     1     -31.536  31.519 -40.763  1.00  0.00    -0.008 C 
ATOM     19  C   UNL     1     -31.067  31.033 -43.213  1.00  0.00     0.009 C 
ATOM     20  C   UNL     1     -31.618  30.441 -41.905  1.00  0.00     0.007 C 
ATOM     21  C   UNL     1     -32.204  30.927 -39.489  1.00  0.00     0.014 C 
ATOM     22  C   UNL     1     -30.089  31.981 -40.434  1.00  0.00     0.016 C 
ATOM     23  C   UNL     1     -31.123  28.976 -41.548  1.00  0.00    -0.006 C 
ATOM     24  C   UNL     1     -31.607  29.579 -39.080  1.00  0.00     0.033 C 
ATOM     25  C   UNL     1     -31.776  28.536 -40.197  1.00  0.00     0.120 C 
ATOM     26  C   UNL     1     -31.632  27.993 -42.640  1.00  0.00     0.014 C 
ATOM     27  C   UNL     1     -29.571  28.825 -41.484  1.00  0.00     0.014 C 
BRANCH   7  28
ATOM     28  O   UNL     1     -35.106  36.139 -45.117  1.00  0.00    -0.393 OA
ATOM     29  H   UNL     1     -34.876  36.780 -45.844  1.00  0.00     0.210 HD
ENDBRANCH   7  28
BRANCH  25  30
ATOM     30  O   UNL     1     -31.239  27.310 -39.753  1.00  0.00    -0.393 OA
ATOM     31  H   UNL     1     -30.354  27.200 -40.192  1.00  0.00     0.210 HD
ENDBRANCH  25  30
ENDBRANCH   2   6
ENDBRANCH   1   2
BRANCH   1  32
ATOM     32  C   UNL     1     -35.460  39.568 -40.788  1.00  0.00     0.031 C 
BRANCH  32  33
ATOM     33  C   UNL     1     -34.461  40.550 -40.176  1.00  0.00    -0.075 C 
ATOM     34  C   UNL     1     -33.679  40.085 -39.177  1.00  0.00     0.008 C 
BRANCH  33  35
ATOM     35  C   UNL     1     -34.437  42.037 -40.543  1.00  0.00     0.008 C 
ATOM     36  C   UNL     1     -34.991  42.323 -41.949  1.00  0.00     0.012 C 
ATOM     37  C   UNL     1     -33.009  42.584 -40.394  1.00  0.00     0.012 C 
ENDBRANCH  33  35
ENDBRANCH  32  33
ENDBRANCH   1  32
TORSDOF 8
ENDMDL
MODEL 6
REMARK VINA RESULT:    -8.139      1.689      2.386
REMARK INTER + INTRA:         -12.683
REMARK INTER:                 -11.363
REMARK INTRA:                  -1.320
REMARK UNBOUND:                -1.213
REMARK SMILES C=C(CC[C@H](C(=O)[O-])[C@H]1[C@H](O)C[C@]2(C)C3=C(CC[C@@]12C)[C@@]1(C)CC[C@H](O)C(C)(C)[C@@H]1CC3)C(C)C
REMARK SMILES IDX 4 1 5 2 6 3 7 4 8 5 9 6 10 7 19 8 12 9 13 10 18 11 20 12
REMARK SMILES IDX 14 13 15 14 17 15 16 16 32 17 21 18 31 19 30 20 23 21 22 22
REMARK SMILES IDX 27 23 24 24 25 25 28 26 29 27 11 28 26 30 3 32 2 33 1 34
REMARK SMILES IDX 33 35 34 36 35 37
REMARK H PARENT 11 29 26 31
REMARK Flexibility Score: inf
ROOT
ATOM      1  C   UNL     1     -32.274  30.175 -39.791  1.00  0.00     0.014 C 
ENDROOT
BRANCH   1   2
ATOM      2  C   UNL     1     -32.331  30.913 -41.166  1.00  0.00     0.042 C 
BRANCH   2   3
ATOM      3  C   UNL     1     -31.864  29.956 -42.237  1.00  0.00     0.045 C 
ATOM      4  O   UNL     1     -32.544  29.779 -43.282  1.00  0.00    -0.550 OA
ATOM      5  O   UNL     1     -30.667  29.271 -42.077  1.00  0.00    -0.550 OA
ENDBRANCH   2   3
BRANCH   2   6
ATOM      6  C   UNL     1     -31.569  32.286 -41.266  1.00  0.00     0.033 C 
ATOM      7  C   UNL     1     -30.740  32.433 -42.584  1.00  0.00     0.119 C 
ATOM      8  C   UNL     1     -32.402  33.621 -41.196  1.00  0.00    -0.017 C 
ATOM      9  C   UNL     1     -31.079  33.801 -43.197  1.00  0.00     0.043 C 
ATOM     10  C   UNL     1     -32.484  34.108 -42.673  1.00  0.00    -0.003 C 
ATOM     11  C   UNL     1     -33.838  33.592 -40.640  1.00  0.00     0.012 C 
ATOM     12  C   UNL     1     -31.571  34.603 -40.288  1.00  0.00     0.013 C 
ATOM     13  C   UNL     1     -33.497  33.340 -43.585  1.00  0.00     0.017 C 
ATOM     14  C   UNL     1     -32.946  35.557 -42.708  1.00  0.00    -0.064 C 
ATOM     15  C   UNL     1     -34.553  34.964 -40.822  1.00  0.00     0.032 C 
ATOM     16  C   UNL     1     -33.978  35.939 -41.885  1.00  0.00    -0.064 C 
ATOM     17  C   UNL     1     -32.255  36.519 -43.663  1.00  0.00     0.032 C 
ATOM     18  C   UNL     1     -34.716  37.280 -42.122  1.00  0.00    -0.008 C 
ATOM     19  C   UNL     1     -33.094  37.747 -44.021  1.00  0.00     0.009 C 
ATOM     20  C   UNL     1     -33.721  38.327 -42.742  1.00  0.00     0.007 C 
ATOM     21  C   UNL     1     -35.244  37.851 -40.774  1.00  0.00     0.014 C 
ATOM     22  C   UNL     1     -35.913  36.923 -43.047  1.00  0.00     0.016 C 
ATOM     23  C   UNL     1     -34.224  39.829 -42.841  1.00  0.00    -0.006 C 
ATOM     24  C   UNL     1     -35.858  39.244 -40.922  1.00  0.00     0.033 C 
ATOM     25  C   UNL     1     -34.828  40.251 -41.461  1.00  0.00     0.120 C 
ATOM     26  C   UNL     1     -33.002  40.753 -43.103  1.00  0.00     0.014 C 
ATOM     27  C   UNL     1     -35.247  40.084 -43.990  1.00  0.00     0.014 C 
BRANCH   7  28
ATOM     28  O   UNL     1     -29.365  32.343 -42.315  1.00  0.00    -0.393 OA
ATOM     29  H   UNL     1     -29.240  32.639 -41.373  1.00  0.00     0.210 HD
ENDBRANCH   7  28
BRANCH  25  30
ATOM     30  O   UNL     1     -35.439  41.519 -41.546  1.00  0.00    -0.393 OA
ATOM     31  H   UNL     1     -34.715  42.188 -41.670  1.00  0.00     0.210 HD
ENDBRANCH  25  30
ENDBRANCH   2   6
ENDBRANCH   1   2
BRANCH   1  32
ATOM     32  C   UNL     1     -31.189  30.691 -38.818  1.00  0.00     0.031 C 
BRANCH  32  33
ATOM     33  C   UNL     1     -29.963  29.794 -38.646  1.00  0.00    -0.075 C 
ATOM     34  C   UNL     1     -28.815  30.209 -39.226  1.00  0.00     0.008 C 
BRANCH  33  35
ATOM     35  C   UNL     1     -30.038  28.411 -37.993  1.00  0.00     0.008 C 
ATOM     36  C   UNL     1     -28.997  28.210 -36.878  1.00  0.00     0.012 C 
ATOM     37  C   UNL     1     -29.907  27.322 -39.068  1.00  0.00     0.012 C 
ENDBRANCH  33  35
ENDBRANCH  32  33
ENDBRANCH   1  32
TORSDOF 8
ENDMDL
MODEL 7
REMARK VINA RESULT:    -7.978      2.261      8.912
REMARK INTER + INTRA:         -12.455
REMARK INTER:                 -11.854
REMARK INTRA:                  -0.602
REMARK UNBOUND:                -1.213
REMARK SMILES C=C(CC[C@H](C(=O)[O-])[C@H]1[C@H](O)C[C@]2(C)C3=C(CC[C@@]12C)[C@@]1(C)CC[C@H](O)C(C)(C)[C@@H]1CC3)C(C)C
REMARK SMILES IDX 4 1 5 2 6 3 7 4 8 5 9 6 10 7 19 8 12 9 13 10 18 11 20 12
REMARK SMILES IDX 14 13 15 14 17 15 16 16 32 17 21 18 31 19 30 20 23 21 22 22
REMARK SMILES IDX 27 23 24 24 25 25 28 26 29 27 11 28 26 30 3 32 2 33 1 34
REMARK SMILES IDX 33 35 34 36 35 37
REMARK H PARENT 11 29 26 31
REMARK Flexibility Score: inf
ROOT
ATOM      1  C   UNL     1     -34.204  38.314 -42.347  1.00  0.00     0.014 C 
ENDROOT
BRANCH   1   2
ATOM      2  C   UNL     1     -33.597  36.968 -42.852  1.00  0.00     0.042 C 
BRANCH   2   3
ATOM      3  C   UNL     1     -33.607  36.980 -44.363  1.00  0.00     0.045 C 
ATOM      4  O   UNL     1     -32.591  36.625 -45.015  1.00  0.00    -0.550 OA
ATOM      5  O   UNL     1     -34.752  37.374 -45.042  1.00  0.00    -0.550 OA
ENDBRANCH   2   3
BRANCH   2   6
ATOM      6  C   UNL     1     -34.242  35.646 -42.295  1.00  0.00     0.033 C 
ATOM      7  C   UNL     1     -34.833  34.730 -43.418  1.00  0.00     0.119 C 
ATOM      8  C   UNL     1     -33.347  34.667 -41.445  1.00  0.00    -0.017 C 
ATOM      9  C   UNL     1     -34.310  33.305 -43.178  1.00  0.00     0.043 C 
ATOM     10  C   UNL     1     -32.993  33.510 -42.426  1.00  0.00    -0.003 C 
ATOM     11  C   UNL     1     -32.026  35.177 -40.839  1.00  0.00     0.012 C 
ATOM     12  C   UNL     1     -34.250  34.181 -40.250  1.00  0.00     0.013 C 
ATOM     13  C   UNL     1     -31.897  33.837 -43.492  1.00  0.00     0.017 C 
ATOM     14  C   UNL     1     -32.439  32.328 -41.644  1.00  0.00    -0.064 C 
ATOM     15  C   UNL     1     -31.205  34.021 -40.195  1.00  0.00     0.032 C 
ATOM     16  C   UNL     1     -31.533  32.570 -40.640  1.00  0.00    -0.064 C 
ATOM     17  C   UNL     1     -32.901  30.927 -42.017  1.00  0.00     0.032 C 
ATOM     18  C   UNL     1     -30.682  31.416 -40.056  1.00  0.00    -0.008 C 
ATOM     19  C   UNL     1     -31.937  29.821 -41.584  1.00  0.00     0.009 C 
ATOM     20  C   UNL     1     -31.492  30.071 -40.133  1.00  0.00     0.007 C 
ATOM     21  C   UNL     1     -30.346  31.695 -38.562  1.00  0.00     0.014 C 
ATOM     22  C   UNL     1     -29.375  31.414 -40.897  1.00  0.00     0.016 C 
ATOM     23  C   UNL     1     -30.884  28.818 -39.373  1.00  0.00    -0.006 C 
ATOM     24  C   UNL     1     -29.627  30.524 -37.889  1.00  0.00     0.033 C 
ATOM     25  C   UNL     1     -30.488  29.251 -37.923  1.00  0.00     0.120 C 
ATOM     26  C   UNL     1     -31.985  27.729 -39.237  1.00  0.00     0.014 C 
ATOM     27  C   UNL     1     -29.672  28.158 -40.100  1.00  0.00     0.014 C 
BRANCH   7  28
ATOM     28  O   UNL     1     -36.236  34.751 -43.383  1.00  0.00    -0.393 OA
ATOM     29  H   UNL     1     -36.541  33.861 -43.708  1.00  0.00     0.210 HD
ENDBRANCH   7  28
BRANCH  25  30
ATOM     30  O   UNL     1     -29.791  28.219 -37.262  1.00  0.00    -0.393 OA
ATOM     31  H   UNL     1     -29.557  28.554 -36.356  1.00  0.00     0.210 HD
ENDBRANCH  25  30
ENDBRANCH   2   6
ENDBRANCH   1   2
BRANCH   1  32
ATOM     32  C   UNL     1     -33.500  39.586 -42.875  1.00  0.00     0.031 C 
BRANCH  32  33
ATOM     33  C   UNL     1     -34.371  40.836 -42.989  1.00  0.00    -0.075 C 
ATOM     34  C   UNL     1     -34.625  41.294 -44.235  1.00  0.00     0.008 C 
BRANCH  33  35
ATOM     35  C   UNL     1     -34.813  41.647 -41.768  1.00  0.00     0.008 C 
ATOM     36  C   UNL     1     -35.720  42.838 -42.126  1.00  0.00     0.012 C 
ATOM     37  C   UNL     1     -33.579  42.116 -40.981  1.00  0.00     0.012 C 
ENDBRANCH  33  35
ENDBRANCH  32  33
ENDBRANCH   1  32
TORSDOF 8
ENDMDL
