MODEL 1
REMARK VINA RESULT:    -2.915      0.000      0.000
REMARK INTER + INTRA:          -3.987
REMARK INTER:                  -4.108
REMARK INTRA:                   0.121
REMARK UNBOUND:                 0.121
REMARK SMILES CC1=CCC(=C(C)C)C(=O)CC(C)=CCC1
REMARK SMILES IDX 12 1 14 2 13 3 15 4 16 5 2 6 1 7 3 8 11 10 9 11 10 12 5 13
REMARK SMILES IDX 6 14 7 15 8 16 4 17
REMARK H PARENT
REMARK Flexibility Score: 60.00
ROOT
ATOM      1  C   UNL     1     181.290 178.392 235.214  1.00  0.00    -0.070 C 
ATOM      2  C   UNL     1     181.084 177.244 234.519  1.00  0.00    -0.027 C 
ATOM      3  C   UNL     1     182.636 178.564 235.879  1.00  0.00     0.039 C 
ENDROOT
BRANCH   2   4
ATOM      4  C   UNL     1     179.863 176.908 233.695  1.00  0.00     0.032 C 
BRANCH   4   5
ATOM      5  C   UNL     1     178.645 176.523 234.547  1.00  0.00     0.034 C 
BRANCH   5   6
ATOM      6  C   UNL     1     177.430 177.319 234.112  1.00  0.00    -0.077 C 
ATOM      7  C   UNL     1     177.018 177.258 232.663  1.00  0.00     0.039 C 
ATOM      8  C   UNL     1     176.742 178.142 234.938  1.00  0.00    -0.023 CG0
ATOM      9  G   UNL     1     176.996 178.321 236.416  1.00  0.00     0.000 G0
ENDBRANCH   5   6
ENDBRANCH   4   5
ENDBRANCH   2   4
BRANCH   1  10
ATOM     10  C   UNL     1     180.235 179.471 235.431  1.00  0.00     0.111 C 
BRANCH  10  11
ATOM     11  C   UNL     1     179.416 179.286 236.683  1.00  0.00     0.163 C 
ATOM     12  O   UNL     1     180.013 178.871 237.715  1.00  0.00    -0.294 OA
BRANCH  11  13
ATOM     13  C   UNL     1     177.934 179.516 236.726  1.00  0.00    -0.002 C 
ATOM     14  C   UNL     1     177.426 180.764 236.969  1.00  0.00    -0.069 C 
ATOM     15  C   UNL     1     175.940 181.042 236.921  1.00  0.00     0.039 C 
ATOM     16  C   UNL     1     178.318 181.927 237.349  1.00  0.00     0.039 C 
BRANCH  13  17
ATOM     17  C   UNL     1     177.000 178.341 236.437  1.00  0.00     0.066 CG0
ATOM     18  G   UNL     1     176.767 178.149 234.957  1.00  0.00     0.000 G0
ENDBRANCH  13  17
ENDBRANCH  11  13
ENDBRANCH  10  11
ENDBRANCH   1  10
TORSDOF 0
ENDMDL
MODEL 2
REMARK VINA RESULT:    -2.826     14.794     15.552
REMARK INTER + INTRA:          -3.861
REMARK INTER:                  -4.129
REMARK INTRA:                   0.268
REMARK UNBOUND:                 0.121
REMARK SMILES CC1=CCC(=C(C)C)C(=O)CC(C)=CCC1
REMARK SMILES IDX 12 1 14 2 13 3 15 4 16 5 2 6 1 7 3 8 11 10 9 11 10 12 5 13
REMARK SMILES IDX 6 14 7 15 8 16 4 17
REMARK H PARENT
REMARK Flexibility Score: 60.00
ROOT
ATOM      1  C   UNL     1     182.470 186.893 224.650  1.00  0.00    -0.070 C 
ATOM      2  C   UNL     1     181.511 186.228 223.956  1.00  0.00    -0.027 C 
ATOM      3  C   UNL     1     183.882 186.819 224.120  1.00  0.00     0.039 C 
ENDROOT
BRANCH   2   4
ATOM      4  C   UNL     1     180.028 186.247 224.243  1.00  0.00     0.032 C 
BRANCH   4   5
ATOM      5  C   UNL     1     179.223 187.058 223.217  1.00  0.00     0.034 C 
BRANCH   5   6
ATOM      6  C   UNL     1     178.762 188.367 223.829  1.00  0.00    -0.077 C 
ATOM      7  C   UNL     1     177.360 188.444 224.375  1.00  0.00     0.039 C 
ATOM      8  C   UNL     1     179.516 189.491 223.840  1.00  0.00    -0.023 CG0
ATOM      9  G   UNL     1     180.942 189.602 223.354  1.00  0.00     0.000 G0
ENDBRANCH   5   6
ENDBRANCH   4   5
ENDBRANCH   2   4
BRANCH   1  10
ATOM     10  C   UNL     1     182.229 187.635 225.960  1.00  0.00     0.111 C 
BRANCH  10  11
ATOM     11  C   UNL     1     181.734 189.048 225.783  1.00  0.00     0.163 C 
ATOM     12  O   UNL     1     181.085 189.563 226.735  1.00  0.00    -0.294 OA
BRANCH  11  13
ATOM     13  C   UNL     1     181.930 189.824 224.514  1.00  0.00    -0.002 C 
ATOM     14  C   UNL     1     182.997 190.669 224.367  1.00  0.00    -0.069 C 
ATOM     15  C   UNL     1     183.271 191.387 223.064  1.00  0.00     0.039 C 
ATOM     16  C   UNL     1     183.935 190.973 225.516  1.00  0.00     0.039 C 
BRANCH  13  17
ATOM     17  C   UNL     1     180.947 189.609 223.363  1.00  0.00     0.066 CG0
ATOM     18  G   UNL     1     179.519 189.503 223.845  1.00  0.00     0.000 G0
ENDBRANCH  13  17
ENDBRANCH  11  13
ENDBRANCH  10  11
ENDBRANCH   1  10
TORSDOF 0
ENDMDL
MODEL 3
REMARK VINA RESULT:    -2.821     14.382     15.867
REMARK INTER + INTRA:          -3.853
REMARK INTER:                  -4.065
REMARK INTRA:                   0.212
REMARK UNBOUND:                 0.121
REMARK SMILES CC1=CCC(=C(C)C)C(=O)CC(C)=CCC1
REMARK SMILES IDX 12 1 14 2 13 3 15 4 16 5 2 6 1 7 3 8 11 10 9 11 10 12 5 13
REMARK SMILES IDX 6 14 7 15 8 16 4 17
REMARK H PARENT
REMARK Flexibility Score: 60.00
ROOT
ATOM      1  C   UNL     1     189.607 182.327 223.909  1.00  0.00    -0.070 C 
ATOM      2  C   UNL     1     188.540 181.928 223.170  1.00  0.00    -0.027 C 
ATOM      3  C   UNL     1     190.899 182.586 223.172  1.00  0.00     0.039 C 
ENDROOT
BRANCH   2   4
ATOM      4  C   UNL     1     187.134 181.714 223.677  1.00  0.00     0.032 C 
BRANCH   4   5
ATOM      5  C   UNL     1     186.165 182.832 223.268  1.00  0.00     0.034 C 
BRANCH   5   6
ATOM      6  C   UNL     1     185.857 183.720 224.458  1.00  0.00    -0.077 C 
ATOM      7  C   UNL     1     184.598 183.452 225.242  1.00  0.00     0.039 C 
ATOM      8  C   UNL     1     186.612 184.788 224.807  1.00  0.00    -0.023 CG0
ATOM      9  G   UNL     1     187.908 185.203 224.152  1.00  0.00     0.000 G0
ENDBRANCH   5   6
ENDBRANCH   4   5
ENDBRANCH   2   4
BRANCH   1  10
ATOM     10  C   UNL     1     189.604 182.453 225.429  1.00  0.00     0.111 C 
BRANCH  10  11
ATOM     11  C   UNL     1     189.189 183.813 225.931  1.00  0.00     0.163 C 
ATOM     12  O   UNL     1     188.824 183.904 227.136  1.00  0.00    -0.294 OA
BRANCH  11  13
ATOM     13  C   UNL     1     189.137 185.024 225.047  1.00  0.00    -0.002 C 
ATOM     14  C   UNL     1     190.184 185.907 225.007  1.00  0.00    -0.069 C 
ATOM     15  C   UNL     1     190.199 187.081 224.054  1.00  0.00     0.039 C 
ATOM     16  C   UNL     1     191.363 185.787 225.948  1.00  0.00     0.039 C 
BRANCH  13  17
ATOM     17  C   UNL     1     187.918 185.226 224.148  1.00  0.00     0.066 CG0
ATOM     18  G   UNL     1     186.638 184.774 224.812  1.00  0.00     0.000 G0
ENDBRANCH  13  17
ENDBRANCH  11  13
ENDBRANCH  10  11
ENDBRANCH   1  10
TORSDOF 0
ENDMDL
MODEL 4
REMARK VINA RESULT:    -2.777     15.398     16.368
REMARK INTER + INTRA:          -3.792
REMARK INTER:                  -3.991
REMARK INTRA:                   0.199
REMARK UNBOUND:                 0.121
REMARK SMILES CC1=CCC(=C(C)C)C(=O)CC(C)=CCC1
REMARK SMILES IDX 12 1 14 2 13 3 15 4 16 5 2 6 1 7 3 8 11 10 9 11 10 12 5 13
REMARK SMILES IDX 6 14 7 15 8 16 4 17
REMARK H PARENT
REMARK Flexibility Score: 60.00
ROOT
ATOM      1  C   UNL     1     183.115 189.664 226.794  1.00  0.00    -0.070 C 
ATOM      2  C   UNL     1     181.917 189.036 226.921  1.00  0.00    -0.027 C 
ATOM      3  C   UNL     1     184.267 189.122 227.606  1.00  0.00     0.039 C 
ENDROOT
BRANCH   2   4
ATOM      4  C   UNL     1     180.664 189.340 226.135  1.00  0.00     0.032 C 
BRANCH   4   5
ATOM      5  C   UNL     1     180.386 188.321 225.021  1.00  0.00     0.034 C 
BRANCH   5   6
ATOM      6  C   UNL     1     180.631 188.951 223.663  1.00  0.00    -0.077 C 
ATOM      7  C   UNL     1     179.476 189.628 222.971  1.00  0.00     0.039 C 
ATOM      8  C   UNL     1     181.811 188.869 223.005  1.00  0.00    -0.023 CG0
ATOM      9  G   UNL     1     183.078 188.246 223.541  1.00  0.00     0.000 G0
ENDBRANCH   5   6
ENDBRANCH   4   5
ENDBRANCH   2   4
BRANCH   1  10
ATOM     10  C   UNL     1     183.348 190.916 225.956  1.00  0.00     0.111 C 
BRANCH  10  11
ATOM     11  C   UNL     1     183.603 190.638 224.496  1.00  0.00     0.163 C 
ATOM     12  O   UNL     1     183.321 191.550 223.670  1.00  0.00    -0.294 OA
BRANCH  11  13
ATOM     13  C   UNL     1     184.113 189.318 223.998  1.00  0.00    -0.002 C 
ATOM     14  C   UNL     1     185.455 189.045 223.986  1.00  0.00    -0.069 C 
ATOM     15  C   UNL     1     185.988 187.688 223.582  1.00  0.00     0.039 C 
ATOM     16  C   UNL     1     186.485 190.100 224.330  1.00  0.00     0.039 C 
BRANCH  13  17
ATOM     17  C   UNL     1     183.103 188.259 223.556  1.00  0.00     0.066 CG0
ATOM     18  G   UNL     1     181.842 188.873 222.996  1.00  0.00     0.000 G0
ENDBRANCH  13  17
ENDBRANCH  11  13
ENDBRANCH  10  11
ENDBRANCH   1  10
TORSDOF 0
ENDMDL
MODEL 5
REMARK VINA RESULT:    -2.754     14.771     16.182
REMARK INTER + INTRA:          -3.759
REMARK INTER:                  -3.879
REMARK INTRA:                   0.120
REMARK UNBOUND:                 0.121
REMARK SMILES CC1=CCC(=C(C)C)C(=O)CC(C)=CCC1
REMARK SMILES IDX 12 1 14 2 13 3 15 4 16 5 2 6 1 7 3 8 11 10 9 11 10 12 5 13
REMARK SMILES IDX 6 14 7 15 8 16 4 17
REMARK H PARENT
REMARK Flexibility Score: 60.00
ROOT
ATOM      1  C   UNL     1     191.095 183.046 223.166  1.00  0.00    -0.070 C 
ATOM      2  C   UNL     1     190.322 181.930 223.128  1.00  0.00    -0.027 C 
ATOM      3  C   UNL     1     192.583 182.863 222.980  1.00  0.00     0.039 C 
ENDROOT
BRANCH   2   4
ATOM      4  C   UNL     1     188.814 181.888 223.188  1.00  0.00     0.032 C 
BRANCH   4   5
ATOM      5  C   UNL     1     188.265 181.829 224.620  1.00  0.00     0.034 C 
BRANCH   5   6
ATOM      6  C   UNL     1     187.155 182.847 224.798  1.00  0.00    -0.077 C 
ATOM      7  C   UNL     1     185.859 182.626 224.062  1.00  0.00     0.039 C 
ATOM      8  C   UNL     1     187.294 183.982 225.521  1.00  0.00    -0.023 CG0
ATOM      9  G   UNL     1     188.507 184.367 226.336  1.00  0.00     0.000 G0
ENDBRANCH   5   6
ENDBRANCH   4   5
ENDBRANCH   2   4
BRANCH   1  10
ATOM     10  C   UNL     1     190.572 184.448 223.461  1.00  0.00     0.111 C 
BRANCH  10  11
ATOM     11  C   UNL     1     190.612 184.823 224.921  1.00  0.00     0.163 C 
ATOM     12  O   UNL     1     191.690 184.622 225.547  1.00  0.00    -0.294 OA
BRANCH  11  13
ATOM     13  C   UNL     1     189.418 185.360 225.655  1.00  0.00    -0.002 C 
ATOM     14  C   UNL     1     189.136 186.700 225.648  1.00  0.00    -0.069 C 
ATOM     15  C   UNL     1     187.887 187.254 226.297  1.00  0.00     0.039 C 
ATOM     16  C   UNL     1     190.083 187.709 225.035  1.00  0.00     0.039 C 
BRANCH  13  17
ATOM     17  C   UNL     1     188.488 184.375 226.364  1.00  0.00     0.066 CG0
ATOM     18  G   UNL     1     187.294 184.007 225.515  1.00  0.00     0.000 G0
ENDBRANCH  13  17
ENDBRANCH  11  13
ENDBRANCH  10  11
ENDBRANCH   1  10
TORSDOF 0
ENDMDL
MODEL 6
REMARK VINA RESULT:    -2.717      4.788      7.523
REMARK INTER + INTRA:          -3.707
REMARK INTER:                  -4.223
REMARK INTRA:                   0.515
REMARK UNBOUND:                 0.121
REMARK SMILES CC1=CCC(=C(C)C)C(=O)CC(C)=CCC1
REMARK SMILES IDX 12 1 14 2 13 3 15 4 16 5 2 6 1 7 3 8 11 10 9 11 10 12 5 13
REMARK SMILES IDX 6 14 7 15 8 16 4 17
REMARK H PARENT
REMARK Flexibility Score: 60.00
ROOT
ATOM      1  C   UNL     1     182.793 183.456 240.587  1.00  0.00    -0.070 C 
ATOM      2  C   UNL     1     182.231 184.634 240.964  1.00  0.00    -0.027 C 
ATOM      3  C   UNL     1     184.302 183.396 240.538  1.00  0.00     0.039 C 
ENDROOT
BRANCH   2   4
ATOM      4  C   UNL     1     180.759 184.890 241.180  1.00  0.00     0.032 C 
BRANCH   4   5
ATOM      5  C   UNL     1     180.188 185.969 240.250  1.00  0.00     0.034 C 
BRANCH   5   6
ATOM      6  C   UNL     1     180.802 185.847 238.868  1.00  0.00    -0.077 C 
ATOM      7  C   UNL     1     181.753 186.924 238.412  1.00  0.00     0.039 C 
ATOM      8  C   UNL     1     180.482 184.865 237.994  1.00  0.00    -0.023 CG0
ATOM      9  G   UNL     1     179.565 183.698 238.276  1.00  0.00     0.000 G0
ENDBRANCH   5   6
ENDBRANCH   4   5
ENDBRANCH   2   4
BRANCH   1  10
ATOM     10  C   UNL     1     182.007 182.230 240.138  1.00  0.00     0.111 C 
BRANCH  10  11
ATOM     11  C   UNL     1     181.674 182.219 238.667  1.00  0.00     0.163 C 
ATOM     12  O   UNL     1     182.635 182.155 237.851  1.00  0.00    -0.294 OA
BRANCH  11  13
ATOM     13  C   UNL     1     180.270 182.341 238.152  1.00  0.00    -0.002 C 
ATOM     14  C   UNL     1     179.611 181.252 237.648  1.00  0.00    -0.069 C 
ATOM     15  C   UNL     1     178.164 181.327 237.213  1.00  0.00     0.039 C 
ATOM     16  C   UNL     1     180.307 179.922 237.451  1.00  0.00     0.039 C 
BRANCH  13  17
ATOM     17  C   UNL     1     179.566 183.695 238.251  1.00  0.00     0.066 CG0
ATOM     18  G   UNL     1     180.506 184.847 237.981  1.00  0.00     0.000 G0
ENDBRANCH  13  17
ENDBRANCH  11  13
ENDBRANCH  10  11
ENDBRANCH   1  10
TORSDOF 0
ENDMDL
MODEL 7
REMARK VINA RESULT:    -2.640     14.240     15.230
REMARK INTER + INTRA:          -3.599
REMARK INTER:                  -3.739
REMARK INTRA:                   0.140
REMARK UNBOUND:                 0.121
REMARK SMILES CC1=CCC(=C(C)C)C(=O)CC(C)=CCC1
REMARK SMILES IDX 12 1 14 2 13 3 15 4 16 5 2 6 1 7 3 8 11 10 9 11 10 12 5 13
REMARK SMILES IDX 6 14 7 15 8 16 4 17
REMARK H PARENT
REMARK Flexibility Score: 60.00
ROOT
ATOM      1  C   UNL     1     183.465 190.413 224.214  1.00  0.00    -0.070 C 
ATOM      2  C   UNL     1     184.212 191.024 225.170  1.00  0.00    -0.027 C 
ATOM      3  C   UNL     1     184.176 189.984 222.952  1.00  0.00     0.039 C 
ENDROOT
BRANCH   2   4
ATOM      4  C   UNL     1     183.736 191.442 226.541  1.00  0.00     0.032 C 
BRANCH   4   5
ATOM      5  C   UNL     1     183.652 190.275 227.535  1.00  0.00     0.034 C 
BRANCH   5   6
ATOM      6  C   UNL     1     182.379 190.374 228.353  1.00  0.00    -0.077 C 
ATOM      7  C   UNL     1     182.265 191.486 229.364  1.00  0.00     0.039 C 
ATOM      8  C   UNL     1     181.373 189.472 228.279  1.00  0.00    -0.023 CG0
ATOM      9  G   UNL     1     181.303 188.305 227.321  1.00  0.00     0.000 G0
ENDBRANCH   5   6
ENDBRANCH   4   5
ENDBRANCH   2   4
BRANCH   1  10
ATOM     10  C   UNL     1     181.957 190.207 224.299  1.00  0.00     0.111 C 
BRANCH  10  11
ATOM     11  C   UNL     1     181.551 188.842 224.794  1.00  0.00     0.163 C 
ATOM     12  O   UNL     1     181.950 187.840 224.137  1.00  0.00    -0.294 OA
BRANCH  11  13
ATOM     13  C   UNL     1     180.657 188.641 225.982  1.00  0.00    -0.002 C 
ATOM     14  C   UNL     1     179.296 188.728 225.858  1.00  0.00    -0.069 C 
ATOM     15  C   UNL     1     178.370 188.434 227.017  1.00  0.00     0.039 C 
ATOM     16  C   UNL     1     178.642 189.170 224.566  1.00  0.00     0.039 C 
BRANCH  13  17
ATOM     17  C   UNL     1     181.292 188.282 227.326  1.00  0.00     0.066 CG0
ATOM     18  G   UNL     1     181.348 189.465 228.264  1.00  0.00     0.000 G0
ENDBRANCH  13  17
ENDBRANCH  11  13
ENDBRANCH  10  11
ENDBRANCH   1  10
TORSDOF 0
ENDMDL
MODEL 8
REMARK VINA RESULT:    -2.597     17.123     18.462
REMARK INTER + INTRA:          -3.538
REMARK INTER:                  -3.659
REMARK INTRA:                   0.121
REMARK UNBOUND:                 0.121
REMARK SMILES CC1=CCC(=C(C)C)C(=O)CC(C)=CCC1
REMARK SMILES IDX 12 1 14 2 13 3 15 4 16 5 2 6 1 7 3 8 11 10 9 11 10 12 5 13
REMARK SMILES IDX 6 14 7 15 8 16 4 17
REMARK H PARENT
REMARK Flexibility Score: 60.00
ROOT
ATOM      1  C   UNL     1     194.357 183.985 223.701  1.00  0.00    -0.070 C 
ATOM      2  C   UNL     1     193.498 183.019 223.284  1.00  0.00    -0.027 C 
ATOM      3  C   UNL     1     195.831 183.654 223.681  1.00  0.00     0.039 C 
ENDROOT
BRANCH   2   4
ATOM      4  C   UNL     1     192.004 183.163 223.124  1.00  0.00     0.032 C 
BRANCH   4   5
ATOM      5  C   UNL     1     191.243 183.102 224.456  1.00  0.00     0.034 C 
BRANCH   5   6
ATOM      6  C   UNL     1     190.273 184.263 224.559  1.00  0.00    -0.077 C 
ATOM      7  C   UNL     1     189.230 184.420 223.483  1.00  0.00     0.039 C 
ATOM      8  C   UNL     1     190.344 185.210 225.524  1.00  0.00    -0.023 CG0
ATOM      9  G   UNL     1     191.307 185.214 226.688  1.00  0.00     0.000 G0
ENDBRANCH   5   6
ENDBRANCH   4   5
ENDBRANCH   2   4
BRANCH   1  10
ATOM     10  C   UNL     1     193.928 185.338 224.257  1.00  0.00     0.111 C 
BRANCH  10  11
ATOM     11  C   UNL     1     193.743 185.356 225.754  1.00  0.00     0.163 C 
ATOM     12  O   UNL     1     194.583 184.726 226.454  1.00  0.00    -0.294 OA
BRANCH  11  13
ATOM     13  C   UNL     1     192.581 186.032 226.420  1.00  0.00    -0.002 C 
ATOM     14  C   UNL     1     192.631 187.364 226.733  1.00  0.00    -0.069 C 
ATOM     15  C   UNL     1     191.438 188.090 227.315  1.00  0.00     0.039 C 
ATOM     16  C   UNL     1     193.897 188.175 226.562  1.00  0.00     0.039 C 
BRANCH  13  17
ATOM     17  C   UNL     1     191.315 185.218 226.692  1.00  0.00     0.066 CG0
ATOM     18  G   UNL     1     190.374 185.216 225.510  1.00  0.00     0.000 G0
ENDBRANCH  13  17
ENDBRANCH  11  13
ENDBRANCH  10  11
ENDBRANCH   1  10
TORSDOF 0
ENDMDL
MODEL 9
REMARK VINA RESULT:    -2.489     15.558     17.145
REMARK INTER + INTRA:          -3.387
REMARK INTER:                  -3.729
REMARK INTRA:                   0.343
REMARK UNBOUND:                 0.121
REMARK SMILES CC1=CCC(=C(C)C)C(=O)CC(C)=CCC1
REMARK SMILES IDX 12 1 14 2 13 3 15 4 16 5 2 6 1 7 3 8 11 10 9 11 10 12 5 13
REMARK SMILES IDX 6 14 7 15 8 16 4 17
REMARK H PARENT
REMARK Flexibility Score: 60.00
ROOT
ATOM      1  C   UNL     1     191.432 187.738 240.430  1.00  0.00    -0.070 C 
ATOM      2  C   UNL     1     190.874 188.630 241.289  1.00  0.00    -0.027 C 
ATOM      3  C   UNL     1     192.842 187.286 240.724  1.00  0.00     0.039 C 
ENDROOT
BRANCH   2   4
ATOM      4  C   UNL     1     189.452 189.137 241.248  1.00  0.00     0.032 C 
BRANCH   4   5
ATOM      5  C   UNL     1     189.352 190.636 240.931  1.00  0.00     0.034 C 
BRANCH   5   6
ATOM      6  C   UNL     1     188.864 190.838 239.509  1.00  0.00    -0.077 C 
ATOM      7  C   UNL     1     187.380 190.956 239.274  1.00  0.00     0.039 C 
ATOM      8  C   UNL     1     189.684 190.841 238.432  1.00  0.00    -0.023 CG0
ATOM      9  G   UNL     1     191.192 190.751 238.472  1.00  0.00     0.000 G0
ENDBRANCH   5   6
ENDBRANCH   4   5
ENDBRANCH   2   4
BRANCH   1  10
ATOM     10  C   UNL     1     190.762 187.233 239.157  1.00  0.00     0.111 C 
BRANCH  10  11
ATOM     11  C   UNL     1     190.781 188.222 238.018  1.00  0.00     0.163 C 
ATOM     12  O   UNL     1     190.010 188.005 237.043  1.00  0.00    -0.294 OA
BRANCH  11  13
ATOM     13  C   UNL     1     191.713 189.397 237.980  1.00  0.00    -0.002 C 
ATOM     14  C   UNL     1     192.983 189.270 237.485  1.00  0.00    -0.069 C 
ATOM     15  C   UNL     1     193.906 190.459 237.345  1.00  0.00     0.039 C 
ATOM     16  C   UNL     1     193.553 187.923 237.094  1.00  0.00     0.039 C 
BRANCH  13  17
ATOM     17  C   UNL     1     191.198 190.757 238.453  1.00  0.00     0.066 CG0
ATOM     18  G   UNL     1     189.689 190.834 238.435  1.00  0.00     0.000 G0
ENDBRANCH  13  17
ENDBRANCH  11  13
ENDBRANCH  10  11
ENDBRANCH   1  10
TORSDOF 0
ENDMDL
