MODEL 1
REMARK VINA RESULT:    -3.879      0.000      0.000
REMARK INTER + INTRA:          -5.033
REMARK INTER:                  -4.786
REMARK INTRA:                  -0.247
REMARK UNBOUND:                -0.247
REMARK SMILES CCCCC(=O)c1ccccc1
REMARK SMILES IDX 4 1 3 2 2 3 1 4 5 5 6 6 7 7 8 8 12 9 9 10 11 11 10 12
REMARK H PARENT
REMARK Flexibility Score: inf
ROOT
ATOM      1  C   UNL     1     155.472 141.992 148.104  1.00  0.00     0.081 C 
ENDROOT
BRANCH   1   2
ATOM      2  C   UNL     1     156.911 141.623 148.499  1.00  0.00     0.008 C 
BRANCH   2   3
ATOM      3  C   UNL     1     157.842 141.664 147.281  1.00  0.00    -0.003 C 
ATOM      4  C   UNL     1     157.210 142.439 146.129  1.00  0.00     0.004 C 
ENDBRANCH   2   3
ENDBRANCH   1   2
BRANCH   1   5
ATOM      5  C   UNL     1     154.653 142.508 149.264  1.00  0.00     0.162 C 
ATOM      6  O   UNL     1     155.121 143.424 149.996  1.00  0.00    -0.294 OA
BRANCH   5   7
ATOM      7  C   UNL     1     153.295 141.969 149.555  1.00  0.00     0.017 A 
ATOM      8  C   UNL     1     152.571 141.300 148.548  1.00  0.00     0.012 A 
ATOM      9  C   UNL     1     152.706 142.108 150.829  1.00  0.00     0.012 A 
ATOM     10  C   UNL     1     151.296 140.789 148.806  1.00  0.00     0.001 A 
ATOM     11  C   UNL     1     151.430 141.595 151.082  1.00  0.00     0.001 A 
ATOM     12  C   UNL     1     150.726 140.936 150.072  1.00  0.00     0.000 A 
ENDBRANCH   5   7
ENDBRANCH   1   5
TORSDOF 4
ENDMDL
MODEL 2
REMARK VINA RESULT:    -3.867      0.046      1.398
REMARK INTER + INTRA:          -5.018
REMARK INTER:                  -4.775
REMARK INTRA:                  -0.243
REMARK UNBOUND:                -0.247
REMARK SMILES CCCCC(=O)c1ccccc1
REMARK SMILES IDX 4 1 3 2 2 3 1 4 5 5 6 6 7 7 8 8 12 9 9 10 11 11 10 12
REMARK H PARENT
REMARK Flexibility Score: inf
ROOT
ATOM      1  C   UNL     1     155.497 142.005 148.112  1.00  0.00     0.081 C 
ENDROOT
BRANCH   1   2
ATOM      2  C   UNL     1     156.935 141.634 148.505  1.00  0.00     0.008 C 
BRANCH   2   3
ATOM      3  C   UNL     1     157.861 141.654 147.283  1.00  0.00    -0.003 C 
ATOM      4  C   UNL     1     157.241 142.443 146.133  1.00  0.00     0.004 C 
ENDBRANCH   2   3
ENDBRANCH   1   2
BRANCH   1   5
ATOM      5  C   UNL     1     154.676 142.512 149.275  1.00  0.00     0.162 C 
ATOM      6  O   UNL     1     155.141 143.426 150.011  1.00  0.00    -0.294 OA
BRANCH   5   7
ATOM      7  C   UNL     1     153.321 141.966 149.564  1.00  0.00     0.017 A 
ATOM      8  C   UNL     1     152.755 142.124 150.845  1.00  0.00     0.012 A 
ATOM      9  C   UNL     1     152.575 141.288 148.578  1.00  0.00     0.012 A 
ATOM     10  C   UNL     1     151.484 141.617 151.131  1.00  0.00     0.001 A 
ATOM     11  C   UNL     1     151.304 140.783 148.869  1.00  0.00     0.001 A 
ATOM     12  C   UNL     1     150.759 140.948 150.144  1.00  0.00     0.000 A 
ENDBRANCH   5   7
ENDBRANCH   1   5
TORSDOF 4
ENDMDL
MODEL 3
REMARK VINA RESULT:    -3.814     11.994     13.207
REMARK INTER + INTRA:          -4.953
REMARK INTER:                  -4.535
REMARK INTRA:                  -0.418
REMARK UNBOUND:                -0.247
REMARK SMILES CCCCC(=O)c1ccccc1
REMARK SMILES IDX 4 1 3 2 2 3 1 4 5 5 6 6 7 7 8 8 12 9 9 10 11 11 10 12
REMARK H PARENT
REMARK Flexibility Score: inf
ROOT
ATOM      1  C   UNL     1     156.925 139.261 161.790  1.00  0.00     0.081 C 
ENDROOT
BRANCH   1   2
ATOM      2  C   UNL     1     158.000 140.265 162.233  1.00  0.00     0.008 C 
BRANCH   2   3
ATOM      3  C   UNL     1     158.125 141.416 161.228  1.00  0.00    -0.003 C 
ATOM      4  C   UNL     1     158.088 140.901 159.792  1.00  0.00     0.004 C 
ENDBRANCH   2   3
ENDBRANCH   1   2
BRANCH   1   5
ATOM      5  C   UNL     1     157.406 137.829 161.809  1.00  0.00     0.162 C 
ATOM      6  O   UNL     1     157.771 137.311 162.901  1.00  0.00    -0.294 OA
BRANCH   5   7
ATOM      7  C   UNL     1     157.447 137.008 160.567  1.00  0.00     0.017 A 
ATOM      8  C   UNL     1     157.934 135.686 160.611  1.00  0.00     0.012 A 
ATOM      9  C   UNL     1     157.001 137.521 159.331  1.00  0.00     0.012 A 
ATOM     10  C   UNL     1     157.978 134.904 159.453  1.00  0.00     0.001 A 
ATOM     11  C   UNL     1     157.046 136.734 158.177  1.00  0.00     0.001 A 
ATOM     12  C   UNL     1     157.534 135.427 158.237  1.00  0.00     0.000 A 
ENDBRANCH   5   7
ENDBRANCH   1   5
TORSDOF 4
ENDMDL
MODEL 4
REMARK VINA RESULT:    -3.657      1.212      1.820
REMARK INTER + INTRA:          -4.759
REMARK INTER:                  -4.449
REMARK INTRA:                  -0.310
REMARK UNBOUND:                -0.247
REMARK SMILES CCCCC(=O)c1ccccc1
REMARK SMILES IDX 4 1 3 2 2 3 1 4 5 5 6 6 7 7 8 8 12 9 9 10 11 11 10 12
REMARK H PARENT
REMARK Flexibility Score: inf
ROOT
ATOM      1  C   UNL     1     155.681 142.297 148.573  1.00  0.00     0.081 C 
ENDROOT
BRANCH   1   2
ATOM      2  C   UNL     1     156.708 141.262 148.091  1.00  0.00     0.008 C 
BRANCH   2   3
ATOM      3  C   UNL     1     157.841 141.935 147.307  1.00  0.00    -0.003 C 
ATOM      4  C   UNL     1     157.349 142.446 145.956  1.00  0.00     0.004 C 
ENDBRANCH   2   3
ENDBRANCH   1   2
BRANCH   1   5
ATOM      5  C   UNL     1     154.268 141.975 148.145  1.00  0.00     0.162 C 
ATOM      6  O   UNL     1     153.993 141.903 146.914  1.00  0.00    -0.294 OA
BRANCH   5   7
ATOM      7  C   UNL     1     153.193 141.725 149.144  1.00  0.00     0.017 A 
ATOM      8  C   UNL     1     153.329 142.205 150.462  1.00  0.00     0.012 A 
ATOM      9  C   UNL     1     152.023 141.014 148.804  1.00  0.00     0.012 A 
ATOM     10  C   UNL     1     152.328 141.978 151.411  1.00  0.00     0.001 A 
ATOM     11  C   UNL     1     151.025 140.791 149.757  1.00  0.00     0.001 A 
ATOM     12  C   UNL     1     151.177 141.272 151.059  1.00  0.00     0.000 A 
ENDBRANCH   5   7
ENDBRANCH   1   5
TORSDOF 4
ENDMDL
MODEL 5
REMARK VINA RESULT:    -3.540      8.473      9.714
REMARK INTER + INTRA:          -4.614
REMARK INTER:                  -4.383
REMARK INTRA:                  -0.232
REMARK UNBOUND:                -0.247
REMARK SMILES CCCCC(=O)c1ccccc1
REMARK SMILES IDX 4 1 3 2 2 3 1 4 5 5 6 6 7 7 8 8 12 9 9 10 11 11 10 12
REMARK H PARENT
REMARK Flexibility Score: inf
ROOT
ATOM      1  C   UNL     1     148.753 146.796 147.514  1.00  0.00     0.081 C 
ENDROOT
BRANCH   1   2
ATOM      2  C   UNL     1     148.812 148.327 147.405  1.00  0.00     0.008 C 
BRANCH   2   3
ATOM      3  C   UNL     1     149.362 148.949 148.695  1.00  0.00    -0.003 C 
ATOM      4  C   UNL     1     148.391 149.975 149.271  1.00  0.00     0.004 C 
ENDBRANCH   2   3
ENDBRANCH   1   2
BRANCH   1   5
ATOM      5  C   UNL     1     148.548 146.114 146.181  1.00  0.00     0.162 C 
ATOM      6  O   UNL     1     149.186 145.056 145.921  1.00  0.00    -0.294 OA
BRANCH   5   7
ATOM      7  C   UNL     1     147.598 146.657 145.170  1.00  0.00     0.017 A 
ATOM      8  C   UNL     1     148.013 146.831 143.835  1.00  0.00     0.012 A 
ATOM      9  C   UNL     1     146.276 147.003 145.515  1.00  0.00     0.012 A 
ATOM     10  C   UNL     1     147.133 147.338 142.875  1.00  0.00     0.001 A 
ATOM     11  C   UNL     1     145.399 147.510 144.551  1.00  0.00     0.001 A 
ATOM     12  C   UNL     1     145.827 147.677 143.233  1.00  0.00     0.000 A 
ENDBRANCH   5   7
ENDBRANCH   1   5
TORSDOF 4
ENDMDL
MODEL 6
REMARK VINA RESULT:    -3.533     11.763     13.117
REMARK INTER + INTRA:          -4.606
REMARK INTER:                  -4.195
REMARK INTRA:                  -0.411
REMARK UNBOUND:                -0.247
REMARK SMILES CCCCC(=O)c1ccccc1
REMARK SMILES IDX 4 1 3 2 2 3 1 4 5 5 6 6 7 7 8 8 12 9 9 10 11 11 10 12
REMARK H PARENT
REMARK Flexibility Score: inf
ROOT
ATOM      1  C   UNL     1     156.195 136.677 160.225  1.00  0.00     0.081 C 
ENDROOT
BRANCH   1   2
ATOM      2  C   UNL     1     156.538 135.183 160.134  1.00  0.00     0.008 C 
BRANCH   2   3
ATOM      3  C   UNL     1     157.367 134.885 158.879  1.00  0.00    -0.003 C 
ATOM      4  C   UNL     1     157.250 136.014 157.859  1.00  0.00     0.004 C 
ENDBRANCH   2   3
ENDBRANCH   1   2
BRANCH   1   5
ATOM      5  C   UNL     1     157.051 137.424 161.221  1.00  0.00     0.162 C 
ATOM      6  O   UNL     1     157.472 136.824 162.250  1.00  0.00    -0.294 OA
BRANCH   5   7
ATOM      7  C   UNL     1     157.423 138.850 161.009  1.00  0.00     0.017 A 
ATOM      8  C   UNL     1     157.433 139.745 162.097  1.00  0.00     0.012 A 
ATOM      9  C   UNL     1     157.774 139.336 159.733  1.00  0.00     0.012 A 
ATOM     10  C   UNL     1     157.781 141.087 161.913  1.00  0.00     0.001 A 
ATOM     11  C   UNL     1     158.121 140.679 159.554  1.00  0.00     0.001 A 
ATOM     12  C   UNL     1     158.125 141.553 160.643  1.00  0.00     0.000 A 
ENDBRANCH   5   7
ENDBRANCH   1   5
TORSDOF 4
ENDMDL
MODEL 7
REMARK VINA RESULT:    -3.281      9.273     10.489
REMARK INTER + INTRA:          -4.295
REMARK INTER:                  -4.078
REMARK INTRA:                  -0.217
REMARK UNBOUND:                -0.247
REMARK SMILES CCCCC(=O)c1ccccc1
REMARK SMILES IDX 4 1 3 2 2 3 1 4 5 5 6 6 7 7 8 8 12 9 9 10 11 11 10 12
REMARK H PARENT
REMARK Flexibility Score: inf
ROOT
ATOM      1  C   UNL     1     148.256 145.829 144.328  1.00  0.00     0.081 C 
ENDROOT
BRANCH   1   2
ATOM      2  C   UNL     1     148.348 145.954 145.856  1.00  0.00     0.008 C 
BRANCH   2   3
ATOM      3  C   UNL     1     148.299 147.424 146.291  1.00  0.00    -0.003 C 
ATOM      4  C   UNL     1     148.876 147.604 147.693  1.00  0.00     0.004 C 
ENDBRANCH   2   3
ENDBRANCH   1   2
BRANCH   1   5
ATOM      5  C   UNL     1     146.833 145.801 143.819  1.00  0.00     0.162 C 
ATOM      6  O   UNL     1     146.526 145.021 142.875  1.00  0.00    -0.294 OA
BRANCH   5   7
ATOM      7  C   UNL     1     145.778 146.666 144.418  1.00  0.00     0.017 A 
ATOM      8  C   UNL     1     145.622 147.995 143.977  1.00  0.00     0.012 A 
ATOM      9  C   UNL     1     144.918 146.184 145.426  1.00  0.00     0.012 A 
ATOM     10  C   UNL     1     144.636 148.818 144.530  1.00  0.00     0.001 A 
ATOM     11  C   UNL     1     143.933 147.011 145.975  1.00  0.00     0.001 A 
ATOM     12  C   UNL     1     143.793 148.326 145.528  1.00  0.00     0.000 A 
ENDBRANCH   5   7
ENDBRANCH   1   5
TORSDOF 4
ENDMDL
MODEL 8
REMARK VINA RESULT:    -3.265      9.568     11.562
REMARK INTER + INTRA:          -4.275
REMARK INTER:                  -4.033
REMARK INTRA:                  -0.242
REMARK UNBOUND:                -0.247
REMARK SMILES CCCCC(=O)c1ccccc1
REMARK SMILES IDX 4 1 3 2 2 3 1 4 5 5 6 6 7 7 8 8 12 9 9 10 11 11 10 12
REMARK H PARENT
REMARK Flexibility Score: inf
ROOT
ATOM      1  C   UNL     1     145.440 147.755 145.331  1.00  0.00     0.081 C 
ENDROOT
BRANCH   1   2
ATOM      2  C   UNL     1     144.210 146.874 145.597  1.00  0.00     0.008 C 
BRANCH   2   3
ATOM      3  C   UNL     1     143.216 147.584 146.524  1.00  0.00    -0.003 C 
ATOM      4  C   UNL     1     143.658 149.015 146.815  1.00  0.00     0.004 C 
ENDBRANCH   2   3
ENDBRANCH   1   2
BRANCH   1   5
ATOM      5  C   UNL     1     145.973 147.620 143.923  1.00  0.00     0.162 C 
ATOM      6  O   UNL     1     145.598 148.438 143.037  1.00  0.00    -0.294 OA
BRANCH   5   7
ATOM      7  C   UNL     1     146.945 146.552 143.561  1.00  0.00     0.017 A 
ATOM      8  C   UNL     1     148.275 146.888 143.240  1.00  0.00     0.012 A 
ATOM      9  C   UNL     1     146.567 145.193 143.534  1.00  0.00     0.012 A 
ATOM     10  C   UNL     1     149.198 145.895 142.899  1.00  0.00     0.001 A 
ATOM     11  C   UNL     1     147.495 144.205 143.192  1.00  0.00     0.001 A 
ATOM     12  C   UNL     1     148.809 144.555 142.875  1.00  0.00     0.000 A 
ENDBRANCH   5   7
ENDBRANCH   1   5
TORSDOF 4
ENDMDL
MODEL 9
REMARK VINA RESULT:    -3.097      9.442     10.650
REMARK INTER + INTRA:          -4.069
REMARK INTER:                  -3.685
REMARK INTRA:                  -0.384
REMARK UNBOUND:                -0.247
REMARK SMILES CCCCC(=O)c1ccccc1
REMARK SMILES IDX 4 1 3 2 2 3 1 4 5 5 6 6 7 7 8 8 12 9 9 10 11 11 10 12
REMARK H PARENT
REMARK Flexibility Score: inf
ROOT
ATOM      1  C   UNL     1     147.080 145.422 143.624  1.00  0.00     0.081 C 
ENDROOT
BRANCH   1   2
ATOM      2  C   UNL     1     148.559 145.238 143.996  1.00  0.00     0.008 C 
BRANCH   2   3
ATOM      3  C   UNL     1     148.724 145.028 145.506  1.00  0.00    -0.003 C 
ATOM      4  C   UNL     1     148.646 146.353 146.260  1.00  0.00     0.004 C 
ENDBRANCH   2   3
ENDBRANCH   1   2
BRANCH   1   5
ATOM      5  C   UNL     1     146.644 146.869 143.621  1.00  0.00     0.162 C 
ATOM      6  O   UNL     1     147.241 147.695 142.875  1.00  0.00    -0.294 OA
BRANCH   5   7
ATOM      7  C   UNL     1     145.514 147.340 144.468  1.00  0.00     0.017 A 
ATOM      8  C   UNL     1     144.946 146.480 145.429  1.00  0.00     0.012 A 
ATOM      9  C   UNL     1     144.990 148.643 144.337  1.00  0.00     0.012 A 
ATOM     10  C   UNL     1     143.885 146.909 146.231  1.00  0.00     0.001 A 
ATOM     11  C   UNL     1     143.928 149.066 145.142  1.00  0.00     0.001 A 
ATOM     12  C   UNL     1     143.377 148.201 146.089  1.00  0.00     0.000 A 
ENDBRANCH   5   7
ENDBRANCH   1   5
TORSDOF 4
ENDMDL
