MODEL 1
REMARK VINA RESULT:    -7.620      0.000      0.000
REMARK INTER + INTRA:          -9.290
REMARK INTER:                  -9.179
REMARK INTRA:                  -0.111
REMARK UNBOUND:                -0.111
REMARK SMILES O=c1c(O)c(-c2ccc(O)c(O)c2)oc2cc(O)cc(O)c12
REMARK SMILES IDX 5 1 3 2 2 3 1 4 22 5 20 6 19 7 17 8 16 9 15 10 14 11 6 12
REMARK SMILES IDX 7 13 8 14 9 15 13 16 11 17 10 18 12 20 4 22 21 24 18 26
REMARK H PARENT 10 19 12 21 4 23 21 25 18 27
REMARK Flexibility Score: inf
ROOT
ATOM      1  C   UNL     1      -8.013  49.498  54.972  1.00  0.00     0.180 A 
ATOM      2  C   UNL     1      -7.496  49.486  56.279  1.00  0.00     0.208 A 
ATOM      3  C   UNL     1      -6.103  49.464  56.460  1.00  0.00     0.238 A 
ATOM      4  O   UNL     1      -5.650  49.377  57.631  1.00  0.00    -0.285 OA
ATOM      5  C   UNL     1      -5.245  49.514  55.335  1.00  0.00     0.111 A 
ATOM      6  C   UNL     1      -3.818  49.543  55.402  1.00  0.00     0.134 A 
ATOM      7  C   UNL     1      -3.071  49.484  54.220  1.00  0.00     0.093 A 
ATOM      8  C   UNL     1      -3.694  49.461  52.973  1.00  0.00     0.123 A 
ATOM      9  C   UNL     1      -5.086  49.488  52.893  1.00  0.00     0.094 A 
ATOM     10  C   UNL     1      -5.861  49.508  54.055  1.00  0.00     0.146 A 
ATOM     11  O   UNL     1      -7.183  49.512  53.936  1.00  0.00    -0.452 OA
ENDROOT
BRANCH   1  12
ATOM     12  C   UNL     1      -9.469  49.506  54.700  1.00  0.00     0.025 A 
ATOM     13  C   UNL     1     -10.263  48.446  55.162  1.00  0.00     0.016 A 
ATOM     14  C   UNL     1     -11.641  48.443  54.936  1.00  0.00     0.051 A 
ATOM     15  C   UNL     1     -12.249  49.508  54.258  1.00  0.00     0.157 A 
ATOM     16  C   UNL     1     -10.084  50.584  54.039  1.00  0.00     0.062 A 
ATOM     17  C   UNL     1     -11.466  50.585  53.812  1.00  0.00     0.158 A 
BRANCH  15  18
ATOM     18  O   UNL     1     -13.624  49.501  54.032  1.00  0.00    -0.504 OA
ATOM     19  H   UNL     1     -14.010  49.623  53.103  1.00  0.00     0.293 HD
ENDBRANCH  15  18
BRANCH  17  20
ATOM     20  O   UNL     1     -12.042  51.668  53.148  1.00  0.00    -0.504 OA
ATOM     21  H   UNL     1     -12.963  52.016  53.384  1.00  0.00     0.293 HD
ENDBRANCH  17  20
ENDBRANCH   1  12
BRANCH   2  22
ATOM     22  O   UNL     1      -8.360  49.514  57.377  1.00  0.00    -0.502 OA
ATOM     23  H   UNL     1      -8.040  49.353  58.325  1.00  0.00     0.293 HD
ENDBRANCH   2  22
BRANCH   6  24
ATOM     24  O   UNL     1      -3.093  49.655  56.592  1.00  0.00    -0.507 OA
ATOM     25  H   UNL     1      -2.917  50.517  57.083  1.00  0.00     0.293 HD
ENDBRANCH   6  24
BRANCH   8  26
ATOM     26  O   UNL     1      -2.917  49.421  51.817  1.00  0.00    -0.508 OA
ATOM     27  H   UNL     1      -2.447  50.247  51.465  1.00  0.00     0.293 HD
ENDBRANCH   8  26
TORSDOF 6
ENDMDL
MODEL 2
REMARK VINA RESULT:    -7.615     19.456     21.781
REMARK INTER + INTRA:          -9.285
REMARK INTER:                  -8.962
REMARK INTRA:                  -0.323
REMARK UNBOUND:                -0.111
REMARK SMILES O=c1c(O)c(-c2ccc(O)c(O)c2)oc2cc(O)cc(O)c12
REMARK SMILES IDX 5 1 3 2 2 3 1 4 22 5 20 6 19 7 17 8 16 9 15 10 14 11 6 12
REMARK SMILES IDX 7 13 8 14 9 15 13 16 11 17 10 18 12 20 4 22 21 24 18 26
REMARK H PARENT 10 19 12 21 4 23 21 25 18 27
REMARK Flexibility Score: inf
ROOT
ATOM      1  C   UNL     1     -11.507  62.801  39.579  1.00  0.00     0.180 A 
ATOM      2  C   UNL     1     -11.466  61.404  39.731  1.00  0.00     0.208 A 
ATOM      3  C   UNL     1     -12.625  60.656  39.471  1.00  0.00     0.238 A 
ATOM      4  O   UNL     1     -12.600  59.415  39.682  1.00  0.00    -0.285 OA
ATOM      5  C   UNL     1     -13.794  61.305  39.007  1.00  0.00     0.111 A 
ATOM      6  C   UNL     1     -15.013  60.641  38.669  1.00  0.00     0.134 A 
ATOM      7  C   UNL     1     -16.139  61.398  38.323  1.00  0.00     0.093 A 
ATOM      8  C   UNL     1     -16.075  62.789  38.241  1.00  0.00     0.123 A 
ATOM      9  C   UNL     1     -14.875  63.445  38.515  1.00  0.00     0.094 A 
ATOM     10  C   UNL     1     -13.745  62.720  38.900  1.00  0.00     0.146 A 
ATOM     11  O   UNL     1     -12.628  63.385  39.174  1.00  0.00    -0.452 OA
ENDROOT
BRANCH   1  12
ATOM     12  C   UNL     1     -10.331  63.659  39.848  1.00  0.00     0.025 A 
ATOM     13  C   UNL     1     -10.108  64.137  41.148  1.00  0.00     0.016 A 
ATOM     14  C   UNL     1      -8.994  64.930  41.430  1.00  0.00     0.051 A 
ATOM     15  C   UNL     1      -8.076  65.245  40.419  1.00  0.00     0.157 A 
ATOM     16  C   UNL     1      -9.397  63.959  38.840  1.00  0.00     0.062 A 
ATOM     17  C   UNL     1      -8.278  64.752  39.118  1.00  0.00     0.158 A 
BRANCH  15  18
ATOM     18  O   UNL     1      -6.966  66.039  40.702  1.00  0.00    -0.504 OA
ATOM     19  H   UNL     1      -6.263  66.237  40.000  1.00  0.00     0.293 HD
ENDBRANCH  15  18
BRANCH  17  20
ATOM     20  O   UNL     1      -7.376  65.035  38.093  1.00  0.00    -0.504 OA
ATOM     21  H   UNL     1      -7.580  65.711  37.367  1.00  0.00     0.293 HD
ENDBRANCH  17  20
ENDBRANCH   1  12
BRANCH   2  22
ATOM     22  O   UNL     1     -10.279  60.774  40.116  1.00  0.00    -0.502 OA
ATOM     23  H   UNL     1     -10.262  59.843  40.515  1.00  0.00     0.293 HD
ENDBRANCH   2  22
BRANCH   6  24
ATOM     24  O   UNL     1     -15.163  59.252  38.633  1.00  0.00    -0.507 OA
ATOM     25  H   UNL     1     -15.789  58.753  38.019  1.00  0.00     0.293 HD
ENDBRANCH   6  24
BRANCH   8  26
ATOM     26  O   UNL     1     -17.210  63.508  37.875  1.00  0.00    -0.508 OA
ATOM     27  H   UNL     1     -17.342  63.846  36.929  1.00  0.00     0.293 HD
ENDBRANCH   8  26
TORSDOF 6
ENDMDL
MODEL 3
REMARK VINA RESULT:    -7.537      1.780      6.893
REMARK INTER + INTRA:          -9.191
REMARK INTER:                  -8.882
REMARK INTRA:                  -0.309
REMARK UNBOUND:                -0.111
REMARK SMILES O=c1c(O)c(-c2ccc(O)c(O)c2)oc2cc(O)cc(O)c12
REMARK SMILES IDX 5 1 3 2 2 3 1 4 22 5 20 6 19 7 17 8 16 9 15 10 14 11 6 12
REMARK SMILES IDX 7 13 8 14 9 15 13 16 11 17 10 18 12 20 4 22 21 24 18 26
REMARK H PARENT 10 19 12 21 4 23 21 25 18 27
REMARK Flexibility Score: inf
ROOT
ATOM      1  C   UNL     1      -8.461  49.460  55.770  1.00  0.00     0.180 A 
ATOM      2  C   UNL     1      -9.162  48.271  56.035  1.00  0.00     0.208 A 
ATOM      3  C   UNL     1     -10.459  48.115  55.519  1.00  0.00     0.238 A 
ATOM      4  O   UNL     1     -11.108  47.080  55.823  1.00  0.00    -0.285 OA
ATOM      5  C   UNL     1     -11.017  49.125  54.698  1.00  0.00     0.111 A 
ATOM      6  C   UNL     1     -12.305  49.054  54.085  1.00  0.00     0.134 A 
ATOM      7  C   UNL     1     -12.796  50.159  53.381  1.00  0.00     0.093 A 
ATOM      8  C   UNL     1     -12.024  51.308  53.213  1.00  0.00     0.123 A 
ATOM      9  C   UNL     1     -10.742  51.368  53.760  1.00  0.00     0.094 A 
ATOM     10  C   UNL     1     -10.239  50.296  54.501  1.00  0.00     0.146 A 
ATOM     11  O   UNL     1      -9.023  50.402  55.024  1.00  0.00    -0.452 OA
ENDROOT
BRANCH   1  12
ATOM     12  C   UNL     1      -7.096  49.703  56.291  1.00  0.00     0.025 A 
ATOM     13  C   UNL     1      -6.932  50.175  57.602  1.00  0.00     0.016 A 
ATOM     14  C   UNL     1      -5.654  50.391  58.121  1.00  0.00     0.051 A 
ATOM     15  C   UNL     1      -4.519  50.124  57.343  1.00  0.00     0.157 A 
ATOM     16  C   UNL     1      -5.956  49.415  55.519  1.00  0.00     0.062 A 
ATOM     17  C   UNL     1      -4.673  49.629  56.037  1.00  0.00     0.158 A 
BRANCH  15  18
ATOM     18  O   UNL     1      -3.245  50.343  57.864  1.00  0.00    -0.504 OA
ATOM     19  H   UNL     1      -2.496  50.717  57.293  1.00  0.00     0.293 HD
ENDBRANCH  15  18
BRANCH  17  20
ATOM     20  O   UNL     1      -3.565  49.339  55.242  1.00  0.00    -0.504 OA
ATOM     21  H   UNL     1      -3.644  48.821  54.376  1.00  0.00     0.293 HD
ENDBRANCH  17  20
ENDBRANCH   1  12
BRANCH   2  22
ATOM     22  O   UNL     1      -8.564  47.253  56.784  1.00  0.00    -0.502 OA
ATOM     23  H   UNL     1      -7.716  47.399  57.320  1.00  0.00     0.293 HD
ENDBRANCH   2  22
BRANCH   6  24
ATOM     24  O   UNL     1     -13.124  47.922  54.115  1.00  0.00    -0.507 OA
ATOM     25  H   UNL     1     -14.116  47.930  54.296  1.00  0.00     0.293 HD
ENDBRANCH   6  24
BRANCH   8  26
ATOM     26  O   UNL     1     -12.538  52.382  52.490  1.00  0.00    -0.508 OA
ATOM     27  H   UNL     1     -13.522  52.623  52.525  1.00  0.00     0.293 HD
ENDBRANCH   8  26
TORSDOF 6
ENDMDL
MODEL 4
REMARK VINA RESULT:    -6.713      3.692      6.435
REMARK INTER + INTRA:          -8.197
REMARK INTER:                  -7.979
REMARK INTRA:                  -0.219
REMARK UNBOUND:                -0.111
REMARK SMILES O=c1c(O)c(-c2ccc(O)c(O)c2)oc2cc(O)cc(O)c12
REMARK SMILES IDX 5 1 3 2 2 3 1 4 22 5 20 6 19 7 17 8 16 9 15 10 14 11 6 12
REMARK SMILES IDX 7 13 8 14 9 15 13 16 11 17 10 18 12 20 4 22 21 24 18 26
REMARK H PARENT 10 19 12 21 4 23 21 25 18 27
REMARK Flexibility Score: inf
ROOT
ATOM      1  C   UNL     1     -13.599  48.894  53.634  1.00  0.00     0.180 A 
ATOM      2  C   UNL     1     -13.020  50.089  53.172  1.00  0.00     0.208 A 
ATOM      3  C   UNL     1     -11.730  50.433  53.605  1.00  0.00     0.238 A 
ATOM      4  O   UNL     1     -11.249  51.540  53.247  1.00  0.00    -0.285 OA
ATOM      5  C   UNL     1     -11.011  49.552  54.449  1.00  0.00     0.111 A 
ATOM      6  C   UNL     1      -9.679  49.778  54.914  1.00  0.00     0.134 A 
ATOM      7  C   UNL     1      -9.108  48.888  55.831  1.00  0.00     0.093 A 
ATOM      8  C   UNL     1      -9.793  47.748  56.252  1.00  0.00     0.123 A 
ATOM      9  C   UNL     1     -11.073  47.488  55.762  1.00  0.00     0.094 A 
ATOM     10  C   UNL     1     -11.685  48.377  54.876  1.00  0.00     0.146 A 
ATOM     11  O   UNL     1     -12.913  48.104  54.450  1.00  0.00    -0.452 OA
ENDROOT
BRANCH   1  12
ATOM     12  C   UNL     1     -14.960  48.470  53.233  1.00  0.00     0.025 A 
ATOM     13  C   UNL     1     -15.123  47.306  52.467  1.00  0.00     0.016 A 
ATOM     14  C   UNL     1     -16.398  46.876  52.096  1.00  0.00     0.051 A 
ATOM     15  C   UNL     1     -17.532  47.594  52.499  1.00  0.00     0.157 A 
ATOM     16  C   UNL     1     -16.100  49.177  53.654  1.00  0.00     0.062 A 
ATOM     17  C   UNL     1     -17.381  48.748  53.286  1.00  0.00     0.158 A 
BRANCH  15  18
ATOM     18  O   UNL     1     -18.804  47.163  52.125  1.00  0.00    -0.504 OA
ATOM     19  H   UNL     1     -19.136  47.251  51.172  1.00  0.00     0.293 HD
ENDBRANCH  15  18
BRANCH  17  20
ATOM     20  O   UNL     1     -18.489  49.477  53.715  1.00  0.00    -0.504 OA
ATOM     21  H   UNL     1     -19.069  50.004  53.073  1.00  0.00     0.293 HD
ENDBRANCH  17  20
ENDBRANCH   1  12
BRANCH   2  22
ATOM     22  O   UNL     1     -13.716  50.908  52.278  1.00  0.00    -0.502 OA
ATOM     23  H   UNL     1     -14.671  51.204  52.442  1.00  0.00     0.293 HD
ENDBRANCH   2  22
BRANCH   6  24
ATOM     24  O   UNL     1      -8.871  50.837  54.490  1.00  0.00    -0.507 OA
ATOM     25  H   UNL     1      -8.705  51.089  53.527  1.00  0.00     0.293 HD
ENDBRANCH   6  24
BRANCH   8  26
ATOM     26  O   UNL     1      -9.186  46.875  57.152  1.00  0.00    -0.508 OA
ATOM     27  H   UNL     1      -8.408  46.287  56.878  1.00  0.00     0.293 HD
ENDBRANCH   8  26
TORSDOF 6
ENDMDL
MODEL 5
REMARK VINA RESULT:    -6.574      1.411      2.190
REMARK INTER + INTRA:          -8.031
REMARK INTER:                  -8.073
REMARK INTRA:                   0.042
REMARK UNBOUND:                -0.111
REMARK SMILES O=c1c(O)c(-c2ccc(O)c(O)c2)oc2cc(O)cc(O)c12
REMARK SMILES IDX 5 1 3 2 2 3 1 4 22 5 20 6 19 7 17 8 16 9 15 10 14 11 6 12
REMARK SMILES IDX 7 13 8 14 9 15 13 16 11 17 10 18 12 20 4 22 21 24 18 26
REMARK H PARENT 10 19 12 21 4 23 21 25 18 27
REMARK Flexibility Score: inf
ROOT
ATOM      1  C   UNL     1      -9.331  48.984  55.246  1.00  0.00     0.180 A 
ATOM      2  C   UNL     1      -9.061  48.557  56.558  1.00  0.00     0.208 A 
ATOM      3  C   UNL     1      -7.725  48.439  56.974  1.00  0.00     0.238 A 
ATOM      4  O   UNL     1      -7.491  47.985  58.125  1.00  0.00    -0.285 OA
ATOM      5  C   UNL     1      -6.678  48.804  56.095  1.00  0.00     0.111 A 
ATOM      6  C   UNL     1      -5.288  48.768  56.427  1.00  0.00     0.134 A 
ATOM      7  C   UNL     1      -4.336  49.050  55.440  1.00  0.00     0.093 A 
ATOM      8  C   UNL     1      -4.720  49.428  54.154  1.00  0.00     0.123 A 
ATOM      9  C   UNL     1      -6.075  49.520  53.834  1.00  0.00     0.094 A 
ATOM     10  C   UNL     1      -7.049  49.208  54.785  1.00  0.00     0.146 A 
ATOM     11  O   UNL     1      -8.327  49.287  54.434  1.00  0.00    -0.452 OA
ENDROOT
BRANCH   1  12
ATOM     12  C   UNL     1     -10.712  49.118  54.729  1.00  0.00     0.025 A 
ATOM     13  C   UNL     1     -11.056  50.244  53.965  1.00  0.00     0.016 A 
ATOM     14  C   UNL     1     -12.347  50.382  53.449  1.00  0.00     0.051 A 
ATOM     15  C   UNL     1     -13.309  49.388  53.675  1.00  0.00     0.157 A 
ATOM     16  C   UNL     1     -11.673  48.112  54.936  1.00  0.00     0.062 A 
ATOM     17  C   UNL     1     -12.967  48.246  54.419  1.00  0.00     0.158 A 
BRANCH  15  18
ATOM     18  O   UNL     1     -14.596  49.529  53.161  1.00  0.00    -0.504 OA
ATOM     19  H   UNL     1     -14.978  48.866  52.497  1.00  0.00     0.293 HD
ENDBRANCH  15  18
BRANCH  17  20
ATOM     20  O   UNL     1     -13.897  47.232  54.649  1.00  0.00    -0.504 OA
ATOM     21  H   UNL     1     -14.685  47.074  54.032  1.00  0.00     0.293 HD
ENDBRANCH  17  20
ENDBRANCH   1  12
BRANCH   2  22
ATOM     22  O   UNL     1     -10.112  48.275  57.436  1.00  0.00    -0.502 OA
ATOM     23  H   UNL     1     -10.085  47.497  58.084  1.00  0.00     0.293 HD
ENDBRANCH   2  22
BRANCH   6  24
ATOM     24  O   UNL     1      -4.796  48.489  57.705  1.00  0.00    -0.507 OA
ATOM     25  H   UNL     1      -4.110  47.782  57.919  1.00  0.00     0.293 HD
ENDBRANCH   6  24
BRANCH   8  26
ATOM     26  O   UNL     1      -3.745  49.719  53.203  1.00  0.00    -0.508 OA
ATOM     27  H   UNL     1      -3.197  50.571  53.248  1.00  0.00     0.293 HD
ENDBRANCH   8  26
TORSDOF 6
ENDMDL
MODEL 6
REMARK VINA RESULT:    -6.427     19.506     21.917
REMARK INTER + INTRA:          -7.853
REMARK INTER:                  -7.585
REMARK INTRA:                  -0.268
REMARK UNBOUND:                -0.111
REMARK SMILES O=c1c(O)c(-c2ccc(O)c(O)c2)oc2cc(O)cc(O)c12
REMARK SMILES IDX 5 1 3 2 2 3 1 4 22 5 20 6 19 7 17 8 16 9 15 10 14 11 6 12
REMARK SMILES IDX 7 13 8 14 9 15 13 16 11 17 10 18 12 20 4 22 21 24 18 26
REMARK H PARENT 10 19 12 21 4 23 21 25 18 27
REMARK Flexibility Score: inf
ROOT
ATOM      1  C   UNL     1     -12.704  62.227  39.219  1.00  0.00     0.180 A 
ATOM      2  C   UNL     1     -12.871  60.905  39.670  1.00  0.00     0.208 A 
ATOM      3  C   UNL     1     -14.159  60.346  39.676  1.00  0.00     0.238 A 
ATOM      4  O   UNL     1     -14.310  59.190  40.151  1.00  0.00    -0.285 OA
ATOM      5  C   UNL     1     -15.254  61.091  39.179  1.00  0.00     0.111 A 
ATOM      6  C   UNL     1     -16.596  60.608  39.095  1.00  0.00     0.134 A 
ATOM      7  C   UNL     1     -17.617  61.473  38.686  1.00  0.00     0.093 A 
ATOM      8  C   UNL     1     -17.340  62.783  38.295  1.00  0.00     0.123 A 
ATOM      9  C   UNL     1     -16.025  63.249  38.320  1.00  0.00     0.094 A 
ATOM     10  C   UNL     1     -14.990  62.422  38.761  1.00  0.00     0.146 A 
ATOM     11  O   UNL     1     -13.755  62.913  38.789  1.00  0.00    -0.452 OA
ENDROOT
BRANCH   1  12
ATOM     12  C   UNL     1     -11.381  62.891  39.196  1.00  0.00     0.025 A 
ATOM     13  C   UNL     1     -10.753  63.136  37.965  1.00  0.00     0.016 A 
ATOM     14  C   UNL     1      -9.515  63.781  37.918  1.00  0.00     0.051 A 
ATOM     15  C   UNL     1      -8.892  64.204  39.100  1.00  0.00     0.157 A 
ATOM     16  C   UNL     1     -10.764  63.336  40.379  1.00  0.00     0.062 A 
ATOM     17  C   UNL     1      -9.524  63.984  40.336  1.00  0.00     0.158 A 
BRANCH  15  18
ATOM     18  O   UNL     1      -7.656  64.845  39.051  1.00  0.00    -0.504 OA
ATOM     19  H   UNL     1      -7.208  65.200  39.887  1.00  0.00     0.293 HD
ENDBRANCH  15  18
BRANCH  17  20
ATOM     20  O   UNL     1      -8.938  64.406  41.529  1.00  0.00    -0.504 OA
ATOM     21  H   UNL     1      -9.316  65.173  42.072  1.00  0.00     0.293 HD
ENDBRANCH  17  20
ENDBRANCH   1  12
BRANCH   2  22
ATOM     22  O   UNL     1     -11.764  60.159  40.085  1.00  0.00    -0.502 OA
ATOM     23  H   UNL     1     -11.050  59.842  39.441  1.00  0.00     0.293 HD
ENDBRANCH   2  22
BRANCH   6  24
ATOM     24  O   UNL     1     -16.972  59.291  39.377  1.00  0.00    -0.507 OA
ATOM     25  H   UNL     1     -17.729  59.023  39.986  1.00  0.00     0.293 HD
ENDBRANCH   6  24
BRANCH   8  26
ATOM     26  O   UNL     1     -18.379  63.610  37.876  1.00  0.00    -0.508 OA
ATOM     27  H   UNL     1     -18.853  63.460  36.992  1.00  0.00     0.293 HD
ENDBRANCH   8  26
TORSDOF 6
ENDMDL
MODEL 7
REMARK VINA RESULT:    -6.152      2.668      7.117
REMARK INTER + INTRA:          -7.522
REMARK INTER:                  -7.576
REMARK INTRA:                   0.054
REMARK UNBOUND:                -0.111
REMARK SMILES O=c1c(O)c(-c2ccc(O)c(O)c2)oc2cc(O)cc(O)c12
REMARK SMILES IDX 5 1 3 2 2 3 1 4 22 5 20 6 19 7 17 8 16 9 15 10 14 11 6 12
REMARK SMILES IDX 7 13 8 14 9 15 13 16 11 17 10 18 12 20 4 22 21 24 18 26
REMARK H PARENT 10 19 12 21 4 23 21 25 18 27
REMARK Flexibility Score: inf
ROOT
ATOM      1  C   UNL     1      -9.934  48.997  55.270  1.00  0.00     0.180 A 
ATOM      2  C   UNL     1     -10.848  47.949  55.473  1.00  0.00     0.208 A 
ATOM      3  C   UNL     1     -12.088  47.989  54.815  1.00  0.00     0.238 A 
ATOM      4  O   UNL     1     -12.929  47.085  55.061  1.00  0.00    -0.285 OA
ATOM      5  C   UNL     1     -12.376  49.045  53.918  1.00  0.00     0.111 A 
ATOM      6  C   UNL     1     -13.582  49.163  53.161  1.00  0.00     0.134 A 
ATOM      7  C   UNL     1     -13.801  50.307  52.386  1.00  0.00     0.093 A 
ATOM      8  C   UNL     1     -12.835  51.308  52.287  1.00  0.00     0.123 A 
ATOM      9  C   UNL     1     -11.630  51.177  52.977  1.00  0.00     0.094 A 
ATOM     10  C   UNL     1     -11.397  50.066  53.790  1.00  0.00     0.146 A 
ATOM     11  O   UNL     1     -10.245  49.991  54.447  1.00  0.00    -0.452 OA
ENDROOT
BRANCH   1  12
ATOM     12  C   UNL     1      -8.614  49.033  55.939  1.00  0.00     0.025 A 
ATOM     13  C   UNL     1      -7.787  47.900  55.897  1.00  0.00     0.016 A 
ATOM     14  C   UNL     1      -6.529  47.918  56.503  1.00  0.00     0.051 A 
ATOM     15  C   UNL     1      -6.071  49.076  57.147  1.00  0.00     0.157 A 
ATOM     16  C   UNL     1      -8.143  50.200  56.567  1.00  0.00     0.062 A 
ATOM     17  C   UNL     1      -6.881  50.223  57.174  1.00  0.00     0.158 A 
BRANCH  15  18
ATOM     18  O   UNL     1      -4.816  49.091  57.753  1.00  0.00    -0.504 OA
ATOM     19  H   UNL     1      -3.963  49.066  57.207  1.00  0.00     0.293 HD
ENDBRANCH  15  18
BRANCH  17  20
ATOM     20  O   UNL     1      -6.449  51.395  57.793  1.00  0.00    -0.504 OA
ATOM     21  H   UNL     1      -6.948  52.272  57.695  1.00  0.00     0.293 HD
ENDBRANCH  17  20
ENDBRANCH   1  12
BRANCH   2  22
ATOM     22  O   UNL     1     -10.514  46.875  56.304  1.00  0.00    -0.502 OA
ATOM     23  H   UNL     1     -11.010  46.679  57.165  1.00  0.00     0.293 HD
ENDBRANCH   2  22
BRANCH   6  24
ATOM     24  O   UNL     1     -14.576  48.182  53.117  1.00  0.00    -0.507 OA
ATOM     25  H   UNL     1     -15.399  48.164  53.701  1.00  0.00     0.293 HD
ENDBRANCH   6  24
BRANCH   8  26
ATOM     26  O   UNL     1     -13.080  52.424  51.491  1.00  0.00    -0.508 OA
ATOM     27  H   UNL     1     -12.569  53.290  51.619  1.00  0.00     0.293 HD
ENDBRANCH   8  26
TORSDOF 6
ENDMDL
MODEL 8
REMARK VINA RESULT:    -5.984      4.342      6.829
REMARK INTER + INTRA:          -7.320
REMARK INTER:                  -7.177
REMARK INTRA:                  -0.144
REMARK UNBOUND:                -0.111
REMARK SMILES O=c1c(O)c(-c2ccc(O)c(O)c2)oc2cc(O)cc(O)c12
REMARK SMILES IDX 5 1 3 2 2 3 1 4 22 5 20 6 19 7 17 8 16 9 15 10 14 11 6 12
REMARK SMILES IDX 7 13 8 14 9 15 13 16 11 17 10 18 12 20 4 22 21 24 18 26
REMARK H PARENT 10 19 12 21 4 23 21 25 18 27
REMARK Flexibility Score: inf
ROOT
ATOM      1  C   UNL     1     -14.205  48.903  53.582  1.00  0.00     0.180 A 
ATOM      2  C   UNL     1     -13.358  48.110  54.375  1.00  0.00     0.208 A 
ATOM      3  C   UNL     1     -12.075  48.586  54.687  1.00  0.00     0.238 A 
ATOM      4  O   UNL     1     -11.296  47.838  55.334  1.00  0.00    -0.285 OA
ATOM      5  C   UNL     1     -11.674  49.872  54.252  1.00  0.00     0.111 A 
ATOM      6  C   UNL     1     -10.413  50.474  54.548  1.00  0.00     0.134 A 
ATOM      7  C   UNL     1     -10.086  51.708  53.975  1.00  0.00     0.093 A 
ATOM      8  C   UNL     1     -10.995  52.392  53.168  1.00  0.00     0.123 A 
ATOM      9  C   UNL     1     -12.251  51.839  52.916  1.00  0.00     0.094 A 
ATOM     10  C   UNL     1     -12.593  50.592  53.443  1.00  0.00     0.146 A 
ATOM     11  O   UNL     1     -13.790  50.091  53.161  1.00  0.00    -0.452 OA
ENDROOT
BRANCH   1  12
ATOM     12  C   UNL     1     -15.567  48.464  53.199  1.00  0.00     0.025 A 
ATOM     13  C   UNL     1     -15.723  47.320  52.401  1.00  0.00     0.016 A 
ATOM     14  C   UNL     1     -16.998  46.875  52.045  1.00  0.00     0.051 A 
ATOM     15  C   UNL     1     -18.137  47.558  52.494  1.00  0.00     0.157 A 
ATOM     16  C   UNL     1     -16.711  49.135  53.666  1.00  0.00     0.062 A 
ATOM     17  C   UNL     1     -17.991  48.690  53.312  1.00  0.00     0.158 A 
BRANCH  15  18
ATOM     18  O   UNL     1     -19.408  47.112  52.135  1.00  0.00    -0.504 OA
ATOM     19  H   UNL     1     -19.543  46.250  51.621  1.00  0.00     0.293 HD
ENDBRANCH  15  18
BRANCH  17  20
ATOM     20  O   UNL     1     -19.104  49.383  53.788  1.00  0.00    -0.504 OA
ATOM     21  H   UNL     1     -19.062  49.967  54.614  1.00  0.00     0.293 HD
ENDBRANCH  17  20
ENDBRANCH   1  12
BRANCH   2  22
ATOM     22  O   UNL     1     -13.801  46.875  54.859  1.00  0.00    -0.502 OA
ATOM     23  H   UNL     1     -13.173  46.198  55.276  1.00  0.00     0.293 HD
ENDBRANCH   2  22
BRANCH   6  24
ATOM     24  O   UNL     1      -9.465  49.920  55.413  1.00  0.00    -0.507 OA
ATOM     25  H   UNL     1      -8.595  50.356  55.674  1.00  0.00     0.293 HD
ENDBRANCH   6  24
BRANCH   8  26
ATOM     26  O   UNL     1     -10.642  53.627  52.628  1.00  0.00    -0.508 OA
ATOM     27  H   UNL     1     -10.188  53.701  51.725  1.00  0.00     0.293 HD
ENDBRANCH   8  26
TORSDOF 6
ENDMDL
