MODEL 1
REMARK VINA RESULT:    -4.985      0.000      0.000
REMARK INTER + INTRA:         -10.102
REMARK INTER:                  -8.482
REMARK INTRA:                  -1.619
REMARK UNBOUND:                -1.619
REMARK SMILES CCCCCCCCCCCCCC(=O)[O-]
REMARK SMILES IDX 8 1 9 2 10 3 11 4 12 5 13 6 14 7 15 8 16 9 7 10 6 11 5 12
REMARK SMILES IDX 4 13 3 14 2 15 1 16
REMARK H PARENT
REMARK Flexibility Score: inf
ROOT
ATOM      1  C   UNL     1     -21.288  -5.905  15.714  1.00  0.00     0.000 C 
ENDROOT
BRANCH   1   2
ATOM      2  C   UNL     1     -20.015  -5.401  15.017  1.00  0.00     0.000 C 
BRANCH   2   3
ATOM      3  C   UNL     1     -18.985  -6.518  14.781  1.00  0.00     0.000 C 
BRANCH   3   4
ATOM      4  C   UNL     1     -19.433  -7.867  15.365  1.00  0.00     0.000 C 
BRANCH   4   5
ATOM      5  C   UNL     1     -18.397  -8.405  16.360  1.00  0.00     0.006 C 
BRANCH   5   6
ATOM      6  C   UNL     1     -19.080  -9.067  17.560  1.00  0.00     0.053 C 
BRANCH   6   7
ATOM      7  C   UNL     1     -18.162 -10.056  18.205  1.00  0.00     0.041 C 
ATOM      8  O   UNL     1     -18.430 -11.287  18.169  1.00  0.00    -0.550 OA
ATOM      9  O   UNL     1     -17.036  -9.617  18.889  1.00  0.00    -0.550 OA
ENDBRANCH   6   7
ENDBRANCH   5   6
ENDBRANCH   4   5
ENDBRANCH   3   4
ENDBRANCH   2   3
ENDBRANCH   1   2
BRANCH   1  10
ATOM     10  C   UNL     1     -21.386  -5.356  17.142  1.00  0.00     0.000 C 
BRANCH  10  11
ATOM     11  C   UNL     1     -22.571  -5.982  17.892  1.00  0.00    -0.000 C 
BRANCH  11  12
ATOM     12  C   UNL     1     -22.405  -7.496  18.117  1.00  0.00    -0.000 C 
BRANCH  12  13
ATOM     13  C   UNL     1     -23.374  -8.383  17.311  1.00  0.00    -0.000 C 
BRANCH  13  14
ATOM     14  C   UNL     1     -22.703  -9.356  16.319  1.00  0.00    -0.000 C 
BRANCH  14  15
ATOM     15  C   UNL     1     -22.882  -8.990  14.836  1.00  0.00    -0.003 C 
ATOM     16  C   UNL     1     -23.814  -7.798  14.625  1.00  0.00     0.004 C 
ENDBRANCH  14  15
ENDBRANCH  13  14
ENDBRANCH  12  13
ENDBRANCH  11  12
ENDBRANCH  10  11
ENDBRANCH   1  10
TORSDOF 12
ENDMDL
MODEL 2
REMARK VINA RESULT:    -4.624      1.008      1.808
REMARK INTER + INTRA:          -9.487
REMARK INTER:                  -7.888
REMARK INTRA:                  -1.599
REMARK UNBOUND:                -1.619
REMARK SMILES CCCCCCCCCCCCCC(=O)[O-]
REMARK SMILES IDX 8 1 9 2 10 3 11 4 12 5 13 6 14 7 15 8 16 9 7 10 6 11 5 12
REMARK SMILES IDX 4 13 3 14 2 15 1 16
REMARK H PARENT
REMARK Flexibility Score: inf
ROOT
ATOM      1  C   UNL     1     -20.935  -5.636  16.201  1.00  0.00     0.000 C 
ENDROOT
BRANCH   1   2
ATOM      2  C   UNL     1     -20.325  -5.823  14.804  1.00  0.00     0.000 C 
BRANCH   2   3
ATOM      3  C   UNL     1     -18.934  -6.475  14.846  1.00  0.00     0.000 C 
BRANCH   3   4
ATOM      4  C   UNL     1     -18.987  -7.954  15.257  1.00  0.00     0.000 C 
BRANCH   4   5
ATOM      5  C   UNL     1     -18.183  -8.196  16.540  1.00  0.00     0.006 C 
BRANCH   5   6
ATOM      6  C   UNL     1     -18.933  -9.136  17.489  1.00  0.00     0.053 C 
BRANCH   6   7
ATOM      7  C   UNL     1     -17.968  -9.971  18.269  1.00  0.00     0.041 C 
ATOM      8  O   UNL     1     -18.229 -11.178  18.517  1.00  0.00    -0.550 OA
ATOM      9  O   UNL     1     -16.801  -9.404  18.766  1.00  0.00    -0.550 OA
ENDBRANCH   6   7
ENDBRANCH   5   6
ENDBRANCH   4   5
ENDBRANCH   3   4
ENDBRANCH   2   3
ENDBRANCH   1   2
BRANCH   1  10
ATOM     10  C   UNL     1     -22.169  -6.527  16.385  1.00  0.00     0.000 C 
BRANCH  10  11
ATOM     11  C   UNL     1     -22.610  -7.139  15.047  1.00  0.00    -0.000 C 
BRANCH  11  12
ATOM     12  C   UNL     1     -22.694  -8.676  15.091  1.00  0.00    -0.000 C 
BRANCH  12  13
ATOM     13  C   UNL     1     -22.630  -9.290  16.504  1.00  0.00    -0.000 C 
BRANCH  13  14
ATOM     14  C   UNL     1     -23.988  -9.727  17.091  1.00  0.00    -0.000 C 
BRANCH  14  15
ATOM     15  C   UNL     1     -24.707  -8.652  17.923  1.00  0.00    -0.003 C 
ATOM     16  C   UNL     1     -25.876  -8.006  17.179  1.00  0.00     0.004 C 
ENDBRANCH  14  15
ENDBRANCH  13  14
ENDBRANCH  12  13
ENDBRANCH  11  12
ENDBRANCH  10  11
ENDBRANCH   1  10
TORSDOF 12
ENDMDL
MODEL 3
REMARK VINA RESULT:    -4.574      3.788      6.293
REMARK INTER + INTRA:          -9.402
REMARK INTER:                  -8.399
REMARK INTRA:                  -1.003
REMARK UNBOUND:                -1.619
REMARK SMILES CCCCCCCCCCCCCC(=O)[O-]
REMARK SMILES IDX 8 1 9 2 10 3 11 4 12 5 13 6 14 7 15 8 16 9 7 10 6 11 5 12
REMARK SMILES IDX 4 13 3 14 2 15 1 16
REMARK H PARENT
REMARK Flexibility Score: inf
ROOT
ATOM      1  C   UNL     1     -22.972  -8.469  14.799  1.00  0.00     0.000 C 
ENDROOT
BRANCH   1   2
ATOM      2  C   UNL     1     -23.097  -9.461  15.966  1.00  0.00     0.000 C 
BRANCH   2   3
ATOM      3  C   UNL     1     -23.305  -8.763  17.319  1.00  0.00     0.000 C 
BRANCH   3   4
ATOM      4  C   UNL     1     -24.764  -8.822  17.796  1.00  0.00     0.000 C 
BRANCH   4   5
ATOM      5  C   UNL     1     -25.385  -7.420  17.836  1.00  0.00     0.006 C 
BRANCH   5   6
ATOM      6  C   UNL     1     -24.613  -6.503  18.789  1.00  0.00     0.053 C 
BRANCH   6   7
ATOM      7  C   UNL     1     -25.531  -5.924  19.817  1.00  0.00     0.041 C 
ATOM      8  O   UNL     1     -26.477  -5.168  19.469  1.00  0.00    -0.550 OA
ATOM      9  O   UNL     1     -25.314  -6.177  21.165  1.00  0.00    -0.550 OA
ENDBRANCH   6   7
ENDBRANCH   5   6
ENDBRANCH   4   5
ENDBRANCH   3   4
ENDBRANCH   2   3
ENDBRANCH   1   2
BRANCH   1  10
ATOM     10  C   UNL     1     -22.730  -7.045  15.313  1.00  0.00     0.000 C 
BRANCH  10  11
ATOM     11  C   UNL     1     -21.405  -6.484  14.776  1.00  0.00    -0.000 C 
BRANCH  11  12
ATOM     12  C   UNL     1     -20.192  -6.893  15.631  1.00  0.00    -0.000 C 
BRANCH  12  13
ATOM     13  C   UNL     1     -19.221  -7.880  14.952  1.00  0.00    -0.000 C 
BRANCH  13  14
ATOM     14  C   UNL     1     -18.081  -7.227  14.142  1.00  0.00    -0.000 C 
BRANCH  14  15
ATOM     15  C   UNL     1     -17.814  -5.750  14.480  1.00  0.00    -0.003 C 
ATOM     16  C   UNL     1     -16.941  -5.050  13.439  1.00  0.00     0.004 C 
ENDBRANCH  14  15
ENDBRANCH  13  14
ENDBRANCH  12  13
ENDBRANCH  11  12
ENDBRANCH  10  11
ENDBRANCH   1  10
TORSDOF 12
ENDMDL
MODEL 4
REMARK VINA RESULT:    -4.557      3.683      6.061
REMARK INTER + INTRA:          -9.374
REMARK INTER:                  -8.147
REMARK INTRA:                  -1.227
REMARK UNBOUND:                -1.619
REMARK SMILES CCCCCCCCCCCCCC(=O)[O-]
REMARK SMILES IDX 8 1 9 2 10 3 11 4 12 5 13 6 14 7 15 8 16 9 7 10 6 11 5 12
REMARK SMILES IDX 4 13 3 14 2 15 1 16
REMARK H PARENT
REMARK Flexibility Score: inf
ROOT
ATOM      1  C   UNL     1     -21.367  -5.588  16.002  1.00  0.00     0.000 C 
ENDROOT
BRANCH   1   2
ATOM      2  C   UNL     1     -21.790  -5.510  17.477  1.00  0.00     0.000 C 
BRANCH   2   3
ATOM      3  C   UNL     1     -22.507  -6.783  17.956  1.00  0.00     0.000 C 
BRANCH   3   4
ATOM      4  C   UNL     1     -23.914  -6.497  18.503  1.00  0.00     0.000 C 
BRANCH   4   5
ATOM      5  C   UNL     1     -24.703  -7.798  18.693  1.00  0.00     0.006 C 
BRANCH   5   6
ATOM      6  C   UNL     1     -25.117  -8.392  17.343  1.00  0.00     0.053 C 
BRANCH   6   7
ATOM      7  C   UNL     1     -26.025  -7.453  16.614  1.00  0.00     0.041 C 
ATOM      8  O   UNL     1     -27.128  -7.116  17.120  1.00  0.00    -0.550 OA
ATOM      9  O   UNL     1     -25.675  -6.986  15.353  1.00  0.00    -0.550 OA
ENDBRANCH   6   7
ENDBRANCH   5   6
ENDBRANCH   4   5
ENDBRANCH   3   4
ENDBRANCH   2   3
ENDBRANCH   1   2
BRANCH   1  10
ATOM     10  C   UNL     1     -22.025  -6.783  15.303  1.00  0.00     0.000 C 
BRANCH  10  11
ATOM     11  C   UNL     1     -20.967  -7.754  14.760  1.00  0.00    -0.000 C 
BRANCH  11  12
ATOM     12  C   UNL     1     -19.982  -8.232  15.843  1.00  0.00    -0.000 C 
BRANCH  12  13
ATOM     13  C   UNL     1     -18.495  -7.971  15.529  1.00  0.00    -0.000 C 
BRANCH  13  14
ATOM     14  C   UNL     1     -18.229  -7.109  14.278  1.00  0.00    -0.000 C 
BRANCH  14  15
ATOM     15  C   UNL     1     -17.811  -5.658  14.571  1.00  0.00    -0.003 C 
ATOM     16  C   UNL     1     -16.963  -5.046  13.457  1.00  0.00     0.004 C 
ENDBRANCH  14  15
ENDBRANCH  13  14
ENDBRANCH  12  13
ENDBRANCH  11  12
ENDBRANCH  10  11
ENDBRANCH   1  10
TORSDOF 12
ENDMDL
MODEL 5
REMARK VINA RESULT:    -4.496      1.317      2.968
REMARK INTER + INTRA:          -9.270
REMARK INTER:                  -7.921
REMARK INTRA:                  -1.350
REMARK UNBOUND:                -1.619
REMARK SMILES CCCCCCCCCCCCCC(=O)[O-]
REMARK SMILES IDX 8 1 9 2 10 3 11 4 12 5 13 6 14 7 15 8 16 9 7 10 6 11 5 12
REMARK SMILES IDX 4 13 3 14 2 15 1 16
REMARK H PARENT
REMARK Flexibility Score: inf
ROOT
ATOM      1  C   UNL     1     -22.875  -8.636  14.959  1.00  0.00     0.000 C 
ENDROOT
BRANCH   1   2
ATOM      2  C   UNL     1     -21.956  -7.410  14.852  1.00  0.00     0.000 C 
BRANCH   2   3
ATOM      3  C   UNL     1     -20.758  -7.481  15.813  1.00  0.00     0.000 C 
BRANCH   3   4
ATOM      4  C   UNL     1     -19.425  -7.699  15.080  1.00  0.00     0.000 C 
BRANCH   4   5
ATOM      5  C   UNL     1     -18.373  -8.296  16.023  1.00  0.00     0.006 C 
BRANCH   5   6
ATOM      6  C   UNL     1     -19.035  -8.995  17.214  1.00  0.00     0.053 C 
BRANCH   6   7
ATOM      7  C   UNL     1     -18.000  -9.603  18.106  1.00  0.00     0.041 C 
ATOM      8  O   UNL     1     -16.922  -8.993  18.335  1.00  0.00    -0.550 OA
ATOM      9  O   UNL     1     -18.203 -10.867  18.645  1.00  0.00    -0.550 OA
ENDBRANCH   6   7
ENDBRANCH   5   6
ENDBRANCH   4   5
ENDBRANCH   3   4
ENDBRANCH   2   3
ENDBRANCH   1   2
BRANCH   1  10
ATOM     10  C   UNL     1     -22.703  -9.336  16.313  1.00  0.00     0.000 C 
BRANCH  10  11
ATOM     11  C   UNL     1     -23.995 -10.055  16.728  1.00  0.00    -0.000 C 
BRANCH  11  12
ATOM     12  C   UNL     1     -24.855  -9.225  17.699  1.00  0.00    -0.000 C 
BRANCH  12  13
ATOM     13  C   UNL     1     -25.552  -8.003  17.068  1.00  0.00    -0.000 C 
BRANCH  13  14
ATOM     14  C   UNL     1     -25.247  -6.651  17.746  1.00  0.00    -0.000 C 
BRANCH  14  15
ATOM     15  C   UNL     1     -24.041  -6.665  18.701  1.00  0.00    -0.003 C 
ATOM     16  C   UNL     1     -22.804  -5.992  18.107  1.00  0.00     0.004 C 
ENDBRANCH  14  15
ENDBRANCH  13  14
ENDBRANCH  12  13
ENDBRANCH  11  12
ENDBRANCH  10  11
ENDBRANCH   1  10
TORSDOF 12
ENDMDL
MODEL 6
REMARK VINA RESULT:    -4.482      1.064      3.756
REMARK INTER + INTRA:          -9.245
REMARK INTER:                  -7.938
REMARK INTRA:                  -1.308
REMARK UNBOUND:                -1.619
REMARK SMILES CCCCCCCCCCCCCC(=O)[O-]
REMARK SMILES IDX 8 1 9 2 10 3 11 4 12 5 13 6 14 7 15 8 16 9 7 10 6 11 5 12
REMARK SMILES IDX 4 13 3 14 2 15 1 16
REMARK H PARENT
REMARK Flexibility Score: inf
ROOT
ATOM      1  C   UNL     1     -23.242  -6.923  16.939  1.00  0.00     0.000 C 
ENDROOT
BRANCH   1   2
ATOM      2  C   UNL     1     -23.263  -8.335  17.546  1.00  0.00     0.000 C 
BRANCH   2   3
ATOM      3  C   UNL     1     -22.429  -9.341  16.737  1.00  0.00     0.000 C 
BRANCH   3   4
ATOM      4  C   UNL     1     -21.048  -8.789  16.351  1.00  0.00     0.000 C 
BRANCH   4   5
ATOM      5  C   UNL     1     -20.104  -8.780  17.559  1.00  0.00     0.006 C 
BRANCH   5   6
ATOM      6  C   UNL     1     -18.653  -9.007  17.125  1.00  0.00     0.053 C 
BRANCH   6   7
ATOM      7  C   UNL     1     -17.934  -9.855  18.125  1.00  0.00     0.041 C 
ATOM      8  O   UNL     1     -18.340 -11.021  18.377  1.00  0.00    -0.550 OA
ATOM      9  O   UNL     1     -16.844  -9.342  18.817  1.00  0.00    -0.550 OA
ENDBRANCH   6   7
ENDBRANCH   5   6
ENDBRANCH   4   5
ENDBRANCH   3   4
ENDBRANCH   2   3
ENDBRANCH   1   2
BRANCH   1  10
ATOM     10  C   UNL     1     -22.496  -5.943  17.852  1.00  0.00     0.000 C 
BRANCH  10  11
ATOM     11  C   UNL     1     -21.416  -5.179  17.073  1.00  0.00    -0.000 C 
BRANCH  11  12
ATOM     12  C   UNL     1     -21.460  -5.458  15.560  1.00  0.00    -0.000 C 
BRANCH  12  13
ATOM     13  C   UNL     1     -20.175  -5.089  14.793  1.00  0.00    -0.000 C 
BRANCH  13  14
ATOM     14  C   UNL     1     -19.083  -6.178  14.777  1.00  0.00    -0.000 C 
BRANCH  14  15
ATOM     15  C   UNL     1     -17.640  -5.646  14.795  1.00  0.00    -0.003 C 
ATOM     16  C   UNL     1     -17.229  -4.993  13.476  1.00  0.00     0.004 C 
ENDBRANCH  14  15
ENDBRANCH  13  14
ENDBRANCH  12  13
ENDBRANCH  11  12
ENDBRANCH  10  11
ENDBRANCH   1  10
TORSDOF 12
ENDMDL
MODEL 7
REMARK VINA RESULT:    -4.480      2.149      4.861
REMARK INTER + INTRA:          -9.241
REMARK INTER:                  -7.733
REMARK INTRA:                  -1.509
REMARK UNBOUND:                -1.619
REMARK SMILES CCCCCCCCCCCCCC(=O)[O-]
REMARK SMILES IDX 8 1 9 2 10 3 11 4 12 5 13 6 14 7 15 8 16 9 7 10 6 11 5 12
REMARK SMILES IDX 4 13 3 14 2 15 1 16
REMARK H PARENT
REMARK Flexibility Score: inf
ROOT
ATOM      1  C   UNL     1     -20.652  -5.246  15.456  1.00  0.00     0.000 C 
ENDROOT
BRANCH   1   2
ATOM      2  C   UNL     1     -21.366  -4.940  16.781  1.00  0.00     0.000 C 
BRANCH   2   3
ATOM      3  C   UNL     1     -21.644  -6.203  17.612  1.00  0.00     0.000 C 
BRANCH   3   4
ATOM      4  C   UNL     1     -23.124  -6.342  17.997  1.00  0.00     0.000 C 
BRANCH   4   5
ATOM      5  C   UNL     1     -23.571  -7.808  17.935  1.00  0.00     0.006 C 
BRANCH   5   6
ATOM      6  C   UNL     1     -24.076  -8.170  16.534  1.00  0.00     0.053 C 
BRANCH   6   7
ATOM      7  C   UNL     1     -23.274  -9.296  15.964  1.00  0.00     0.041 C 
ATOM      8  O   UNL     1     -23.049  -9.351  14.725  1.00  0.00    -0.550 OA
ATOM      9  O   UNL     1     -22.815 -10.312  16.792  1.00  0.00    -0.550 OA
ENDBRANCH   6   7
ENDBRANCH   5   6
ENDBRANCH   4   5
ENDBRANCH   3   4
ENDBRANCH   2   3
ENDBRANCH   1   2
BRANCH   1  10
ATOM     10  C   UNL     1     -21.331  -6.409  14.723  1.00  0.00     0.000 C 
BRANCH  10  11
ATOM     11  C   UNL     1     -20.310  -7.495  14.351  1.00  0.00    -0.000 C 
BRANCH  11  12
ATOM     12  C   UNL     1     -18.896  -7.192  14.877  1.00  0.00    -0.000 C 
BRANCH  12  13
ATOM     13  C   UNL     1     -18.374  -8.174  15.944  1.00  0.00    -0.000 C 
BRANCH  13  14
ATOM     14  C   UNL     1     -19.462  -8.848  16.805  1.00  0.00    -0.000 C 
BRANCH  14  15
ATOM     15  C   UNL     1     -18.994  -9.305  18.197  1.00  0.00    -0.003 C 
ATOM     16  C   UNL     1     -17.472  -9.325  18.336  1.00  0.00     0.004 C 
ENDBRANCH  14  15
ENDBRANCH  13  14
ENDBRANCH  12  13
ENDBRANCH  11  12
ENDBRANCH  10  11
ENDBRANCH   1  10
TORSDOF 12
ENDMDL
MODEL 8
REMARK VINA RESULT:    -4.451      3.568      5.902
REMARK INTER + INTRA:          -9.193
REMARK INTER:                  -8.026
REMARK INTRA:                  -1.166
REMARK UNBOUND:                -1.619
REMARK SMILES CCCCCCCCCCCCCC(=O)[O-]
REMARK SMILES IDX 8 1 9 2 10 3 11 4 12 5 13 6 14 7 15 8 16 9 7 10 6 11 5 12
REMARK SMILES IDX 4 13 3 14 2 15 1 16
REMARK H PARENT
REMARK Flexibility Score: inf
ROOT
ATOM      1  C   UNL     1     -22.592  -7.164  15.043  1.00  0.00     0.000 C 
ENDROOT
BRANCH   1   2
ATOM      2  C   UNL     1     -22.536  -8.575  15.647  1.00  0.00     0.000 C 
BRANCH   2   3
ATOM      3  C   UNL     1     -22.828  -8.586  17.156  1.00  0.00     0.000 C 
BRANCH   3   4
ATOM      4  C   UNL     1     -22.147  -7.426  17.898  1.00  0.00     0.000 C 
BRANCH   4   5
ATOM      5  C   UNL     1     -23.177  -6.380  18.344  1.00  0.00     0.006 C 
BRANCH   5   6
ATOM      6  C   UNL     1     -24.533  -7.032  18.631  1.00  0.00     0.053 C 
BRANCH   6   7
ATOM      7  C   UNL     1     -25.390  -6.120  19.450  1.00  0.00     0.041 C 
ATOM      8  O   UNL     1     -26.264  -5.403  18.895  1.00  0.00    -0.550 OA
ATOM      9  O   UNL     1     -25.189  -6.023  20.821  1.00  0.00    -0.550 OA
ENDBRANCH   6   7
ENDBRANCH   5   6
ENDBRANCH   4   5
ENDBRANCH   3   4
ENDBRANCH   2   3
ENDBRANCH   1   2
BRANCH   1  10
ATOM     10  C   UNL     1     -21.204  -6.712  14.574  1.00  0.00     0.000 C 
BRANCH  10  11
ATOM     11  C   UNL     1     -20.280  -7.918  14.349  1.00  0.00    -0.000 C 
BRANCH  11  12
ATOM     12  C   UNL     1     -18.792  -7.578  14.557  1.00  0.00    -0.000 C 
BRANCH  12  13
ATOM     13  C   UNL     1     -18.244  -7.891  15.963  1.00  0.00    -0.000 C 
BRANCH  13  14
ATOM     14  C   UNL     1     -19.005  -8.987  16.736  1.00  0.00    -0.000 C 
BRANCH  14  15
ATOM     15  C   UNL     1     -18.415  -9.334  18.114  1.00  0.00    -0.003 C 
ATOM     16  C   UNL     1     -18.188 -10.833  18.304  1.00  0.00     0.004 C 
ENDBRANCH  14  15
ENDBRANCH  13  14
ENDBRANCH  12  13
ENDBRANCH  11  12
ENDBRANCH  10  11
ENDBRANCH   1  10
TORSDOF 12
ENDMDL
MODEL 9
REMARK VINA RESULT:    -4.440      3.593      6.004
REMARK INTER + INTRA:          -9.175
REMARK INTER:                  -7.447
REMARK INTRA:                  -1.728
REMARK UNBOUND:                -1.619
REMARK SMILES CCCCCCCCCCCCCC(=O)[O-]
REMARK SMILES IDX 8 1 9 2 10 3 11 4 12 5 13 6 14 7 15 8 16 9 7 10 6 11 5 12
REMARK SMILES IDX 4 13 3 14 2 15 1 16
REMARK H PARENT
REMARK Flexibility Score: inf
ROOT
ATOM      1  C   UNL     1     -22.357  -7.102  15.047  1.00  0.00     0.000 C 
ENDROOT
BRANCH   1   2
ATOM      2  C   UNL     1     -22.538  -8.607  15.295  1.00  0.00     0.000 C 
BRANCH   2   3
ATOM      3  C   UNL     1     -22.779  -8.940  16.776  1.00  0.00     0.000 C 
BRANCH   3   4
ATOM      4  C   UNL     1     -24.252  -9.255  17.079  1.00  0.00     0.000 C 
BRANCH   4   5
ATOM      5  C   UNL     1     -24.814  -8.288  18.129  1.00  0.00     0.006 C 
BRANCH   5   6
ATOM      6  C   UNL     1     -25.236  -6.963  17.486  1.00  0.00     0.053 C 
BRANCH   6   7
ATOM      7  C   UNL     1     -26.144  -7.211  16.324  1.00  0.00     0.041 C 
ATOM      8  O   UNL     1     -25.810  -6.840  15.167  1.00  0.00    -0.550 OA
ATOM      9  O   UNL     1     -27.382  -7.808  16.524  1.00  0.00    -0.550 OA
ENDBRANCH   6   7
ENDBRANCH   5   6
ENDBRANCH   4   5
ENDBRANCH   3   4
ENDBRANCH   2   3
ENDBRANCH   1   2
BRANCH   1  10
ATOM     10  C   UNL     1     -21.991  -6.372  16.345  1.00  0.00     0.000 C 
BRANCH  10  11
ATOM     11  C   UNL     1     -21.012  -5.221  16.071  1.00  0.00    -0.000 C 
BRANCH  11  12
ATOM     12  C   UNL     1     -20.263  -5.378  14.735  1.00  0.00    -0.000 C 
BRANCH  12  13
ATOM     13  C   UNL     1     -18.725  -5.377  14.848  1.00  0.00    -0.000 C 
BRANCH  13  14
ATOM     14  C   UNL     1     -18.039  -6.706  14.469  1.00  0.00    -0.000 C 
BRANCH  14  15
ATOM     15  C   UNL     1     -18.869  -7.967  14.761  1.00  0.00    -0.003 C 
ATOM     16  C   UNL     1     -18.750  -8.437  16.210  1.00  0.00     0.004 C 
ENDBRANCH  14  15
ENDBRANCH  13  14
ENDBRANCH  12  13
ENDBRANCH  11  12
ENDBRANCH  10  11
ENDBRANCH   1  10
TORSDOF 12
ENDMDL
