MODEL 1
REMARK VINA RESULT:    -4.884      0.000      0.000
REMARK INTER + INTRA:          -8.608
REMARK INTER:                  -7.739
REMARK INTRA:                  -0.869
REMARK UNBOUND:                -0.869
REMARK SMILES CCCCCCCCCCCC(=O)[O-]
REMARK SMILES IDX 7 1 8 2 9 3 10 4 11 5 12 6 13 7 14 8 6 9 5 10 4 11 3 12 2 13
REMARK SMILES IDX 1 14
REMARK H PARENT
REMARK Flexibility Score: inf
ROOT
ATOM      1  C   UNL     1      74.611  13.272  17.251  1.00  0.00     0.000 C 
ENDROOT
BRANCH   1   2
ATOM      2  C   UNL     1      75.253  14.650  17.031  1.00  0.00     0.000 C 
BRANCH   2   3
ATOM      3  C   UNL     1      75.177  15.060  15.552  1.00  0.00     0.000 C 
BRANCH   3   4
ATOM      4  C   UNL     1      74.543  16.446  15.354  1.00  0.00     0.006 C 
BRANCH   4   5
ATOM      5  C   UNL     1      75.129  17.504  16.298  1.00  0.00     0.053 C 
BRANCH   5   6
ATOM      6  C   UNL     1      76.501  17.899  15.850  1.00  0.00     0.041 C 
ATOM      7  O   UNL     1      77.502  17.638  16.569  1.00  0.00    -0.550 OA
ATOM      8  O   UNL     1      76.680  18.510  14.616  1.00  0.00    -0.550 OA
ENDBRANCH   5   6
ENDBRANCH   4   5
ENDBRANCH   3   4
ENDBRANCH   2   3
ENDBRANCH   1   2
BRANCH   1   9
ATOM      9  C   UNL     1      73.830  13.181  18.574  1.00  0.00     0.000 C 
BRANCH   9  10
ATOM     10  C   UNL     1      74.269  12.040  19.513  1.00  0.00    -0.000 C 
BRANCH  10  11
ATOM     11  C   UNL     1      75.343  11.094  18.938  1.00  0.00    -0.000 C 
BRANCH  11  12
ATOM     12  C   UNL     1      76.610  10.951  19.802  1.00  0.00    -0.000 C 
BRANCH  12  13
ATOM     13  C   UNL     1      77.206  12.304  20.214  1.00  0.00    -0.003 C 
ATOM     14  C   UNL     1      78.329  12.720  19.269  1.00  0.00     0.004 C 
ENDBRANCH  12  13
ENDBRANCH  11  12
ENDBRANCH  10  11
ENDBRANCH   9  10
ENDBRANCH   1   9
TORSDOF 10
ENDMDL
MODEL 2
REMARK VINA RESULT:    -4.843      1.886      3.604
REMARK INTER + INTRA:          -8.542
REMARK INTER:                  -7.839
REMARK INTRA:                  -0.704
REMARK UNBOUND:                -0.869
REMARK SMILES CCCCCCCCCCCC(=O)[O-]
REMARK SMILES IDX 7 1 8 2 9 3 10 4 11 5 12 6 13 7 14 8 6 9 5 10 4 11 3 12 2 13
REMARK SMILES IDX 1 14
REMARK H PARENT
REMARK Flexibility Score: inf
ROOT
ATOM      1  C   UNL     1      75.527  12.021  20.150  1.00  0.00     0.000 C 
ENDROOT
BRANCH   1   2
ATOM      2  C   UNL     1      74.359  11.801  19.178  1.00  0.00     0.000 C 
BRANCH   2   3
ATOM      3  C   UNL     1      73.834  13.142  18.640  1.00  0.00     0.000 C 
BRANCH   3   4
ATOM      4  C   UNL     1      74.957  14.043  18.101  1.00  0.00     0.006 C 
BRANCH   4   5
ATOM      5  C   UNL     1      74.973  14.114  16.569  1.00  0.00     0.053 C 
BRANCH   5   6
ATOM      6  C   UNL     1      75.150  15.530  16.114  1.00  0.00     0.041 C 
ATOM      7  O   UNL     1      75.216  15.797  14.886  1.00  0.00    -0.550 OA
ATOM      8  O   UNL     1      75.191  16.559  17.047  1.00  0.00    -0.550 OA
ENDBRANCH   5   6
ENDBRANCH   4   5
ENDBRANCH   3   4
ENDBRANCH   2   3
ENDBRANCH   1   2
BRANCH   1   9
ATOM      9  C   UNL     1      76.653  10.986  19.975  1.00  0.00     0.000 C 
BRANCH   9  10
ATOM     10  C   UNL     1      78.037  11.578  19.643  1.00  0.00    -0.000 C 
BRANCH  10  11
ATOM     11  C   UNL     1      78.128  13.115  19.721  1.00  0.00    -0.000 C 
BRANCH  11  12
ATOM     12  C   UNL     1      79.552  13.688  19.597  1.00  0.00    -0.000 C 
BRANCH  12  13
ATOM     13  C   UNL     1      80.070  14.288  20.911  1.00  0.00    -0.003 C 
ATOM     14  C   UNL     1      81.594  14.352  20.923  1.00  0.00     0.004 C 
ENDBRANCH  12  13
ENDBRANCH  11  12
ENDBRANCH  10  11
ENDBRANCH   9  10
ENDBRANCH   1   9
TORSDOF 10
ENDMDL
MODEL 3
REMARK VINA RESULT:    -4.824      2.780      5.978
REMARK INTER + INTRA:          -8.513
REMARK INTER:                  -7.531
REMARK INTRA:                  -0.982
REMARK UNBOUND:                -0.869
REMARK SMILES CCCCCCCCCCCC(=O)[O-]
REMARK SMILES IDX 7 1 8 2 9 3 10 4 11 5 12 6 13 7 14 8 6 9 5 10 4 11 3 12 2 13
REMARK SMILES IDX 1 14
REMARK H PARENT
REMARK Flexibility Score: inf
ROOT
ATOM      1  C   UNL     1      75.088  14.117  18.259  1.00  0.00     0.000 C 
ENDROOT
BRANCH   1   2
ATOM      2  C   UNL     1      73.971  13.118  18.594  1.00  0.00     0.000 C 
BRANCH   2   3
ATOM      3  C   UNL     1      74.557  11.770  19.044  1.00  0.00     0.000 C 
BRANCH   3   4
ATOM      4  C   UNL     1      75.509  11.909  20.243  1.00  0.00     0.006 C 
BRANCH   4   5
ATOM      5  C   UNL     1      76.746  11.010  20.122  1.00  0.00     0.053 C 
BRANCH   5   6
ATOM      6  C   UNL     1      77.897  11.781  19.555  1.00  0.00     0.041 C 
ATOM      7  O   UNL     1      78.478  11.377  18.513  1.00  0.00    -0.550 OA
ATOM      8  O   UNL     1      78.296  12.972  20.148  1.00  0.00    -0.550 OA
ENDBRANCH   5   6
ENDBRANCH   4   5
ENDBRANCH   3   4
ENDBRANCH   2   3
ENDBRANCH   1   2
BRANCH   1   9
ATOM      9  C   UNL     1      75.922  13.694  17.037  1.00  0.00     0.000 C 
BRANCH   9  10
ATOM     10  C   UNL     1      75.223  13.876  15.676  1.00  0.00    -0.000 C 
BRANCH  10  11
ATOM     11  C   UNL     1      75.560  15.186  14.935  1.00  0.00    -0.000 C 
BRANCH  11  12
ATOM     12  C   UNL     1      74.671  16.387  15.304  1.00  0.00    -0.000 C 
BRANCH  12  13
ATOM     13  C   UNL     1      75.457  17.702  15.402  1.00  0.00    -0.003 C 
ATOM     14  C   UNL     1      76.781  17.497  16.133  1.00  0.00     0.004 C 
ENDBRANCH  12  13
ENDBRANCH  11  12
ENDBRANCH  10  11
ENDBRANCH   9  10
ENDBRANCH   1   9
TORSDOF 10
ENDMDL
MODEL 4
REMARK VINA RESULT:    -4.796      1.500      2.765
REMARK INTER + INTRA:          -8.468
REMARK INTER:                  -7.478
REMARK INTRA:                  -0.990
REMARK UNBOUND:                -0.869
REMARK SMILES CCCCCCCCCCCC(=O)[O-]
REMARK SMILES IDX 7 1 8 2 9 3 10 4 11 5 12 6 13 7 14 8 6 9 5 10 4 11 3 12 2 13
REMARK SMILES IDX 1 14
REMARK H PARENT
REMARK Flexibility Score: inf
ROOT
ATOM      1  C   UNL     1      74.540  12.015  18.837  1.00  0.00     0.000 C 
ENDROOT
BRANCH   1   2
ATOM      2  C   UNL     1      73.978  13.411  18.530  1.00  0.00     0.000 C 
BRANCH   2   3
ATOM      3  C   UNL     1      75.063  14.320  17.931  1.00  0.00     0.000 C 
BRANCH   3   4
ATOM      4  C   UNL     1      75.826  13.649  16.776  1.00  0.00     0.006 C 
BRANCH   4   5
ATOM      5  C   UNL     1      75.369  14.148  15.399  1.00  0.00     0.053 C 
BRANCH   5   6
ATOM      6  C   UNL     1      75.657  15.609  15.252  1.00  0.00     0.041 C 
ATOM      7  O   UNL     1      74.722  16.419  15.019  1.00  0.00    -0.550 OA
ATOM      8  O   UNL     1      76.952  16.083  15.423  1.00  0.00    -0.550 OA
ENDBRANCH   5   6
ENDBRANCH   4   5
ENDBRANCH   3   4
ENDBRANCH   2   3
ENDBRANCH   1   2
BRANCH   1   9
ATOM      9  C   UNL     1      75.340  11.968  20.151  1.00  0.00     0.000 C 
BRANCH   9  10
ATOM     10  C   UNL     1      76.614  11.100  20.107  1.00  0.00    -0.000 C 
BRANCH  10  11
ATOM     11  C   UNL     1      77.816  11.736  19.380  1.00  0.00    -0.000 C 
BRANCH  11  12
ATOM     12  C   UNL     1      78.159  13.170  19.825  1.00  0.00    -0.000 C 
BRANCH  12  13
ATOM     13  C   UNL     1      79.666  13.459  19.791  1.00  0.00    -0.003 C 
ATOM     14  C   UNL     1      80.018  14.640  20.691  1.00  0.00     0.004 C 
ENDBRANCH  12  13
ENDBRANCH  11  12
ENDBRANCH  10  11
ENDBRANCH   9  10
ENDBRANCH   1   9
TORSDOF 10
ENDMDL
MODEL 5
REMARK VINA RESULT:    -4.770      1.086      1.800
REMARK INTER + INTRA:          -8.427
REMARK INTER:                  -7.639
REMARK INTRA:                  -0.787
REMARK UNBOUND:                -0.869
REMARK SMILES CCCCCCCCCCCC(=O)[O-]
REMARK SMILES IDX 7 1 8 2 9 3 10 4 11 5 12 6 13 7 14 8 6 9 5 10 4 11 3 12 2 13
REMARK SMILES IDX 1 14
REMARK H PARENT
REMARK Flexibility Score: inf
ROOT
ATOM      1  C   UNL     1      75.510  13.125  17.501  1.00  0.00     0.000 C 
ENDROOT
BRANCH   1   2
ATOM      2  C   UNL     1      75.313  12.932  15.990  1.00  0.00     0.000 C 
BRANCH   2   3
ATOM      3  C   UNL     1      75.450  14.269  15.244  1.00  0.00     0.000 C 
BRANCH   3   4
ATOM      4  C   UNL     1      74.770  15.432  15.984  1.00  0.00     0.006 C 
BRANCH   4   5
ATOM      5  C   UNL     1      74.813  16.743  15.189  1.00  0.00     0.053 C 
BRANCH   5   6
ATOM      6  C   UNL     1      76.120  17.441  15.405  1.00  0.00     0.041 C 
ATOM      7  O   UNL     1      76.497  18.340  14.608  1.00  0.00    -0.550 OA
ATOM      8  O   UNL     1      76.897  17.133  16.514  1.00  0.00    -0.550 OA
ENDBRANCH   5   6
ENDBRANCH   4   5
ENDBRANCH   3   4
ENDBRANCH   2   3
ENDBRANCH   1   2
BRANCH   1   9
ATOM      9  C   UNL     1      74.382  12.494  18.337  1.00  0.00     0.000 C 
BRANCH   9  10
ATOM     10  C   UNL     1      74.803  12.009  19.738  1.00  0.00    -0.000 C 
BRANCH  10  11
ATOM     11  C   UNL     1      76.322  12.004  20.002  1.00  0.00    -0.000 C 
BRANCH  11  12
ATOM     12  C   UNL     1      76.933  10.613  20.250  1.00  0.00    -0.000 C 
BRANCH  12  13
ATOM     13  C   UNL     1      77.813  10.133  19.088  1.00  0.00    -0.003 C 
ATOM     14  C   UNL     1      76.973   9.477  17.996  1.00  0.00     0.004 C 
ENDBRANCH  12  13
ENDBRANCH  11  12
ENDBRANCH  10  11
ENDBRANCH   9  10
ENDBRANCH   1   9
TORSDOF 10
ENDMDL
MODEL 6
REMARK VINA RESULT:    -4.761      2.007      3.320
REMARK INTER + INTRA:          -8.413
REMARK INTER:                  -7.487
REMARK INTRA:                  -0.926
REMARK UNBOUND:                -0.869
REMARK SMILES CCCCCCCCCCCC(=O)[O-]
REMARK SMILES IDX 7 1 8 2 9 3 10 4 11 5 12 6 13 7 14 8 6 9 5 10 4 11 3 12 2 13
REMARK SMILES IDX 1 14
REMARK H PARENT
REMARK Flexibility Score: inf
ROOT
ATOM      1  C   UNL     1      75.866  12.263  19.483  1.00  0.00     0.000 C 
ENDROOT
BRANCH   1   2
ATOM      2  C   UNL     1      74.359  12.028  19.301  1.00  0.00     0.000 C 
BRANCH   2   3
ATOM      3  C   UNL     1      73.728  13.146  18.457  1.00  0.00     0.000 C 
BRANCH   3   4
ATOM      4  C   UNL     1      74.742  14.230  18.057  1.00  0.00     0.006 C 
BRANCH   4   5
ATOM      5  C   UNL     1      74.900  14.359  16.537  1.00  0.00     0.053 C 
BRANCH   5   6
ATOM      6  C   UNL     1      75.065  15.795  16.150  1.00  0.00     0.041 C 
ATOM      7  O   UNL     1      75.358  16.657  17.020  1.00  0.00    -0.550 OA
ATOM      8  O   UNL     1      74.944  16.175  14.819  1.00  0.00    -0.550 OA
ENDBRANCH   5   6
ENDBRANCH   4   5
ENDBRANCH   3   4
ENDBRANCH   2   3
ENDBRANCH   1   2
BRANCH   1   9
ATOM      9  C   UNL     1      76.469  11.420  20.621  1.00  0.00     0.000 C 
BRANCH   9  10
ATOM     10  C   UNL     1      77.266  10.182  20.163  1.00  0.00    -0.000 C 
BRANCH  10  11
ATOM     11  C   UNL     1      77.901  10.292  18.763  1.00  0.00    -0.000 C 
BRANCH  11  12
ATOM     12  C   UNL     1      77.413   9.245  17.745  1.00  0.00    -0.000 C 
BRANCH  12  13
ATOM     13  C   UNL     1      77.468   9.750  16.297  1.00  0.00    -0.003 C 
ATOM     14  C   UNL     1      77.235  11.257  16.232  1.00  0.00     0.004 C 
ENDBRANCH  12  13
ENDBRANCH  11  12
ENDBRANCH  10  11
ENDBRANCH   9  10
ENDBRANCH   1   9
TORSDOF 10
ENDMDL
MODEL 7
REMARK VINA RESULT:    -4.738      2.844      5.561
REMARK INTER + INTRA:          -8.376
REMARK INTER:                  -7.489
REMARK INTRA:                  -0.887
REMARK UNBOUND:                -0.869
REMARK SMILES CCCCCCCCCCCC(=O)[O-]
REMARK SMILES IDX 7 1 8 2 9 3 10 4 11 5 12 6 13 7 14 8 6 9 5 10 4 11 3 12 2 13
REMARK SMILES IDX 1 14
REMARK H PARENT
REMARK Flexibility Score: inf
ROOT
ATOM      1  C   UNL     1      74.138  11.962  19.404  1.00  0.00     0.000 C 
ENDROOT
BRANCH   1   2
ATOM      2  C   UNL     1      75.568  11.488  19.104  1.00  0.00     0.000 C 
BRANCH   2   3
ATOM      3  C   UNL     1      76.531  11.910  20.224  1.00  0.00     0.000 C 
BRANCH   3   4
ATOM      4  C   UNL     1      77.969  12.117  19.721  1.00  0.00     0.006 C 
BRANCH   4   5
ATOM      5  C   UNL     1      78.393  13.591  19.734  1.00  0.00     0.053 C 
BRANCH   5   6
ATOM      6  C   UNL     1      79.855  13.711  20.031  1.00  0.00     0.041 C 
ATOM      7  O   UNL     1      80.678  12.927  19.489  1.00  0.00    -0.550 OA
ATOM      8  O   UNL     1      80.314  14.721  20.867  1.00  0.00    -0.550 OA
ENDBRANCH   5   6
ENDBRANCH   4   5
ENDBRANCH   3   4
ENDBRANCH   2   3
ENDBRANCH   1   2
BRANCH   1   9
ATOM      9  C   UNL     1      73.752  13.231  18.624  1.00  0.00     0.000 C 
BRANCH   9  10
ATOM     10  C   UNL     1      74.731  13.628  17.501  1.00  0.00    -0.000 C 
BRANCH  10  11
ATOM     11  C   UNL     1      75.471  14.964  17.716  1.00  0.00    -0.000 C 
BRANCH  11  12
ATOM     12  C   UNL     1      76.360  15.410  16.541  1.00  0.00    -0.000 C 
BRANCH  12  13
ATOM     13  C   UNL     1      75.603  15.459  15.207  1.00  0.00    -0.003 C 
ATOM     14  C   UNL     1      74.656  16.655  15.156  1.00  0.00     0.004 C 
ENDBRANCH  12  13
ENDBRANCH  11  12
ENDBRANCH  10  11
ENDBRANCH   9  10
ENDBRANCH   1   9
TORSDOF 10
ENDMDL
MODEL 8
REMARK VINA RESULT:    -4.714      2.527      4.471
REMARK INTER + INTRA:          -8.339
REMARK INTER:                  -7.749
REMARK INTRA:                  -0.591
REMARK UNBOUND:                -0.869
REMARK SMILES CCCCCCCCCCCC(=O)[O-]
REMARK SMILES IDX 7 1 8 2 9 3 10 4 11 5 12 6 13 7 14 8 6 9 5 10 4 11 3 12 2 13
REMARK SMILES IDX 1 14
REMARK H PARENT
REMARK Flexibility Score: inf
ROOT
ATOM      1  C   UNL     1      76.345  10.996  19.444  1.00  0.00     0.000 C 
ENDROOT
BRANCH   1   2
ATOM      2  C   UNL     1      75.348  12.007  20.029  1.00  0.00     0.000 C 
BRANCH   2   3
ATOM      3  C   UNL     1      74.020  11.978  19.256  1.00  0.00     0.000 C 
BRANCH   3   4
ATOM      4  C   UNL     1      73.674  13.336  18.623  1.00  0.00     0.006 C 
BRANCH   4   5
ATOM      5  C   UNL     1      74.916  14.100  18.149  1.00  0.00     0.053 C 
BRANCH   5   6
ATOM      6  C   UNL     1      74.912  14.228  16.658  1.00  0.00     0.041 C 
ATOM      7  O   UNL     1      74.772  15.357  16.118  1.00  0.00    -0.550 OA
ATOM      8  O   UNL     1      75.113  13.106  15.863  1.00  0.00    -0.550 OA
ENDBRANCH   5   6
ENDBRANCH   4   5
ENDBRANCH   3   4
ENDBRANCH   2   3
ENDBRANCH   1   2
BRANCH   1   9
ATOM      9  C   UNL     1      77.810  11.359  19.742  1.00  0.00     0.000 C 
BRANCH   9  10
ATOM     10  C   UNL     1      78.140  12.863  19.652  1.00  0.00    -0.000 C 
BRANCH  10  11
ATOM     11  C   UNL     1      79.637  13.214  19.756  1.00  0.00    -0.000 C 
BRANCH  11  12
ATOM     12  C   UNL     1      79.949  14.502  20.541  1.00  0.00    -0.000 C 
BRANCH  12  13
ATOM     13  C   UNL     1      81.441  14.858  20.533  1.00  0.00    -0.003 C 
ATOM     14  C   UNL     1      82.303  13.618  20.753  1.00  0.00     0.004 C 
ENDBRANCH  12  13
ENDBRANCH  11  12
ENDBRANCH  10  11
ENDBRANCH   9  10
ENDBRANCH   1   9
TORSDOF 10
ENDMDL
MODEL 9
REMARK VINA RESULT:    -4.697      2.635      4.877
REMARK INTER + INTRA:          -8.311
REMARK INTER:                  -6.973
REMARK INTRA:                  -1.338
REMARK UNBOUND:                -0.869
REMARK SMILES CCCCCCCCCCCC(=O)[O-]
REMARK SMILES IDX 7 1 8 2 9 3 10 4 11 5 12 6 13 7 14 8 6 9 5 10 4 11 3 12 2 13
REMARK SMILES IDX 1 14
REMARK H PARENT
REMARK Flexibility Score: inf
ROOT
ATOM      1  C   UNL     1      75.593  11.998  20.124  1.00  0.00     0.000 C 
ENDROOT
BRANCH   1   2
ATOM      2  C   UNL     1      76.777  11.110  19.712  1.00  0.00     0.000 C 
BRANCH   2   3
ATOM      3  C   UNL     1      77.897  11.950  19.079  1.00  0.00     0.000 C 
BRANCH   3   4
ATOM      4  C   UNL     1      78.416  13.050  20.019  1.00  0.00     0.006 C 
BRANCH   4   5
ATOM      5  C   UNL     1      78.703  14.366  19.285  1.00  0.00     0.053 C 
BRANCH   5   6
ATOM      6  C   UNL     1      79.720  15.170  20.035  1.00  0.00     0.041 C 
ATOM      7  O   UNL     1      80.445  14.620  20.906  1.00  0.00    -0.550 OA
ATOM      8  O   UNL     1      79.902  16.514  19.736  1.00  0.00    -0.550 OA
ENDBRANCH   5   6
ENDBRANCH   4   5
ENDBRANCH   3   4
ENDBRANCH   2   3
ENDBRANCH   1   2
BRANCH   1   9
ATOM      9  C   UNL     1      74.372  11.833  19.201  1.00  0.00     0.000 C 
BRANCH   9  10
ATOM     10  C   UNL     1      73.940  13.113  18.458  1.00  0.00    -0.000 C 
BRANCH  10  11
ATOM     11  C   UNL     1      75.058  14.149  18.231  1.00  0.00    -0.000 C 
BRANCH  11  12
ATOM     12  C   UNL     1      75.425  14.395  16.756  1.00  0.00    -0.000 C 
BRANCH  12  13
ATOM     13  C   UNL     1      75.122  13.189  15.858  1.00  0.00    -0.003 C 
ATOM     14  C   UNL     1      76.354  12.303  15.693  1.00  0.00     0.004 C 
ENDBRANCH  12  13
ENDBRANCH  11  12
ENDBRANCH  10  11
ENDBRANCH   9  10
ENDBRANCH   1   9
TORSDOF 10
ENDMDL
