MODEL 1
REMARK VINA RESULT:    -5.677      0.000      0.000
REMARK INTER + INTRA:          -5.843
REMARK INTER:                  -5.843
REMARK INTRA:                   0.000
REMARK UNBOUND:                 0.000
REMARK SMILES O=c1ccc2ccc(O)cc2o1
REMARK SMILES IDX 6 1 7 2 8 3 10 4 11 5 5 6 4 7 3 8 2 9 1 10 12 11 9 12
REMARK H PARENT 9 13
REMARK Flexibility Score: inf
ROOT
ATOM      1  C   UNL     1      13.617 -16.772   6.734  1.00  0.00     0.016 A 
ATOM      2  C   UNL     1      14.529 -15.714   6.751  1.00  0.00     0.047 A 
ATOM      3  C   UNL     1      14.134 -14.445   7.194  1.00  0.00     0.119 A 
ATOM      4  C   UNL     1      12.815 -14.234   7.624  1.00  0.00     0.094 A 
ATOM      5  C   UNL     1      11.895 -15.287   7.611  1.00  0.00     0.142 A 
ATOM      6  C   UNL     1      12.297 -16.564   7.163  1.00  0.00     0.018 A 
ATOM      7  C   UNL     1      11.355 -17.598   7.162  1.00  0.00     0.019 A 
ATOM      8  C   UNL     1      10.056 -17.339   7.598  1.00  0.00     0.094 A 
ATOM      9  C   UNL     1       9.729 -16.049   8.027  1.00  0.00     0.336 A 
ATOM     10  O   UNL     1       8.562 -15.797   8.426  1.00  0.00    -0.246 OA
ATOM     11  O   UNL     1      10.645 -15.083   8.020  1.00  0.00    -0.423 OA
ENDROOT
BRANCH   3  12
ATOM     12  O   UNL     1      15.059 -13.403   7.203  1.00  0.00    -0.508 OA
ATOM     13  H   UNL     1      15.823 -13.368   6.538  1.00  0.00     0.293 HD
ENDBRANCH   3  12
TORSDOF 1
ENDMDL
MODEL 2
REMARK VINA RESULT:    -5.259      0.935      4.226
REMARK INTER + INTRA:          -5.412
REMARK INTER:                  -5.412
REMARK INTRA:                   0.000
REMARK UNBOUND:                 0.000
REMARK SMILES O=c1ccc2ccc(O)cc2o1
REMARK SMILES IDX 6 1 7 2 8 3 10 4 11 5 5 6 4 7 3 8 2 9 1 10 12 11 9 12
REMARK H PARENT 9 13
REMARK Flexibility Score: inf
ROOT
ATOM      1  C   UNL     1      11.251 -17.683   7.392  1.00  0.00     0.016 A 
ATOM      2  C   UNL     1       9.881 -17.403   7.356  1.00  0.00     0.047 A 
ATOM      3  C   UNL     1       9.429 -16.078   7.336  1.00  0.00     0.119 A 
ATOM      4  C   UNL     1      10.353 -15.023   7.354  1.00  0.00     0.094 A 
ATOM      5  C   UNL     1      11.725 -15.292   7.390  1.00  0.00     0.142 A 
ATOM      6  C   UNL     1      12.178 -16.630   7.410  1.00  0.00     0.018 A 
ATOM      7  C   UNL     1      13.555 -16.868   7.446  1.00  0.00     0.019 A 
ATOM      8  C   UNL     1      14.436 -15.787   7.463  1.00  0.00     0.094 A 
ATOM      9  C   UNL     1      13.915 -14.488   7.442  1.00  0.00     0.336 A 
ATOM     10  O   UNL     1      14.695 -13.500   7.455  1.00  0.00    -0.246 OA
ATOM     11  O   UNL     1      12.600 -14.290   7.407  1.00  0.00    -0.423 OA
ENDROOT
BRANCH   3  12
ATOM     12  O   UNL     1       8.060 -15.821   7.300  1.00  0.00    -0.508 OA
ATOM     13  H   UNL     1       7.662 -15.006   7.753  1.00  0.00     0.293 HD
ENDBRANCH   3  12
TORSDOF 1
ENDMDL
MODEL 3
REMARK VINA RESULT:    -4.768      1.182      4.372
REMARK INTER + INTRA:          -4.907
REMARK INTER:                  -4.907
REMARK INTRA:                   0.000
REMARK UNBOUND:                 0.000
REMARK SMILES O=c1ccc2ccc(O)cc2o1
REMARK SMILES IDX 6 1 7 2 8 3 10 4 11 5 5 6 4 7 3 8 2 9 1 10 12 11 9 12
REMARK H PARENT 9 13
REMARK Flexibility Score: inf
ROOT
ATOM      1  C   UNL     1      10.862 -17.995   8.528  1.00  0.00     0.016 A 
ATOM      2  C   UNL     1       9.486 -17.748   8.503  1.00  0.00     0.047 A 
ATOM      3  C   UNL     1       9.002 -16.461   8.236  1.00  0.00     0.119 A 
ATOM      4  C   UNL     1       9.901 -15.412   7.992  1.00  0.00     0.094 A 
ATOM      5  C   UNL     1      11.279 -15.649   8.014  1.00  0.00     0.142 A 
ATOM      6  C   UNL     1      11.764 -16.948   8.284  1.00  0.00     0.018 A 
ATOM      7  C   UNL     1      13.146 -17.155   8.299  1.00  0.00     0.019 A 
ATOM      8  C   UNL     1      14.001 -16.081   8.051  1.00  0.00     0.094 A 
ATOM      9  C   UNL     1      13.449 -14.822   7.792  1.00  0.00     0.336 A 
ATOM     10  O   UNL     1      14.205 -13.841   7.564  1.00  0.00    -0.246 OA
ATOM     11  O   UNL     1      12.130 -14.653   7.782  1.00  0.00    -0.423 OA
ENDROOT
BRANCH   3  12
ATOM     12  O   UNL     1       7.627 -16.236   8.216  1.00  0.00    -0.508 OA
ATOM     13  H   UNL     1       7.237 -15.324   8.426  1.00  0.00     0.293 HD
ENDBRANCH   3  12
TORSDOF 1
ENDMDL
MODEL 4
REMARK VINA RESULT:    -4.609      2.053      4.809
REMARK INTER + INTRA:          -4.744
REMARK INTER:                  -4.744
REMARK INTRA:                   0.000
REMARK UNBOUND:                 0.000
REMARK SMILES O=c1ccc2ccc(O)cc2o1
REMARK SMILES IDX 6 1 7 2 8 3 10 4 11 5 5 6 4 7 3 8 2 9 1 10 12 11 9 12
REMARK H PARENT 9 13
REMARK Flexibility Score: inf
ROOT
ATOM      1  C   UNL     1      10.362 -15.147   7.505  1.00  0.00     0.016 A 
ATOM      2  C   UNL     1       9.134 -15.800   7.366  1.00  0.00     0.047 A 
ATOM      3  C   UNL     1       9.088 -17.182   7.141  1.00  0.00     0.119 A 
ATOM      4  C   UNL     1      10.280 -17.917   7.054  1.00  0.00     0.094 A 
ATOM      5  C   UNL     1      11.513 -17.273   7.193  1.00  0.00     0.142 A 
ATOM      6  C   UNL     1      11.556 -15.879   7.420  1.00  0.00     0.018 A 
ATOM      7  C   UNL     1      12.804 -15.263   7.554  1.00  0.00     0.019 A 
ATOM      8  C   UNL     1      13.961 -16.035   7.461  1.00  0.00     0.094 A 
ATOM      9  C   UNL     1      13.842 -17.411   7.235  1.00  0.00     0.336 A 
ATOM     10  O   UNL     1      14.876 -18.124   7.149  1.00  0.00    -0.246 OA
ATOM     11  O   UNL     1      12.642 -17.972   7.111  1.00  0.00    -0.423 OA
ENDROOT
BRANCH   3  12
ATOM     12  O   UNL     1       7.853 -17.813   7.004  1.00  0.00    -0.508 OA
ATOM     13  H   UNL     1       7.534 -18.503   7.676  1.00  0.00     0.293 HD
ENDBRANCH   3  12
TORSDOF 1
ENDMDL
MODEL 5
REMARK VINA RESULT:    -4.600      2.147      2.784
REMARK INTER + INTRA:          -4.735
REMARK INTER:                  -4.735
REMARK INTRA:                   0.000
REMARK UNBOUND:                 0.000
REMARK SMILES O=c1ccc2ccc(O)cc2o1
REMARK SMILES IDX 6 1 7 2 8 3 10 4 11 5 5 6 4 7 3 8 2 9 1 10 12 11 9 12
REMARK H PARENT 9 13
REMARK Flexibility Score: inf
ROOT
ATOM      1  C   UNL     1      12.170 -15.509   8.613  1.00  0.00     0.016 A 
ATOM      2  C   UNL     1      13.438 -16.059   8.402  1.00  0.00     0.047 A 
ATOM      3  C   UNL     1      13.587 -17.221   7.634  1.00  0.00     0.119 A 
ATOM      4  C   UNL     1      12.459 -17.837   7.071  1.00  0.00     0.094 A 
ATOM      5  C   UNL     1      11.187 -17.293   7.276  1.00  0.00     0.142 A 
ATOM      6  C   UNL     1      11.040 -16.122   8.051  1.00  0.00     0.018 A 
ATOM      7  C   UNL     1       9.756 -15.602   8.238  1.00  0.00     0.019 A 
ATOM      8  C   UNL     1       8.665 -16.250   7.660  1.00  0.00     0.094 A 
ATOM      9  C   UNL     1       8.886 -17.406   6.904  1.00  0.00     0.336 A 
ATOM     10  O   UNL     1       7.913 -18.004   6.373  1.00  0.00    -0.246 OA
ATOM     11  O   UNL     1      10.119 -17.880   6.741  1.00  0.00    -0.423 OA
ENDROOT
BRANCH   3  12
ATOM     12  O   UNL     1      14.859 -17.754   7.436  1.00  0.00    -0.508 OA
ATOM     13  H   UNL     1      15.032 -18.464   6.733  1.00  0.00     0.293 HD
ENDBRANCH   3  12
TORSDOF 1
ENDMDL
MODEL 6
REMARK VINA RESULT:    -4.287      1.654      4.745
REMARK INTER + INTRA:          -4.413
REMARK INTER:                  -4.413
REMARK INTRA:                   0.000
REMARK UNBOUND:                 0.000
REMARK SMILES O=c1ccc2ccc(O)cc2o1
REMARK SMILES IDX 6 1 7 2 8 3 10 4 11 5 5 6 4 7 3 8 2 9 1 10 12 11 9 12
REMARK H PARENT 9 13
REMARK Flexibility Score: inf
ROOT
ATOM      1  C   UNL     1      10.019 -14.911   7.500  1.00  0.00     0.016 A 
ATOM      2  C   UNL     1       9.074 -15.899   7.790  1.00  0.00     0.047 A 
ATOM      3  C   UNL     1       9.481 -17.154   8.259  1.00  0.00     0.119 A 
ATOM      4  C   UNL     1      10.846 -17.424   8.440  1.00  0.00     0.094 A 
ATOM      5  C   UNL     1      11.800 -16.442   8.154  1.00  0.00     0.142 A 
ATOM      6  C   UNL     1      11.385 -15.178   7.680  1.00  0.00     0.018 A 
ATOM      7  C   UNL     1      12.361 -14.216   7.402  1.00  0.00     0.019 A 
ATOM      8  C   UNL     1      13.706 -14.531   7.598  1.00  0.00     0.094 A 
ATOM      9  C   UNL     1      14.043 -15.804   8.069  1.00  0.00     0.336 A 
ATOM     10  O   UNL     1      15.251 -16.106   8.253  1.00  0.00    -0.246 OA
ATOM     11  O   UNL     1      13.093 -16.700   8.327  1.00  0.00    -0.423 OA
ENDROOT
BRANCH   3  12
ATOM     12  O   UNL     1       8.522 -18.125   8.542  1.00  0.00    -0.508 OA
ATOM     13  H   UNL     1       8.248 -18.814   7.851  1.00  0.00     0.293 HD
ENDBRANCH   3  12
TORSDOF 1
ENDMDL
MODEL 7
REMARK VINA RESULT:    -3.838      2.003      4.977
REMARK INTER + INTRA:          -3.950
REMARK INTER:                  -3.950
REMARK INTRA:                   0.000
REMARK UNBOUND:                 0.000
REMARK SMILES O=c1ccc2ccc(O)cc2o1
REMARK SMILES IDX 6 1 7 2 8 3 10 4 11 5 5 6 4 7 3 8 2 9 1 10 12 11 9 12
REMARK H PARENT 9 13
REMARK Flexibility Score: inf
ROOT
ATOM      1  C   UNL     1       8.252 -18.026   6.924  1.00  0.00     0.016 A 
ATOM      2  C   UNL     1       7.139 -17.423   7.518  1.00  0.00     0.047 A 
ATOM      3  C   UNL     1       7.303 -16.344   8.396  1.00  0.00     0.119 A 
ATOM      4  C   UNL     1       8.589 -15.863   8.682  1.00  0.00     0.094 A 
ATOM      5  C   UNL     1       9.708 -16.458   8.091  1.00  0.00     0.142 A 
ATOM      6  C   UNL     1       9.540 -17.547   7.207  1.00  0.00     0.018 A 
ATOM      7  C   UNL     1      10.678 -18.122   6.632  1.00  0.00     0.019 A 
ATOM      8  C   UNL     1      11.936 -17.609   6.947  1.00  0.00     0.094 A 
ATOM      9  C   UNL     1      12.026 -16.529   7.832  1.00  0.00     0.336 A 
ATOM     10  O   UNL     1      13.153 -16.052   8.127  1.00  0.00    -0.246 OA
ATOM     11  O   UNL     1      10.927 -16.000   8.364  1.00  0.00    -0.423 OA
ENDROOT
BRANCH   3  12
ATOM     12  O   UNL     1       6.180 -15.758   8.978  1.00  0.00    -0.508 OA
ATOM     13  H   UNL     1       5.881 -14.822   8.726  1.00  0.00     0.293 HD
ENDBRANCH   3  12
TORSDOF 1
ENDMDL
MODEL 8
REMARK VINA RESULT:    -3.715      1.632      2.217
REMARK INTER + INTRA:          -3.824
REMARK INTER:                  -3.824
REMARK INTRA:                   0.000
REMARK UNBOUND:                 0.000
REMARK SMILES O=c1ccc2ccc(O)cc2o1
REMARK SMILES IDX 6 1 7 2 8 3 10 4 11 5 5 6 4 7 3 8 2 9 1 10 12 11 9 12
REMARK H PARENT 9 13
REMARK Flexibility Score: inf
ROOT
ATOM      1  C   UNL     1      12.328 -14.169   7.500  1.00  0.00     0.016 A 
ATOM      2  C   UNL     1      13.674 -14.415   7.786  1.00  0.00     0.047 A 
ATOM      3  C   UNL     1      14.072 -15.651   8.311  1.00  0.00     0.119 A 
ATOM      4  C   UNL     1      13.117 -16.649   8.552  1.00  0.00     0.094 A 
ATOM      5  C   UNL     1      11.767 -16.413   8.269  1.00  0.00     0.142 A 
ATOM      6  C   UNL     1      11.369 -15.165   7.740  1.00  0.00     0.018 A 
ATOM      7  C   UNL     1      10.014 -14.958   7.467  1.00  0.00     0.019 A 
ATOM      8  C   UNL     1       9.101 -15.980   7.724  1.00  0.00     0.094 A 
ATOM      9  C   UNL     1       9.567 -17.190   8.249  1.00  0.00     0.336 A 
ATOM     10  O   UNL     1       8.758 -18.125   8.487  1.00  0.00    -0.246 OA
ATOM     11  O   UNL     1      10.863 -17.362   8.499  1.00  0.00    -0.423 OA
ENDROOT
BRANCH   3  12
ATOM     12  O   UNL     1      15.419 -15.875   8.589  1.00  0.00    -0.508 OA
ATOM     13  H   UNL     1      16.151 -15.518   7.985  1.00  0.00     0.293 HD
ENDBRANCH   3  12
TORSDOF 1
ENDMDL
MODEL 9
REMARK VINA RESULT:    -3.651      2.034      2.553
REMARK INTER + INTRA:          -3.758
REMARK INTER:                  -3.758
REMARK INTRA:                   0.000
REMARK UNBOUND:                 0.000
REMARK SMILES O=c1ccc2ccc(O)cc2o1
REMARK SMILES IDX 6 1 7 2 8 3 10 4 11 5 5 6 4 7 3 8 2 9 1 10 12 11 9 12
REMARK H PARENT 9 13
REMARK Flexibility Score: inf
ROOT
ATOM      1  C   UNL     1      11.386 -18.123   5.993  1.00  0.00     0.016 A 
ATOM      2  C   UNL     1      12.659 -17.871   6.514  1.00  0.00     0.047 A 
ATOM      3  C   UNL     1      12.807 -17.132   7.695  1.00  0.00     0.119 A 
ATOM      4  C   UNL     1      11.673 -16.640   8.359  1.00  0.00     0.094 A 
ATOM      5  C   UNL     1      10.396 -16.888   7.846  1.00  0.00     0.142 A 
ATOM      6  C   UNL     1      10.250 -17.633   6.655  1.00  0.00     0.018 A 
ATOM      7  C   UNL     1       8.961 -17.865   6.166  1.00  0.00     0.019 A 
ATOM      8  C   UNL     1       7.865 -17.355   6.861  1.00  0.00     0.094 A 
ATOM      9  C   UNL     1       8.085 -16.625   8.034  1.00  0.00     0.336 A 
ATOM     10  O   UNL     1       7.107 -16.159   8.675  1.00  0.00    -0.246 OA
ATOM     11  O   UNL     1       9.323 -16.421   8.478  1.00  0.00    -0.423 OA
ENDROOT
BRANCH   3  12
ATOM     12  O   UNL     1      14.084 -16.892   8.198  1.00  0.00    -0.508 OA
ATOM     13  H   UNL     1      14.512 -15.975   8.137  1.00  0.00     0.293 HD
ENDBRANCH   3  12
TORSDOF 1
ENDMDL
