MODEL 1
REMARK VINA RESULT:    -2.878      0.000      0.000
REMARK INTER + INTRA:          -3.695
REMARK INTER:                  -3.551
REMARK INTRA:                  -0.144
REMARK UNBOUND:                -0.144
REMARK SMILES CCCCCC(=O)[O-]
REMARK SMILES IDX 4 1 5 2 6 3 7 4 8 5 3 6 2 7 1 8
REMARK H PARENT
REMARK Flexibility Score: inf
ROOT
ATOM      1  C   UNL     1     -94.020 147.558 240.244  1.00  0.00     0.006 C 
ENDROOT
BRANCH   1   2
ATOM      2  C   UNL     1     -92.880 147.167 241.194  1.00  0.00     0.053 C 
BRANCH   2   3
ATOM      3  C   UNL     1     -92.610 145.697 241.106  1.00  0.00     0.041 C 
ATOM      4  O   UNL     1     -93.109 144.909 241.952  1.00  0.00    -0.550 OA
ATOM      5  O   UNL     1     -91.765 145.203 240.120  1.00  0.00    -0.550 OA
ENDBRANCH   2   3
ENDBRANCH   1   2
BRANCH   1   6
ATOM      6  C   UNL     1     -95.331 147.881 240.985  1.00  0.00     0.000 C 
BRANCH   6   7
ATOM      7  C   UNL     1     -95.154 148.334 242.445  1.00  0.00    -0.003 C 
ATOM      8  C   UNL     1     -96.426 148.934 243.043  1.00  0.00     0.004 C 
ENDBRANCH   6   7
ENDBRANCH   1   6
TORSDOF 4
ENDMDL
MODEL 2
REMARK VINA RESULT:    -2.789      2.293      3.947
REMARK INTER + INTRA:          -3.585
REMARK INTER:                  -3.373
REMARK INTRA:                  -0.213
REMARK UNBOUND:                -0.144
REMARK SMILES CCCCCC(=O)[O-]
REMARK SMILES IDX 4 1 5 2 6 3 7 4 8 5 3 6 2 7 1 8
REMARK H PARENT
REMARK Flexibility Score: inf
ROOT
ATOM      1  C   UNL     1     -93.415 147.382 241.467  1.00  0.00     0.006 C 
ENDROOT
BRANCH   1   2
ATOM      2  C   UNL     1     -94.690 147.804 240.725  1.00  0.00     0.053 C 
BRANCH   2   3
ATOM      3  C   UNL     1     -94.449 147.829 239.248  1.00  0.00     0.041 C 
ATOM      4  O   UNL     1     -93.951 146.826 238.671  1.00  0.00    -0.550 OA
ATOM      5  O   UNL     1     -94.729 148.976 238.516  1.00  0.00    -0.550 OA
ENDBRANCH   2   3
ENDBRANCH   1   2
BRANCH   1   6
ATOM      6  C   UNL     1     -93.601 146.094 242.291  1.00  0.00     0.000 C 
BRANCH   6   7
ATOM      7  C   UNL     1     -92.819 144.875 241.769  1.00  0.00    -0.003 C 
ATOM      8  C   UNL     1     -91.686 145.254 240.817  1.00  0.00     0.004 C 
ENDBRANCH   6   7
ENDBRANCH   1   6
TORSDOF 4
ENDMDL
MODEL 3
REMARK VINA RESULT:    -2.768      1.468      2.160
REMARK INTER + INTRA:          -3.559
REMARK INTER:                  -3.344
REMARK INTRA:                  -0.215
REMARK UNBOUND:                -0.144
REMARK SMILES CCCCCC(=O)[O-]
REMARK SMILES IDX 4 1 5 2 6 3 7 4 8 5 3 6 2 7 1 8
REMARK H PARENT
REMARK Flexibility Score: inf
ROOT
ATOM      1  C   UNL     1     -93.235 147.353 241.618  1.00  0.00     0.006 C 
ENDROOT
BRANCH   1   2
ATOM      2  C   UNL     1     -93.157 145.822 241.536  1.00  0.00     0.053 C 
BRANCH   2   3
ATOM      3  C   UNL     1     -92.215 145.405 240.450  1.00  0.00     0.041 C 
ATOM      4  O   UNL     1     -91.036 145.064 240.730  1.00  0.00    -0.550 OA
ATOM      5  O   UNL     1     -92.625 145.441 239.123  1.00  0.00    -0.550 OA
ENDBRANCH   2   3
ENDBRANCH   1   2
BRANCH   1   6
ATOM      6  C   UNL     1     -94.683 147.876 241.658  1.00  0.00     0.000 C 
BRANCH   6   7
ATOM      7  C   UNL     1     -95.436 147.799 240.318  1.00  0.00    -0.003 C 
ATOM      8  C   UNL     1     -94.630 148.358 239.146  1.00  0.00     0.004 C 
ENDBRANCH   6   7
ENDBRANCH   1   6
TORSDOF 4
ENDMDL
MODEL 4
REMARK VINA RESULT:    -2.739      2.225      4.219
REMARK INTER + INTRA:          -3.523
REMARK INTER:                  -3.406
REMARK INTRA:                  -0.117
REMARK UNBOUND:                -0.144
REMARK SMILES CCCCCC(=O)[O-]
REMARK SMILES IDX 4 1 5 2 6 3 7 4 8 5 3 6 2 7 1 8
REMARK H PARENT
REMARK Flexibility Score: inf
ROOT
ATOM      1  C   UNL     1     -93.587 147.413 241.981  1.00  0.00     0.006 C 
ENDROOT
BRANCH   1   2
ATOM      2  C   UNL     1     -94.980 148.038 242.137  1.00  0.00     0.053 C 
BRANCH   2   3
ATOM      3  C   UNL     1     -95.904 147.088 242.833  1.00  0.00     0.041 C 
ATOM      4  O   UNL     1     -95.515 145.926 243.125  1.00  0.00    -0.550 OA
ATOM      5  O   UNL     1     -97.209 147.468 243.115  1.00  0.00    -0.550 OA
ENDBRANCH   2   3
ENDBRANCH   1   2
BRANCH   1   6
ATOM      6  C   UNL     1     -93.213 147.147 240.511  1.00  0.00     0.000 C 
BRANCH   6   7
ATOM      7  C   UNL     1     -92.901 145.677 240.180  1.00  0.00    -0.003 C 
ATOM      8  C   UNL     1     -91.554 145.213 240.733  1.00  0.00     0.004 C 
ENDBRANCH   6   7
ENDBRANCH   1   6
TORSDOF 4
ENDMDL
MODEL 5
REMARK VINA RESULT:    -2.728      2.869      4.372
REMARK INTER + INTRA:          -3.509
REMARK INTER:                  -3.376
REMARK INTRA:                  -0.133
REMARK UNBOUND:                -0.144
REMARK SMILES CCCCCC(=O)[O-]
REMARK SMILES IDX 4 1 5 2 6 3 7 4 8 5 3 6 2 7 1 8
REMARK H PARENT
REMARK Flexibility Score: inf
ROOT
ATOM      1  C   UNL     1     -93.509 147.345 241.919  1.00  0.00     0.006 C 
ENDROOT
BRANCH   1   2
ATOM      2  C   UNL     1     -94.942 147.039 242.376  1.00  0.00     0.053 C 
BRANCH   2   3
ATOM      3  C   UNL     1     -95.825 148.228 242.156  1.00  0.00     0.041 C 
ATOM      4  O   UNL     1     -95.842 149.168 242.994  1.00  0.00    -0.550 OA
ATOM      5  O   UNL     1     -96.664 148.276 241.050  1.00  0.00    -0.550 OA
ENDBRANCH   2   3
ENDBRANCH   1   2
BRANCH   1   6
ATOM      6  C   UNL     1     -93.306 147.135 240.408  1.00  0.00     0.000 C 
BRANCH   6   7
ATOM      7  C   UNL     1     -92.894 145.709 240.003  1.00  0.00    -0.003 C 
ATOM      8  C   UNL     1     -91.614 145.238 240.694  1.00  0.00     0.004 C 
ENDBRANCH   6   7
ENDBRANCH   1   6
TORSDOF 4
ENDMDL
MODEL 6
REMARK VINA RESULT:    -2.712      3.748      4.979
REMARK INTER + INTRA:          -3.490
REMARK INTER:                  -3.396
REMARK INTRA:                  -0.094
REMARK UNBOUND:                -0.144
REMARK SMILES CCCCCC(=O)[O-]
REMARK SMILES IDX 4 1 5 2 6 3 7 4 8 5 3 6 2 7 1 8
REMARK H PARENT
REMARK Flexibility Score: inf
ROOT
ATOM      1  C   UNL     1     -95.154 148.369 242.196  1.00  0.00     0.006 C 
ENDROOT
BRANCH   1   2
ATOM      2  C   UNL     1     -96.295 147.759 243.022  1.00  0.00     0.053 C 
BRANCH   2   3
ATOM      3  C   UNL     1     -97.068 148.836 243.718  1.00  0.00     0.041 C 
ATOM      4  O   UNL     1     -97.473 149.840 243.075  1.00  0.00    -0.550 OA
ATOM      5  O   UNL     1     -97.299 148.754 245.085  1.00  0.00    -0.550 OA
ENDBRANCH   2   3
ENDBRANCH   1   2
BRANCH   1   6
ATOM      6  C   UNL     1     -93.963 147.409 242.023  1.00  0.00     0.000 C 
BRANCH   6   7
ATOM      7  C   UNL     1     -93.424 147.300 240.585  1.00  0.00    -0.003 C 
ATOM      8  C   UNL     1     -94.303 148.019 239.562  1.00  0.00     0.004 C 
ENDBRANCH   6   7
ENDBRANCH   1   6
TORSDOF 4
ENDMDL
MODEL 7
REMARK VINA RESULT:    -2.708      0.797      1.510
REMARK INTER + INTRA:          -3.485
REMARK INTER:                  -3.413
REMARK INTRA:                  -0.072
REMARK UNBOUND:                -0.144
REMARK SMILES CCCCCC(=O)[O-]
REMARK SMILES IDX 4 1 5 2 6 3 7 4 8 5 3 6 2 7 1 8
REMARK H PARENT
REMARK Flexibility Score: inf
ROOT
ATOM      1  C   UNL     1     -93.934 147.748 241.959  1.00  0.00     0.006 C 
ENDROOT
BRANCH   1   2
ATOM      2  C   UNL     1     -93.490 146.895 240.763  1.00  0.00     0.053 C 
BRANCH   2   3
ATOM      3  C   UNL     1     -92.766 145.673 241.235  1.00  0.00     0.041 C 
ATOM      4  O   UNL     1     -91.689 145.323 240.683  1.00  0.00    -0.550 OA
ATOM      5  O   UNL     1     -93.305 144.892 242.249  1.00  0.00    -0.550 OA
ENDBRANCH   2   3
ENDBRANCH   1   2
BRANCH   1   6
ATOM      6  C   UNL     1     -95.464 147.899 242.051  1.00  0.00     0.000 C 
BRANCH   6   7
ATOM      7  C   UNL     1     -95.950 148.945 243.070  1.00  0.00    -0.003 C 
ATOM      8  C   UNL     1     -97.335 149.501 242.740  1.00  0.00     0.004 C 
ENDBRANCH   6   7
ENDBRANCH   1   6
TORSDOF 4
ENDMDL
MODEL 8
REMARK VINA RESULT:    -2.679      1.307      1.792
REMARK INTER + INTRA:          -3.449
REMARK INTER:                  -3.381
REMARK INTRA:                  -0.069
REMARK UNBOUND:                -0.144
REMARK SMILES CCCCCC(=O)[O-]
REMARK SMILES IDX 4 1 5 2 6 3 7 4 8 5 3 6 2 7 1 8
REMARK H PARENT
REMARK Flexibility Score: inf
ROOT
ATOM      1  C   UNL     1     -94.739 148.192 241.792  1.00  0.00     0.006 C 
ENDROOT
BRANCH   1   2
ATOM      2  C   UNL     1     -93.588 147.208 242.047  1.00  0.00     0.053 C 
BRANCH   2   3
ATOM      3  C   UNL     1     -93.033 146.709 240.750  1.00  0.00     0.041 C 
ATOM      4  O   UNL     1     -93.546 147.072 239.659  1.00  0.00    -0.550 OA
ATOM      5  O   UNL     1     -91.980 145.803 240.747  1.00  0.00    -0.550 OA
ENDBRANCH   2   3
ENDBRANCH   1   2
BRANCH   1   6
ATOM      6  C   UNL     1     -96.024 147.819 242.554  1.00  0.00     0.000 C 
BRANCH   6   7
ATOM      7  C   UNL     1     -96.614 148.947 243.418  1.00  0.00    -0.003 C 
ATOM      8  C   UNL     1     -97.816 149.631 242.767  1.00  0.00     0.004 C 
ENDBRANCH   6   7
ENDBRANCH   1   6
TORSDOF 4
ENDMDL
