MODEL 1
REMARK VINA RESULT:    -5.023      0.000      0.000
REMARK INTER + INTRA:          -7.179
REMARK INTER:                  -6.932
REMARK INTRA:                  -0.247
REMARK UNBOUND:                -0.247
REMARK SMILES OC[C@H](O)C(O)[C@@H](O)CO
REMARK SMILES IDX 5 1 7 2 9 3 10 4 8 6 3 8 2 9 1 10 4 12 6 14
REMARK H PARENT 10 5 8 7 1 11 4 13 6 15
REMARK Flexibility Score: inf
ROOT
ATOM      1  C   UNL     1     171.397 171.196 208.607  1.00  0.00     0.176 C 
ENDROOT
BRANCH   1   2
ATOM      2  C   UNL     1     170.447 172.138 209.391  1.00  0.00     0.171 C 
BRANCH   2   3
ATOM      3  C   UNL     1     169.713 173.130 208.471  1.00  0.00     0.190 C 
BRANCH   3   4
ATOM      4  O   UNL     1     168.726 173.828 209.180  1.00  0.00    -0.394 OA
ATOM      5  H   UNL     1     168.260 174.398 208.516  1.00  0.00     0.210 HD
ENDBRANCH   3   4
ENDBRANCH   2   3
BRANCH   2   6
ATOM      6  O   UNL     1     171.134 172.834 210.403  1.00  0.00    -0.388 OA
ATOM      7  H   UNL     1     171.048 173.805 210.215  1.00  0.00     0.211 HD
ENDBRANCH   2   6
ENDBRANCH   1   2
BRANCH   1   8
ATOM      8  C   UNL     1     172.848 171.266 209.157  1.00  0.00     0.171 C 
BRANCH   8   9
ATOM      9  C   UNL     1     173.856 170.523 208.264  1.00  0.00     0.190 C 
BRANCH   9  10
ATOM     10  O   UNL     1     174.804 169.860 209.052  1.00  0.00    -0.394 OA
ATOM     11  H   UNL     1     175.672 169.954 208.578  1.00  0.00     0.210 HD
ENDBRANCH   9  10
ENDBRANCH   8   9
BRANCH   8  12
ATOM     12  O   UNL     1     172.916 170.783 210.476  1.00  0.00    -0.388 OA
ATOM     13  H   UNL     1     173.120 169.812 210.433  1.00  0.00     0.211 HD
ENDBRANCH   8  12
ENDBRANCH   1   8
BRANCH   1  14
ATOM     14  O   UNL     1     170.913 169.877 208.692  1.00  0.00    -0.388 OA
ATOM     15  H   UNL     1     170.246 169.855 209.427  1.00  0.00     0.211 HD
ENDBRANCH   1  14
TORSDOF 9
ENDMDL
MODEL 2
REMARK VINA RESULT:    -4.992      1.756      4.615
REMARK INTER + INTRA:          -7.136
REMARK INTER:                  -6.845
REMARK INTRA:                  -0.291
REMARK UNBOUND:                -0.247
REMARK SMILES OC[C@H](O)C(O)[C@@H](O)CO
REMARK SMILES IDX 5 1 7 2 9 3 10 4 8 6 3 8 2 9 1 10 4 12 6 14
REMARK H PARENT 10 5 8 7 1 11 4 13 6 15
REMARK Flexibility Score: inf
ROOT
ATOM      1  C   UNL     1     171.273 171.103 208.089  1.00  0.00     0.176 C 
ENDROOT
BRANCH   1   2
ATOM      2  C   UNL     1     172.741 170.869 207.644  1.00  0.00     0.171 C 
BRANCH   2   3
ATOM      3  C   UNL     1     173.711 170.794 208.837  1.00  0.00     0.190 C 
BRANCH   3   4
ATOM      4  O   UNL     1     174.652 169.773 208.647  1.00  0.00    -0.394 OA
ATOM      5  H   UNL     1     174.164 169.026 208.213  1.00  0.00     0.210 HD
ENDBRANCH   3   4
ENDBRANCH   2   3
BRANCH   2   6
ATOM      6  O   UNL     1     173.165 171.855 206.735  1.00  0.00    -0.388 OA
ATOM      7  H   UNL     1     174.011 172.243 207.081  1.00  0.00     0.211 HD
ENDBRANCH   2   6
ENDBRANCH   1   2
BRANCH   1   8
ATOM      8  C   UNL     1     170.837 172.574 207.856  1.00  0.00     0.171 C 
BRANCH   8   9
ATOM      9  C   UNL     1     169.774 173.043 208.865  1.00  0.00     0.190 C 
BRANCH   9  10
ATOM     10  O   UNL     1     168.628 173.482 208.191  1.00  0.00    -0.394 OA
ATOM     11  H   UNL     1     167.935 173.623 208.887  1.00  0.00     0.210 HD
ENDBRANCH   9  10
ENDBRANCH   8   9
BRANCH   8  12
ATOM     12  O   UNL     1     170.379 172.767 206.540  1.00  0.00    -0.388 OA
ATOM     13  H   UNL     1     170.159 173.729 206.434  1.00  0.00     0.211 HD
ENDBRANCH   8  12
ENDBRANCH   1   8
BRANCH   1  14
ATOM     14  O   UNL     1     170.430 170.231 207.376  1.00  0.00    -0.388 OA
ATOM     15  H   UNL     1     170.845 169.329 207.407  1.00  0.00     0.211 HD
ENDBRANCH   1  14
TORSDOF 9
ENDMDL
MODEL 3
REMARK VINA RESULT:    -4.976      1.982      2.396
REMARK INTER + INTRA:          -7.113
REMARK INTER:                  -6.831
REMARK INTRA:                  -0.282
REMARK UNBOUND:                -0.247
REMARK SMILES OC[C@H](O)C(O)[C@@H](O)CO
REMARK SMILES IDX 5 1 7 2 9 3 10 4 8 6 3 8 2 9 1 10 4 12 6 14
REMARK H PARENT 10 5 8 7 1 11 4 13 6 15
REMARK Flexibility Score: inf
ROOT
ATOM      1  C   UNL     1     172.346 172.512 208.132  1.00  0.00     0.176 C 
ENDROOT
BRANCH   1   2
ATOM      2  C   UNL     1     170.825 172.753 207.946  1.00  0.00     0.171 C 
BRANCH   2   3
ATOM      3  C   UNL     1     170.075 172.834 209.288  1.00  0.00     0.190 C 
BRANCH   3   4
ATOM      4  O   UNL     1     168.895 173.578 209.152  1.00  0.00    -0.394 OA
ATOM      5  H   UNL     1     168.628 173.840 210.071  1.00  0.00     0.210 HD
ENDBRANCH   3   4
ENDBRANCH   2   3
BRANCH   2   6
ATOM      6  O   UNL     1     170.246 171.767 207.125  1.00  0.00    -0.388 OA
ATOM      7  H   UNL     1     169.462 171.393 207.608  1.00  0.00     0.211 HD
ENDBRANCH   2   6
ENDBRANCH   1   2
BRANCH   1   8
ATOM      8  C   UNL     1     172.731 171.040 207.821  1.00  0.00     0.171 C 
BRANCH   8   9
ATOM      9  C   UNL     1     173.850 170.516 208.736  1.00  0.00     0.190 C 
BRANCH   9  10
ATOM     10  O   UNL     1     174.962 170.139 207.972  1.00  0.00    -0.394 OA
ATOM     11  H   UNL     1     175.088 170.855 207.296  1.00  0.00     0.210 HD
ENDBRANCH   9  10
ENDBRANCH   8   9
BRANCH   8  12
ATOM     12  O   UNL     1     173.089 170.883 206.470  1.00  0.00    -0.388 OA
ATOM     13  H   UNL     1     172.268 170.649 205.964  1.00  0.00     0.211 HD
ENDBRANCH   8  12
ENDBRANCH   1   8
BRANCH   1  14
ATOM     14  O   UNL     1     173.058 173.385 207.289  1.00  0.00    -0.388 OA
ATOM     15  H   UNL     1     173.087 174.270 207.738  1.00  0.00     0.211 HD
ENDBRANCH   1  14
TORSDOF 9
ENDMDL
MODEL 4
REMARK VINA RESULT:    -4.887      1.970      2.839
REMARK INTER + INTRA:          -6.991
REMARK INTER:                  -6.285
REMARK INTRA:                  -0.707
REMARK UNBOUND:                -0.247
REMARK SMILES OC[C@H](O)C(O)[C@@H](O)CO
REMARK SMILES IDX 5 1 7 2 9 3 10 4 8 6 3 8 2 9 1 10 4 12 6 14
REMARK H PARENT 10 5 8 7 1 11 4 13 6 15
REMARK Flexibility Score: inf
ROOT
ATOM      1  C   UNL     1     170.689 171.233 208.382  1.00  0.00     0.176 C 
ENDROOT
BRANCH   1   2
ATOM      2  C   UNL     1     170.851 172.371 209.423  1.00  0.00     0.171 C 
BRANCH   2   3
ATOM      3  C   UNL     1     171.344 171.855 210.787  1.00  0.00     0.190 C 
BRANCH   3   4
ATOM      4  O   UNL     1     170.522 170.820 211.251  1.00  0.00    -0.394 OA
ATOM      5  H   UNL     1     169.608 171.201 211.313  1.00  0.00     0.210 HD
ENDBRANCH   3   4
ENDBRANCH   2   3
BRANCH   2   6
ATOM      6  O   UNL     1     169.655 173.096 209.582  1.00  0.00    -0.388 OA
ATOM      7  H   UNL     1     169.160 172.699 210.347  1.00  0.00     0.211 HD
ENDBRANCH   2   6
ENDBRANCH   1   2
BRANCH   1   8
ATOM      8  C   UNL     1     171.048 171.716 206.951  1.00  0.00     0.171 C 
BRANCH   8   9
ATOM      9  C   UNL     1     172.546 172.025 206.790  1.00  0.00     0.190 C 
BRANCH   9  10
ATOM     10  O   UNL     1     173.264 170.841 206.578  1.00  0.00    -0.394 OA
ATOM     11  H   UNL     1     172.724 170.300 205.944  1.00  0.00     0.210 HD
ENDBRANCH   9  10
ENDBRANCH   8   9
BRANCH   8  12
ATOM     12  O   UNL     1     170.277 172.832 206.582  1.00  0.00    -0.388 OA
ATOM     13  H   UNL     1     169.992 172.705 205.639  1.00  0.00     0.211 HD
ENDBRANCH   8  12
ENDBRANCH   1   8
BRANCH   1  14
ATOM     14  O   UNL     1     171.513 170.153 208.748  1.00  0.00    -0.388 OA
ATOM     15  H   UNL     1     172.445 170.491 208.779  1.00  0.00     0.211 HD
ENDBRANCH   1  14
TORSDOF 9
ENDMDL
MODEL 5
REMARK VINA RESULT:    -4.884      1.822      3.353
REMARK INTER + INTRA:          -6.987
REMARK INTER:                  -5.979
REMARK INTRA:                  -1.008
REMARK UNBOUND:                -0.247
REMARK SMILES OC[C@H](O)C(O)[C@@H](O)CO
REMARK SMILES IDX 5 1 7 2 9 3 10 4 8 6 3 8 2 9 1 10 4 12 6 14
REMARK H PARENT 10 5 8 7 1 11 4 13 6 15
REMARK Flexibility Score: inf
ROOT
ATOM      1  C   UNL     1     172.457 171.813 208.118  1.00  0.00     0.176 C 
ENDROOT
BRANCH   1   2
ATOM      2  C   UNL     1     171.980 171.270 209.490  1.00  0.00     0.171 C 
BRANCH   2   3
ATOM      3  C   UNL     1     171.180 172.315 210.290  1.00  0.00     0.190 C 
BRANCH   3   4
ATOM      4  O   UNL     1     169.956 172.586 209.664  1.00  0.00    -0.394 OA
ATOM      5  H   UNL     1     170.073 172.339 208.711  1.00  0.00     0.210 HD
ENDBRANCH   3   4
ENDBRANCH   2   3
BRANCH   2   6
ATOM      6  O   UNL     1     173.061 170.795 210.258  1.00  0.00    -0.388 OA
ATOM      7  H   UNL     1     172.778 169.944 210.683  1.00  0.00     0.211 HD
ENDBRANCH   2   6
ENDBRANCH   1   2
BRANCH   1   8
ATOM      8  C   UNL     1     171.591 171.257 206.955  1.00  0.00     0.171 C 
BRANCH   8   9
ATOM      9  C   UNL     1     170.973 172.371 206.093  1.00  0.00     0.190 C 
BRANCH   9  10
ATOM     10  O   UNL     1     169.911 172.977 206.774  1.00  0.00    -0.394 OA
ATOM     11  H   UNL     1     170.172 172.996 207.732  1.00  0.00     0.210 HD
ENDBRANCH   9  10
ENDBRANCH   8   9
BRANCH   8  12
ATOM     12  O   UNL     1     170.587 170.397 207.435  1.00  0.00    -0.388 OA
ATOM     13  H   UNL     1     170.702 169.518 206.986  1.00  0.00     0.211 HD
ENDBRANCH   8  12
ENDBRANCH   1   8
BRANCH   1  14
ATOM     14  O   UNL     1     172.398 173.219 208.133  1.00  0.00    -0.388 OA
ATOM     15  H   UNL     1     171.471 173.473 208.380  1.00  0.00     0.211 HD
ENDBRANCH   1  14
TORSDOF 9
ENDMDL
MODEL 6
REMARK VINA RESULT:    -4.878      1.346      2.263
REMARK INTER + INTRA:          -6.979
REMARK INTER:                  -6.004
REMARK INTRA:                  -0.974
REMARK UNBOUND:                -0.247
REMARK SMILES OC[C@H](O)C(O)[C@@H](O)CO
REMARK SMILES IDX 5 1 7 2 9 3 10 4 8 6 3 8 2 9 1 10 4 12 6 14
REMARK H PARENT 10 5 8 7 1 11 4 13 6 15
REMARK Flexibility Score: inf
ROOT
ATOM      1  C   UNL     1     171.404 171.556 208.522  1.00  0.00     0.176 C 
ENDROOT
BRANCH   1   2
ATOM      2  C   UNL     1     171.106 172.389 209.796  1.00  0.00     0.171 C 
BRANCH   2   3
ATOM      3  C   UNL     1     171.240 171.560 211.086  1.00  0.00     0.190 C 
BRANCH   3   4
ATOM      4  O   UNL     1     172.575 171.191 211.301  1.00  0.00    -0.394 OA
ATOM      5  H   UNL     1     172.836 170.635 210.522  1.00  0.00     0.210 HD
ENDBRANCH   3   4
ENDBRANCH   2   3
BRANCH   2   6
ATOM      6  O   UNL     1     169.833 172.986 209.732  1.00  0.00    -0.388 OA
ATOM      7  H   UNL     1     169.742 173.590 210.516  1.00  0.00     0.211 HD
ENDBRANCH   2   6
ENDBRANCH   1   2
BRANCH   1   8
ATOM      8  C   UNL     1     172.836 171.829 207.986  1.00  0.00     0.171 C 
BRANCH   8   9
ATOM      9  C   UNL     1     173.717 170.569 207.984  1.00  0.00     0.190 C 
BRANCH   9  10
ATOM     10  O   UNL     1     174.237 170.340 209.264  1.00  0.00    -0.394 OA
ATOM     11  H   UNL     1     175.106 169.879 209.131  1.00  0.00     0.210 HD
ENDBRANCH   9  10
ENDBRANCH   8   9
BRANCH   8  12
ATOM     12  O   UNL     1     173.461 172.861 208.708  1.00  0.00    -0.388 OA
ATOM     13  H   UNL     1     172.847 173.134 209.439  1.00  0.00     0.211 HD
ENDBRANCH   8  12
ENDBRANCH   1   8
BRANCH   1  14
ATOM     14  O   UNL     1     171.254 170.189 208.820  1.00  0.00    -0.388 OA
ATOM     15  H   UNL     1     171.705 170.025 209.689  1.00  0.00     0.211 HD
ENDBRANCH   1  14
TORSDOF 9
ENDMDL
MODEL 7
REMARK VINA RESULT:    -4.844      2.052      3.459
REMARK INTER + INTRA:          -6.932
REMARK INTER:                  -5.939
REMARK INTRA:                  -0.992
REMARK UNBOUND:                -0.247
REMARK SMILES OC[C@H](O)C(O)[C@@H](O)CO
REMARK SMILES IDX 5 1 7 2 9 3 10 4 8 6 3 8 2 9 1 10 4 12 6 14
REMARK H PARENT 10 5 8 7 1 11 4 13 6 15
REMARK Flexibility Score: inf
ROOT
ATOM      1  C   UNL     1     172.197 171.135 208.387  1.00  0.00     0.176 C 
ENDROOT
BRANCH   1   2
ATOM      2  C   UNL     1     172.385 171.633 206.930  1.00  0.00     0.171 C 
BRANCH   2   3
ATOM      3  C   UNL     1     171.054 171.715 206.161  1.00  0.00     0.190 C 
BRANCH   3   4
ATOM      4  O   UNL     1     170.286 172.796 206.612  1.00  0.00    -0.394 OA
ATOM      5  H   UNL     1     170.913 173.396 207.095  1.00  0.00     0.210 HD
ENDBRANCH   3   4
ENDBRANCH   2   3
BRANCH   2   6
ATOM      6  O   UNL     1     173.303 170.830 206.227  1.00  0.00    -0.388 OA
ATOM      7  H   UNL     1     172.948 170.698 205.309  1.00  0.00     0.211 HD
ENDBRANCH   2   6
ENDBRANCH   1   2
BRANCH   1   8
ATOM      8  C   UNL     1     172.177 172.317 209.393  1.00  0.00     0.171 C 
BRANCH   8   9
ATOM      9  C   UNL     1     170.882 172.364 210.223  1.00  0.00     0.190 C 
BRANCH   9  10
ATOM     10  O   UNL     1     169.876 173.031 209.513  1.00  0.00    -0.394 OA
ATOM     11  H   UNL     1     169.073 173.019 210.096  1.00  0.00     0.210 HD
ENDBRANCH   9  10
ENDBRANCH   8   9
BRANCH   8  12
ATOM     12  O   UNL     1     172.382 173.545 208.740  1.00  0.00    -0.388 OA
ATOM     13  H   UNL     1     173.362 173.680 208.652  1.00  0.00     0.211 HD
ENDBRANCH   8  12
ENDBRANCH   1   8
BRANCH   1  14
ATOM     14  O   UNL     1     170.997 170.406 208.474  1.00  0.00    -0.388 OA
ATOM     15  H   UNL     1     170.594 170.392 207.567  1.00  0.00     0.211 HD
ENDBRANCH   1  14
TORSDOF 9
ENDMDL
MODEL 8
REMARK VINA RESULT:    -4.775      1.890      3.309
REMARK INTER + INTRA:          -6.836
REMARK INTER:                  -5.857
REMARK INTRA:                  -0.980
REMARK UNBOUND:                -0.247
REMARK SMILES OC[C@H](O)C(O)[C@@H](O)CO
REMARK SMILES IDX 5 1 7 2 9 3 10 4 8 6 3 8 2 9 1 10 4 12 6 14
REMARK H PARENT 10 5 8 7 1 11 4 13 6 15
REMARK Flexibility Score: inf
ROOT
ATOM      1  C   UNL     1     171.060 172.729 208.697  1.00  0.00     0.176 C 
ENDROOT
BRANCH   1   2
ATOM      2  C   UNL     1     171.042 172.091 207.283  1.00  0.00     0.171 C 
BRANCH   2   3
ATOM      3  C   UNL     1     172.455 171.934 206.692  1.00  0.00     0.190 C 
BRANCH   3   4
ATOM      4  O   UNL     1     173.135 170.875 207.307  1.00  0.00    -0.394 OA
ATOM      5  H   UNL     1     173.999 170.787 206.827  1.00  0.00     0.210 HD
ENDBRANCH   3   4
ENDBRANCH   2   3
BRANCH   2   6
ATOM      6  O   UNL     1     170.225 172.822 206.401  1.00  0.00    -0.388 OA
ATOM      7  H   UNL     1     170.809 173.446 205.894  1.00  0.00     0.211 HD
ENDBRANCH   2   6
ENDBRANCH   1   2
BRANCH   1   8
ATOM      8  C   UNL     1     170.891 171.656 209.807  1.00  0.00     0.171 C 
BRANCH   8   9
ATOM      9  C   UNL     1     172.075 171.630 210.789  1.00  0.00     0.190 C 
BRANCH   9  10
ATOM     10  O   UNL     1     173.090 170.798 210.300  1.00  0.00    -0.394 OA
ATOM     11  H   UNL     1     173.327 171.149 209.402  1.00  0.00     0.210 HD
ENDBRANCH   9  10
ENDBRANCH   8   9
BRANCH   8  12
ATOM     12  O   UNL     1     170.687 170.379 209.253  1.00  0.00    -0.388 OA
ATOM     13  H   UNL     1     171.562 169.909 209.248  1.00  0.00     0.211 HD
ENDBRANCH   8  12
ENDBRANCH   1   8
BRANCH   1  14
ATOM     14  O   UNL     1     172.272 173.421 208.876  1.00  0.00    -0.388 OA
ATOM     15  H   UNL     1     172.685 173.528 207.980  1.00  0.00     0.211 HD
ENDBRANCH   1  14
TORSDOF 9
ENDMDL
MODEL 9
REMARK VINA RESULT:    -4.773      2.846      3.666
REMARK INTER + INTRA:          -6.834
REMARK INTER:                  -5.847
REMARK INTRA:                  -0.986
REMARK UNBOUND:                -0.247
REMARK SMILES OC[C@H](O)C(O)[C@@H](O)CO
REMARK SMILES IDX 5 1 7 2 9 3 10 4 8 6 3 8 2 9 1 10 4 12 6 14
REMARK H PARENT 10 5 8 7 1 11 4 13 6 15
REMARK Flexibility Score: inf
ROOT
ATOM      1  C   UNL     1     171.189 171.750 207.669  1.00  0.00     0.176 C 
ENDROOT
BRANCH   1   2
ATOM      2  C   UNL     1     171.535 171.297 206.226  1.00  0.00     0.171 C 
BRANCH   2   3
ATOM      3  C   UNL     1     171.700 172.485 205.261  1.00  0.00     0.190 C 
BRANCH   3   4
ATOM      4  O   UNL     1     172.877 173.192 205.542  1.00  0.00    -0.394 OA
ATOM      5  H   UNL     1     173.317 173.352 204.667  1.00  0.00     0.210 HD
ENDBRANCH   3   4
ENDBRANCH   2   3
BRANCH   2   6
ATOM      6  O   UNL     1     170.576 170.396 205.727  1.00  0.00    -0.388 OA
ATOM      7  H   UNL     1     171.062 169.631 205.321  1.00  0.00     0.211 HD
ENDBRANCH   2   6
ENDBRANCH   1   2
BRANCH   1   8
ATOM      8  C   UNL     1     172.449 171.768 208.576  1.00  0.00     0.171 C 
BRANCH   8   9
ATOM      9  C   UNL     1     172.756 173.168 209.133  1.00  0.00     0.190 C 
BRANCH   9  10
ATOM     10  O   UNL     1     173.399 173.945 208.161  1.00  0.00    -0.394 OA
ATOM     11  H   UNL     1     173.898 174.648 208.655  1.00  0.00     0.210 HD
ENDBRANCH   9  10
ENDBRANCH   8   9
BRANCH   8  12
ATOM     12  O   UNL     1     173.571 171.255 207.900  1.00  0.00    -0.388 OA
ATOM     13  H   UNL     1     173.602 170.276 208.066  1.00  0.00     0.211 HD
ENDBRANCH   8  12
ENDBRANCH   1   8
BRANCH   1  14
ATOM     14  O   UNL     1     170.609 173.031 207.624  1.00  0.00    -0.388 OA
ATOM     15  H   UNL     1     169.857 173.036 208.272  1.00  0.00     0.211 HD
ENDBRANCH   1  14
TORSDOF 9
ENDMDL
