MODEL 1
REMARK VINA RESULT:    -5.465      0.000      0.000
REMARK INTER + INTRA:          -7.947
REMARK INTER:                  -7.382
REMARK INTRA:                  -0.564
REMARK UNBOUND:                -0.564
REMARK SMILES COc1ccc(-c2cc(=O)c3c(OC)c(OC)c(OC)c(OC)c3o2)cc1
REMARK SMILES IDX 7 1 8 2 9 3 10 4 11 5 24 6 25 7 21 8 18 9 15 10 12 11 6 12
REMARK SMILES IDX 3 13 4 14 27 15 5 16 26 17 2 18 1 19 22 20 23 21 13 22 14 23
REMARK SMILES IDX 19 24 20 25 16 26 17 27
REMARK H PARENT
REMARK Flexibility Score: inf
ROOT
ATOM      1  C   UNL     1      16.330 -27.488  22.765  1.00  0.00     0.138 A 
ATOM      2  C   UNL     1      15.735 -28.743  22.619  1.00  0.00     0.100 A 
ATOM      3  C   UNL     1      16.247 -29.825  23.328  1.00  0.00     0.197 A 
ATOM      4  O   UNL     1      15.690 -30.947  23.188  1.00  0.00    -0.289 OA
ATOM      5  C   UNL     1      17.365 -29.646  24.179  1.00  0.00     0.115 A 
ATOM      6  C   UNL     1      17.918 -28.347  24.271  1.00  0.00     0.188 A 
ATOM      7  O   UNL     1      17.372 -27.349  23.578  1.00  0.00    -0.452 OA
ATOM      8  C   UNL     1      19.049 -28.103  25.083  1.00  0.00     0.209 A 
ATOM      9  C   UNL     1      19.627 -29.171  25.816  1.00  0.00     0.211 A 
ATOM     10  C   UNL     1      19.051 -30.469  25.758  1.00  0.00     0.208 A 
ATOM     11  C   UNL     1      17.929 -30.710  24.924  1.00  0.00     0.179 A 
ENDROOT
BRANCH   1  12
ATOM     12  C   UNL     1      15.820 -26.305  22.035  1.00  0.00     0.018 A 
ATOM     13  C   UNL     1      14.800 -24.077  20.636  1.00  0.00     0.118 A 
ATOM     14  C   UNL     1      15.434 -23.906  21.881  1.00  0.00     0.047 A 
ATOM     15  C   UNL     1      14.681 -25.365  20.103  1.00  0.00     0.047 A 
ATOM     16  C   UNL     1      15.939 -25.011  22.573  1.00  0.00     0.016 A 
ATOM     17  C   UNL     1      15.180 -26.471  20.798  1.00  0.00     0.016 A 
BRANCH  13  18
ATOM     18  O   UNL     1      14.279 -23.001  19.901  1.00  0.00    -0.497 OA
ATOM     19  C   UNL     1      12.917 -22.589  19.937  1.00  0.00     0.278 C 
ENDBRANCH  13  18
ENDBRANCH   1  12
BRANCH   8  20
ATOM     20  O   UNL     1      19.632 -26.826  25.197  1.00  0.00    -0.490 OA
ATOM     21  C   UNL     1      20.787 -26.332  24.528  1.00  0.00     0.278 C 
ENDBRANCH   8  20
BRANCH  11  22
ATOM     22  O   UNL     1      17.333 -31.984  24.799  1.00  0.00    -0.492 OA
ATOM     23  C   UNL     1      16.488 -32.651  25.732  1.00  0.00     0.278 C 
ENDBRANCH  11  22
BRANCH   9  24
ATOM     24  O   UNL     1      20.776 -28.998  26.615  1.00  0.00    -0.490 OA
ATOM     25  C   UNL     1      20.849 -28.509  27.951  1.00  0.00     0.279 C 
ENDBRANCH   9  24
BRANCH  10  26
ATOM     26  O   UNL     1      19.553 -31.551  26.509  1.00  0.00    -0.490 OA
ATOM     27  C   UNL     1      19.284 -31.881  27.867  1.00  0.00     0.278 C 
ENDBRANCH  10  26
TORSDOF 6
ENDMDL
MODEL 2
REMARK VINA RESULT:    -5.140      1.141      3.632
REMARK INTER + INTRA:          -7.507
REMARK INTER:                  -6.814
REMARK INTRA:                  -0.693
REMARK UNBOUND:                -0.564
REMARK SMILES COc1ccc(-c2cc(=O)c3c(OC)c(OC)c(OC)c(OC)c3o2)cc1
REMARK SMILES IDX 7 1 8 2 9 3 10 4 11 5 24 6 25 7 21 8 18 9 15 10 12 11 6 12
REMARK SMILES IDX 3 13 4 14 27 15 5 16 26 17 2 18 1 19 22 20 23 21 13 22 14 23
REMARK SMILES IDX 19 24 20 25 16 26 17 27
REMARK H PARENT
REMARK Flexibility Score: inf
ROOT
ATOM      1  C   UNL     1      17.350 -26.447  22.961  1.00  0.00     0.138 A 
ATOM      2  C   UNL     1      18.600 -25.944  23.330  1.00  0.00     0.100 A 
ATOM      3  C   UNL     1      19.460 -26.743  24.076  1.00  0.00     0.197 A 
ATOM      4  O   UNL     1      20.587 -26.273  24.391  1.00  0.00    -0.289 OA
ATOM      5  C   UNL     1      19.061 -28.047  24.459  1.00  0.00     0.115 A 
ATOM      6  C   UNL     1      17.778 -28.484  24.054  1.00  0.00     0.188 A 
ATOM      7  O   UNL     1      17.007 -27.678  23.327  1.00  0.00    -0.452 OA
ATOM      8  C   UNL     1      17.306 -29.765  24.423  1.00  0.00     0.209 A 
ATOM      9  C   UNL     1      18.132 -30.618  25.199  1.00  0.00     0.211 A 
ATOM     10  C   UNL     1      19.437 -30.197  25.574  1.00  0.00     0.208 A 
ATOM     11  C   UNL     1      19.895 -28.902  25.219  1.00  0.00     0.179 A 
ENDROOT
BRANCH   1  12
ATOM     12  C   UNL     1      16.400 -25.638  22.164  1.00  0.00     0.018 A 
ATOM     13  C   UNL     1      14.628 -24.058  20.639  1.00  0.00     0.118 A 
ATOM     14  C   UNL     1      14.772 -25.431  20.366  1.00  0.00     0.047 A 
ATOM     15  C   UNL     1      15.375 -23.488  21.675  1.00  0.00     0.047 A 
ATOM     16  C   UNL     1      15.650 -26.213  21.122  1.00  0.00     0.016 A 
ATOM     17  C   UNL     1      16.258 -24.267  22.428  1.00  0.00     0.016 A 
BRANCH  13  18
ATOM     18  O   UNL     1      13.759 -23.232  19.911  1.00  0.00    -0.497 OA
ATOM     19  C   UNL     1      12.419 -22.940  20.295  1.00  0.00     0.278 C 
ENDBRANCH  13  18
ENDBRANCH   1  12
BRANCH   8  20
ATOM     20  O   UNL     1      16.033 -30.235  24.044  1.00  0.00    -0.490 OA
ATOM     21  C   UNL     1      15.657 -30.832  22.808  1.00  0.00     0.278 C 
ENDBRANCH   8  20
BRANCH  11  22
ATOM     22  O   UNL     1      21.167 -28.417  25.590  1.00  0.00    -0.492 OA
ATOM     23  C   UNL     1      21.643 -28.118  26.899  1.00  0.00     0.278 C 
ENDBRANCH  11  22
BRANCH   9  24
ATOM     24  O   UNL     1      17.704 -31.891  25.627  1.00  0.00    -0.490 OA
ATOM     25  C   UNL     1      17.780 -33.125  24.920  1.00  0.00     0.279 C 
ENDBRANCH   9  24
BRANCH  10  26
ATOM     26  O   UNL     1      20.317 -31.027  26.298  1.00  0.00    -0.490 OA
ATOM     27  C   UNL     1      21.304 -31.918  25.792  1.00  0.00     0.278 C 
ENDBRANCH  10  26
TORSDOF 6
ENDMDL
MODEL 3
REMARK VINA RESULT:    -4.457      2.675      5.909
REMARK INTER + INTRA:          -6.584
REMARK INTER:                  -5.900
REMARK INTRA:                  -0.685
REMARK UNBOUND:                -0.564
REMARK SMILES COc1ccc(-c2cc(=O)c3c(OC)c(OC)c(OC)c(OC)c3o2)cc1
REMARK SMILES IDX 7 1 8 2 9 3 10 4 11 5 24 6 25 7 21 8 18 9 15 10 12 11 6 12
REMARK SMILES IDX 3 13 4 14 27 15 5 16 26 17 2 18 1 19 22 20 23 21 13 22 14 23
REMARK SMILES IDX 19 24 20 25 16 26 17 27
REMARK H PARENT
REMARK Flexibility Score: inf
ROOT
ATOM      1  C   UNL     1      19.475 -28.367  26.451  1.00  0.00     0.138 A 
ATOM      2  C   UNL     1      20.531 -27.597  26.940  1.00  0.00     0.100 A 
ATOM      3  C   UNL     1      21.228 -28.031  28.063  1.00  0.00     0.197 A 
ATOM      4  O   UNL     1      22.184 -27.325  28.482  1.00  0.00    -0.289 OA
ATOM      5  C   UNL     1      20.855 -29.240  28.701  1.00  0.00     0.115 A 
ATOM      6  C   UNL     1      19.771 -29.963  28.151  1.00  0.00     0.188 A 
ATOM      7  O   UNL     1      19.154 -29.502  27.065  1.00  0.00    -0.452 OA
ATOM      8  C   UNL     1      19.331 -31.165  28.753  1.00  0.00     0.209 A 
ATOM      9  C   UNL     1      19.990 -31.650  29.911  1.00  0.00     0.211 A 
ATOM     10  C   UNL     1      21.106 -30.947  30.442  1.00  0.00     0.208 A 
ATOM     11  C   UNL     1      21.527 -29.731  29.846  1.00  0.00     0.179 A 
ENDROOT
BRANCH   1  12
ATOM     12  C   UNL     1      18.705 -27.950  25.257  1.00  0.00     0.018 A 
ATOM     13  C   UNL     1      17.194 -27.150  23.012  1.00  0.00     0.118 A 
ATOM     14  C   UNL     1      18.426 -26.533  23.297  1.00  0.00     0.047 A 
ATOM     15  C   UNL     1      16.728 -28.163  23.858  1.00  0.00     0.047 A 
ATOM     16  C   UNL     1      19.174 -26.931  24.409  1.00  0.00     0.016 A 
ATOM     17  C   UNL     1      17.472 -28.557  24.974  1.00  0.00     0.016 A 
BRANCH  13  18
ATOM     18  O   UNL     1      16.407 -26.790  21.908  1.00  0.00    -0.497 OA
ATOM     19  C   UNL     1      15.630 -25.599  21.830  1.00  0.00     0.278 C 
ENDBRANCH  13  18
ENDBRANCH   1  12
BRANCH   8  20
ATOM     20  O   UNL     1      18.251 -31.911  28.240  1.00  0.00    -0.490 OA
ATOM     21  C   UNL     1      18.297 -32.971  27.292  1.00  0.00     0.278 C 
ENDBRANCH   8  20
BRANCH  11  22
ATOM     22  O   UNL     1      22.607 -28.972  30.348  1.00  0.00    -0.492 OA
ATOM     23  C   UNL     1      23.985 -29.328  30.385  1.00  0.00     0.278 C 
ENDBRANCH  11  22
BRANCH   9  24
ATOM     24  O   UNL     1      19.576 -32.822  30.575  1.00  0.00    -0.490 OA
ATOM     25  C   UNL     1      18.601 -32.949  31.606  1.00  0.00     0.279 C 
ENDBRANCH   9  24
BRANCH  10  26
ATOM     26  O   UNL     1      21.829 -31.415  31.558  1.00  0.00    -0.490 OA
ATOM     27  C   UNL     1      21.613 -31.119  32.934  1.00  0.00     0.278 C 
ENDBRANCH  10  26
TORSDOF 6
ENDMDL
MODEL 4
REMARK VINA RESULT:    -4.334      2.447      5.499
REMARK INTER + INTRA:          -6.419
REMARK INTER:                  -5.734
REMARK INTRA:                  -0.686
REMARK UNBOUND:                -0.564
REMARK SMILES COc1ccc(-c2cc(=O)c3c(OC)c(OC)c(OC)c(OC)c3o2)cc1
REMARK SMILES IDX 7 1 8 2 9 3 10 4 11 5 24 6 25 7 21 8 18 9 15 10 12 11 6 12
REMARK SMILES IDX 3 13 4 14 27 15 5 16 26 17 2 18 1 19 22 20 23 21 13 22 14 23
REMARK SMILES IDX 19 24 20 25 16 26 17 27
REMARK H PARENT
REMARK Flexibility Score: inf
ROOT
ATOM      1  C   UNL     1      19.663 -27.779  25.405  1.00  0.00     0.138 A 
ATOM      2  C   UNL     1      20.828 -27.010  25.389  1.00  0.00     0.100 A 
ATOM      3  C   UNL     1      21.827 -27.269  26.321  1.00  0.00     0.197 A 
ATOM      4  O   UNL     1      22.875 -26.569  26.284  1.00  0.00    -0.289 OA
ATOM      5  C   UNL     1      21.650 -28.299  27.278  1.00  0.00     0.115 A 
ATOM      6  C   UNL     1      20.440 -29.031  27.236  1.00  0.00     0.188 A 
ATOM      7  O   UNL     1      19.529 -28.744  26.308  1.00  0.00    -0.452 OA
ATOM      8  C   UNL     1      20.189 -30.056  28.176  1.00  0.00     0.209 A 
ATOM      9  C   UNL     1      21.162 -30.355  29.164  1.00  0.00     0.211 A 
ATOM     10  C   UNL     1      22.395 -29.649  29.184  1.00  0.00     0.208 A 
ATOM     11  C   UNL     1      22.632 -28.607  28.250  1.00  0.00     0.179 A 
ENDROOT
BRANCH   1  12
ATOM     12  C   UNL     1      18.573 -27.544  24.431  1.00  0.00     0.018 A 
ATOM     13  C   UNL     1      16.532 -27.090  22.535  1.00  0.00     0.118 A 
ATOM     14  C   UNL     1      16.457 -28.188  23.412  1.00  0.00     0.047 A 
ATOM     15  C   UNL     1      17.632 -26.229  22.614  1.00  0.00     0.047 A 
ATOM     16  C   UNL     1      17.469 -28.412  24.351  1.00  0.00     0.016 A 
ATOM     17  C   UNL     1      18.647 -26.455  23.549  1.00  0.00     0.016 A 
BRANCH  13  18
ATOM     18  O   UNL     1      15.543 -26.820  21.578  1.00  0.00    -0.497 OA
ATOM     19  C   UNL     1      15.341 -25.550  20.968  1.00  0.00     0.278 C 
ENDBRANCH  13  18
ENDBRANCH   1  12
BRANCH   8  20
ATOM     20  O   UNL     1      18.994 -30.804  28.171  1.00  0.00    -0.490 OA
ATOM     21  C   UNL     1      18.733 -32.023  27.485  1.00  0.00     0.278 C 
ENDBRANCH   8  20
BRANCH  11  22
ATOM     22  O   UNL     1      23.823 -27.848  28.242  1.00  0.00    -0.492 OA
ATOM     23  C   UNL     1      25.125 -28.268  27.848  1.00  0.00     0.278 C 
ENDBRANCH  11  22
BRANCH   9  24
ATOM     24  O   UNL     1      20.954 -31.341  30.149  1.00  0.00    -0.490 OA
ATOM     25  C   UNL     1      20.282 -31.205  31.397  1.00  0.00     0.279 C 
ENDBRANCH   9  24
BRANCH  10  26
ATOM     26  O   UNL     1      23.417 -29.943  30.109  1.00  0.00    -0.490 OA
ATOM     27  C   UNL     1      23.606 -29.405  31.413  1.00  0.00     0.278 C 
ENDBRANCH  10  26
TORSDOF 6
ENDMDL
MODEL 5
REMARK VINA RESULT:    -4.310      5.110      7.083
REMARK INTER + INTRA:          -6.386
REMARK INTER:                  -5.727
REMARK INTRA:                  -0.659
REMARK UNBOUND:                -0.564
REMARK SMILES COc1ccc(-c2cc(=O)c3c(OC)c(OC)c(OC)c(OC)c3o2)cc1
REMARK SMILES IDX 7 1 8 2 9 3 10 4 11 5 24 6 25 7 21 8 18 9 15 10 12 11 6 12
REMARK SMILES IDX 3 13 4 14 27 15 5 16 26 17 2 18 1 19 22 20 23 21 13 22 14 23
REMARK SMILES IDX 19 24 20 25 16 26 17 27
REMARK H PARENT
REMARK Flexibility Score: inf
ROOT
ATOM      1  C   UNL     1      19.001 -31.684  27.171  1.00  0.00     0.138 A 
ATOM      2  C   UNL     1      18.951 -32.547  28.267  1.00  0.00     0.100 A 
ATOM      3  C   UNL     1      19.630 -32.207  29.432  1.00  0.00     0.197 A 
ATOM      4  O   UNL     1      19.566 -32.996  30.413  1.00  0.00    -0.289 OA
ATOM      5  C   UNL     1      20.369 -30.999  29.492  1.00  0.00     0.115 A 
ATOM      6  C   UNL     1      20.377 -30.179  28.339  1.00  0.00     0.188 A 
ATOM      7  O   UNL     1      19.693 -30.554  27.260  1.00  0.00    -0.452 OA
ATOM      8  C   UNL     1      21.114 -28.972  28.323  1.00  0.00     0.209 A 
ATOM      9  C   UNL     1      21.842 -28.580  29.475  1.00  0.00     0.211 A 
ATOM     10  C   UNL     1      21.803 -29.381  30.648  1.00  0.00     0.208 A 
ATOM     11  C   UNL     1      21.079 -30.602  30.650  1.00  0.00     0.179 A 
ENDROOT
BRANCH   1  12
ATOM     12  C   UNL     1      18.291 -32.000  25.910  1.00  0.00     0.018 A 
ATOM     13  C   UNL     1      16.985 -32.624  23.488  1.00  0.00     0.118 A 
ATOM     14  C   UNL     1      16.382 -32.931  24.721  1.00  0.00     0.047 A 
ATOM     15  C   UNL     1      18.241 -32.008  23.479  1.00  0.00     0.047 A 
ATOM     16  C   UNL     1      17.030 -32.621  25.921  1.00  0.00     0.016 A 
ATOM     17  C   UNL     1      18.893 -31.703  24.678  1.00  0.00     0.016 A 
BRANCH  13  18
ATOM     18  O   UNL     1      16.376 -32.912  22.258  1.00  0.00    -0.497 OA
ATOM     19  C   UNL     1      17.084 -33.125  21.041  1.00  0.00     0.278 C 
ENDBRANCH  13  18
ENDBRANCH   1  12
BRANCH   8  20
ATOM     20  O   UNL     1      21.152 -28.131  27.193  1.00  0.00    -0.490 OA
ATOM     21  C   UNL     1      20.226 -27.112  26.834  1.00  0.00     0.278 C 
ENDBRANCH   8  20
BRANCH  11  22
ATOM     22  O   UNL     1      21.031 -31.456  31.774  1.00  0.00    -0.492 OA
ATOM     23  C   UNL     1      20.384 -31.225  33.021  1.00  0.00     0.278 C 
ENDBRANCH  11  22
BRANCH   9  24
ATOM     24  O   UNL     1      22.622 -27.407  29.507  1.00  0.00    -0.490 OA
ATOM     25  C   UNL     1      22.196 -26.078  29.791  1.00  0.00     0.279 C 
ENDBRANCH   9  24
BRANCH  10  26
ATOM     26  O   UNL     1      22.464 -29.010  31.836  1.00  0.00    -0.490 OA
ATOM     27  C   UNL     1      23.784 -29.344  32.251  1.00  0.00     0.278 C 
ENDBRANCH  10  26
TORSDOF 6
ENDMDL
MODEL 6
REMARK VINA RESULT:    -4.224      2.045      3.687
REMARK INTER + INTRA:          -6.270
REMARK INTER:                  -5.670
REMARK INTRA:                  -0.600
REMARK UNBOUND:                -0.564
REMARK SMILES COc1ccc(-c2cc(=O)c3c(OC)c(OC)c(OC)c(OC)c3o2)cc1
REMARK SMILES IDX 7 1 8 2 9 3 10 4 11 5 24 6 25 7 21 8 18 9 15 10 12 11 6 12
REMARK SMILES IDX 3 13 4 14 27 15 5 16 26 17 2 18 1 19 22 20 23 21 13 22 14 23
REMARK SMILES IDX 19 24 20 25 16 26 17 27
REMARK H PARENT
REMARK Flexibility Score: inf
ROOT
ATOM      1  C   UNL     1      18.373 -29.081  25.082  1.00  0.00     0.138 A 
ATOM      2  C   UNL     1      18.167 -30.453  25.240  1.00  0.00     0.100 A 
ATOM      3  C   UNL     1      18.868 -31.137  26.228  1.00  0.00     0.197 A 
ATOM      4  O   UNL     1      18.660 -32.373  26.359  1.00  0.00    -0.289 OA
ATOM      5  C   UNL     1      19.786 -30.441  27.053  1.00  0.00     0.115 A 
ATOM      6  C   UNL     1      19.946 -29.053  26.828  1.00  0.00     0.188 A 
ATOM      7  O   UNL     1      19.234 -28.453  25.877  1.00  0.00    -0.452 OA
ATOM      8  C   UNL     1      20.864 -28.303  27.599  1.00  0.00     0.209 A 
ATOM      9  C   UNL     1      21.621 -28.948  28.610  1.00  0.00     0.211 A 
ATOM     10  C   UNL     1      21.433 -30.334  28.865  1.00  0.00     0.208 A 
ATOM     11  C   UNL     1      20.527 -31.085  28.073  1.00  0.00     0.179 A 
ENDROOT
BRANCH   1  12
ATOM     12  C   UNL     1      17.648 -28.308  24.048  1.00  0.00     0.018 A 
ATOM     13  C   UNL     1      16.220 -26.841  22.106  1.00  0.00     0.118 A 
ATOM     14  C   UNL     1      17.446 -26.360  22.602  1.00  0.00     0.047 A 
ATOM     15  C   UNL     1      15.719 -28.054  22.589  1.00  0.00     0.047 A 
ATOM     16  C   UNL     1      18.153 -27.088  23.564  1.00  0.00     0.016 A 
ATOM     17  C   UNL     1      16.422 -28.780  23.555  1.00  0.00     0.016 A 
BRANCH  13  18
ATOM     18  O   UNL     1      15.475 -26.149  21.139  1.00  0.00    -0.497 OA
ATOM     19  C   UNL     1      14.984 -24.822  21.302  1.00  0.00     0.278 C 
ENDBRANCH  13  18
ENDBRANCH   1  12
BRANCH   8  20
ATOM     20  O   UNL     1      21.057 -26.921  27.403  1.00  0.00    -0.490 OA
ATOM     21  C   UNL     1      22.006 -26.286  26.554  1.00  0.00     0.278 C 
ENDBRANCH   8  20
BRANCH  11  22
ATOM     22  O   UNL     1      20.322 -32.469  28.256  1.00  0.00    -0.492 OA
ATOM     23  C   UNL     1      19.605 -33.117  29.302  1.00  0.00     0.278 C 
ENDBRANCH  11  22
BRANCH   9  24
ATOM     24  O   UNL     1      22.576 -28.261  29.387  1.00  0.00    -0.490 OA
ATOM     25  C   UNL     1      22.356 -27.483  30.559  1.00  0.00     0.279 C 
ENDBRANCH   9  24
BRANCH  10  26
ATOM     26  O   UNL     1      22.121 -31.011  29.892  1.00  0.00    -0.490 OA
ATOM     27  C   UNL     1      21.796 -31.073  31.277  1.00  0.00     0.278 C 
ENDBRANCH  10  26
TORSDOF 6
ENDMDL
MODEL 7
REMARK VINA RESULT:    -4.079      4.745      6.952
REMARK INTER + INTRA:          -6.075
REMARK INTER:                  -5.414
REMARK INTRA:                  -0.661
REMARK UNBOUND:                -0.564
REMARK SMILES COc1ccc(-c2cc(=O)c3c(OC)c(OC)c(OC)c(OC)c3o2)cc1
REMARK SMILES IDX 7 1 8 2 9 3 10 4 11 5 24 6 25 7 21 8 18 9 15 10 12 11 6 12
REMARK SMILES IDX 3 13 4 14 27 15 5 16 26 17 2 18 1 19 22 20 23 21 13 22 14 23
REMARK SMILES IDX 19 24 20 25 16 26 17 27
REMARK H PARENT
REMARK Flexibility Score: inf
ROOT
ATOM      1  C   UNL     1      19.588 -30.390  25.533  1.00  0.00     0.138 A 
ATOM      2  C   UNL     1      20.225 -29.154  25.409  1.00  0.00     0.100 A 
ATOM      3  C   UNL     1      20.856 -28.599  26.517  1.00  0.00     0.197 A 
ATOM      4  O   UNL     1      21.433 -27.487  26.381  1.00  0.00    -0.289 OA
ATOM      5  C   UNL     1      20.838 -29.285  27.757  1.00  0.00     0.115 A 
ATOM      6  C   UNL     1      20.167 -30.530  27.807  1.00  0.00     0.188 A 
ATOM      7  O   UNL     1      19.596 -31.014  26.706  1.00  0.00    -0.452 OA
ATOM      8  C   UNL     1      20.090 -31.255  29.018  1.00  0.00     0.209 A 
ATOM      9  C   UNL     1      20.699 -30.733  30.188  1.00  0.00     0.211 A 
ATOM     10  C   UNL     1      21.408 -29.502  30.131  1.00  0.00     0.208 A 
ATOM     11  C   UNL     1      21.462 -28.769  28.918  1.00  0.00     0.179 A 
ENDROOT
BRANCH   1  12
ATOM     12  C   UNL     1      18.906 -31.023  24.382  1.00  0.00     0.018 A 
ATOM     13  C   UNL     1      17.634 -32.277  22.196  1.00  0.00     0.118 A 
ATOM     14  C   UNL     1      16.879 -31.561  23.145  1.00  0.00     0.047 A 
ATOM     15  C   UNL     1      19.022 -32.360  22.353  1.00  0.00     0.047 A 
ATOM     16  C   UNL     1      17.510 -30.940  24.227  1.00  0.00     0.016 A 
ATOM     17  C   UNL     1      19.653 -31.744  23.438  1.00  0.00     0.016 A 
BRANCH  13  18
ATOM     18  O   UNL     1      17.049 -32.915  21.093  1.00  0.00    -0.497 OA
ATOM     19  C   UNL     1      17.704 -33.123  19.846  1.00  0.00     0.278 C 
ENDBRANCH  13  18
ENDBRANCH   1  12
BRANCH   8  20
ATOM     20  O   UNL     1      19.426 -32.495  29.111  1.00  0.00    -0.490 OA
ATOM     21  C   UNL     1      18.040 -32.726  29.333  1.00  0.00     0.278 C 
ENDBRANCH   8  20
BRANCH  11  22
ATOM     22  O   UNL     1      22.124 -27.526  28.808  1.00  0.00    -0.492 OA
ATOM     23  C   UNL     1      21.795 -26.300  29.452  1.00  0.00     0.278 C 
ENDBRANCH  11  22
BRANCH   9  24
ATOM     24  O   UNL     1      20.626 -31.393  31.431  1.00  0.00    -0.490 OA
ATOM     25  C   UNL     1      19.618 -31.272  32.430  1.00  0.00     0.279 C 
ENDBRANCH   9  24
BRANCH  10  26
ATOM     26  O   UNL     1      22.076 -28.966  31.251  1.00  0.00    -0.490 OA
ATOM     27  C   UNL     1      23.442 -29.121  31.619  1.00  0.00     0.278 C 
ENDBRANCH  10  26
TORSDOF 6
ENDMDL
MODEL 8
REMARK VINA RESULT:    -4.073      2.942      5.494
REMARK INTER + INTRA:          -6.066
REMARK INTER:                  -5.527
REMARK INTRA:                  -0.538
REMARK UNBOUND:                -0.564
REMARK SMILES COc1ccc(-c2cc(=O)c3c(OC)c(OC)c(OC)c(OC)c3o2)cc1
REMARK SMILES IDX 7 1 8 2 9 3 10 4 11 5 24 6 25 7 21 8 18 9 15 10 12 11 6 12
REMARK SMILES IDX 3 13 4 14 27 15 5 16 26 17 2 18 1 19 22 20 23 21 13 22 14 23
REMARK SMILES IDX 19 24 20 25 16 26 17 27
REMARK H PARENT
REMARK Flexibility Score: inf
ROOT
ATOM      1  C   UNL     1      19.673 -27.554  25.485  1.00  0.00     0.138 A 
ATOM      2  C   UNL     1      19.643 -26.854  26.692  1.00  0.00     0.100 A 
ATOM      3  C   UNL     1      20.682 -27.021  27.601  1.00  0.00     0.197 A 
ATOM      4  O   UNL     1      20.640 -26.372  28.682  1.00  0.00    -0.289 OA
ATOM      5  C   UNL     1      21.751 -27.901  27.299  1.00  0.00     0.115 A 
ATOM      6  C   UNL     1      21.708 -28.581  26.059  1.00  0.00     0.188 A 
ATOM      7  O   UNL     1      20.693 -28.366  25.225  1.00  0.00    -0.452 OA
ATOM      8  C   UNL     1      22.729 -29.492  25.705  1.00  0.00     0.209 A 
ATOM      9  C   UNL     1      23.807 -29.719  26.599  1.00  0.00     0.211 A 
ATOM     10  C   UNL     1      23.873 -29.008  27.827  1.00  0.00     0.208 A 
ATOM     11  C   UNL     1      22.834 -28.111  28.186  1.00  0.00     0.179 A 
ENDROOT
BRANCH   1  12
ATOM     12  C   UNL     1      18.592 -27.407  24.483  1.00  0.00     0.018 A 
ATOM     13  C   UNL     1      16.571 -27.123  22.535  1.00  0.00     0.118 A 
ATOM     14  C   UNL     1      16.491 -28.145  23.500  1.00  0.00     0.047 A 
ATOM     15  C   UNL     1      17.666 -26.254  22.553  1.00  0.00     0.047 A 
ATOM     16  C   UNL     1      17.493 -28.284  24.465  1.00  0.00     0.016 A 
ATOM     17  C   UNL     1      18.672 -26.396  23.514  1.00  0.00     0.016 A 
BRANCH  13  18
ATOM     18  O   UNL     1      15.591 -26.940  21.548  1.00  0.00    -0.497 OA
ATOM     19  C   UNL     1      15.233 -25.677  20.997  1.00  0.00     0.278 C 
ENDBRANCH  13  18
ENDBRANCH   1  12
BRANCH   8  20
ATOM     20  O   UNL     1      22.720 -30.193  24.482  1.00  0.00    -0.490 OA
ATOM     21  C   UNL     1      23.490 -29.921  23.317  1.00  0.00     0.278 C 
ENDBRANCH   8  20
BRANCH  11  22
ATOM     22  O   UNL     1      22.828 -27.401  29.407  1.00  0.00    -0.492 OA
ATOM     23  C   UNL     1      22.514 -27.894  30.705  1.00  0.00     0.278 C 
ENDBRANCH  11  22
BRANCH   9  24
ATOM     24  O   UNL     1      24.835 -30.641  26.317  1.00  0.00    -0.490 OA
ATOM     25  C   UNL     1      24.834 -32.048  26.534  1.00  0.00     0.279 C 
ENDBRANCH   9  24
BRANCH  10  26
ATOM     26  O   UNL     1      24.949 -29.155  28.726  1.00  0.00    -0.490 OA
ATOM     27  C   UNL     1      25.125 -30.144  29.735  1.00  0.00     0.278 C 
ENDBRANCH  10  26
TORSDOF 6
ENDMDL
MODEL 9
REMARK VINA RESULT:    -4.015      3.065      9.107
REMARK INTER + INTRA:          -5.988
REMARK INTER:                  -5.332
REMARK INTRA:                  -0.655
REMARK UNBOUND:                -0.564
REMARK SMILES COc1ccc(-c2cc(=O)c3c(OC)c(OC)c(OC)c(OC)c3o2)cc1
REMARK SMILES IDX 7 1 8 2 9 3 10 4 11 5 24 6 25 7 21 8 18 9 15 10 12 11 6 12
REMARK SMILES IDX 3 13 4 14 27 15 5 16 26 17 2 18 1 19 22 20 23 21 13 22 14 23
REMARK SMILES IDX 19 24 20 25 16 26 17 27
REMARK H PARENT
REMARK Flexibility Score: inf
ROOT
ATOM      1  C   UNL     1      20.859 -28.911  28.489  1.00  0.00     0.138 A 
ATOM      2  C   UNL     1      20.583 -27.641  27.978  1.00  0.00     0.100 A 
ATOM      3  C   UNL     1      19.761 -27.521  26.862  1.00  0.00     0.197 A 
ATOM      4  O   UNL     1      19.518 -26.365  26.422  1.00  0.00    -0.289 OA
ATOM      5  C   UNL     1      19.221 -28.681  26.254  1.00  0.00     0.115 A 
ATOM      6  C   UNL     1      19.550 -29.933  26.825  1.00  0.00     0.188 A 
ATOM      7  O   UNL     1      20.330 -29.980  27.903  1.00  0.00    -0.452 OA
ATOM      8  C   UNL     1      19.066 -31.132  26.253  1.00  0.00     0.209 A 
ATOM      9  C   UNL     1      18.238 -31.075  25.103  1.00  0.00     0.211 A 
ATOM     10  C   UNL     1      17.872 -29.817  24.551  1.00  0.00     0.208 A 
ATOM     11  C   UNL     1      18.380 -28.619  25.117  1.00  0.00     0.179 A 
ENDROOT
BRANCH   1  12
ATOM     12  C   UNL     1      21.724 -29.091  29.677  1.00  0.00     0.018 A 
ATOM     13  C   UNL     1      23.409 -29.464  31.910  1.00  0.00     0.118 A 
ATOM     14  C   UNL     1      22.916 -28.184  31.595  1.00  0.00     0.047 A 
ATOM     15  C   UNL     1      23.054 -30.548  31.099  1.00  0.00     0.047 A 
ATOM     16  C   UNL     1      22.081 -28.000  30.489  1.00  0.00     0.016 A 
ATOM     17  C   UNL     1      22.224 -30.365  29.989  1.00  0.00     0.016 A 
BRANCH  13  18
ATOM     18  O   UNL     1      24.247 -29.701  33.009  1.00  0.00    -0.497 OA
ATOM     19  C   UNL     1      25.123 -30.817  33.125  1.00  0.00     0.278 C 
ENDBRANCH  13  18
ENDBRANCH   1  12
BRANCH   8  20
ATOM     20  O   UNL     1      19.375 -32.398  26.788  1.00  0.00    -0.490 OA
ATOM     21  C   UNL     1      18.704 -33.089  27.836  1.00  0.00     0.278 C 
ENDBRANCH   8  20
BRANCH  11  22
ATOM     22  O   UNL     1      18.080 -27.343  24.593  1.00  0.00    -0.492 OA
ATOM     23  C   UNL     1      18.397 -26.828  23.304  1.00  0.00     0.278 C 
ENDBRANCH  11  22
BRANCH   9  24
ATOM     24  O   UNL     1      17.753 -32.236  24.468  1.00  0.00    -0.490 OA
ATOM     25  C   UNL     1      16.476 -32.849  24.617  1.00  0.00     0.279 C 
ENDBRANCH   9  24
BRANCH  10  26
ATOM     26  O   UNL     1      17.009 -29.702  23.443  1.00  0.00    -0.490 OA
ATOM     27  C   UNL     1      15.617 -29.404  23.438  1.00  0.00     0.278 C 
ENDBRANCH  10  26
TORSDOF 6
ENDMDL
