MODEL 1
REMARK VINA RESULT:    -2.617      0.000      0.000
REMARK INTER + INTRA:          -7.248
REMARK INTER:                  -4.759
REMARK INTRA:                  -2.488
REMARK UNBOUND:                -2.488
REMARK SMILES CCCCCCCCCCCCCCCC(=O)[O-]
REMARK SMILES IDX 9 1 10 2 11 3 12 4 13 5 14 6 15 7 16 8 17 9 18 10 8 11 7 12
REMARK SMILES IDX 6 13 5 14 4 15 3 16 2 17 1 18
REMARK H PARENT
REMARK Flexibility Score: inf
ROOT
ATOM      1  C   UNL     1      13.108 -17.122  23.070  1.00  0.00     0.000 C 
ENDROOT
BRANCH   1   2
ATOM      2  C   UNL     1      12.393 -18.490  23.106  1.00  0.00     0.000 C 
BRANCH   2   3
ATOM      3  C   UNL     1      12.468 -19.262  21.774  1.00  0.00     0.000 C 
BRANCH   3   4
ATOM      4  C   UNL     1      11.335 -18.946  20.781  1.00  0.00     0.000 C 
BRANCH   4   5
ATOM      5  C   UNL     1      11.755 -18.946  19.299  1.00  0.00     0.000 C 
BRANCH   5   6
ATOM      6  C   UNL     1      10.615 -19.333  18.329  1.00  0.00     0.006 C 
BRANCH   6   7
ATOM      7  C   UNL     1       9.304 -18.573  18.589  1.00  0.00     0.053 C 
BRANCH   7   8
ATOM      8  C   UNL     1       8.142 -19.505  18.752  1.00  0.00     0.041 C 
ATOM      9  O   UNL     1       8.338 -20.725  18.995  1.00  0.00    -0.550 OA
ATOM     10  O   UNL     1       6.843 -19.022  18.658  1.00  0.00    -0.550 OA
ENDBRANCH   7   8
ENDBRANCH   6   7
ENDBRANCH   5   6
ENDBRANCH   4   5
ENDBRANCH   3   4
ENDBRANCH   2   3
ENDBRANCH   1   2
BRANCH   1  11
ATOM     11  C   UNL     1      14.481 -17.200  22.381  1.00  0.00     0.000 C 
BRANCH  11  12
ATOM     12  C   UNL     1      14.589 -16.265  21.166  1.00  0.00    -0.000 C 
BRANCH  12  13
ATOM     13  C   UNL     1      13.384 -15.322  21.035  1.00  0.00    -0.000 C 
BRANCH  13  14
ATOM     14  C   UNL     1      12.734 -15.453  19.652  1.00  0.00    -0.000 C 
BRANCH  14  15
ATOM     15  C   UNL     1      11.212 -15.257  19.737  1.00  0.00    -0.000 C 
BRANCH  15  16
ATOM     16  C   UNL     1      10.698 -15.304  21.191  1.00  0.00    -0.000 C 
BRANCH  16  17
ATOM     17  C   UNL     1       9.275 -15.875  21.323  1.00  0.00    -0.003 C 
ATOM     18  C   UNL     1       8.341 -15.420  20.203  1.00  0.00     0.004 C 
ENDBRANCH  16  17
ENDBRANCH  15  16
ENDBRANCH  14  15
ENDBRANCH  13  14
ENDBRANCH  12  13
ENDBRANCH  11  12
ENDBRANCH   1  11
TORSDOF 14
ENDMDL
MODEL 2
REMARK VINA RESULT:    -2.597      2.833      5.526
REMARK INTER + INTRA:          -7.211
REMARK INTER:                  -4.641
REMARK INTRA:                  -2.570
REMARK UNBOUND:                -2.488
REMARK SMILES CCCCCCCCCCCCCCCC(=O)[O-]
REMARK SMILES IDX 9 1 10 2 11 3 12 4 13 5 14 6 15 7 16 8 17 9 18 10 8 11 7 12
REMARK SMILES IDX 6 13 5 14 4 15 3 16 2 17 1 18
REMARK H PARENT
REMARK Flexibility Score: inf
ROOT
ATOM      1  C   UNL     1       6.880 -18.867  19.116  1.00  0.00     0.000 C 
ENDROOT
BRANCH   1   2
ATOM      2  C   UNL     1       8.024 -19.581  18.365  1.00  0.00     0.000 C 
BRANCH   2   3
ATOM      3  C   UNL     1       9.275 -18.703  18.163  1.00  0.00     0.000 C 
BRANCH   3   4
ATOM      4  C   UNL     1      10.581 -19.304  18.714  1.00  0.00     0.000 C 
BRANCH   4   5
ATOM      5  C   UNL     1      11.427 -18.339  19.566  1.00  0.00     0.000 C 
BRANCH   5   6
ATOM      6  C   UNL     1      12.069 -19.003  20.806  1.00  0.00     0.006 C 
BRANCH   6   7
ATOM      7  C   UNL     1      13.348 -18.297  21.285  1.00  0.00     0.053 C 
BRANCH   7   8
ATOM      8  C   UNL     1      13.145 -16.820  21.441  1.00  0.00     0.041 C 
ATOM      9  O   UNL     1      13.697 -16.018  20.642  1.00  0.00    -0.550 OA
ATOM     10  O   UNL     1      12.329 -16.332  22.453  1.00  0.00    -0.550 OA
ENDBRANCH   7   8
ENDBRANCH   6   7
ENDBRANCH   5   6
ENDBRANCH   4   5
ENDBRANCH   3   4
ENDBRANCH   2   3
ENDBRANCH   1   2
BRANCH   1  11
ATOM     11  C   UNL     1       6.607 -19.494  20.494  1.00  0.00     0.000 C 
BRANCH  11  12
ATOM     12  C   UNL     1       7.736 -20.430  20.953  1.00  0.00    -0.000 C 
BRANCH  12  13
ATOM     13  C   UNL     1       8.662 -19.779  21.990  1.00  0.00    -0.000 C 
BRANCH  13  14
ATOM     14  C   UNL     1       8.089 -18.442  22.474  1.00  0.00    -0.000 C 
BRANCH  14  15
ATOM     15  C   UNL     1       8.964 -17.266  22.011  1.00  0.00    -0.000 C 
BRANCH  15  16
ATOM     16  C   UNL     1       8.132 -16.139  21.364  1.00  0.00    -0.000 C 
BRANCH  16  17
ATOM     17  C   UNL     1       8.686 -15.666  20.008  1.00  0.00    -0.003 C 
ATOM     18  C   UNL     1      10.036 -14.962  20.127  1.00  0.00     0.004 C 
ENDBRANCH  16  17
ENDBRANCH  15  16
ENDBRANCH  14  15
ENDBRANCH  13  14
ENDBRANCH  12  13
ENDBRANCH  11  12
ENDBRANCH   1  11
TORSDOF 14
ENDMDL
MODEL 3
REMARK VINA RESULT:    -2.555      4.392      6.972
REMARK INTER + INTRA:          -7.134
REMARK INTER:                  -4.895
REMARK INTRA:                  -2.239
REMARK UNBOUND:                -2.488
REMARK SMILES CCCCCCCCCCCCCCCC(=O)[O-]
REMARK SMILES IDX 9 1 10 2 11 3 12 4 13 5 14 6 15 7 16 8 17 9 18 10 8 11 7 12
REMARK SMILES IDX 6 13 5 14 4 15 3 16 2 17 1 18
REMARK H PARENT
REMARK Flexibility Score: inf
ROOT
ATOM      1  C   UNL     1       7.703 -15.775  19.112  1.00  0.00     0.000 C 
ENDROOT
BRANCH   1   2
ATOM      2  C   UNL     1       6.687 -16.090  17.994  1.00  0.00     0.000 C 
BRANCH   2   3
ATOM      3  C   UNL     1       5.221 -16.085  18.471  1.00  0.00     0.000 C 
BRANCH   3   4
ATOM      4  C   UNL     1       4.378 -17.275  17.979  1.00  0.00     0.000 C 
BRANCH   4   5
ATOM      5  C   UNL     1       3.250 -17.708  18.935  1.00  0.00     0.000 C 
BRANCH   5   6
ATOM      6  C   UNL     1       2.963 -19.227  18.913  1.00  0.00     0.006 C 
BRANCH   6   7
ATOM      7  C   UNL     1       2.130 -19.711  20.112  1.00  0.00     0.053 C 
BRANCH   7   8
ATOM      8  C   UNL     1       0.837 -20.330  19.679  1.00  0.00     0.041 C 
ATOM      9  O   UNL     1      -0.157 -20.328  20.453  1.00  0.00    -0.550 OA
ATOM     10  O   UNL     1       0.721 -20.887  18.412  1.00  0.00    -0.550 OA
ENDBRANCH   7   8
ENDBRANCH   6   7
ENDBRANCH   5   6
ENDBRANCH   4   5
ENDBRANCH   3   4
ENDBRANCH   2   3
ENDBRANCH   1   2
BRANCH   1  11
ATOM     11  C   UNL     1       8.993 -16.604  18.977  1.00  0.00     0.000 C 
BRANCH  11  12
ATOM     12  C   UNL     1       8.864 -17.736  17.946  1.00  0.00    -0.000 C 
BRANCH  12  13
ATOM     13  C   UNL     1       9.314 -19.096  18.500  1.00  0.00    -0.000 C 
BRANCH  13  14
ATOM     14  C   UNL     1       8.106 -19.992  18.800  1.00  0.00    -0.000 C 
BRANCH  14  15
ATOM     15  C   UNL     1       7.711 -19.908  20.282  1.00  0.00    -0.000 C 
BRANCH  15  16
ATOM     16  C   UNL     1       6.321 -19.269  20.480  1.00  0.00    -0.000 C 
BRANCH  16  17
ATOM     17  C   UNL     1       6.315 -18.106  21.488  1.00  0.00    -0.003 C 
ATOM     18  C   UNL     1       5.007 -17.999  22.270  1.00  0.00     0.004 C 
ENDBRANCH  16  17
ENDBRANCH  15  16
ENDBRANCH  14  15
ENDBRANCH  13  14
ENDBRANCH  12  13
ENDBRANCH  11  12
ENDBRANCH   1  11
TORSDOF 14
ENDMDL
MODEL 4
REMARK VINA RESULT:    -2.524      3.425      6.098
REMARK INTER + INTRA:          -7.077
REMARK INTER:                  -4.449
REMARK INTRA:                  -2.629
REMARK UNBOUND:                -2.488
REMARK SMILES CCCCCCCCCCCCCCCC(=O)[O-]
REMARK SMILES IDX 9 1 10 2 11 3 12 4 13 5 14 6 15 7 16 8 17 9 18 10 8 11 7 12
REMARK SMILES IDX 6 13 5 14 4 15 3 16 2 17 1 18
REMARK H PARENT
REMARK Flexibility Score: inf
ROOT
ATOM      1  C   UNL     1       6.669 -18.608  19.249  1.00  0.00     0.000 C 
ENDROOT
BRANCH   1   2
ATOM      2  C   UNL     1       6.601 -17.066  19.221  1.00  0.00     0.000 C 
BRANCH   2   3
ATOM      3  C   UNL     1       7.685 -16.383  20.079  1.00  0.00     0.000 C 
BRANCH   3   4
ATOM      4  C   UNL     1       8.860 -15.790  19.281  1.00  0.00     0.000 C 
BRANCH   4   5
ATOM      5  C   UNL     1       9.846 -14.947  20.113  1.00  0.00     0.000 C 
BRANCH   5   6
ATOM      6  C   UNL     1      11.328 -15.163  19.730  1.00  0.00     0.006 C 
BRANCH   6   7
ATOM      7  C   UNL     1      12.306 -14.876  20.881  1.00  0.00     0.053 C 
BRANCH   7   8
ATOM      8  C   UNL     1      13.148 -13.667  20.610  1.00  0.00     0.041 C 
ATOM      9  O   UNL     1      14.258 -13.526  21.189  1.00  0.00    -0.550 OA
ATOM     10  O   UNL     1      12.719 -12.709  19.700  1.00  0.00    -0.550 OA
ENDBRANCH   7   8
ENDBRANCH   6   7
ENDBRANCH   5   6
ENDBRANCH   4   5
ENDBRANCH   3   4
ENDBRANCH   2   3
ENDBRANCH   1   2
BRANCH   1  11
ATOM     11  C   UNL     1       7.722 -19.162  18.273  1.00  0.00     0.000 C 
BRANCH  11  12
ATOM     12  C   UNL     1       8.942 -19.760  18.993  1.00  0.00    -0.000 C 
BRANCH  12  13
ATOM     13  C   UNL     1      10.269 -19.154  18.514  1.00  0.00    -0.000 C 
BRANCH  13  14
ATOM     14  C   UNL     1      11.163 -18.783  19.703  1.00  0.00    -0.000 C 
BRANCH  14  15
ATOM     15  C   UNL     1      10.485 -19.137  21.036  1.00  0.00    -0.000 C 
BRANCH  15  16
ATOM     16  C   UNL     1      10.543 -17.974  22.048  1.00  0.00    -0.000 C 
BRANCH  16  17
ATOM     17  C   UNL     1       9.302 -17.883  22.953  1.00  0.00    -0.003 C 
ATOM     18  C   UNL     1       8.281 -18.987  22.682  1.00  0.00     0.004 C 
ENDBRANCH  16  17
ENDBRANCH  15  16
ENDBRANCH  14  15
ENDBRANCH  13  14
ENDBRANCH  12  13
ENDBRANCH  11  12
ENDBRANCH   1  11
TORSDOF 14
ENDMDL
MODEL 5
REMARK VINA RESULT:    -2.523      2.328      4.891
REMARK INTER + INTRA:          -7.076
REMARK INTER:                  -4.777
REMARK INTRA:                  -2.299
REMARK UNBOUND:                -2.488
REMARK SMILES CCCCCCCCCCCCCCCC(=O)[O-]
REMARK SMILES IDX 9 1 10 2 11 3 12 4 13 5 14 6 15 7 16 8 17 9 18 10 8 11 7 12
REMARK SMILES IDX 6 13 5 14 4 15 3 16 2 17 1 18
REMARK H PARENT
REMARK Flexibility Score: inf
ROOT
ATOM      1  C   UNL     1       8.846 -16.469  19.144  1.00  0.00     0.000 C 
ENDROOT
BRANCH   1   2
ATOM      2  C   UNL     1       7.356 -16.701  18.813  1.00  0.00     0.000 C 
BRANCH   2   3
ATOM      3  C   UNL     1       7.044 -18.133  18.336  1.00  0.00     0.000 C 
BRANCH   3   4
ATOM      4  C   UNL     1       8.282 -19.006  18.064  1.00  0.00     0.000 C 
BRANCH   4   5
ATOM      5  C   UNL     1       8.415 -20.242  18.973  1.00  0.00     0.000 C 
BRANCH   5   6
ATOM      6  C   UNL     1       7.617 -20.134  20.293  1.00  0.00     0.006 C 
BRANCH   6   7
ATOM      7  C   UNL     1       8.509 -20.020  21.540  1.00  0.00     0.053 C 
BRANCH   7   8
ATOM      8  C   UNL     1       7.709 -20.078  22.805  1.00  0.00     0.041 C 
ATOM      9  O   UNL     1       8.109 -19.473  23.835  1.00  0.00    -0.550 OA
ATOM     10  O   UNL     1       6.511 -20.780  22.841  1.00  0.00    -0.550 OA
ENDBRANCH   7   8
ENDBRANCH   6   7
ENDBRANCH   5   6
ENDBRANCH   4   5
ENDBRANCH   3   4
ENDBRANCH   2   3
ENDBRANCH   1   2
BRANCH   1  11
ATOM     11  C   UNL     1       9.116 -16.491  20.659  1.00  0.00     0.000 C 
BRANCH  11  12
ATOM     12  C   UNL     1      10.528 -16.991  21.002  1.00  0.00    -0.000 C 
BRANCH  12  13
ATOM     13  C   UNL     1      11.228 -17.658  19.809  1.00  0.00    -0.000 C 
BRANCH  13  14
ATOM     14  C   UNL     1      12.030 -18.884  20.259  1.00  0.00    -0.000 C 
BRANCH  14  15
ATOM     15  C   UNL     1      13.096 -18.497  21.296  1.00  0.00    -0.000 C 
BRANCH  15  16
ATOM     16  C   UNL     1      13.349 -19.622  22.320  1.00  0.00    -0.000 C 
BRANCH  16  17
ATOM     17  C   UNL     1      12.060 -20.270  22.855  1.00  0.00    -0.003 C 
ATOM     18  C   UNL     1      11.552 -19.620  24.140  1.00  0.00     0.004 C 
ENDBRANCH  16  17
ENDBRANCH  15  16
ENDBRANCH  14  15
ENDBRANCH  13  14
ENDBRANCH  12  13
ENDBRANCH  11  12
ENDBRANCH   1  11
TORSDOF 14
ENDMDL
MODEL 6
REMARK VINA RESULT:    -2.510      3.207      6.063
REMARK INTER + INTRA:          -7.053
REMARK INTER:                  -4.441
REMARK INTRA:                  -2.612
REMARK UNBOUND:                -2.488
REMARK SMILES CCCCCCCCCCCCCCCC(=O)[O-]
REMARK SMILES IDX 9 1 10 2 11 3 12 4 13 5 14 6 15 7 16 8 17 9 18 10 8 11 7 12
REMARK SMILES IDX 6 13 5 14 4 15 3 16 2 17 1 18
REMARK H PARENT
REMARK Flexibility Score: inf
ROOT
ATOM      1  C   UNL     1       8.181 -15.867  19.020  1.00  0.00     0.000 C 
ENDROOT
BRANCH   1   2
ATOM      2  C   UNL     1       9.449 -16.747  19.037  1.00  0.00     0.000 C 
BRANCH   2   3
ATOM      3  C   UNL     1       9.275 -18.096  18.313  1.00  0.00     0.000 C 
BRANCH   3   4
ATOM      4  C   UNL     1      10.176 -19.230  18.835  1.00  0.00     0.000 C 
BRANCH   4   5
ATOM      5  C   UNL     1      11.612 -18.802  19.195  1.00  0.00     0.000 C 
BRANCH   5   6
ATOM      6  C   UNL     1      11.973 -19.018  20.682  1.00  0.00     0.006 C 
BRANCH   6   7
ATOM      7  C   UNL     1      12.084 -17.709  21.482  1.00  0.00     0.053 C 
BRANCH   7   8
ATOM      8  C   UNL     1      13.242 -16.874  21.028  1.00  0.00     0.041 C 
ATOM      9  O   UNL     1      13.041 -15.776  20.445  1.00  0.00    -0.550 OA
ATOM     10  O   UNL     1      14.543 -17.298  21.268  1.00  0.00    -0.550 OA
ENDBRANCH   7   8
ENDBRANCH   6   7
ENDBRANCH   5   6
ENDBRANCH   4   5
ENDBRANCH   3   4
ENDBRANCH   2   3
ENDBRANCH   1   2
BRANCH   1  11
ATOM     11  C   UNL     1       7.170 -16.322  17.953  1.00  0.00     0.000 C 
BRANCH  11  12
ATOM     12  C   UNL     1       5.721 -16.305  18.463  1.00  0.00    -0.000 C 
BRANCH  12  13
ATOM     13  C   UNL     1       5.521 -17.177  19.711  1.00  0.00    -0.000 C 
BRANCH  13  14
ATOM     14  C   UNL     1       5.716 -18.661  19.380  1.00  0.00    -0.000 C 
BRANCH  14  15
ATOM     15  C   UNL     1       6.652 -19.335  20.396  1.00  0.00    -0.000 C 
BRANCH  15  16
ATOM     16  C   UNL     1       7.055 -18.382  21.540  1.00  0.00    -0.000 C 
BRANCH  16  17
ATOM     17  C   UNL     1       8.474 -18.633  22.080  1.00  0.00    -0.003 C 
ATOM     18  C   UNL     1       8.822 -20.117  22.180  1.00  0.00     0.004 C 
ENDBRANCH  16  17
ENDBRANCH  15  16
ENDBRANCH  14  15
ENDBRANCH  13  14
ENDBRANCH  12  13
ENDBRANCH  11  12
ENDBRANCH   1  11
TORSDOF 14
ENDMDL
MODEL 7
REMARK VINA RESULT:    -2.507      2.880      5.651
REMARK INTER + INTRA:          -7.047
REMARK INTER:                  -4.531
REMARK INTRA:                  -2.517
REMARK UNBOUND:                -2.488
REMARK SMILES CCCCCCCCCCCCCCCC(=O)[O-]
REMARK SMILES IDX 9 1 10 2 11 3 12 4 13 5 14 6 15 7 16 8 17 9 18 10 8 11 7 12
REMARK SMILES IDX 6 13 5 14 4 15 3 16 2 17 1 18
REMARK H PARENT
REMARK Flexibility Score: inf
ROOT
ATOM      1  C   UNL     1       6.746 -18.854  18.740  1.00  0.00     0.000 C 
ENDROOT
BRANCH   1   2
ATOM      2  C   UNL     1       8.057 -19.658  18.600  1.00  0.00     0.000 C 
BRANCH   2   3
ATOM      3  C   UNL     1       9.204 -18.863  17.945  1.00  0.00     0.000 C 
BRANCH   3   4
ATOM      4  C   UNL     1      10.614 -19.251  18.424  1.00  0.00     0.000 C 
BRANCH   4   5
ATOM      5  C   UNL     1      10.932 -18.864  19.881  1.00  0.00     0.000 C 
BRANCH   5   6
ATOM      6  C   UNL     1      11.857 -17.632  20.010  1.00  0.00     0.006 C 
BRANCH   6   7
ATOM      7  C   UNL     1      12.385 -17.410  21.438  1.00  0.00     0.053 C 
BRANCH   7   8
ATOM      8  C   UNL     1      13.739 -18.020  21.633  1.00  0.00     0.041 C 
ATOM      9  O   UNL     1      14.776 -17.372  21.330  1.00  0.00    -0.550 OA
ATOM     10  O   UNL     1      13.858 -19.295  22.172  1.00  0.00    -0.550 OA
ENDBRANCH   7   8
ENDBRANCH   6   7
ENDBRANCH   5   6
ENDBRANCH   4   5
ENDBRANCH   3   4
ENDBRANCH   2   3
ENDBRANCH   1   2
BRANCH   1  11
ATOM     11  C   UNL     1       6.774 -17.549  17.925  1.00  0.00     0.000 C 
BRANCH  11  12
ATOM     12  C   UNL     1       6.577 -16.300  18.799  1.00  0.00    -0.000 C 
BRANCH  12  13
ATOM     13  C   UNL     1       7.779 -15.347  18.752  1.00  0.00    -0.000 C 
BRANCH  13  14
ATOM     14  C   UNL     1       8.780 -15.671  19.868  1.00  0.00    -0.000 C 
BRANCH  14  15
ATOM     15  C   UNL     1       8.069 -15.808  21.224  1.00  0.00    -0.000 C 
BRANCH  15  16
ATOM     16  C   UNL     1       8.700 -16.906  22.105  1.00  0.00    -0.000 C 
BRANCH  16  17
ATOM     17  C   UNL     1       7.938 -18.242  22.065  1.00  0.00    -0.003 C 
ATOM     18  C   UNL     1       8.689 -19.380  22.755  1.00  0.00     0.004 C 
ENDBRANCH  16  17
ENDBRANCH  15  16
ENDBRANCH  14  15
ENDBRANCH  13  14
ENDBRANCH  12  13
ENDBRANCH  11  12
ENDBRANCH   1  11
TORSDOF 14
ENDMDL
MODEL 8
REMARK VINA RESULT:    -2.493      4.128      6.549
REMARK INTER + INTRA:          -7.021
REMARK INTER:                  -4.920
REMARK INTRA:                  -2.101
REMARK UNBOUND:                -2.488
REMARK SMILES CCCCCCCCCCCCCCCC(=O)[O-]
REMARK SMILES IDX 9 1 10 2 11 3 12 4 13 5 14 6 15 7 16 8 17 9 18 10 8 11 7 12
REMARK SMILES IDX 6 13 5 14 4 15 3 16 2 17 1 18
REMARK H PARENT
REMARK Flexibility Score: inf
ROOT
ATOM      1  C   UNL     1       6.703 -19.913  20.972  1.00  0.00     0.000 C 
ENDROOT
BRANCH   1   2
ATOM      2  C   UNL     1       6.340 -18.511  21.507  1.00  0.00     0.000 C 
BRANCH   2   3
ATOM      3  C   UNL     1       4.905 -18.068  21.160  1.00  0.00     0.000 C 
BRANCH   3   4
ATOM      4  C   UNL     1       4.763 -17.343  19.809  1.00  0.00     0.000 C 
BRANCH   4   5
ATOM      5  C   UNL     1       4.211 -18.212  18.663  1.00  0.00     0.000 C 
BRANCH   5   6
ATOM      6  C   UNL     1       3.062 -19.153  19.093  1.00  0.00     0.006 C 
BRANCH   6   7
ATOM      7  C   UNL     1       1.678 -18.484  19.062  1.00  0.00     0.053 C 
BRANCH   7   8
ATOM      8  C   UNL     1       0.603 -19.444  18.653  1.00  0.00     0.041 C 
ATOM      9  O   UNL     1      -0.540 -19.018  18.340  1.00  0.00    -0.550 OA
ATOM     10  O   UNL     1       0.870 -20.805  18.595  1.00  0.00    -0.550 OA
ENDBRANCH   7   8
ENDBRANCH   6   7
ENDBRANCH   5   6
ENDBRANCH   4   5
ENDBRANCH   3   4
ENDBRANCH   2   3
ENDBRANCH   1   2
BRANCH   1  11
ATOM     11  C   UNL     1       8.185 -20.018  20.570  1.00  0.00     0.000 C 
BRANCH  11  12
ATOM     12  C   UNL     1       8.374 -20.283  19.068  1.00  0.00    -0.000 C 
BRANCH  12  13
ATOM     13  C   UNL     1       7.718 -19.209  18.188  1.00  0.00    -0.000 C 
BRANCH  13  14
ATOM     14  C   UNL     1       8.698 -18.066  17.897  1.00  0.00    -0.000 C 
BRANCH  14  15
ATOM     15  C   UNL     1       8.203 -16.746  18.508  1.00  0.00    -0.000 C 
BRANCH  15  16
ATOM     16  C   UNL     1       9.297 -16.040  19.335  1.00  0.00    -0.000 C 
BRANCH  16  17
ATOM     17  C   UNL     1       9.538 -16.681  20.713  1.00  0.00    -0.003 C 
ATOM     18  C   UNL     1      10.880 -17.405  20.810  1.00  0.00     0.004 C 
ENDBRANCH  16  17
ENDBRANCH  15  16
ENDBRANCH  14  15
ENDBRANCH  13  14
ENDBRANCH  12  13
ENDBRANCH  11  12
ENDBRANCH   1  11
TORSDOF 14
ENDMDL
MODEL 9
REMARK VINA RESULT:    -2.467      7.786     11.245
REMARK INTER + INTRA:          -6.974
REMARK INTER:                  -4.877
REMARK INTRA:                  -2.098
REMARK UNBOUND:                -2.488
REMARK SMILES CCCCCCCCCCCCCCCC(=O)[O-]
REMARK SMILES IDX 9 1 10 2 11 3 12 4 13 5 14 6 15 7 16 8 17 9 18 10 8 11 7 12
REMARK SMILES IDX 6 13 5 14 4 15 3 16 2 17 1 18
REMARK H PARENT
REMARK Flexibility Score: inf
ROOT
ATOM      1  C   UNL     1       0.442 -20.183  22.839  1.00  0.00     0.000 C 
ENDROOT
BRANCH   1   2
ATOM      2  C   UNL     1       1.492 -20.749  21.859  1.00  0.00     0.000 C 
BRANCH   2   3
ATOM      3  C   UNL     1       2.855 -20.034  21.932  1.00  0.00     0.000 C 
BRANCH   3   4
ATOM      4  C   UNL     1       2.989 -18.804  21.016  1.00  0.00     0.000 C 
BRANCH   4   5
ATOM      5  C   UNL     1       3.248 -19.128  19.532  1.00  0.00     0.000 C 
BRANCH   5   6
ATOM      6  C   UNL     1       4.541 -18.493  18.973  1.00  0.00     0.006 C 
BRANCH   6   7
ATOM      7  C   UNL     1       5.580 -18.163  20.057  1.00  0.00     0.053 C 
BRANCH   7   8
ATOM      8  C   UNL     1       6.563 -19.277  20.247  1.00  0.00     0.041 C 
ATOM      9  O   UNL     1       6.521 -19.989  21.285  1.00  0.00    -0.550 OA
ATOM     10  O   UNL     1       7.510 -19.546  19.267  1.00  0.00    -0.550 OA
ENDBRANCH   7   8
ENDBRANCH   6   7
ENDBRANCH   5   6
ENDBRANCH   4   5
ENDBRANCH   3   4
ENDBRANCH   2   3
ENDBRANCH   1   2
BRANCH   1  11
ATOM     11  C   UNL     1      -0.900 -20.932  22.751  1.00  0.00     0.000 C 
BRANCH  11  12
ATOM     12  C   UNL     1      -2.109 -20.009  22.970  1.00  0.00    -0.000 C 
BRANCH  12  13
ATOM     13  C   UNL     1      -3.069 -19.995  21.771  1.00  0.00    -0.000 C 
BRANCH  13  14
ATOM     14  C   UNL     1      -2.654 -21.035  20.724  1.00  0.00    -0.000 C 
BRANCH  14  15
ATOM     15  C   UNL     1      -2.384 -20.372  19.364  1.00  0.00    -0.000 C 
BRANCH  15  16
ATOM     16  C   UNL     1      -0.877 -20.286  19.046  1.00  0.00    -0.000 C 
BRANCH  16  17
ATOM     17  C   UNL     1      -0.388 -18.854  18.764  1.00  0.00    -0.003 C 
ATOM     18  C   UNL     1      -0.475 -17.940  19.985  1.00  0.00     0.004 C 
ENDBRANCH  16  17
ENDBRANCH  15  16
ENDBRANCH  14  15
ENDBRANCH  13  14
ENDBRANCH  12  13
ENDBRANCH  11  12
ENDBRANCH   1  11
TORSDOF 14
ENDMDL
