MODEL 1
REMARK VINA RESULT:    -4.651      0.000      0.000
REMARK INTER + INTRA:          -5.052
REMARK INTER:                  -4.922
REMARK INTRA:                  -0.129
REMARK UNBOUND:                -0.129
REMARK SMILES C=C(C)[C@@H]1CC=C(C)CC1
REMARK SMILES IDX 8 1 7 2 6 3 5 4 4 5 10 6 9 7 2 8 1 9 3 10
REMARK H PARENT
REMARK Flexibility Score: inf
ROOT
ATOM      1  C   UNL     1     135.490 134.897 129.939  1.00  0.00     0.039 C 
ATOM      2  C   UNL     1     135.517 136.224 129.231  1.00  0.00    -0.077 C 
ATOM      3  C   UNL     1     134.903 137.283 129.799  1.00  0.00    -0.027 C 
ATOM      4  C   UNL     1     134.920 138.666 129.195  1.00  0.00     0.035 C 
ATOM      5  C   UNL     1     135.192 138.633 127.680  1.00  0.00     0.018 C 
ATOM      6  C   UNL     1     136.403 137.735 127.387  1.00  0.00     0.013 C 
ATOM      7  C   UNL     1     136.119 136.298 127.841  1.00  0.00     0.031 C 
ENDROOT
BRANCH   5   8
ATOM      8  C   UNL     1     135.378 140.036 127.115  1.00  0.00    -0.077 C 
ATOM      9  C   UNL     1     135.985 140.239 125.932  1.00  0.00     0.008 C 
ATOM     10  C   UNL     1     134.875 141.232 127.881  1.00  0.00     0.039 C 
ENDBRANCH   5   8
TORSDOF 1
ENDMDL
MODEL 2
REMARK VINA RESULT:    -3.993      0.894      4.583
REMARK INTER + INTRA:          -4.356
REMARK INTER:                  -4.230
REMARK INTRA:                  -0.126
REMARK UNBOUND:                -0.129
REMARK SMILES C=C(C)[C@@H]1CC=C(C)CC1
REMARK SMILES IDX 8 1 7 2 6 3 5 4 4 5 10 6 9 7 2 8 1 9 3 10
REMARK H PARENT
REMARK Flexibility Score: inf
ROOT
ATOM      1  C   UNL     1     136.227 140.661 125.723  1.00  0.00     0.039 C 
ATOM      2  C   UNL     1     135.933 139.594 126.742  1.00  0.00    -0.077 C 
ATOM      3  C   UNL     1     136.532 138.391 126.621  1.00  0.00    -0.027 C 
ATOM      4  C   UNL     1     136.345 137.274 127.620  1.00  0.00     0.035 C 
ATOM      5  C   UNL     1     135.040 137.428 128.423  1.00  0.00     0.018 C 
ATOM      6  C   UNL     1     134.923 138.862 128.958  1.00  0.00     0.013 C 
ATOM      7  C   UNL     1     134.875 139.860 127.795  1.00  0.00     0.031 C 
ENDROOT
BRANCH   5   8
ATOM      8  C   UNL     1     134.948 136.397 129.542  1.00  0.00    -0.077 C 
ATOM      9  C   UNL     1     134.875 136.770 130.832  1.00  0.00     0.008 C 
ATOM     10  C   UNL     1     134.931 134.926 129.215  1.00  0.00     0.039 C 
ENDBRANCH   5   8
TORSDOF 1
ENDMDL
MODEL 3
REMARK VINA RESULT:    -3.885      0.958      4.280
REMARK INTER + INTRA:          -4.241
REMARK INTER:                  -4.117
REMARK INTRA:                  -0.125
REMARK UNBOUND:                -0.129
REMARK SMILES C=C(C)[C@@H]1CC=C(C)CC1
REMARK SMILES IDX 8 1 7 2 6 3 5 4 4 5 10 6 9 7 2 8 1 9 3 10
REMARK H PARENT
REMARK Flexibility Score: inf
ROOT
ATOM      1  C   UNL     1     135.882 140.589 126.008  1.00  0.00     0.039 C 
ATOM      2  C   UNL     1     135.787 139.386 126.906  1.00  0.00    -0.077 C 
ATOM      3  C   UNL     1     135.075 139.477 128.049  1.00  0.00    -0.027 C 
ATOM      4  C   UNL     1     134.875 138.313 128.989  1.00  0.00     0.035 C 
ATOM      5  C   UNL     1     135.968 137.241 128.826  1.00  0.00     0.018 C 
ATOM      6  C   UNL     1     136.152 136.906 127.338  1.00  0.00     0.013 C 
ATOM      7  C   UNL     1     136.600 138.152 126.565  1.00  0.00     0.031 C 
ENDROOT
BRANCH   5   8
ATOM      8  C   UNL     1     135.661 135.998 129.652  1.00  0.00    -0.077 C 
ATOM      9  C   UNL     1     135.044 134.933 129.109  1.00  0.00     0.008 C 
ATOM     10  C   UNL     1     136.054 135.941 131.105  1.00  0.00     0.039 C 
ENDBRANCH   5   8
TORSDOF 1
ENDMDL
MODEL 4
REMARK VINA RESULT:    -3.859     11.810     12.715
REMARK INTER + INTRA:          -4.214
REMARK INTER:                  -4.087
REMARK INTRA:                  -0.128
REMARK UNBOUND:                -0.129
REMARK SMILES C=C(C)[C@@H]1CC=C(C)CC1
REMARK SMILES IDX 8 1 7 2 6 3 5 4 4 5 10 6 9 7 2 8 1 9 3 10
REMARK H PARENT
REMARK Flexibility Score: inf
ROOT
ATOM      1  C   UNL     1     143.501 142.160 130.482  1.00  0.00     0.039 C 
ATOM      2  C   UNL     1     144.069 143.399 131.119  1.00  0.00    -0.077 C 
ATOM      3  C   UNL     1     144.809 144.241 130.368  1.00  0.00    -0.027 C 
ATOM      4  C   UNL     1     145.378 145.534 130.899  1.00  0.00     0.035 C 
ATOM      5  C   UNL     1     145.514 145.521 132.433  1.00  0.00     0.018 C 
ATOM      6  C   UNL     1     144.207 145.026 133.069  1.00  0.00     0.013 C 
ATOM      7  C   UNL     1     143.904 143.594 132.614  1.00  0.00     0.031 C 
ENDROOT
BRANCH   5   8
ATOM      8  C   UNL     1     145.923 146.887 132.970  1.00  0.00    -0.077 C 
ATOM      9  C   UNL     1     145.401 147.376 134.109  1.00  0.00     0.008 C 
ATOM     10  C   UNL     1     146.936 147.719 132.226  1.00  0.00     0.039 C 
ENDBRANCH   5   8
TORSDOF 1
ENDMDL
MODEL 5
REMARK VINA RESULT:    -3.834     12.728     14.091
REMARK INTER + INTRA:          -4.187
REMARK INTER:                  -4.060
REMARK INTRA:                  -0.128
REMARK UNBOUND:                -0.129
REMARK SMILES C=C(C)[C@@H]1CC=C(C)CC1
REMARK SMILES IDX 8 1 7 2 6 3 5 4 4 5 10 6 9 7 2 8 1 9 3 10
REMARK H PARENT
REMARK Flexibility Score: inf
ROOT
ATOM      1  C   UNL     1     147.251 148.704 130.490  1.00  0.00     0.039 C 
ATOM      2  C   UNL     1     146.684 147.465 131.127  1.00  0.00    -0.077 C 
ATOM      3  C   UNL     1     145.941 146.624 130.377  1.00  0.00    -0.027 C 
ATOM      4  C   UNL     1     145.375 145.330 130.908  1.00  0.00     0.035 C 
ATOM      5  C   UNL     1     145.244 145.340 132.442  1.00  0.00     0.018 C 
ATOM      6  C   UNL     1     146.553 145.833 133.074  1.00  0.00     0.013 C 
ATOM      7  C   UNL     1     146.854 147.267 132.621  1.00  0.00     0.031 C 
ENDROOT
BRANCH   5   8
ATOM      8  C   UNL     1     144.836 143.973 132.978  1.00  0.00    -0.077 C 
ATOM      9  C   UNL     1     145.348 143.491 134.124  1.00  0.00     0.008 C 
ATOM     10  C   UNL     1     143.837 143.133 132.225  1.00  0.00     0.039 C 
ENDBRANCH   5   8
TORSDOF 1
ENDMDL
MODEL 6
REMARK VINA RESULT:    -3.765     11.845     12.700
REMARK INTER + INTRA:          -4.114
REMARK INTER:                  -3.987
REMARK INTRA:                  -0.127
REMARK UNBOUND:                -0.129
REMARK SMILES C=C(C)[C@@H]1CC=C(C)CC1
REMARK SMILES IDX 8 1 7 2 6 3 5 4 4 5 10 6 9 7 2 8 1 9 3 10
REMARK H PARENT
REMARK Flexibility Score: inf
ROOT
ATOM      1  C   UNL     1     143.509 142.282 130.408  1.00  0.00     0.039 C 
ATOM      2  C   UNL     1     144.140 143.489 131.046  1.00  0.00    -0.077 C 
ATOM      3  C   UNL     1     143.991 143.680 132.374  1.00  0.00    -0.027 C 
ATOM      4  C   UNL     1     144.630 144.829 133.117  1.00  0.00     0.035 C 
ATOM      5  C   UNL     1     144.967 146.007 132.184  1.00  0.00     0.018 C 
ATOM      6  C   UNL     1     145.704 145.492 130.939  1.00  0.00     0.013 C 
ATOM      7  C   UNL     1     144.812 144.519 130.159  1.00  0.00     0.031 C 
ENDROOT
BRANCH   5   8
ATOM      8  C   UNL     1     145.764 147.083 132.909  1.00  0.00    -0.077 C 
ATOM      9  C   UNL     1     145.397 147.526 134.125  1.00  0.00     0.008 C 
ATOM     10  C   UNL     1     146.995 147.672 132.269  1.00  0.00     0.039 C 
ENDBRANCH   5   8
TORSDOF 1
ENDMDL
MODEL 7
REMARK VINA RESULT:    -3.439     12.756     13.670
REMARK INTER + INTRA:          -3.770
REMARK INTER:                  -3.647
REMARK INTRA:                  -0.123
REMARK UNBOUND:                -0.129
REMARK SMILES C=C(C)[C@@H]1CC=C(C)CC1
REMARK SMILES IDX 8 1 7 2 6 3 5 4 4 5 10 6 9 7 2 8 1 9 3 10
REMARK H PARENT
REMARK Flexibility Score: inf
ROOT
ATOM      1  C   UNL     1     148.393 143.457 130.341  1.00  0.00     0.039 C 
ATOM      2  C   UNL     1     147.396 144.247 131.144  1.00  0.00    -0.077 C 
ATOM      3  C   UNL     1     147.470 144.216 132.492  1.00  0.00    -0.027 C 
ATOM      4  C   UNL     1     146.552 145.016 133.384  1.00  0.00     0.035 C 
ATOM      5  C   UNL     1     145.238 145.393 132.676  1.00  0.00     0.018 C 
ATOM      6  C   UNL     1     145.543 145.983 131.291  1.00  0.00     0.013 C 
ATOM      7  C   UNL     1     146.262 144.946 130.420  1.00  0.00     0.031 C 
ENDROOT
BRANCH   5   8
ATOM      8  C   UNL     1     144.399 146.342 133.522  1.00  0.00    -0.077 C 
ATOM      9  C   UNL     1     143.096 146.103 133.758  1.00  0.00     0.008 C 
ATOM     10  C   UNL     1     145.024 147.576 134.119  1.00  0.00     0.039 C 
ENDBRANCH   5   8
TORSDOF 1
ENDMDL
MODEL 8
REMARK VINA RESULT:    -3.429     11.868     13.142
REMARK INTER + INTRA:          -3.759
REMARK INTER:                  -3.636
REMARK INTRA:                  -0.123
REMARK UNBOUND:                -0.129
REMARK SMILES C=C(C)[C@@H]1CC=C(C)CC1
REMARK SMILES IDX 8 1 7 2 6 3 5 4 4 5 10 6 9 7 2 8 1 9 3 10
REMARK H PARENT
REMARK Flexibility Score: inf
ROOT
ATOM      1  C   UNL     1     142.374 147.284 130.268  1.00  0.00     0.039 C 
ATOM      2  C   UNL     1     143.361 146.496 131.085  1.00  0.00    -0.077 C 
ATOM      3  C   UNL     1     143.236 146.482 132.429  1.00  0.00    -0.027 C 
ATOM      4  C   UNL     1     144.141 145.680 133.332  1.00  0.00     0.035 C 
ATOM      5  C   UNL     1     145.490 145.359 132.663  1.00  0.00     0.018 C 
ATOM      6  C   UNL     1     145.254 144.806 131.250  1.00  0.00     0.013 C 
ATOM      7  C   UNL     1     144.540 145.850 130.384  1.00  0.00     0.031 C 
ENDROOT
BRANCH   5   8
ATOM      8  C   UNL     1     146.323 144.406 133.513  1.00  0.00    -0.077 C 
ATOM      9  C   UNL     1     147.629 144.632 133.739  1.00  0.00     0.008 C 
ATOM     10  C   UNL     1     145.685 143.185 134.123  1.00  0.00     0.039 C 
ENDBRANCH   5   8
TORSDOF 1
ENDMDL
MODEL 9
REMARK VINA RESULT:    -3.305     12.386     13.217
REMARK INTER + INTRA:          -3.628
REMARK INTER:                  -3.502
REMARK INTRA:                  -0.126
REMARK UNBOUND:                -0.129
REMARK SMILES C=C(C)[C@@H]1CC=C(C)CC1
REMARK SMILES IDX 8 1 7 2 6 3 5 4 4 5 10 6 9 7 2 8 1 9 3 10
REMARK H PARENT
REMARK Flexibility Score: inf
ROOT
ATOM      1  C   UNL     1     148.359 143.552 130.616  1.00  0.00     0.039 C 
ATOM      2  C   UNL     1     147.158 144.233 131.211  1.00  0.00    -0.077 C 
ATOM      3  C   UNL     1     146.244 144.787 130.387  1.00  0.00    -0.027 C 
ATOM      4  C   UNL     1     144.979 145.445 130.884  1.00  0.00     0.035 C 
ATOM      5  C   UNL     1     145.103 145.907 132.348  1.00  0.00     0.018 C 
ATOM      6  C   UNL     1     145.675 144.770 133.207  1.00  0.00     0.013 C 
ATOM      7  C   UNL     1     147.078 144.390 132.717  1.00  0.00     0.031 C 
ENDROOT
BRANCH   5   8
ATOM      8  C   UNL     1     143.770 146.410 132.890  1.00  0.00    -0.077 C 
ATOM      9  C   UNL     1     143.100 147.407 132.284  1.00  0.00     0.008 C 
ATOM     10  C   UNL     1     143.174 145.786 134.125  1.00  0.00     0.039 C 
ENDBRANCH   5   8
TORSDOF 1
ENDMDL
