MODEL 1
REMARK VINA RESULT:    -3.064      0.000      0.000
REMARK INTER + INTRA:          -3.788
REMARK INTER:                  -3.602
REMARK INTRA:                  -0.186
REMARK UNBOUND:                -0.186
REMARK SMILES O=C([O-])CCC(=O)[O-]
REMARK SMILES IDX 4 1 2 2 1 3 3 4 5 5 6 6 7 7 8 8
REMARK H PARENT
REMARK Flexibility Score: inf
ROOT
ATOM      1  C   UNL     1      19.907  -5.308  42.911  1.00  0.00     0.059 C 
ENDROOT
BRANCH   1   2
ATOM      2  C   UNL     1      19.235  -4.163  43.607  1.00  0.00     0.042 C 
ATOM      3  O   UNL     1      18.127  -3.732  43.194  1.00  0.00    -0.550 OA
ATOM      4  O   UNL     1      19.817  -3.598  44.735  1.00  0.00    -0.550 OA
ENDBRANCH   1   2
BRANCH   1   5
ATOM      5  C   UNL     1      20.141  -6.486  43.863  1.00  0.00     0.059 C 
BRANCH   5   6
ATOM      6  C   UNL     1      18.858  -6.979  44.459  1.00  0.00     0.042 C 
ATOM      7  O   UNL     1      17.941  -7.414  43.715  1.00  0.00    -0.550 OA
ATOM      8  O   UNL     1      18.661  -6.918  45.833  1.00  0.00    -0.550 OA
ENDBRANCH   5   6
ENDBRANCH   1   5
TORSDOF 3
ENDMDL
MODEL 2
REMARK VINA RESULT:    -3.048      0.067      3.105
REMARK INTER + INTRA:          -3.768
REMARK INTER:                  -3.586
REMARK INTRA:                  -0.182
REMARK UNBOUND:                -0.186
REMARK SMILES O=C([O-])CCC(=O)[O-]
REMARK SMILES IDX 4 1 2 2 1 3 3 4 5 5 6 6 7 7 8 8
REMARK H PARENT
REMARK Flexibility Score: inf
ROOT
ATOM      1  C   UNL     1      20.170  -6.510  43.776  1.00  0.00     0.059 C 
ENDROOT
BRANCH   1   2
ATOM      2  C   UNL     1      18.890  -6.970  44.406  1.00  0.00     0.042 C 
ATOM      3  O   UNL     1      17.962  -7.432  43.691  1.00  0.00    -0.550 OA
ATOM      4  O   UNL     1      18.738  -6.924  45.786  1.00  0.00    -0.550 OA
ENDBRANCH   1   2
BRANCH   1   5
ATOM      5  C   UNL     1      19.944  -5.304  42.858  1.00  0.00     0.059 C 
BRANCH   5   6
ATOM      6  C   UNL     1      19.265  -4.179  43.578  1.00  0.00     0.042 C 
ATOM      7  O   UNL     1      18.172  -3.723  43.150  1.00  0.00    -0.550 OA
ATOM      8  O   UNL     1      19.860  -3.607  44.695  1.00  0.00    -0.550 OA
ENDBRANCH   5   6
ENDBRANCH   1   5
TORSDOF 3
ENDMDL
MODEL 3
REMARK VINA RESULT:    -3.025      0.069      1.147
REMARK INTER + INTRA:          -3.741
REMARK INTER:                  -3.565
REMARK INTRA:                  -0.176
REMARK UNBOUND:                -0.186
REMARK SMILES O=C([O-])CCC(=O)[O-]
REMARK SMILES IDX 4 1 2 2 1 3 3 4 5 5 6 6 7 7 8 8
REMARK H PARENT
REMARK Flexibility Score: inf
ROOT
ATOM      1  C   UNL     1      19.954  -5.342  42.928  1.00  0.00     0.059 C 
ENDROOT
BRANCH   1   2
ATOM      2  C   UNL     1      19.272  -4.202  43.621  1.00  0.00     0.042 C 
ATOM      3  O   UNL     1      19.808  -3.654  44.619  1.00  0.00    -0.550 OA
ATOM      4  O   UNL     1      18.061  -3.720  43.139  1.00  0.00    -0.550 OA
ENDBRANCH   1   2
BRANCH   1   5
ATOM      5  C   UNL     1      20.150  -6.536  43.868  1.00  0.00     0.059 C 
BRANCH   5   6
ATOM      6  C   UNL     1      18.848  -7.008  44.442  1.00  0.00     0.042 C 
ATOM      7  O   UNL     1      17.935  -7.423  43.681  1.00  0.00    -0.550 OA
ATOM      8  O   UNL     1      18.630  -6.950  45.813  1.00  0.00    -0.550 OA
ENDBRANCH   5   6
ENDBRANCH   1   5
TORSDOF 3
ENDMDL
MODEL 4
REMARK VINA RESULT:    -2.979      1.229      1.496
REMARK INTER + INTRA:          -3.688
REMARK INTER:                  -3.612
REMARK INTRA:                  -0.076
REMARK UNBOUND:                -0.186
REMARK SMILES O=C([O-])CCC(=O)[O-]
REMARK SMILES IDX 4 1 2 2 1 3 3 4 5 5 6 6 7 7 8 8
REMARK H PARENT
REMARK Flexibility Score: inf
ROOT
ATOM      1  C   UNL     1      19.770  -5.217  42.540  1.00  0.00     0.059 C 
ENDROOT
BRANCH   1   2
ATOM      2  C   UNL     1      19.145  -4.187  43.432  1.00  0.00     0.042 C 
ATOM      3  O   UNL     1      18.024  -3.692  43.141  1.00  0.00    -0.550 OA
ATOM      4  O   UNL     1      19.784  -3.802  44.603  1.00  0.00    -0.550 OA
ENDBRANCH   1   2
BRANCH   1   5
ATOM      5  C   UNL     1      20.656  -6.184  43.332  1.00  0.00     0.059 C 
BRANCH   5   6
ATOM      6  C   UNL     1      19.977  -7.502  43.553  1.00  0.00     0.042 C 
ATOM      7  O   UNL     1      18.823  -7.542  44.055  1.00  0.00    -0.550 OA
ATOM      8  O   UNL     1      20.636  -8.685  43.244  1.00  0.00    -0.550 OA
ENDBRANCH   5   6
ENDBRANCH   1   5
TORSDOF 3
ENDMDL
MODEL 5
REMARK VINA RESULT:    -2.950      1.590      3.545
REMARK INTER + INTRA:          -3.654
REMARK INTER:                  -3.568
REMARK INTRA:                  -0.085
REMARK UNBOUND:                -0.186
REMARK SMILES O=C([O-])CCC(=O)[O-]
REMARK SMILES IDX 4 1 2 2 1 3 3 4 5 5 6 6 7 7 8 8
REMARK H PARENT
REMARK Flexibility Score: inf
ROOT
ATOM      1  C   UNL     1      20.968  -6.005  43.294  1.00  0.00     0.059 C 
ENDROOT
BRANCH   1   2
ATOM      2  C   UNL     1      20.652  -7.460  43.470  1.00  0.00     0.042 C 
ATOM      3  O   UNL     1      19.489  -7.822  43.788  1.00  0.00    -0.550 OA
ATOM      4  O   UNL     1      21.634  -8.416  43.245  1.00  0.00    -0.550 OA
ENDBRANCH   1   2
BRANCH   1   5
ATOM      5  C   UNL     1      19.817  -5.258  42.612  1.00  0.00     0.059 C 
BRANCH   5   6
ATOM      6  C   UNL     1      19.212  -4.228  43.518  1.00  0.00     0.042 C 
ATOM      7  O   UNL     1      18.128  -3.669  43.204  1.00  0.00    -0.550 OA
ATOM      8  O   UNL     1      19.866  -3.857  44.685  1.00  0.00    -0.550 OA
ENDBRANCH   5   6
ENDBRANCH   1   5
TORSDOF 3
ENDMDL
MODEL 6
REMARK VINA RESULT:    -2.866      9.645     10.296
REMARK INTER + INTRA:          -3.554
REMARK INTER:                  -3.494
REMARK INTRA:                  -0.060
REMARK UNBOUND:                -0.186
REMARK SMILES O=C([O-])CCC(=O)[O-]
REMARK SMILES IDX 4 1 2 2 1 3 3 4 5 5 6 6 7 7 8 8
REMARK H PARENT
REMARK Flexibility Score: inf
ROOT
ATOM      1  C   UNL     1      10.062  -2.064  47.044  1.00  0.00     0.059 C 
ENDROOT
BRANCH   1   2
ATOM      2  C   UNL     1       9.185  -0.849  47.007  1.00  0.00     0.042 C 
ATOM      3  O   UNL     1       9.404   0.114  47.788  1.00  0.00    -0.550 OA
ATOM      4  O   UNL     1       8.152  -0.765  46.083  1.00  0.00    -0.550 OA
ENDBRANCH   1   2
BRANCH   1   5
ATOM      5  C   UNL     1       9.500  -3.190  46.169  1.00  0.00     0.059 C 
BRANCH   5   6
ATOM      6  C   UNL     1      10.485  -3.628  45.129  1.00  0.00     0.042 C 
ATOM      7  O   UNL     1      10.141  -3.694  43.919  1.00  0.00    -0.550 OA
ATOM      8  O   UNL     1      11.770  -4.002  45.501  1.00  0.00    -0.550 OA
ENDBRANCH   5   6
ENDBRANCH   1   5
TORSDOF 3
ENDMDL
MODEL 7
REMARK VINA RESULT:    -2.856      1.798      2.427
REMARK INTER + INTRA:          -3.543
REMARK INTER:                  -3.377
REMARK INTRA:                  -0.166
REMARK UNBOUND:                -0.186
REMARK SMILES O=C([O-])CCC(=O)[O-]
REMARK SMILES IDX 4 1 2 2 1 3 3 4 5 5 6 6 7 7 8 8
REMARK H PARENT
REMARK Flexibility Score: inf
ROOT
ATOM      1  C   UNL     1      19.224  -4.206  43.758  1.00  0.00     0.059 C 
ENDROOT
BRANCH   1   2
ATOM      2  C   UNL     1      20.346  -3.701  44.614  1.00  0.00     0.042 C 
ATOM      3  O   UNL     1      20.405  -4.015  45.832  1.00  0.00    -0.550 OA
ATOM      4  O   UNL     1      21.347  -2.917  44.056  1.00  0.00    -0.550 OA
ENDBRANCH   1   2
BRANCH   1   5
ATOM      5  C   UNL     1      19.740  -5.083  42.613  1.00  0.00     0.059 C 
BRANCH   5   6
ATOM      6  C   UNL     1      20.273  -6.391  43.114  1.00  0.00     0.042 C 
ATOM      7  O   UNL     1      21.489  -6.678  42.963  1.00  0.00    -0.550 OA
ATOM      8  O   UNL     1      19.417  -7.309  43.709  1.00  0.00    -0.550 OA
ENDBRANCH   5   6
ENDBRANCH   1   5
TORSDOF 3
ENDMDL
MODEL 8
REMARK VINA RESULT:    -2.855      2.750      4.295
REMARK INTER + INTRA:          -3.542
REMARK INTER:                  -3.422
REMARK INTRA:                  -0.120
REMARK UNBOUND:                -0.186
REMARK SMILES O=C([O-])CCC(=O)[O-]
REMARK SMILES IDX 4 1 2 2 1 3 3 4 5 5 6 6 7 7 8 8
REMARK H PARENT
REMARK Flexibility Score: inf
ROOT
ATOM      1  C   UNL     1      21.094  -8.249  44.089  1.00  0.00     0.059 C 
ENDROOT
BRANCH   1   2
ATOM      2  C   UNL     1      21.178  -9.541  43.334  1.00  0.00     0.042 C 
ATOM      3  O   UNL     1      20.132 -10.099  42.913  1.00  0.00    -0.550 OA
ATOM      4  O   UNL     1      22.418 -10.107  43.064  1.00  0.00    -0.550 OA
ENDBRANCH   1   2
BRANCH   1   5
ATOM      5  C   UNL     1      20.503  -7.129  43.225  1.00  0.00     0.059 C 
BRANCH   5   6
ATOM      6  C   UNL     1      19.211  -6.620  43.786  1.00  0.00     0.042 C 
ATOM      7  O   UNL     1      18.180  -7.342  43.755  1.00  0.00    -0.550 OA
ATOM      8  O   UNL     1      19.135  -5.333  44.305  1.00  0.00    -0.550 OA
ENDBRANCH   5   6
ENDBRANCH   1   5
TORSDOF 3
ENDMDL
MODEL 9
REMARK VINA RESULT:    -2.792      1.964      2.726
REMARK INTER + INTRA:          -3.468
REMARK INTER:                  -3.355
REMARK INTRA:                  -0.113
REMARK UNBOUND:                -0.186
REMARK SMILES O=C([O-])CCC(=O)[O-]
REMARK SMILES IDX 4 1 2 2 1 3 3 4 5 5 6 6 7 7 8 8
REMARK H PARENT
REMARK Flexibility Score: inf
ROOT
ATOM      1  C   UNL     1      19.990  -3.738  44.703  1.00  0.00     0.059 C 
ENDROOT
BRANCH   1   2
ATOM      2  C   UNL     1      21.425  -3.455  44.374  1.00  0.00     0.042 C 
ATOM      3  O   UNL     1      21.778  -2.302  44.013  1.00  0.00    -0.550 OA
ATOM      4  O   UNL     1      22.378  -4.457  44.505  1.00  0.00    -0.550 OA
ENDBRANCH   1   2
BRANCH   1   5
ATOM      5  C   UNL     1      19.167  -4.012  43.439  1.00  0.00     0.059 C 
BRANCH   5   6
ATOM      6  C   UNL     1      18.968  -5.480  43.216  1.00  0.00     0.042 C 
ATOM      7  O   UNL     1      17.840  -6.003  43.416  1.00  0.00    -0.550 OA
ATOM      8  O   UNL     1      20.038  -6.277  42.828  1.00  0.00    -0.550 OA
ENDBRANCH   5   6
ENDBRANCH   1   5
TORSDOF 3
ENDMDL
