MODEL 1
REMARK VINA RESULT:    -5.582      0.000      0.000
REMARK INTER + INTRA:         -12.544
REMARK INTER:                 -10.151
REMARK INTRA:                  -2.393
REMARK UNBOUND:                -2.393
REMARK SMILES CCCCCCCCCCCCCCCC(=O)[O-]
REMARK SMILES IDX 9 1 10 2 11 3 12 4 13 5 14 6 15 7 16 8 17 9 18 10 8 11 7 12
REMARK SMILES IDX 6 13 5 14 4 15 3 16 2 17 1 18
REMARK H PARENT
REMARK Flexibility Score: inf
ROOT
ATOM      1  C   UNL     1      16.230  -2.142  16.057  1.00  0.00     0.000 C 
ENDROOT
BRANCH   1   2
ATOM      2  C   UNL     1      16.888  -0.825  16.501  1.00  0.00     0.000 C 
BRANCH   2   3
ATOM      3  C   UNL     1      16.074   0.413  16.093  1.00  0.00     0.000 C 
BRANCH   3   4
ATOM      4  C   UNL     1      14.825   0.011  15.295  1.00  0.00     0.000 C 
BRANCH   4   5
ATOM      5  C   UNL     1      14.207   1.206  14.536  1.00  0.00     0.000 C 
BRANCH   5   6
ATOM      6  C   UNL     1      15.029   1.652  13.315  1.00  0.00     0.006 C 
BRANCH   6   7
ATOM      7  C   UNL     1      15.133   0.566  12.238  1.00  0.00     0.053 C 
BRANCH   7   8
ATOM      8  C   UNL     1      16.566   0.215  11.988  1.00  0.00     0.041 C 
ATOM      9  O   UNL     1      17.153  -0.615  12.731  1.00  0.00    -0.550 OA
ATOM     10  O   UNL     1      17.238   0.765  10.905  1.00  0.00    -0.550 OA
ENDBRANCH   7   8
ENDBRANCH   6   7
ENDBRANCH   5   6
ENDBRANCH   4   5
ENDBRANCH   3   4
ENDBRANCH   2   3
ENDBRANCH   1   2
BRANCH   1  11
ATOM     11  C   UNL     1      16.335  -3.244  17.126  1.00  0.00     0.000 C 
BRANCH  11  12
ATOM     12  C   UNL     1      15.529  -2.915  18.394  1.00  0.00    -0.000 C 
BRANCH  12  13
ATOM     13  C   UNL     1      14.018  -2.812  18.121  1.00  0.00    -0.000 C 
BRANCH  13  14
ATOM     14  C   UNL     1      13.388  -1.542  18.722  1.00  0.00    -0.000 C 
BRANCH  14  15
ATOM     15  C   UNL     1      14.353  -0.647  19.526  1.00  0.00    -0.000 C 
BRANCH  15  16
ATOM     16  C   UNL     1      14.217   0.863  19.259  1.00  0.00    -0.000 C 
BRANCH  16  17
ATOM     17  C   UNL     1      13.111   1.193  18.246  1.00  0.00    -0.003 C 
ATOM     18  C   UNL     1      13.183   2.652  17.809  1.00  0.00     0.004 C 
ENDBRANCH  16  17
ENDBRANCH  15  16
ENDBRANCH  14  15
ENDBRANCH  13  14
ENDBRANCH  12  13
ENDBRANCH  11  12
ENDBRANCH   1  11
TORSDOF 14
ENDMDL
MODEL 2
REMARK VINA RESULT:    -5.558      2.775      6.365
REMARK INTER + INTRA:         -12.500
REMARK INTER:                 -10.837
REMARK INTRA:                  -1.663
REMARK UNBOUND:                -2.393
REMARK SMILES CCCCCCCCCCCCCCCC(=O)[O-]
REMARK SMILES IDX 9 1 10 2 11 3 12 4 13 5 14 6 15 7 16 8 17 9 18 10 8 11 7 12
REMARK SMILES IDX 6 13 5 14 4 15 3 16 2 17 1 18
REMARK H PARENT
REMARK Flexibility Score: inf
ROOT
ATOM      1  C   UNL     1      15.067   1.260  14.337  1.00  0.00     0.000 C 
ENDROOT
BRANCH   1   2
ATOM      2  C   UNL     1      13.632   0.926  14.775  1.00  0.00     0.000 C 
BRANCH   2   3
ATOM      3  C   UNL     1      13.095   1.894  15.840  1.00  0.00     0.000 C 
BRANCH   3   4
ATOM      4  C   UNL     1      13.604   1.512  17.238  1.00  0.00     0.000 C 
BRANCH   4   5
ATOM      5  C   UNL     1      13.431   0.006  17.531  1.00  0.00     0.000 C 
BRANCH   5   6
ATOM      6  C   UNL     1      13.627  -0.360  19.012  1.00  0.00     0.006 C 
BRANCH   6   7
ATOM      7  C   UNL     1      15.013   0.023  19.543  1.00  0.00     0.053 C 
BRANCH   7   8
ATOM      8  C   UNL     1      16.006  -1.052  19.231  1.00  0.00     0.041 C 
ATOM      9  O   UNL     1      15.650  -2.259  19.216  1.00  0.00    -0.550 OA
ATOM     10  O   UNL     1      17.315  -0.716  18.910  1.00  0.00    -0.550 OA
ENDBRANCH   7   8
ENDBRANCH   6   7
ENDBRANCH   5   6
ENDBRANCH   4   5
ENDBRANCH   3   4
ENDBRANCH   2   3
ENDBRANCH   1   2
BRANCH   1  11
ATOM     11  C   UNL     1      15.152   1.677  12.858  1.00  0.00     0.000 C 
BRANCH  11  12
ATOM     12  C   UNL     1      15.330   0.476  11.915  1.00  0.00    -0.000 C 
BRANCH  12  13
ATOM     13  C   UNL     1      16.669   0.515  11.158  1.00  0.00    -0.000 C 
BRANCH  13  14
ATOM     14  C   UNL     1      17.785  -0.265  11.878  1.00  0.00    -0.000 C 
BRANCH  14  15
ATOM     15  C   UNL     1      17.300  -1.386  12.820  1.00  0.00    -0.000 C 
BRANCH  15  16
ATOM     16  C   UNL     1      18.243  -1.703  13.995  1.00  0.00    -0.000 C 
BRANCH  16  17
ATOM     17  C   UNL     1      17.645  -1.327  15.358  1.00  0.00    -0.003 C 
ATOM     18  C   UNL     1      16.250  -1.922  15.530  1.00  0.00     0.004 C 
ENDBRANCH  16  17
ENDBRANCH  15  16
ENDBRANCH  14  15
ENDBRANCH  13  14
ENDBRANCH  12  13
ENDBRANCH  11  12
ENDBRANCH   1  11
TORSDOF 14
ENDMDL
MODEL 3
REMARK VINA RESULT:    -5.543      2.432      6.385
REMARK INTER + INTRA:         -12.472
REMARK INTER:                 -10.857
REMARK INTRA:                  -1.615
REMARK UNBOUND:                -2.393
REMARK SMILES CCCCCCCCCCCCCCCC(=O)[O-]
REMARK SMILES IDX 9 1 10 2 11 3 12 4 13 5 14 6 15 7 16 8 17 9 18 10 8 11 7 12
REMARK SMILES IDX 6 13 5 14 4 15 3 16 2 17 1 18
REMARK H PARENT
REMARK Flexibility Score: inf
ROOT
ATOM      1  C   UNL     1      14.773   1.991  16.416  1.00  0.00     0.000 C 
ENDROOT
BRANCH   1   2
ATOM      2  C   UNL     1      13.264   2.061  16.703  1.00  0.00     0.000 C 
BRANCH   2   3
ATOM      3  C   UNL     1      12.924   1.761  18.171  1.00  0.00     0.000 C 
BRANCH   3   4
ATOM      4  C   UNL     1      13.440   0.374  18.584  1.00  0.00     0.000 C 
BRANCH   4   5
ATOM      5  C   UNL     1      14.439   0.448  19.758  1.00  0.00     0.000 C 
BRANCH   5   6
ATOM      6  C   UNL     1      15.458  -0.705  19.773  1.00  0.00     0.006 C 
BRANCH   6   7
ATOM      7  C   UNL     1      16.490  -0.605  18.645  1.00  0.00     0.053 C 
BRANCH   7   8
ATOM      8  C   UNL     1      16.440  -1.826  17.781  1.00  0.00     0.041 C 
ATOM      9  O   UNL     1      15.365  -2.160  17.219  1.00  0.00    -0.550 OA
ATOM     10  O   UNL     1      17.593  -2.566  17.558  1.00  0.00    -0.550 OA
ENDBRANCH   7   8
ENDBRANCH   6   7
ENDBRANCH   5   6
ENDBRANCH   4   5
ENDBRANCH   3   4
ENDBRANCH   2   3
ENDBRANCH   1   2
BRANCH   1  11
ATOM     11  C   UNL     1      15.128   0.909  15.380  1.00  0.00     0.000 C 
BRANCH  11  12
ATOM     12  C   UNL     1      14.366   1.088  14.056  1.00  0.00    -0.000 C 
BRANCH  12  13
ATOM     13  C   UNL     1      15.223   1.759  12.969  1.00  0.00    -0.000 C 
BRANCH  13  14
ATOM     14  C   UNL     1      15.352   0.900  11.697  1.00  0.00    -0.000 C 
BRANCH  14  15
ATOM     15  C   UNL     1      16.796   0.642  11.222  1.00  0.00    -0.000 C 
BRANCH  15  16
ATOM     16  C   UNL     1      17.293  -0.804  11.400  1.00  0.00    -0.000 C 
BRANCH  16  17
ATOM     17  C   UNL     1      17.948  -1.045  12.768  1.00  0.00    -0.003 C 
ATOM     18  C   UNL     1      16.984  -1.737  13.726  1.00  0.00     0.004 C 
ENDBRANCH  16  17
ENDBRANCH  15  16
ENDBRANCH  14  15
ENDBRANCH  13  14
ENDBRANCH  12  13
ENDBRANCH  11  12
ENDBRANCH   1  11
TORSDOF 14
ENDMDL
MODEL 4
REMARK VINA RESULT:    -5.530      1.304      3.495
REMARK INTER + INTRA:         -12.449
REMARK INTER:                 -10.656
REMARK INTRA:                  -1.793
REMARK UNBOUND:                -2.393
REMARK SMILES CCCCCCCCCCCCCCCC(=O)[O-]
REMARK SMILES IDX 9 1 10 2 11 3 12 4 13 5 14 6 15 7 16 8 17 9 18 10 8 11 7 12
REMARK SMILES IDX 6 13 5 14 4 15 3 16 2 17 1 18
REMARK H PARENT
REMARK Flexibility Score: inf
ROOT
ATOM      1  C   UNL     1      13.818   1.462  17.990  1.00  0.00     0.000 C 
ENDROOT
BRANCH   1   2
ATOM      2  C   UNL     1      13.086   2.085  16.791  1.00  0.00     0.000 C 
BRANCH   2   3
ATOM      3  C   UNL     1      13.326   1.316  15.482  1.00  0.00     0.000 C 
BRANCH   3   4
ATOM      4  C   UNL     1      14.813   1.338  15.097  1.00  0.00     0.000 C 
BRANCH   4   5
ATOM      5  C   UNL     1      15.028   1.732  13.620  1.00  0.00     0.000 C 
BRANCH   5   6
ATOM      6  C   UNL     1      15.024   0.534  12.655  1.00  0.00     0.006 C 
BRANCH   6   7
ATOM      7  C   UNL     1      15.835   0.791  11.380  1.00  0.00     0.053 C 
BRANCH   7   8
ATOM      8  C   UNL     1      16.995  -0.149  11.300  1.00  0.00     0.041 C 
ATOM      9  O   UNL     1      17.543  -0.570  12.352  1.00  0.00    -0.550 OA
ATOM     10  O   UNL     1      17.441  -0.600  10.065  1.00  0.00    -0.550 OA
ENDBRANCH   7   8
ENDBRANCH   6   7
ENDBRANCH   5   6
ENDBRANCH   4   5
ENDBRANCH   3   4
ENDBRANCH   2   3
ENDBRANCH   1   2
BRANCH   1  11
ATOM     11  C   UNL     1      13.247   0.087  18.381  1.00  0.00     0.000 C 
BRANCH  11  12
ATOM     12  C   UNL     1      14.334  -0.997  18.477  1.00  0.00    -0.000 C 
BRANCH  12  13
ATOM     13  C   UNL     1      15.461  -0.617  19.454  1.00  0.00    -0.000 C 
BRANCH  13  14
ATOM     14  C   UNL     1      16.864  -0.853  18.866  1.00  0.00    -0.000 C 
BRANCH  14  15
ATOM     15  C   UNL     1      17.224   0.024  17.650  1.00  0.00    -0.000 C 
BRANCH  15  16
ATOM     16  C   UNL     1      18.039  -0.685  16.553  1.00  0.00    -0.000 C 
BRANCH  16  17
ATOM     17  C   UNL     1      17.478  -2.068  16.193  1.00  0.00    -0.003 C 
ATOM     18  C   UNL     1      16.211  -1.946  15.351  1.00  0.00     0.004 C 
ENDBRANCH  16  17
ENDBRANCH  15  16
ENDBRANCH  14  15
ENDBRANCH  13  14
ENDBRANCH  12  13
ENDBRANCH  11  12
ENDBRANCH   1  11
TORSDOF 14
ENDMDL
MODEL 5
REMARK VINA RESULT:    -5.479      1.970      4.092
REMARK INTER + INTRA:         -12.356
REMARK INTER:                 -10.832
REMARK INTRA:                  -1.525
REMARK UNBOUND:                -2.393
REMARK SMILES CCCCCCCCCCCCCCCC(=O)[O-]
REMARK SMILES IDX 9 1 10 2 11 3 12 4 13 5 14 6 15 7 16 8 17 9 18 10 8 11 7 12
REMARK SMILES IDX 6 13 5 14 4 15 3 16 2 17 1 18
REMARK H PARENT
REMARK Flexibility Score: inf
ROOT
ATOM      1  C   UNL     1      15.140   1.575  14.832  1.00  0.00     0.000 C 
ENDROOT
BRANCH   1   2
ATOM      2  C   UNL     1      15.105   1.844  13.319  1.00  0.00     0.000 C 
BRANCH   2   3
ATOM      3  C   UNL     1      14.938   0.561  12.490  1.00  0.00     0.000 C 
BRANCH   3   4
ATOM      4  C   UNL     1      15.896   0.553  11.289  1.00  0.00     0.000 C 
BRANCH   4   5
ATOM      5  C   UNL     1      17.324   0.117  11.684  1.00  0.00     0.000 C 
BRANCH   5   6
ATOM      6  C   UNL     1      17.395  -1.303  12.269  1.00  0.00     0.006 C 
BRANCH   6   7
ATOM      7  C   UNL     1      18.248  -1.383  13.539  1.00  0.00     0.053 C 
BRANCH   7   8
ATOM      8  C   UNL     1      17.439  -1.917  14.679  1.00  0.00     0.041 C 
ATOM      9  O   UNL     1      18.010  -2.432  15.676  1.00  0.00    -0.550 OA
ATOM     10  O   UNL     1      16.055  -1.800  14.664  1.00  0.00    -0.550 OA
ENDBRANCH   7   8
ENDBRANCH   6   7
ENDBRANCH   5   6
ENDBRANCH   4   5
ENDBRANCH   3   4
ENDBRANCH   2   3
ENDBRANCH   1   2
BRANCH   1  11
ATOM     11  C   UNL     1      13.832   0.952  15.351  1.00  0.00     0.000 C 
BRANCH  11  12
ATOM     12  C   UNL     1      12.882   1.997  15.959  1.00  0.00    -0.000 C 
BRANCH  12  13
ATOM     13  C   UNL     1      12.995   2.074  17.492  1.00  0.00    -0.000 C 
BRANCH  13  14
ATOM     14  C   UNL     1      13.303   0.710  18.137  1.00  0.00    -0.000 C 
BRANCH  14  15
ATOM     15  C   UNL     1      14.460   0.712  19.157  1.00  0.00    -0.000 C 
BRANCH  15  16
ATOM     16  C   UNL     1      15.142  -0.651  19.371  1.00  0.00    -0.000 C 
BRANCH  16  17
ATOM     17  C   UNL     1      16.623  -0.648  18.967  1.00  0.00    -0.003 C 
ATOM     18  C   UNL     1      16.854   0.214  17.730  1.00  0.00     0.004 C 
ENDBRANCH  16  17
ENDBRANCH  15  16
ENDBRANCH  14  15
ENDBRANCH  13  14
ENDBRANCH  12  13
ENDBRANCH  11  12
ENDBRANCH   1  11
TORSDOF 14
ENDMDL
MODEL 6
REMARK VINA RESULT:    -5.460      1.676      4.182
REMARK INTER + INTRA:         -12.321
REMARK INTER:                 -10.656
REMARK INTRA:                  -1.665
REMARK UNBOUND:                -2.393
REMARK SMILES CCCCCCCCCCCCCCCC(=O)[O-]
REMARK SMILES IDX 9 1 10 2 11 3 12 4 13 5 14 6 15 7 16 8 17 9 18 10 8 11 7 12
REMARK SMILES IDX 6 13 5 14 4 15 3 16 2 17 1 18
REMARK H PARENT
REMARK Flexibility Score: inf
ROOT
ATOM      1  C   UNL     1      14.374   0.629  19.904  1.00  0.00     0.000 C 
ENDROOT
BRANCH   1   2
ATOM      2  C   UNL     1      13.551   0.638  18.606  1.00  0.00     0.000 C 
BRANCH   2   3
ATOM      3  C   UNL     1      13.169   2.055  18.153  1.00  0.00     0.000 C 
BRANCH   3   4
ATOM      4  C   UNL     1      13.154   2.158  16.621  1.00  0.00     0.000 C 
BRANCH   4   5
ATOM      5  C   UNL     1      13.571   0.835  15.942  1.00  0.00     0.000 C 
BRANCH   5   6
ATOM      6  C   UNL     1      14.789   0.976  15.014  1.00  0.00     0.006 C 
BRANCH   6   7
ATOM      7  C   UNL     1      14.624   0.216  13.693  1.00  0.00     0.053 C 
BRANCH   7   8
ATOM      8  C   UNL     1      15.045   1.073  12.541  1.00  0.00     0.041 C 
ATOM      9  O   UNL     1      15.013   2.327  12.640  1.00  0.00    -0.550 OA
ATOM     10  O   UNL     1      15.520   0.486  11.376  1.00  0.00    -0.550 OA
ENDBRANCH   7   8
ENDBRANCH   6   7
ENDBRANCH   5   6
ENDBRANCH   4   5
ENDBRANCH   3   4
ENDBRANCH   2   3
ENDBRANCH   1   2
BRANCH   1  11
ATOM     11  C   UNL     1      14.864  -0.780  20.284  1.00  0.00     0.000 C 
BRANCH  11  12
ATOM     12  C   UNL     1      15.649  -1.457  19.149  1.00  0.00    -0.000 C 
BRANCH  12  13
ATOM     13  C   UNL     1      17.057  -0.861  18.969  1.00  0.00    -0.000 C 
BRANCH  13  14
ATOM     14  C   UNL     1      17.174   0.024  17.714  1.00  0.00    -0.000 C 
BRANCH  14  15
ATOM     15  C   UNL     1      18.112  -0.514  16.615  1.00  0.00    -0.000 C 
BRANCH  15  16
ATOM     16  C   UNL     1      17.452  -1.464  15.601  1.00  0.00    -0.000 C 
BRANCH  16  17
ATOM     17  C   UNL     1      18.424  -1.950  14.516  1.00  0.00    -0.003 C 
ATOM     18  C   UNL     1      18.004  -1.451  13.137  1.00  0.00     0.004 C 
ENDBRANCH  16  17
ENDBRANCH  15  16
ENDBRANCH  14  15
ENDBRANCH  13  14
ENDBRANCH  12  13
ENDBRANCH  11  12
ENDBRANCH   1  11
TORSDOF 14
ENDMDL
MODEL 7
REMARK VINA RESULT:    -5.451      1.872      5.798
REMARK INTER + INTRA:         -12.306
REMARK INTER:                 -10.795
REMARK INTRA:                  -1.511
REMARK UNBOUND:                -2.393
REMARK SMILES CCCCCCCCCCCCCCCC(=O)[O-]
REMARK SMILES IDX 9 1 10 2 11 3 12 4 13 5 14 6 15 7 16 8 17 9 18 10 8 11 7 12
REMARK SMILES IDX 6 13 5 14 4 15 3 16 2 17 1 18
REMARK H PARENT
REMARK Flexibility Score: inf
ROOT
ATOM      1  C   UNL     1      13.740   1.375  18.192  1.00  0.00     0.000 C 
ENDROOT
BRANCH   1   2
ATOM      2  C   UNL     1      13.257  -0.077  18.337  1.00  0.00     0.000 C 
BRANCH   2   3
ATOM      3  C   UNL     1      14.415  -1.077  18.479  1.00  0.00     0.000 C 
BRANCH   3   4
ATOM      4  C   UNL     1      15.503  -0.530  19.416  1.00  0.00     0.000 C 
BRANCH   4   5
ATOM      5  C   UNL     1      16.922  -0.724  18.840  1.00  0.00     0.000 C 
BRANCH   5   6
ATOM      6  C   UNL     1      17.130  -0.046  17.475  1.00  0.00     0.006 C 
BRANCH   6   7
ATOM      7  C   UNL     1      17.891  -0.930  16.480  1.00  0.00     0.053 C 
BRANCH   7   8
ATOM      8  C   UNL     1      17.098  -2.158  16.160  1.00  0.00     0.041 C 
ATOM      9  O   UNL     1      16.245  -2.137  15.234  1.00  0.00    -0.550 OA
ATOM     10  O   UNL     1      17.337  -3.339  16.850  1.00  0.00    -0.550 OA
ENDBRANCH   7   8
ENDBRANCH   6   7
ENDBRANCH   5   6
ENDBRANCH   4   5
ENDBRANCH   3   4
ENDBRANCH   2   3
ENDBRANCH   1   2
BRANCH   1  11
ATOM     11  C   UNL     1      12.901   2.178  17.182  1.00  0.00     0.000 C 
BRANCH  11  12
ATOM     12  C   UNL     1      13.077   1.676  15.739  1.00  0.00    -0.000 C 
BRANCH  12  13
ATOM     13  C   UNL     1      14.556   1.533  15.340  1.00  0.00    -0.000 C 
BRANCH  13  14
ATOM     14  C   UNL     1      14.750   0.709  14.054  1.00  0.00    -0.000 C 
BRANCH  14  15
ATOM     15  C   UNL     1      15.276   1.501  12.839  1.00  0.00    -0.000 C 
BRANCH  15  16
ATOM     16  C   UNL     1      15.417   0.686  11.541  1.00  0.00    -0.000 C 
BRANCH  16  17
ATOM     17  C   UNL     1      16.880   0.424  11.157  1.00  0.00    -0.003 C 
ATOM     18  C   UNL     1      17.511  -0.621  12.072  1.00  0.00     0.004 C 
ENDBRANCH  16  17
ENDBRANCH  15  16
ENDBRANCH  14  15
ENDBRANCH  13  14
ENDBRANCH  12  13
ENDBRANCH  11  12
ENDBRANCH   1  11
TORSDOF 14
ENDMDL
MODEL 8
REMARK VINA RESULT:    -5.424      1.240      3.606
REMARK INTER + INTRA:         -12.256
REMARK INTER:                 -10.089
REMARK INTRA:                  -2.168
REMARK UNBOUND:                -2.393
REMARK SMILES CCCCCCCCCCCCCCCC(=O)[O-]
REMARK SMILES IDX 9 1 10 2 11 3 12 4 13 5 14 6 15 7 16 8 17 9 18 10 8 11 7 12
REMARK SMILES IDX 6 13 5 14 4 15 3 16 2 17 1 18
REMARK H PARENT
REMARK Flexibility Score: inf
ROOT
ATOM      1  C   UNL     1      14.397   0.279  20.401  1.00  0.00     0.000 C 
ENDROOT
BRANCH   1   2
ATOM      2  C   UNL     1      14.466   0.865  18.981  1.00  0.00     0.000 C 
BRANCH   2   3
ATOM      3  C   UNL     1      13.637   2.149  18.826  1.00  0.00     0.000 C 
BRANCH   3   4
ATOM      4  C   UNL     1      12.945   2.194  17.455  1.00  0.00     0.000 C 
BRANCH   4   5
ATOM      5  C   UNL     1      13.249   0.942  16.605  1.00  0.00     0.000 C 
BRANCH   5   6
ATOM      6  C   UNL     1      13.480   1.249  15.116  1.00  0.00     0.006 C 
BRANCH   6   7
ATOM      7  C   UNL     1      14.947   1.551  14.790  1.00  0.00     0.053 C 
BRANCH   7   8
ATOM      8  C   UNL     1      15.248   1.204  13.366  1.00  0.00     0.041 C 
ATOM      9  O   UNL     1      15.073   2.055  12.456  1.00  0.00    -0.550 OA
ATOM     10  O   UNL     1      15.769  -0.044  13.050  1.00  0.00    -0.550 OA
ENDBRANCH   7   8
ENDBRANCH   6   7
ENDBRANCH   5   6
ENDBRANCH   4   5
ENDBRANCH   3   4
ENDBRANCH   2   3
ENDBRANCH   1   2
BRANCH   1  11
ATOM     11  C   UNL     1      14.102  -1.231  20.403  1.00  0.00     0.000 C 
BRANCH  11  12
ATOM     12  C   UNL     1      13.201  -1.658  19.233  1.00  0.00    -0.000 C 
BRANCH  12  13
ATOM     13  C   UNL     1      13.934  -2.557  18.222  1.00  0.00    -0.000 C 
BRANCH  13  14
ATOM     14  C   UNL     1      15.365  -2.911  18.667  1.00  0.00    -0.000 C 
BRANCH  14  15
ATOM     15  C   UNL     1      16.441  -2.802  17.567  1.00  0.00    -0.000 C 
BRANCH  15  16
ATOM     16  C   UNL     1      16.142  -1.774  16.462  1.00  0.00    -0.000 C 
BRANCH  16  17
ATOM     17  C   UNL     1      17.337  -0.859  16.160  1.00  0.00    -0.003 C 
ATOM     18  C   UNL     1      17.756  -0.074  17.399  1.00  0.00     0.004 C 
ENDBRANCH  16  17
ENDBRANCH  15  16
ENDBRANCH  14  15
ENDBRANCH  13  14
ENDBRANCH  12  13
ENDBRANCH  11  12
ENDBRANCH   1  11
TORSDOF 14
ENDMDL
MODEL 9
REMARK VINA RESULT:    -5.351      1.173      3.350
REMARK INTER + INTRA:         -12.123
REMARK INTER:                 -10.330
REMARK INTRA:                  -1.793
REMARK UNBOUND:                -2.393
REMARK SMILES CCCCCCCCCCCCCCCC(=O)[O-]
REMARK SMILES IDX 9 1 10 2 11 3 12 4 13 5 14 6 15 7 16 8 17 9 18 10 8 11 7 12
REMARK SMILES IDX 6 13 5 14 4 15 3 16 2 17 1 18
REMARK H PARENT
REMARK Flexibility Score: inf
ROOT
ATOM      1  C   UNL     1      14.299   1.980  16.792  1.00  0.00     0.000 C 
ENDROOT
BRANCH   1   2
ATOM      2  C   UNL     1      13.239   1.673  15.723  1.00  0.00     0.000 C 
BRANCH   2   3
ATOM      3  C   UNL     1      13.710   0.626  14.702  1.00  0.00     0.000 C 
BRANCH   3   4
ATOM      4  C   UNL     1      15.132   0.938  14.211  1.00  0.00     0.000 C 
BRANCH   4   5
ATOM      5  C   UNL     1      15.132   1.752  12.899  1.00  0.00     0.000 C 
BRANCH   5   6
ATOM      6  C   UNL     1      15.452   0.911  11.652  1.00  0.00     0.006 C 
BRANCH   6   7
ATOM      7  C   UNL     1      16.953   0.838  11.351  1.00  0.00     0.053 C 
BRANCH   7   8
ATOM      8  C   UNL     1      17.362  -0.574  11.070  1.00  0.00     0.041 C 
ATOM      9  O   UNL     1      17.396  -1.420  12.001  1.00  0.00    -0.550 OA
ATOM     10  O   UNL     1      17.657  -0.966   9.771  1.00  0.00    -0.550 OA
ENDBRANCH   7   8
ENDBRANCH   6   7
ENDBRANCH   5   6
ENDBRANCH   4   5
ENDBRANCH   3   4
ENDBRANCH   2   3
ENDBRANCH   1   2
BRANCH   1  11
ATOM     11  C   UNL     1      13.684   2.238  18.179  1.00  0.00     0.000 C 
BRANCH  11  12
ATOM     12  C   UNL     1      13.995   1.113  19.180  1.00  0.00    -0.000 C 
BRANCH  12  13
ATOM     13  C   UNL     1      13.373  -0.233  18.766  1.00  0.00    -0.000 C 
BRANCH  13  14
ATOM     14  C   UNL     1      14.249  -1.438  19.153  1.00  0.00    -0.000 C 
BRANCH  14  15
ATOM     15  C   UNL     1      14.671  -2.348  17.982  1.00  0.00    -0.000 C 
BRANCH  15  16
ATOM     16  C   UNL     1      15.543  -1.669  16.910  1.00  0.00    -0.000 C 
BRANCH  16  17
ATOM     17  C   UNL     1      16.985  -1.429  17.379  1.00  0.00    -0.003 C 
ATOM     18  C   UNL     1      17.323   0.059  17.382  1.00  0.00     0.004 C 
ENDBRANCH  16  17
ENDBRANCH  15  16
ENDBRANCH  14  15
ENDBRANCH  13  14
ENDBRANCH  12  13
ENDBRANCH  11  12
ENDBRANCH   1  11
TORSDOF 14
ENDMDL
