MODEL 1
REMARK VINA RESULT:    -3.092      0.000      0.000
REMARK INTER + INTRA:          -5.092
REMARK INTER:                  -4.538
REMARK INTRA:                  -0.554
REMARK UNBOUND:                -0.554
REMARK SMILES O=C([O-])CCCCCCCC(=O)[O-]
REMARK SMILES IDX 7 1 6 2 5 3 4 4 2 5 1 6 3 7 8 8 9 9 10 10 11 11 12 12 13 13
REMARK H PARENT
REMARK Flexibility Score: inf
ROOT
ATOM      1  C   UNL     1     142.403 140.132 145.626  1.00  0.00     0.000 C 
ENDROOT
BRANCH   1   2
ATOM      2  C   UNL     1     143.439 140.212 144.489  1.00  0.00     0.000 C 
BRANCH   2   3
ATOM      3  C   UNL     1     144.600 141.170 144.803  1.00  0.00     0.006 C 
BRANCH   3   4
ATOM      4  C   UNL     1     144.245 142.630 144.497  1.00  0.00     0.053 C 
BRANCH   4   5
ATOM      5  C   UNL     1     144.826 143.077 143.190  1.00  0.00     0.041 C 
ATOM      6  O   UNL     1     145.867 142.531 142.739  1.00  0.00    -0.550 OA
ATOM      7  O   UNL     1     144.197 144.073 142.454  1.00  0.00    -0.550 OA
ENDBRANCH   4   5
ENDBRANCH   3   4
ENDBRANCH   2   3
ENDBRANCH   1   2
BRANCH   1   8
ATOM      8  C   UNL     1     141.196 141.074 145.471  1.00  0.00     0.000 C 
BRANCH   8   9
ATOM      9  C   UNL     1     140.944 141.936 146.720  1.00  0.00     0.006 C 
BRANCH   9  10
ATOM     10  C   UNL     1     142.181 142.016 147.626  1.00  0.00     0.053 C 
BRANCH  10  11
ATOM     11  C   UNL     1     141.805 142.049 149.076  1.00  0.00     0.041 C 
ATOM     12  O   UNL     1     140.938 141.254 149.524  1.00  0.00    -0.550 OA
ATOM     13  O   UNL     1     142.387 142.984 149.923  1.00  0.00    -0.550 OA
ENDBRANCH  10  11
ENDBRANCH   9  10
ENDBRANCH   8   9
ENDBRANCH   1   8
TORSDOF 8
ENDMDL
MODEL 2
REMARK VINA RESULT:    -2.985      2.329      3.088
REMARK INTER + INTRA:          -4.935
REMARK INTER:                  -4.449
REMARK INTRA:                  -0.487
REMARK UNBOUND:                -0.554
REMARK SMILES O=C([O-])CCCCCCCC(=O)[O-]
REMARK SMILES IDX 7 1 6 2 5 3 4 4 2 5 1 6 3 7 8 8 9 9 10 10 11 11 12 12 13 13
REMARK H PARENT
REMARK Flexibility Score: inf
ROOT
ATOM      1  C   UNL     1     144.971 141.022 145.536  1.00  0.00     0.000 C 
ENDROOT
BRANCH   1   2
ATOM      2  C   UNL     1     146.291 140.248 145.708  1.00  0.00     0.000 C 
BRANCH   2   3
ATOM      3  C   UNL     1     146.985 139.942 144.370  1.00  0.00     0.006 C 
BRANCH   3   4
ATOM      4  C   UNL     1     148.044 140.993 144.014  1.00  0.00     0.053 C 
BRANCH   4   5
ATOM      5  C   UNL     1     147.695 141.724 142.754  1.00  0.00     0.041 C 
ATOM      6  O   UNL     1     148.436 141.628 141.740  1.00  0.00    -0.550 OA
ATOM      7  O   UNL     1     146.533 142.482 142.689  1.00  0.00    -0.550 OA
ENDBRANCH   4   5
ENDBRANCH   3   4
ENDBRANCH   2   3
ENDBRANCH   1   2
BRANCH   1   8
ATOM      8  C   UNL     1     143.996 140.421 144.507  1.00  0.00     0.000 C 
BRANCH   8   9
ATOM      9  C   UNL     1     142.635 140.046 145.120  1.00  0.00     0.006 C 
BRANCH   9  10
ATOM     10  C   UNL     1     142.369 140.791 146.435  1.00  0.00     0.053 C 
BRANCH  10  11
ATOM     11  C   UNL     1     141.136 141.638 146.353  1.00  0.00     0.041 C 
ATOM     12  O   UNL     1     140.276 141.421 145.459  1.00  0.00    -0.550 OA
ATOM     13  O   UNL     1     140.955 142.692 147.240  1.00  0.00    -0.550 OA
ENDBRANCH  10  11
ENDBRANCH   9  10
ENDBRANCH   8   9
ENDBRANCH   1   8
TORSDOF 8
ENDMDL
MODEL 3
REMARK VINA RESULT:    -2.972      1.899      6.631
REMARK INTER + INTRA:          -4.915
REMARK INTER:                  -4.644
REMARK INTRA:                  -0.271
REMARK UNBOUND:                -0.554
REMARK SMILES O=C([O-])CCCCCCCC(=O)[O-]
REMARK SMILES IDX 7 1 6 2 5 3 4 4 2 5 1 6 3 7 8 8 9 9 10 10 11 11 12 12 13 13
REMARK H PARENT
REMARK Flexibility Score: inf
ROOT
ATOM      1  C   UNL     1     144.078 142.384 144.475  1.00  0.00     0.000 C 
ENDROOT
BRANCH   1   2
ATOM      2  C   UNL     1     144.081 140.846 144.402  1.00  0.00     0.000 C 
BRANCH   2   3
ATOM      3  C   UNL     1     142.857 140.212 145.084  1.00  0.00     0.006 C 
BRANCH   3   4
ATOM      4  C   UNL     1     141.812 141.259 145.487  1.00  0.00     0.053 C 
BRANCH   4   5
ATOM      5  C   UNL     1     141.762 141.448 146.973  1.00  0.00     0.041 C 
ATOM      6  O   UNL     1     142.480 140.738 147.725  1.00  0.00    -0.550 OA
ATOM      7  O   UNL     1     140.949 142.430 147.522  1.00  0.00    -0.550 OA
ENDBRANCH   4   5
ENDBRANCH   3   4
ENDBRANCH   2   3
ENDBRANCH   1   2
BRANCH   1   8
ATOM      8  C   UNL     1     144.681 143.093 143.248  1.00  0.00     0.000 C 
BRANCH   8   9
ATOM      9  C   UNL     1     146.193 143.341 143.383  1.00  0.00     0.006 C 
BRANCH   9  10
ATOM     10  C   UNL     1     146.763 144.103 142.178  1.00  0.00     0.053 C 
BRANCH  10  11
ATOM     11  C   UNL     1     147.003 143.195 141.011  1.00  0.00     0.041 C 
ATOM     12  O   UNL     1     146.199 143.180 140.043  1.00  0.00    -0.550 OA
ATOM     13  O   UNL     1     148.096 142.337 141.011  1.00  0.00    -0.550 OA
ENDBRANCH  10  11
ENDBRANCH   9  10
ENDBRANCH   8   9
ENDBRANCH   1   8
TORSDOF 8
ENDMDL
MODEL 4
REMARK VINA RESULT:    -2.945      3.947      5.883
REMARK INTER + INTRA:          -4.876
REMARK INTER:                  -4.604
REMARK INTRA:                  -0.272
REMARK UNBOUND:                -0.554
REMARK SMILES O=C([O-])CCCCCCCC(=O)[O-]
REMARK SMILES IDX 7 1 6 2 5 3 4 4 2 5 1 6 3 7 8 8 9 9 10 10 11 11 12 12 13 13
REMARK H PARENT
REMARK Flexibility Score: inf
ROOT
ATOM      1  C   UNL     1     141.247 142.331 151.193  1.00  0.00     0.000 C 
ENDROOT
BRANCH   1   2
ATOM      2  C   UNL     1     141.125 141.580 149.855  1.00  0.00     0.000 C 
BRANCH   2   3
ATOM      3  C   UNL     1     141.997 142.189 148.744  1.00  0.00     0.006 C 
BRANCH   3   4
ATOM      4  C   UNL     1     141.159 142.692 147.561  1.00  0.00     0.053 C 
BRANCH   4   5
ATOM      5  C   UNL     1     141.159 141.713 146.427  1.00  0.00     0.041 C 
ATOM      6  O   UNL     1     142.135 140.935 146.262  1.00  0.00    -0.550 OA
ATOM      7  O   UNL     1     140.066 141.637 145.575  1.00  0.00    -0.550 OA
ENDBRANCH   4   5
ENDBRANCH   3   4
ENDBRANCH   2   3
ENDBRANCH   1   2
BRANCH   1   8
ATOM      8  C   UNL     1     139.916 142.559 151.933  1.00  0.00     0.000 C 
BRANCH   8   9
ATOM      9  C   UNL     1     139.958 142.093 153.398  1.00  0.00     0.006 C 
BRANCH   9  10
ATOM     10  C   UNL     1     141.236 142.552 154.114  1.00  0.00     0.053 C 
BRANCH  10  11
ATOM     11  C   UNL     1     141.003 143.788 154.927  1.00  0.00     0.041 C 
ATOM     12  O   UNL     1     139.876 144.351 154.916  1.00  0.00    -0.550 OA
ATOM     13  O   UNL     1     142.041 144.341 155.667  1.00  0.00    -0.550 OA
ENDBRANCH  10  11
ENDBRANCH   9  10
ENDBRANCH   8   9
ENDBRANCH   1   8
TORSDOF 8
ENDMDL
MODEL 5
REMARK VINA RESULT:    -2.941      1.804      2.708
REMARK INTER + INTRA:          -4.870
REMARK INTER:                  -4.259
REMARK INTRA:                  -0.610
REMARK UNBOUND:                -0.554
REMARK SMILES O=C([O-])CCCCCCCC(=O)[O-]
REMARK SMILES IDX 7 1 6 2 5 3 4 4 2 5 1 6 3 7 8 8 9 9 10 10 11 11 12 12 13 13
REMARK H PARENT
REMARK Flexibility Score: inf
ROOT
ATOM      1  C   UNL     1     141.794 142.947 146.699  1.00  0.00     0.000 C 
ENDROOT
BRANCH   1   2
ATOM      2  C   UNL     1     141.050 141.760 146.059  1.00  0.00     0.000 C 
BRANCH   2   3
ATOM      3  C   UNL     1     142.000 140.688 145.499  1.00  0.00     0.006 C 
BRANCH   3   4
ATOM      4  C   UNL     1     143.472 141.106 145.610  1.00  0.00     0.053 C 
BRANCH   4   5
ATOM      5  C   UNL     1     144.180 140.990 144.295  1.00  0.00     0.041 C 
ATOM      6  O   UNL     1     144.260 139.875 143.715  1.00  0.00    -0.550 OA
ATOM      7  O   UNL     1     144.720 142.119 143.694  1.00  0.00    -0.550 OA
ENDBRANCH   4   5
ENDBRANCH   3   4
ENDBRANCH   2   3
ENDBRANCH   1   2
BRANCH   1   8
ATOM      8  C   UNL     1     141.202 143.441 148.031  1.00  0.00     0.000 C 
BRANCH   8   9
ATOM      9  C   UNL     1     141.972 142.922 149.258  1.00  0.00     0.006 C 
BRANCH   9  10
ATOM     10  C   UNL     1     143.249 142.168 148.863  1.00  0.00     0.053 C 
BRANCH  10  11
ATOM     11  C   UNL     1     143.268 140.779 149.423  1.00  0.00     0.041 C 
ATOM     12  O   UNL     1     142.539 139.883 148.921  1.00  0.00    -0.550 OA
ATOM     13  O   UNL     1     144.064 140.484 150.523  1.00  0.00    -0.550 OA
ENDBRANCH  10  11
ENDBRANCH   9  10
ENDBRANCH   8   9
ENDBRANCH   1   8
TORSDOF 8
ENDMDL
MODEL 6
REMARK VINA RESULT:    -2.927     16.426     18.244
REMARK INTER + INTRA:          -4.850
REMARK INTER:                  -4.593
REMARK INTRA:                  -0.257
REMARK UNBOUND:                -0.554
REMARK SMILES O=C([O-])CCCCCCCC(=O)[O-]
REMARK SMILES IDX 7 1 6 2 5 3 4 4 2 5 1 6 3 7 8 8 9 9 10 10 11 11 12 12 13 13
REMARK H PARENT
REMARK Flexibility Score: inf
ROOT
ATOM      1  C   UNL     1     140.990 158.872 148.480  1.00  0.00     0.000 C 
ENDROOT
BRANCH   1   2
ATOM      2  C   UNL     1     140.951 159.527 149.873  1.00  0.00     0.000 C 
BRANCH   2   3
ATOM      3  C   UNL     1     141.839 158.806 150.900  1.00  0.00     0.006 C 
BRANCH   3   4
ATOM      4  C   UNL     1     142.211 159.712 152.081  1.00  0.00     0.053 C 
BRANCH   4   5
ATOM      5  C   UNL     1     141.585 159.239 153.358  1.00  0.00     0.041 C 
ATOM      6  O   UNL     1     142.293 159.069 154.385  1.00  0.00    -0.550 OA
ATOM      7  O   UNL     1     140.216 159.019 153.421  1.00  0.00    -0.550 OA
ENDBRANCH   4   5
ENDBRANCH   3   4
ENDBRANCH   2   3
ENDBRANCH   1   2
BRANCH   1   8
ATOM      8  C   UNL     1     139.875 159.323 147.519  1.00  0.00     0.000 C 
BRANCH   8   9
ATOM      9  C   UNL     1     140.356 159.458 146.064  1.00  0.00     0.006 C 
BRANCH   9  10
ATOM     10  C   UNL     1     139.994 158.229 145.219  1.00  0.00     0.053 C 
BRANCH  10  11
ATOM     11  C   UNL     1     141.215 157.482 144.775  1.00  0.00     0.041 C 
ATOM     12  O   UNL     1     142.359 157.866 145.134  1.00  0.00    -0.550 OA
ATOM     13  O   UNL     1     141.090 156.384 143.933  1.00  0.00    -0.550 OA
ENDBRANCH  10  11
ENDBRANCH   9  10
ENDBRANCH   8   9
ENDBRANCH   1   8
TORSDOF 8
ENDMDL
MODEL 7
REMARK VINA RESULT:    -2.871      1.834      6.120
REMARK INTER + INTRA:          -4.767
REMARK INTER:                  -4.301
REMARK INTRA:                  -0.466
REMARK UNBOUND:                -0.554
REMARK SMILES O=C([O-])CCCCCCCC(=O)[O-]
REMARK SMILES IDX 7 1 6 2 5 3 4 4 2 5 1 6 3 7 8 8 9 9 10 10 11 11 12 12 13 13
REMARK H PARENT
REMARK Flexibility Score: inf
ROOT
ATOM      1  C   UNL     1     141.059 141.921 146.793  1.00  0.00     0.000 C 
ENDROOT
BRANCH   1   2
ATOM      2  C   UNL     1     141.776 141.401 148.052  1.00  0.00     0.000 C 
BRANCH   2   3
ATOM      3  C   UNL     1     142.441 142.523 148.868  1.00  0.00     0.006 C 
BRANCH   3   4
ATOM      4  C   UNL     1     141.435 143.263 149.760  1.00  0.00     0.053 C 
BRANCH   4   5
ATOM      5  C   UNL     1     141.139 142.496 151.012  1.00  0.00     0.041 C 
ATOM      6  O   UNL     1     140.069 141.840 151.115  1.00  0.00    -0.550 OA
ATOM      7  O   UNL     1     142.060 142.479 152.051  1.00  0.00    -0.550 OA
ENDBRANCH   4   5
ENDBRANCH   3   4
ENDBRANCH   2   3
ENDBRANCH   1   2
BRANCH   1   8
ATOM      8  C   UNL     1     141.330 141.111 145.512  1.00  0.00     0.000 C 
BRANCH   8   9
ATOM      9  C   UNL     1     142.382 140.007 145.712  1.00  0.00     0.006 C 
BRANCH   9  10
ATOM     10  C   UNL     1     143.367 139.927 144.538  1.00  0.00     0.053 C 
BRANCH  10  11
ATOM     11  C   UNL     1     144.626 140.689 144.818  1.00  0.00     0.041 C 
ATOM     12  O   UNL     1     145.578 140.665 143.994  1.00  0.00    -0.550 OA
ATOM     13  O   UNL     1     144.762 141.394 146.007  1.00  0.00    -0.550 OA
ENDBRANCH  10  11
ENDBRANCH   9  10
ENDBRANCH   8   9
ENDBRANCH   1   8
TORSDOF 8
ENDMDL
MODEL 8
REMARK VINA RESULT:    -2.754      2.508      3.615
REMARK INTER + INTRA:          -4.596
REMARK INTER:                  -4.072
REMARK INTRA:                  -0.523
REMARK UNBOUND:                -0.554
REMARK SMILES O=C([O-])CCCCCCCC(=O)[O-]
REMARK SMILES IDX 7 1 6 2 5 3 4 4 2 5 1 6 3 7 8 8 9 9 10 10 11 11 12 12 13 13
REMARK H PARENT
REMARK Flexibility Score: inf
ROOT
ATOM      1  C   UNL     1     141.364 142.211 147.811  1.00  0.00     0.000 C 
ENDROOT
BRANCH   1   2
ATOM      2  C   UNL     1     142.365 142.269 146.642  1.00  0.00     0.000 C 
BRANCH   2   3
ATOM      3  C   UNL     1     141.926 141.422 145.435  1.00  0.00     0.006 C 
BRANCH   3   4
ATOM      4  C   UNL     1     142.467 139.988 145.508  1.00  0.00     0.053 C 
BRANCH   4   5
ATOM      5  C   UNL     1     143.917 139.925 145.135  1.00  0.00     0.041 C 
ATOM      6  O   UNL     1     144.258 139.882 143.924  1.00  0.00    -0.550 OA
ATOM      7  O   UNL     1     144.890 139.950 146.125  1.00  0.00    -0.550 OA
ENDBRANCH   4   5
ENDBRANCH   3   4
ENDBRANCH   2   3
ENDBRANCH   1   2
BRANCH   1   8
ATOM      8  C   UNL     1     141.792 141.315 148.987  1.00  0.00     0.000 C 
BRANCH   8   9
ATOM      9  C   UNL     1     143.316 141.286 149.196  1.00  0.00     0.006 C 
BRANCH   9  10
ATOM     10  C   UNL     1     143.743 140.193 150.186  1.00  0.00     0.053 C 
BRANCH  10  11
ATOM     11  C   UNL     1     143.733 140.691 151.599  1.00  0.00     0.041 C 
ATOM     12  O   UNL     1     143.726 139.876 152.558  1.00  0.00    -0.550 OA
ATOM     13  O   UNL     1     143.694 142.056 151.855  1.00  0.00    -0.550 OA
ENDBRANCH  10  11
ENDBRANCH   9  10
ENDBRANCH   8   9
ENDBRANCH   1   8
TORSDOF 8
ENDMDL
