MODEL 1
REMARK VINA RESULT:    -6.160      0.000      0.000
REMARK INTER + INTRA:         -10.687
REMARK INTER:                  -8.861
REMARK INTRA:                  -1.826
REMARK UNBOUND:                -1.826
REMARK SMILES CC(C)=CCCC(C)=CCCC(C)=CCO
REMARK SMILES IDX 10 1 9 2 7 3 8 4 6 5 5 6 4 7 1 8 2 9 3 10 11 11 12 12 14 13
REMARK SMILES IDX 13 14 15 15 16 16
REMARK H PARENT 16 17
REMARK Flexibility Score: inf
ROOT
ATOM      1  C   UNL     1     -42.621  12.762   1.615  1.00  0.00     0.032 C 
ENDROOT
BRANCH   1   2
ATOM      2  C   UNL     1     -41.310  12.015   1.546  1.00  0.00    -0.028 C 
ATOM      3  C   UNL     1     -40.081  12.577   1.462  1.00  0.00    -0.077 C 
ATOM      4  C   UNL     1     -38.887  11.660   1.382  1.00  0.00     0.039 C 
BRANCH   3   5
ATOM      5  C   UNL     1     -39.850  14.077   1.449  1.00  0.00     0.034 C 
BRANCH   5   6
ATOM      6  C   UNL     1     -39.382  14.553   0.069  1.00  0.00     0.032 C 
BRANCH   6   7
ATOM      7  C   UNL     1     -40.562  14.832  -0.829  1.00  0.00    -0.028 C 
ATOM      8  C   UNL     1     -42.057  14.496  -2.773  1.00  0.00     0.039 C 
ATOM      9  C   UNL     1     -40.870  14.108  -1.929  1.00  0.00    -0.080 C 
ATOM     10  C   UNL     1     -40.085  12.883  -2.329  1.00  0.00     0.039 C 
ENDBRANCH   6   7
ENDBRANCH   5   6
ENDBRANCH   3   5
ENDBRANCH   1   2
BRANCH   1  11
ATOM     11  C   UNL     1     -43.749  11.907   1.027  1.00  0.00     0.034 C 
BRANCH  11  12
ATOM     12  C   UNL     1     -44.275  12.520  -0.257  1.00  0.00    -0.075 C 
ATOM     13  C   UNL     1     -44.063  11.974  -1.477  1.00  0.00    -0.000 C 
ATOM     14  C   UNL     1     -45.116  13.768  -0.167  1.00  0.00     0.039 C 
BRANCH  13  15
ATOM     15  C   UNL     1     -43.247  10.737  -1.732  1.00  0.00     0.183 C 
BRANCH  15  16
ATOM     16  O   UNL     1     -44.065   9.716  -2.228  1.00  0.00    -0.392 OA
ATOM     17  H   UNL     1     -43.633   8.863  -1.959  1.00  0.00     0.210 HD
ENDBRANCH  15  16
ENDBRANCH  13  15
ENDBRANCH  11  12
ENDBRANCH   1  11
TORSDOF 8
ENDMDL
MODEL 2
REMARK VINA RESULT:    -5.960      2.540      4.730
REMARK INTER + INTRA:         -10.400
REMARK INTER:                  -8.633
REMARK INTRA:                  -1.767
REMARK UNBOUND:                -1.826
REMARK SMILES CC(C)=CCCC(C)=CCCC(C)=CCO
REMARK SMILES IDX 10 1 9 2 7 3 8 4 6 5 5 6 4 7 1 8 2 9 3 10 11 11 12 12 14 13
REMARK SMILES IDX 13 14 15 15 16 16
REMARK H PARENT 16 17
REMARK Flexibility Score: inf
ROOT
ATOM      1  C   UNL     1     -43.196  11.836   1.104  1.00  0.00     0.032 C 
ENDROOT
BRANCH   1   2
ATOM      2  C   UNL     1     -44.309  12.728   0.607  1.00  0.00    -0.028 C 
ATOM      3  C   UNL     1     -44.424  13.227  -0.647  1.00  0.00    -0.077 C 
ATOM      4  C   UNL     1     -45.601  14.120  -0.947  1.00  0.00     0.039 C 
BRANCH   3   5
ATOM      5  C   UNL     1     -43.433  12.928  -1.756  1.00  0.00     0.034 C 
BRANCH   5   6
ATOM      6  C   UNL     1     -42.891  14.220  -2.378  1.00  0.00     0.032 C 
BRANCH   6   7
ATOM      7  C   UNL     1     -41.770  14.786  -1.543  1.00  0.00    -0.028 C 
ATOM      8  C   UNL     1     -39.420  15.289  -0.950  1.00  0.00     0.039 C 
ATOM      9  C   UNL     1     -40.461  14.716  -1.877  1.00  0.00    -0.080 C 
ATOM     10  C   UNL     1     -39.996  14.115  -3.180  1.00  0.00     0.039 C 
ENDBRANCH   6   7
ENDBRANCH   5   6
ENDBRANCH   3   5
ENDBRANCH   1   2
BRANCH   1  11
ATOM     11  C   UNL     1     -42.301  12.603   2.084  1.00  0.00     0.034 C 
BRANCH  11  12
ATOM     12  C   UNL     1     -40.876  12.673   1.569  1.00  0.00    -0.075 C 
ATOM     13  C   UNL     1     -39.941  13.498   2.093  1.00  0.00    -0.000 C 
ATOM     14  C   UNL     1     -40.468  11.744   0.455  1.00  0.00     0.039 C 
BRANCH  13  15
ATOM     15  C   UNL     1     -40.192  14.482   3.203  1.00  0.00     0.183 C 
BRANCH  15  16
ATOM     16  O   UNL     1     -39.527  15.685   2.937  1.00  0.00    -0.392 OA
ATOM     17  H   UNL     1     -39.152  15.989   3.805  1.00  0.00     0.210 HD
ENDBRANCH  15  16
ENDBRANCH  13  15
ENDBRANCH  11  12
ENDBRANCH   1  11
TORSDOF 8
ENDMDL
MODEL 3
REMARK VINA RESULT:    -5.832      1.070      3.092
REMARK INTER + INTRA:         -10.215
REMARK INTER:                  -8.446
REMARK INTRA:                  -1.769
REMARK UNBOUND:                -1.826
REMARK SMILES CC(C)=CCCC(C)=CCCC(C)=CCO
REMARK SMILES IDX 10 1 9 2 7 3 8 4 6 5 5 6 4 7 1 8 2 9 3 10 11 11 12 12 14 13
REMARK SMILES IDX 13 14 15 15 16 16
REMARK H PARENT 16 17
REMARK Flexibility Score: inf
ROOT
ATOM      1  C   UNL     1     -42.787  14.357  -1.233  1.00  0.00     0.032 C 
ENDROOT
BRANCH   1   2
ATOM      2  C   UNL     1     -41.719  13.857  -2.176  1.00  0.00    -0.028 C 
ATOM      3  C   UNL     1     -40.416  14.226  -2.164  1.00  0.00    -0.077 C 
ATOM      4  C   UNL     1     -39.502  13.629  -3.203  1.00  0.00     0.039 C 
BRANCH   3   5
ATOM      5  C   UNL     1     -39.836  15.202  -1.157  1.00  0.00     0.034 C 
BRANCH   5   6
ATOM      6  C   UNL     1     -38.997  14.475  -0.099  1.00  0.00     0.032 C 
BRANCH   6   7
ATOM      7  C   UNL     1     -39.767  14.336   1.190  1.00  0.00    -0.028 C 
ATOM      8  C   UNL     1     -41.205  13.206   2.858  1.00  0.00     0.039 C 
ATOM      9  C   UNL     1     -40.442  13.223   1.559  1.00  0.00    -0.080 C 
ATOM     10  C   UNL     1     -40.428  11.964   0.728  1.00  0.00     0.039 C 
ENDBRANCH   6   7
ENDBRANCH   5   6
ENDBRANCH   3   5
ENDBRANCH   1   2
BRANCH   1  11
ATOM     11  C   UNL     1     -44.072  13.540  -1.408  1.00  0.00     0.034 C 
BRANCH  11  12
ATOM     12  C   UNL     1     -44.161  12.447  -0.359  1.00  0.00    -0.075 C 
ATOM     13  C   UNL     1     -43.769  11.172  -0.584  1.00  0.00    -0.000 C 
ATOM     14  C   UNL     1     -44.666  12.809   1.014  1.00  0.00     0.039 C 
BRANCH  13  15
ATOM     15  C   UNL     1     -43.248  10.656  -1.898  1.00  0.00     0.183 C 
BRANCH  15  16
ATOM     16  O   UNL     1     -44.038   9.589  -2.341  1.00  0.00    -0.392 OA
ATOM     17  H   UNL     1     -44.796   9.995  -2.836  1.00  0.00     0.210 HD
ENDBRANCH  15  16
ENDBRANCH  13  15
ENDBRANCH  11  12
ENDBRANCH   1  11
TORSDOF 8
ENDMDL
MODEL 4
REMARK VINA RESULT:    -5.825      1.963      3.727
REMARK INTER + INTRA:         -10.205
REMARK INTER:                  -8.636
REMARK INTRA:                  -1.569
REMARK UNBOUND:                -1.826
REMARK SMILES CC(C)=CCCC(C)=CCCC(C)=CCO
REMARK SMILES IDX 10 1 9 2 7 3 8 4 6 5 5 6 4 7 1 8 2 9 3 10 11 11 12 12 14 13
REMARK SMILES IDX 13 14 15 15 16 16
REMARK H PARENT 16 17
REMARK Flexibility Score: inf
ROOT
ATOM      1  C   UNL     1     -42.116  13.965  -1.321  1.00  0.00     0.032 C 
ENDROOT
BRANCH   1   2
ATOM      2  C   UNL     1     -40.921  13.587  -2.164  1.00  0.00    -0.028 C 
ATOM      3  C   UNL     1     -39.676  14.108  -2.053  1.00  0.00    -0.077 C 
ATOM      4  C   UNL     1     -38.616  13.615  -3.004  1.00  0.00     0.039 C 
BRANCH   3   5
ATOM      5  C   UNL     1     -39.301  15.156  -1.022  1.00  0.00     0.034 C 
BRANCH   5   6
ATOM      6  C   UNL     1     -38.577  14.523   0.172  1.00  0.00     0.032 C 
BRANCH   6   7
ATOM      7  C   UNL     1     -39.491  14.445   1.370  1.00  0.00    -0.028 C 
ATOM      8  C   UNL     1     -41.051  13.367   2.961  1.00  0.00     0.039 C 
ATOM      9  C   UNL     1     -40.136  13.323   1.765  1.00  0.00    -0.080 C 
ATOM     10  C   UNL     1     -39.941  11.999   1.069  1.00  0.00     0.039 C 
ENDBRANCH   6   7
ENDBRANCH   5   6
ENDBRANCH   3   5
ENDBRANCH   1   2
BRANCH   1  11
ATOM     11  C   UNL     1     -43.144  12.829  -1.320  1.00  0.00     0.034 C 
BRANCH  11  12
ATOM     12  C   UNL     1     -44.184  13.044  -0.236  1.00  0.00    -0.075 C 
ATOM     13  C   UNL     1     -45.235  13.884  -0.377  1.00  0.00    -0.000 C 
ATOM     14  C   UNL     1     -44.068  12.250   1.039  1.00  0.00     0.039 C 
BRANCH  13  15
ATOM     15  C   UNL     1     -45.487  14.745  -1.585  1.00  0.00     0.183 C 
BRANCH  15  16
ATOM     16  O   UNL     1     -45.018  16.043  -1.354  1.00  0.00    -0.392 OA
ATOM     17  H   UNL     1     -44.154  16.113  -1.838  1.00  0.00     0.210 HD
ENDBRANCH  15  16
ENDBRANCH  13  15
ENDBRANCH  11  12
ENDBRANCH   1  11
TORSDOF 8
ENDMDL
MODEL 5
REMARK VINA RESULT:    -5.824      1.545      4.723
REMARK INTER + INTRA:         -10.204
REMARK INTER:                  -8.248
REMARK INTRA:                  -1.957
REMARK UNBOUND:                -1.826
REMARK SMILES CC(C)=CCCC(C)=CCCC(C)=CCO
REMARK SMILES IDX 10 1 9 2 7 3 8 4 6 5 5 6 4 7 1 8 2 9 3 10 11 11 12 12 14 13
REMARK SMILES IDX 13 14 15 15 16 16
REMARK H PARENT 16 17
REMARK Flexibility Score: inf
ROOT
ATOM      1  C   UNL     1     -42.493  14.310  -1.667  1.00  0.00     0.032 C 
ENDROOT
BRANCH   1   2
ATOM      2  C   UNL     1     -42.931  12.898  -1.975  1.00  0.00    -0.028 C 
ATOM      3  C   UNL     1     -43.619  12.083  -1.140  1.00  0.00    -0.077 C 
ATOM      4  C   UNL     1     -43.949  10.693  -1.622  1.00  0.00     0.039 C 
BRANCH   3   5
ATOM      5  C   UNL     1     -44.073  12.501   0.246  1.00  0.00     0.034 C 
BRANCH   5   6
ATOM      6  C   UNL     1     -43.235  11.819   1.334  1.00  0.00     0.032 C 
BRANCH   6   7
ATOM      7  C   UNL     1     -42.194  12.765   1.878  1.00  0.00    -0.028 C 
ATOM      8  C   UNL     1     -39.921  13.695   2.190  1.00  0.00     0.039 C 
ATOM      9  C   UNL     1     -40.880  12.718   1.560  1.00  0.00    -0.080 C 
ATOM     10  C   UNL     1     -40.334  11.736   0.553  1.00  0.00     0.039 C 
ENDBRANCH   6   7
ENDBRANCH   5   6
ENDBRANCH   3   5
ENDBRANCH   1   2
BRANCH   1  11
ATOM     11  C   UNL     1     -41.379  14.739  -2.628  1.00  0.00     0.034 C 
BRANCH  11  12
ATOM     12  C   UNL     1     -40.020  14.625  -1.963  1.00  0.00    -0.075 C 
ATOM     13  C   UNL     1     -39.079  13.735  -2.353  1.00  0.00    -0.000 C 
ATOM     14  C   UNL     1     -39.684  15.581  -0.847  1.00  0.00     0.039 C 
BRANCH  13  15
ATOM     15  C   UNL     1     -39.263  12.718  -3.445  1.00  0.00     0.183 C 
BRANCH  15  16
ATOM     16  O   UNL     1     -39.772  11.528  -2.912  1.00  0.00    -0.392 OA
ATOM     17  H   UNL     1     -40.760  11.592  -2.992  1.00  0.00     0.210 HD
ENDBRANCH  15  16
ENDBRANCH  13  15
ENDBRANCH  11  12
ENDBRANCH   1  11
TORSDOF 8
ENDMDL
MODEL 6
REMARK VINA RESULT:    -5.769     11.878     13.942
REMARK INTER + INTRA:         -10.124
REMARK INTER:                  -8.606
REMARK INTRA:                  -1.518
REMARK UNBOUND:                -1.826
REMARK SMILES CC(C)=CCCC(C)=CCCC(C)=CCO
REMARK SMILES IDX 10 1 9 2 7 3 8 4 6 5 5 6 4 7 1 8 2 9 3 10 11 11 12 12 14 13
REMARK SMILES IDX 13 14 15 15 16 16
REMARK H PARENT 16 17
REMARK Flexibility Score: inf
ROOT
ATOM      1  C   UNL     1     -40.263  25.686   1.813  1.00  0.00     0.032 C 
ENDROOT
BRANCH   1   2
ATOM      2  C   UNL     1     -41.294  26.775   1.629  1.00  0.00    -0.028 C 
ATOM      3  C   UNL     1     -42.632  26.590   1.528  1.00  0.00    -0.077 C 
ATOM      4  C   UNL     1     -43.500  27.805   1.326  1.00  0.00     0.039 C 
BRANCH   3   5
ATOM      5  C   UNL     1     -43.293  25.227   1.613  1.00  0.00     0.034 C 
BRANCH   5   6
ATOM      6  C   UNL     1     -43.949  24.845   0.280  1.00  0.00     0.032 C 
BRANCH   6   7
ATOM      7  C   UNL     1     -43.195  23.720  -0.383  1.00  0.00    -0.028 C 
ATOM      8  C   UNL     1     -41.723  22.667  -2.072  1.00  0.00     0.039 C 
ATOM      9  C   UNL     1     -42.405  23.869  -1.471  1.00  0.00    -0.080 C 
ATOM     10  C   UNL     1     -42.143  25.218  -2.093  1.00  0.00     0.039 C 
ENDBRANCH   6   7
ENDBRANCH   5   6
ENDBRANCH   3   5
ENDBRANCH   1   2
BRANCH   1  11
ATOM     11  C   UNL     1     -39.624  25.329   0.467  1.00  0.00     0.034 C 
BRANCH  11  12
ATOM     12  C   UNL     1     -38.260  25.978   0.330  1.00  0.00    -0.075 C 
ATOM     13  C   UNL     1     -37.990  26.947  -0.575  1.00  0.00    -0.000 C 
ATOM     14  C   UNL     1     -37.166  25.560   1.278  1.00  0.00     0.039 C 
BRANCH  13  15
ATOM     15  C   UNL     1     -38.971  27.469  -1.589  1.00  0.00     0.183 C 
BRANCH  15  16
ATOM     16  O   UNL     1     -38.374  28.471  -2.362  1.00  0.00    -0.392 OA
ATOM     17  H   UNL     1     -37.405  28.254  -2.393  1.00  0.00     0.210 HD
ENDBRANCH  15  16
ENDBRANCH  13  15
ENDBRANCH  11  12
ENDBRANCH   1  11
TORSDOF 8
ENDMDL
MODEL 7
REMARK VINA RESULT:    -5.755      1.813      2.405
REMARK INTER + INTRA:         -10.105
REMARK INTER:                  -8.310
REMARK INTRA:                  -1.796
REMARK UNBOUND:                -1.826
REMARK SMILES CC(C)=CCCC(C)=CCCC(C)=CCO
REMARK SMILES IDX 10 1 9 2 7 3 8 4 6 5 5 6 4 7 1 8 2 9 3 10 11 11 12 12 14 13
REMARK SMILES IDX 13 14 15 15 16 16
REMARK H PARENT 16 17
REMARK Flexibility Score: inf
ROOT
ATOM      1  C   UNL     1     -43.011  11.657   1.318  1.00  0.00     0.032 C 
ENDROOT
BRANCH   1   2
ATOM      2  C   UNL     1     -42.170  12.637   2.102  1.00  0.00    -0.028 C 
ATOM      3  C   UNL     1     -40.891  12.984   1.823  1.00  0.00    -0.077 C 
ATOM      4  C   UNL     1     -40.210  13.968   2.739  1.00  0.00     0.039 C 
BRANCH   3   5
ATOM      5  C   UNL     1     -40.119  12.436   0.638  1.00  0.00     0.034 C 
BRANCH   5   6
ATOM      6  C   UNL     1     -39.492  13.566  -0.186  1.00  0.00     0.032 C 
BRANCH   6   7
ATOM      7  C   UNL     1     -40.521  14.212  -1.079  1.00  0.00    -0.028 C 
ATOM      8  C   UNL     1     -41.609  14.799  -3.224  1.00  0.00     0.039 C 
ATOM      9  C   UNL     1     -40.551  14.082  -2.426  1.00  0.00    -0.080 C 
ATOM     10  C   UNL     1     -39.577  13.202  -3.168  1.00  0.00     0.039 C 
ENDBRANCH   6   7
ENDBRANCH   5   6
ENDBRANCH   3   5
ENDBRANCH   1   2
BRANCH   1  11
ATOM     11  C   UNL     1     -44.192  12.381   0.663  1.00  0.00     0.034 C 
BRANCH  11  12
ATOM     12  C   UNL     1     -43.994  12.486  -0.838  1.00  0.00    -0.075 C 
ATOM     13  C   UNL     1     -44.552  13.462  -1.590  1.00  0.00    -0.000 C 
ATOM     14  C   UNL     1     -43.093  11.486  -1.516  1.00  0.00     0.039 C 
BRANCH  13  15
ATOM     15  C   UNL     1     -45.473  14.528  -1.063  1.00  0.00     0.183 C 
BRANCH  15  16
ATOM     16  O   UNL     1     -44.872  15.786  -1.190  1.00  0.00    -0.392 OA
ATOM     17  H   UNL     1     -45.299  16.216  -1.977  1.00  0.00     0.210 HD
ENDBRANCH  15  16
ENDBRANCH  13  15
ENDBRANCH  11  12
ENDBRANCH   1  11
TORSDOF 8
ENDMDL
MODEL 8
REMARK VINA RESULT:    -5.709      1.940      2.792
REMARK INTER + INTRA:         -10.038
REMARK INTER:                  -8.584
REMARK INTRA:                  -1.455
REMARK UNBOUND:                -1.826
REMARK SMILES CC(C)=CCCC(C)=CCCC(C)=CCO
REMARK SMILES IDX 10 1 9 2 7 3 8 4 6 5 5 6 4 7 1 8 2 9 3 10 11 11 12 12 14 13
REMARK SMILES IDX 13 14 15 15 16 16
REMARK H PARENT 16 17
REMARK Flexibility Score: inf
ROOT
ATOM      1  C   UNL     1     -42.899  11.596   1.303  1.00  0.00     0.032 C 
ENDROOT
BRANCH   1   2
ATOM      2  C   UNL     1     -41.891  12.621   1.765  1.00  0.00    -0.028 C 
ATOM      3  C   UNL     1     -40.771  12.986   1.097  1.00  0.00    -0.077 C 
ATOM      4  C   UNL     1     -39.873  14.018   1.732  1.00  0.00     0.039 C 
BRANCH   3   5
ATOM      5  C   UNL     1     -40.382  12.413  -0.253  1.00  0.00     0.034 C 
BRANCH   5   6
ATOM      6  C   UNL     1     -40.642  13.420  -1.379  1.00  0.00     0.032 C 
BRANCH   6   7
ATOM      7  C   UNL     1     -39.943  12.998  -2.647  1.00  0.00    -0.028 C 
ATOM      8  C   UNL     1     -38.169  13.031  -4.373  1.00  0.00     0.039 C 
ATOM      9  C   UNL     1     -38.762  13.505  -3.071  1.00  0.00    -0.080 C 
ATOM     10  C   UNL     1     -37.985  14.513  -2.262  1.00  0.00     0.039 C 
ENDBRANCH   6   7
ENDBRANCH   5   6
ENDBRANCH   3   5
ENDBRANCH   1   2
BRANCH   1  11
ATOM     11  C   UNL     1     -44.124  12.292   0.700  1.00  0.00     0.034 C 
BRANCH  11  12
ATOM     12  C   UNL     1     -44.086  12.230  -0.816  1.00  0.00    -0.075 C 
ATOM     13  C   UNL     1     -44.365  13.291  -1.606  1.00  0.00    -0.000 C 
ATOM     14  C   UNL     1     -43.670  10.938  -1.472  1.00  0.00     0.039 C 
BRANCH  13  15
ATOM     15  C   UNL     1     -44.796  14.642  -1.105  1.00  0.00     0.183 C 
BRANCH  15  16
ATOM     16  O   UNL     1     -46.131  14.880  -1.453  1.00  0.00    -0.392 OA
ATOM     17  H   UNL     1     -46.244  15.866  -1.448  1.00  0.00     0.210 HD
ENDBRANCH  15  16
ENDBRANCH  13  15
ENDBRANCH  11  12
ENDBRANCH   1  11
TORSDOF 8
ENDMDL
MODEL 9
REMARK VINA RESULT:    -5.587     10.886     12.185
REMARK INTER + INTRA:          -9.863
REMARK INTER:                  -8.719
REMARK INTRA:                  -1.144
REMARK UNBOUND:                -1.826
REMARK SMILES CC(C)=CCCC(C)=CCCC(C)=CCO
REMARK SMILES IDX 10 1 9 2 7 3 8 4 6 5 5 6 4 7 1 8 2 9 3 10 11 11 12 12 14 13
REMARK SMILES IDX 13 14 15 15 16 16
REMARK H PARENT 16 17
REMARK Flexibility Score: inf
ROOT
ATOM      1  C   UNL     1     -44.682  22.892  -1.935  1.00  0.00     0.032 C 
ENDROOT
BRANCH   1   2
ATOM      2  C   UNL     1     -44.292  23.162  -0.501  1.00  0.00    -0.028 C 
ATOM      3  C   UNL     1     -43.043  23.438  -0.058  1.00  0.00    -0.077 C 
ATOM      4  C   UNL     1     -42.849  23.660   1.420  1.00  0.00     0.039 C 
BRANCH   3   5
ATOM      5  C   UNL     1     -41.837  23.538  -0.975  1.00  0.00     0.034 C 
BRANCH   5   6
ATOM      6  C   UNL     1     -41.266  24.961  -0.985  1.00  0.00     0.032 C 
BRANCH   6   7
ATOM      7  C   UNL     1     -39.839  24.967  -0.496  1.00  0.00    -0.028 C 
ATOM      8  C   UNL     1     -37.954  25.599   0.979  1.00  0.00     0.039 C 
ATOM      9  C   UNL     1     -39.412  25.637   0.599  1.00  0.00    -0.080 C 
ATOM     10  C   UNL     1     -40.358  26.400   1.492  1.00  0.00     0.039 C 
ENDBRANCH   6   7
ENDBRANCH   5   6
ENDBRANCH   3   5
ENDBRANCH   1   2
BRANCH   1  11
ATOM     11  C   UNL     1     -45.433  24.096  -2.514  1.00  0.00     0.034 C 
BRANCH  11  12
ATOM     12  C   UNL     1     -44.929  24.425  -3.906  1.00  0.00    -0.075 C 
ATOM     13  C   UNL     1     -45.576  24.053  -5.034  1.00  0.00    -0.000 C 
ATOM     14  C   UNL     1     -43.674  25.249  -4.040  1.00  0.00     0.039 C 
BRANCH  13  15
ATOM     15  C   UNL     1     -46.835  23.229  -5.067  1.00  0.00     0.183 C 
BRANCH  15  16
ATOM     16  O   UNL     1     -47.413  23.286  -6.340  1.00  0.00    -0.392 OA
ATOM     17  H   UNL     1     -47.307  24.224  -6.648  1.00  0.00     0.210 HD
ENDBRANCH  15  16
ENDBRANCH  13  15
ENDBRANCH  11  12
ENDBRANCH   1  11
TORSDOF 8
ENDMDL
