MODEL 1
REMARK VINA RESULT:    -4.504      0.000      0.000
REMARK INTER + INTRA:         -15.675
REMARK INTER:                 -11.350
REMARK INTRA:                  -4.326
REMARK UNBOUND:                -4.326
REMARK SMILES CCCCCCCCCCCCCCCCCCCCCCCCCCCC(=O)[O-]
REMARK SMILES IDX 15 1 16 2 17 3 18 4 19 5 20 6 21 7 22 8 23 9 24 10 25 11
REMARK SMILES IDX 26 12 27 13 28 14 29 15 30 16 14 17 13 18 12 19 11 20 10 21
REMARK SMILES IDX 9 22 8 23 7 24 6 25 5 26 4 27 3 28 2 29 1 30
REMARK H PARENT
REMARK Flexibility Score: inf
ROOT
ATOM      1  C   UNL     1     -49.728  12.638 -29.632  1.00  0.00     0.000 C 
ENDROOT
BRANCH   1   2
ATOM      2  C   UNL     1     -48.504  11.848 -29.133  1.00  0.00     0.000 C 
BRANCH   2   3
ATOM      3  C   UNL     1     -48.624  10.313 -29.226  1.00  0.00     0.000 C 
BRANCH   3   4
ATOM      4  C   UNL     1     -47.364   9.587 -29.730  1.00  0.00     0.000 C 
BRANCH   4   5
ATOM      5  C   UNL     1     -47.555   8.068 -29.839  1.00  0.00     0.000 C 
BRANCH   5   6
ATOM      6  C   UNL     1     -48.999   7.670 -29.496  1.00  0.00     0.000 C 
BRANCH   6   7
ATOM      7  C   UNL     1     -49.350   6.251 -29.972  1.00  0.00     0.000 C 
BRANCH   7   8
ATOM      8  C   UNL     1     -50.813   5.875 -29.680  1.00  0.00     0.000 C 
BRANCH   8   9
ATOM      9  C   UNL     1     -51.768   6.286 -30.813  1.00  0.00     0.000 C 
BRANCH   9  10
ATOM     10  C   UNL     1     -52.578   7.548 -30.471  1.00  0.00     0.000 C 
BRANCH  10  11
ATOM     11  C   UNL     1     -52.365   8.688 -31.482  1.00  0.00     0.000 C 
BRANCH  11  12
ATOM     12  C   UNL     1     -51.501   8.327 -32.705  1.00  0.00     0.006 C 
BRANCH  12  13
ATOM     13  C   UNL     1     -50.155   9.065 -32.728  1.00  0.00     0.053 C 
BRANCH  13  14
ATOM     14  C   UNL     1     -49.062   8.151 -33.186  1.00  0.00     0.041 C 
ATOM     15  O   UNL     1     -47.893   8.594 -33.347  1.00  0.00    -0.550 OA
ATOM     16  O   UNL     1     -49.323   6.804 -33.396  1.00  0.00    -0.550 OA
ENDBRANCH  13  14
ENDBRANCH  12  13
ENDBRANCH  11  12
ENDBRANCH  10  11
ENDBRANCH   9  10
ENDBRANCH   8   9
ENDBRANCH   7   8
ENDBRANCH   6   7
ENDBRANCH   5   6
ENDBRANCH   4   5
ENDBRANCH   3   4
ENDBRANCH   2   3
ENDBRANCH   1   2
BRANCH   1  17
ATOM     17  C   UNL     1     -50.886  11.728 -30.073  1.00  0.00     0.000 C 
BRANCH  17  18
ATOM     18  C   UNL     1     -51.791  12.378 -31.135  1.00  0.00     0.000 C 
BRANCH  18  19
ATOM     19  C   UNL     1     -53.246  12.623 -30.695  1.00  0.00     0.000 C 
BRANCH  19  20
ATOM     20  C   UNL     1     -53.524  12.167 -29.254  1.00  0.00     0.000 C 
BRANCH  20  21
ATOM     21  C   UNL     1     -54.106  13.317 -28.418  1.00  0.00     0.000 C 
BRANCH  21  22
ATOM     22  C   UNL     1     -53.753  14.701 -28.987  1.00  0.00    -0.000 C 
BRANCH  22  23
ATOM     23  C   UNL     1     -53.056  15.606 -27.955  1.00  0.00    -0.000 C 
BRANCH  23  24
ATOM     24  C   UNL     1     -53.831  16.906 -27.692  1.00  0.00    -0.000 C 
BRANCH  24  25
ATOM     25  C   UNL     1     -53.200  18.125 -28.388  1.00  0.00    -0.000 C 
BRANCH  25  26
ATOM     26  C   UNL     1     -53.779  18.350 -29.801  1.00  0.00    -0.000 C 
BRANCH  26  27
ATOM     27  C   UNL     1     -52.705  18.610 -30.873  1.00  0.00    -0.000 C 
BRANCH  27  28
ATOM     28  C   UNL     1     -51.485  17.688 -30.736  1.00  0.00    -0.000 C 
BRANCH  28  29
ATOM     29  C   UNL     1     -51.720  16.352 -31.448  1.00  0.00    -0.003 C 
ATOM     30  C   UNL     1     -50.399  15.705 -31.855  1.00  0.00     0.004 C 
ENDBRANCH  28  29
ENDBRANCH  27  28
ENDBRANCH  26  27
ENDBRANCH  25  26
ENDBRANCH  24  25
ENDBRANCH  23  24
ENDBRANCH  22  23
ENDBRANCH  21  22
ENDBRANCH  20  21
ENDBRANCH  19  20
ENDBRANCH  18  19
ENDBRANCH  17  18
ENDBRANCH   1  17
TORSDOF 26
ENDMDL
MODEL 2
REMARK VINA RESULT:    -4.242      2.122      8.296
REMARK INTER + INTRA:         -15.016
REMARK INTER:                 -11.354
REMARK INTRA:                  -3.662
REMARK UNBOUND:                -4.326
REMARK SMILES CCCCCCCCCCCCCCCCCCCCCCCCCCCC(=O)[O-]
REMARK SMILES IDX 15 1 16 2 17 3 18 4 19 5 20 6 21 7 22 8 23 9 24 10 25 11
REMARK SMILES IDX 26 12 27 13 28 14 29 15 30 16 14 17 13 18 12 19 11 20 10 21
REMARK SMILES IDX 9 22 8 23 7 24 6 25 5 26 4 27 3 28 2 29 1 30
REMARK H PARENT
REMARK Flexibility Score: inf
ROOT
ATOM      1  C   UNL     1     -48.495  11.529 -28.920  1.00  0.00     0.000 C 
ENDROOT
BRANCH   1   2
ATOM      2  C   UNL     1     -49.684  12.414 -29.338  1.00  0.00     0.000 C 
BRANCH   2   3
ATOM      3  C   UNL     1     -50.993  11.659 -29.648  1.00  0.00     0.000 C 
BRANCH   3   4
ATOM      4  C   UNL     1     -52.107  11.821 -28.599  1.00  0.00     0.000 C 
BRANCH   4   5
ATOM      5  C   UNL     1     -53.415  12.360 -29.197  1.00  0.00     0.000 C 
BRANCH   5   6
ATOM      6  C   UNL     1     -54.067  13.384 -28.257  1.00  0.00     0.000 C 
BRANCH   6   7
ATOM      7  C   UNL     1     -54.021  14.815 -28.819  1.00  0.00     0.000 C 
BRANCH   7   8
ATOM      8  C   UNL     1     -53.117  15.745 -27.991  1.00  0.00     0.000 C 
BRANCH   8   9
ATOM      9  C   UNL     1     -53.733  17.139 -27.783  1.00  0.00     0.000 C 
BRANCH   9  10
ATOM     10  C   UNL     1     -53.287  18.145 -28.857  1.00  0.00     0.000 C 
BRANCH  10  11
ATOM     11  C   UNL     1     -51.862  17.878 -29.372  1.00  0.00     0.000 C 
BRANCH  11  12
ATOM     12  C   UNL     1     -51.728  17.766 -30.902  1.00  0.00     0.006 C 
BRANCH  12  13
ATOM     13  C   UNL     1     -52.409  16.515 -31.474  1.00  0.00     0.053 C 
BRANCH  13  14
ATOM     14  C   UNL     1     -51.425  15.396 -31.610  1.00  0.00     0.041 C 
ATOM     15  O   UNL     1     -51.829  14.214 -31.772  1.00  0.00    -0.550 OA
ATOM     16  O   UNL     1     -50.062  15.662 -31.598  1.00  0.00    -0.550 OA
ENDBRANCH  13  14
ENDBRANCH  12  13
ENDBRANCH  11  12
ENDBRANCH  10  11
ENDBRANCH   9  10
ENDBRANCH   8   9
ENDBRANCH   7   8
ENDBRANCH   6   7
ENDBRANCH   5   6
ENDBRANCH   4   5
ENDBRANCH   3   4
ENDBRANCH   2   3
ENDBRANCH   1   2
BRANCH   1  17
ATOM     17  C   UNL     1     -48.772  10.028 -29.108  1.00  0.00     0.000 C 
BRANCH  17  18
ATOM     18  C   UNL     1     -47.852   9.373 -30.155  1.00  0.00     0.000 C 
BRANCH  18  19
ATOM     19  C   UNL     1     -47.456   7.916 -29.857  1.00  0.00     0.000 C 
BRANCH  19  20
ATOM     20  C   UNL     1     -47.522   7.009 -31.096  1.00  0.00     0.000 C 
BRANCH  20  21
ATOM     21  C   UNL     1     -48.881   6.296 -31.181  1.00  0.00     0.000 C 
BRANCH  21  22
ATOM     22  C   UNL     1     -49.493   6.019 -29.799  1.00  0.00    -0.000 C 
BRANCH  22  23
ATOM     23  C   UNL     1     -50.825   6.758 -29.581  1.00  0.00    -0.000 C 
BRANCH  23  24
ATOM     24  C   UNL     1     -51.943   6.244 -30.501  1.00  0.00    -0.000 C 
BRANCH  24  25
ATOM     25  C   UNL     1     -53.175   7.166 -30.512  1.00  0.00    -0.000 C 
BRANCH  25  26
ATOM     26  C   UNL     1     -53.343   7.895 -31.861  1.00  0.00    -0.000 C 
BRANCH  26  27
ATOM     27  C   UNL     1     -53.293   9.429 -31.745  1.00  0.00    -0.000 C 
BRANCH  27  28
ATOM     28  C   UNL     1     -52.144  10.055 -32.548  1.00  0.00    -0.000 C 
BRANCH  28  29
ATOM     29  C   UNL     1     -51.058   9.019 -32.857  1.00  0.00    -0.003 C 
ATOM     30  C   UNL     1     -49.687   9.678 -32.978  1.00  0.00     0.004 C 
ENDBRANCH  28  29
ENDBRANCH  27  28
ENDBRANCH  26  27
ENDBRANCH  25  26
ENDBRANCH  24  25
ENDBRANCH  23  24
ENDBRANCH  22  23
ENDBRANCH  21  22
ENDBRANCH  20  21
ENDBRANCH  19  20
ENDBRANCH  18  19
ENDBRANCH  17  18
ENDBRANCH   1  17
TORSDOF 26
ENDMDL
MODEL 3
REMARK VINA RESULT:    -4.236      1.803      4.275
REMARK INTER + INTRA:         -15.001
REMARK INTER:                 -11.294
REMARK INTRA:                  -3.707
REMARK UNBOUND:                -4.326
REMARK SMILES CCCCCCCCCCCCCCCCCCCCCCCCCCCC(=O)[O-]
REMARK SMILES IDX 15 1 16 2 17 3 18 4 19 5 20 6 21 7 22 8 23 9 24 10 25 11
REMARK SMILES IDX 26 12 27 13 28 14 29 15 30 16 14 17 13 18 12 19 11 20 10 21
REMARK SMILES IDX 9 22 8 23 7 24 6 25 5 26 4 27 3 28 2 29 1 30
REMARK H PARENT
REMARK Flexibility Score: inf
ROOT
ATOM      1  C   UNL     1     -52.984  12.315 -32.005  1.00  0.00     0.000 C 
ENDROOT
BRANCH   1   2
ATOM      2  C   UNL     1     -52.297  10.963 -31.741  1.00  0.00     0.000 C 
BRANCH   2   3
ATOM      3  C   UNL     1     -52.386   9.939 -32.892  1.00  0.00     0.000 C 
BRANCH   3   4
ATOM      4  C   UNL     1     -53.325   8.746 -32.636  1.00  0.00     0.000 C 
BRANCH   4   5
ATOM      5  C   UNL     1     -53.595   7.919 -33.901  1.00  0.00     0.000 C 
BRANCH   5   6
ATOM      6  C   UNL     1     -53.158   6.460 -33.707  1.00  0.00     0.000 C 
BRANCH   6   7
ATOM      7  C   UNL     1     -52.583   6.197 -32.305  1.00  0.00     0.000 C 
BRANCH   7   8
ATOM      8  C   UNL     1     -51.077   5.878 -32.335  1.00  0.00     0.000 C 
BRANCH   8   9
ATOM      9  C   UNL     1     -50.325   6.674 -33.414  1.00  0.00     0.000 C 
BRANCH   9  10
ATOM     10  C   UNL     1     -49.830   8.037 -32.902  1.00  0.00     0.000 C 
BRANCH  10  11
ATOM     11  C   UNL     1     -48.380   8.342 -33.316  1.00  0.00     0.000 C 
BRANCH  11  12
ATOM     12  C   UNL     1     -47.411   8.622 -32.152  1.00  0.00     0.006 C 
BRANCH  12  13
ATOM     13  C   UNL     1     -47.686   7.750 -30.919  1.00  0.00     0.053 C 
BRANCH  13  14
ATOM     14  C   UNL     1     -47.045   8.342 -29.704  1.00  0.00     0.041 C 
ATOM     15  O   UNL     1     -46.754   9.568 -29.675  1.00  0.00    -0.550 OA
ATOM     16  O   UNL     1     -46.806   7.551 -28.588  1.00  0.00    -0.550 OA
ENDBRANCH  13  14
ENDBRANCH  12  13
ENDBRANCH  11  12
ENDBRANCH  10  11
ENDBRANCH   9  10
ENDBRANCH   8   9
ENDBRANCH   7   8
ENDBRANCH   6   7
ENDBRANCH   5   6
ENDBRANCH   4   5
ENDBRANCH   3   4
ENDBRANCH   2   3
ENDBRANCH   1   2
BRANCH   1  17
ATOM     17  C   UNL     1     -54.098  12.627 -30.992  1.00  0.00     0.000 C 
BRANCH  17  18
ATOM     18  C   UNL     1     -53.793  12.094 -29.580  1.00  0.00     0.000 C 
BRANCH  18  19
ATOM     19  C   UNL     1     -53.882  13.139 -28.453  1.00  0.00     0.000 C 
BRANCH  19  20
ATOM     20  C   UNL     1     -54.038  14.576 -28.974  1.00  0.00     0.000 C 
BRANCH  20  21
ATOM     21  C   UNL     1     -53.381  15.581 -28.015  1.00  0.00     0.000 C 
BRANCH  21  22
ATOM     22  C   UNL     1     -53.001  16.900 -28.706  1.00  0.00    -0.000 C 
BRANCH  22  23
ATOM     23  C   UNL     1     -53.193  16.847 -30.233  1.00  0.00    -0.000 C 
BRANCH  23  24
ATOM     24  C   UNL     1     -52.115  17.638 -30.990  1.00  0.00    -0.000 C 
BRANCH  24  25
ATOM     25  C   UNL     1     -50.904  16.771 -31.378  1.00  0.00    -0.000 C 
BRANCH  25  26
ATOM     26  C   UNL     1     -51.283  15.283 -31.536  1.00  0.00    -0.000 C 
BRANCH  26  27
ATOM     27  C   UNL     1     -50.175  14.314 -31.087  1.00  0.00    -0.000 C 
BRANCH  27  28
ATOM     28  C   UNL     1     -50.503  13.597 -29.769  1.00  0.00    -0.000 C 
BRANCH  28  29
ATOM     29  C   UNL     1     -49.401  12.601 -29.393  1.00  0.00    -0.003 C 
ATOM     30  C   UNL     1     -49.993  11.256 -28.979  1.00  0.00     0.004 C 
ENDBRANCH  28  29
ENDBRANCH  27  28
ENDBRANCH  26  27
ENDBRANCH  25  26
ENDBRANCH  24  25
ENDBRANCH  23  24
ENDBRANCH  22  23
ENDBRANCH  21  22
ENDBRANCH  20  21
ENDBRANCH  19  20
ENDBRANCH  18  19
ENDBRANCH  17  18
ENDBRANCH   1  17
TORSDOF 26
ENDMDL
MODEL 4
REMARK VINA RESULT:    -4.034      2.341      8.668
REMARK INTER + INTRA:         -14.491
REMARK INTER:                 -10.577
REMARK INTRA:                  -3.914
REMARK UNBOUND:                -4.326
REMARK SMILES CCCCCCCCCCCCCCCCCCCCCCCCCCCC(=O)[O-]
REMARK SMILES IDX 15 1 16 2 17 3 18 4 19 5 20 6 21 7 22 8 23 9 24 10 25 11
REMARK SMILES IDX 26 12 27 13 28 14 29 15 30 16 14 17 13 18 12 19 11 20 10 21
REMARK SMILES IDX 9 22 8 23 7 24 6 25 5 26 4 27 3 28 2 29 1 30
REMARK H PARENT
REMARK Flexibility Score: inf
ROOT
ATOM      1  C   UNL     1     -51.558  10.984 -31.862  1.00  0.00     0.000 C 
ENDROOT
BRANCH   1   2
ATOM      2  C   UNL     1     -53.012  11.476 -31.739  1.00  0.00     0.000 C 
BRANCH   2   3
ATOM      3  C   UNL     1     -53.593  11.473 -30.310  1.00  0.00     0.000 C 
BRANCH   3   4
ATOM      4  C   UNL     1     -52.591  11.816 -29.194  1.00  0.00     0.000 C 
BRANCH   4   5
ATOM      5  C   UNL     1     -53.146  12.835 -28.189  1.00  0.00     0.000 C 
BRANCH   5   6
ATOM      6  C   UNL     1     -52.880  14.272 -28.660  1.00  0.00     0.000 C 
BRANCH   6   7
ATOM      7  C   UNL     1     -54.124  15.169 -28.550  1.00  0.00     0.000 C 
BRANCH   7   8
ATOM      8  C   UNL     1     -53.921  16.345 -27.577  1.00  0.00     0.000 C 
BRANCH   8   9
ATOM      9  C   UNL     1     -53.143  17.510 -28.211  1.00  0.00     0.000 C 
BRANCH   9  10
ATOM     10  C   UNL     1     -54.072  18.573 -28.822  1.00  0.00     0.000 C 
BRANCH  10  11
ATOM     11  C   UNL     1     -53.719  18.908 -30.282  1.00  0.00     0.000 C 
BRANCH  11  12
ATOM     12  C   UNL     1     -52.431  18.250 -30.812  1.00  0.00     0.006 C 
BRANCH  12  13
ATOM     13  C   UNL     1     -52.683  16.895 -31.488  1.00  0.00     0.053 C 
BRANCH  13  14
ATOM     14  C   UNL     1     -51.422  16.093 -31.543  1.00  0.00     0.041 C 
ATOM     15  O   UNL     1     -50.317  16.630 -31.260  1.00  0.00    -0.550 OA
ATOM     16  O   UNL     1     -51.468  14.743 -31.866  1.00  0.00    -0.550 OA
ENDBRANCH  13  14
ENDBRANCH  12  13
ENDBRANCH  11  12
ENDBRANCH  10  11
ENDBRANCH   9  10
ENDBRANCH   8   9
ENDBRANCH   7   8
ENDBRANCH   6   7
ENDBRANCH   5   6
ENDBRANCH   4   5
ENDBRANCH   3   4
ENDBRANCH   2   3
ENDBRANCH   1   2
BRANCH   1  17
ATOM     17  C   UNL     1     -51.440   9.654 -32.624  1.00  0.00     0.000 C 
BRANCH  17  18
ATOM     18  C   UNL     1     -52.497   8.619 -32.196  1.00  0.00     0.000 C 
BRANCH  18  19
ATOM     19  C   UNL     1     -52.216   7.912 -30.858  1.00  0.00     0.000 C 
BRANCH  19  20
ATOM     20  C   UNL     1     -51.316   6.676 -31.006  1.00  0.00     0.000 C 
BRANCH  20  21
ATOM     21  C   UNL     1     -51.457   6.061 -32.407  1.00  0.00     0.000 C 
BRANCH  21  22
ATOM     22  C   UNL     1     -50.152   6.121 -33.215  1.00  0.00    -0.000 C 
BRANCH  22  23
ATOM     23  C   UNL     1     -48.940   6.524 -32.357  1.00  0.00    -0.000 C 
BRANCH  23  24
ATOM     24  C   UNL     1     -48.129   7.670 -32.982  1.00  0.00    -0.000 C 
BRANCH  24  25
ATOM     25  C   UNL     1     -48.161   8.953 -32.133  1.00  0.00    -0.000 C 
BRANCH  25  26
ATOM     26  C   UNL     1     -47.395   8.789 -30.804  1.00  0.00    -0.000 C 
BRANCH  26  27
ATOM     27  C   UNL     1     -48.306   8.515 -29.595  1.00  0.00    -0.000 C 
BRANCH  27  28
ATOM     28  C   UNL     1     -49.370   9.603 -29.386  1.00  0.00    -0.000 C 
BRANCH  28  29
ATOM     29  C   UNL     1     -48.833  10.739 -28.510  1.00  0.00    -0.003 C 
ATOM     30  C   UNL     1     -48.871  12.071 -29.253  1.00  0.00     0.004 C 
ENDBRANCH  28  29
ENDBRANCH  27  28
ENDBRANCH  26  27
ENDBRANCH  25  26
ENDBRANCH  24  25
ENDBRANCH  23  24
ENDBRANCH  22  23
ENDBRANCH  21  22
ENDBRANCH  20  21
ENDBRANCH  19  20
ENDBRANCH  18  19
ENDBRANCH  17  18
ENDBRANCH   1  17
TORSDOF 26
ENDMDL
MODEL 5
REMARK VINA RESULT:    -3.942      1.385      5.623
REMARK INTER + INTRA:         -14.259
REMARK INTER:                 -10.720
REMARK INTRA:                  -3.539
REMARK UNBOUND:                -4.326
REMARK SMILES CCCCCCCCCCCCCCCCCCCCCCCCCCCC(=O)[O-]
REMARK SMILES IDX 15 1 16 2 17 3 18 4 19 5 20 6 21 7 22 8 23 9 24 10 25 11
REMARK SMILES IDX 26 12 27 13 28 14 29 15 30 16 14 17 13 18 12 19 11 20 10 21
REMARK SMILES IDX 9 22 8 23 7 24 6 25 5 26 4 27 3 28 2 29 1 30
REMARK H PARENT
REMARK Flexibility Score: inf
ROOT
ATOM      1  C   UNL     1     -53.081  15.784 -28.359  1.00  0.00     0.000 C 
ENDROOT
BRANCH   1   2
ATOM      2  C   UNL     1     -54.114  14.798 -27.783  1.00  0.00     0.000 C 
BRANCH   2   3
ATOM      3  C   UNL     1     -54.125  13.398 -28.430  1.00  0.00     0.000 C 
BRANCH   3   4
ATOM      4  C   UNL     1     -52.793  12.629 -28.353  1.00  0.00     0.000 C 
BRANCH   4   5
ATOM      5  C   UNL     1     -52.817  11.316 -29.148  1.00  0.00     0.000 C 
BRANCH   5   6
ATOM      6  C   UNL     1     -53.447  11.524 -30.533  1.00  0.00     0.000 C 
BRANCH   6   7
ATOM      7  C   UNL     1     -53.082  10.404 -31.522  1.00  0.00     0.000 C 
BRANCH   7   8
ATOM      8  C   UNL     1     -52.874   9.047 -30.826  1.00  0.00     0.000 C 
BRANCH   8   9
ATOM      9  C   UNL     1     -53.785   7.945 -31.392  1.00  0.00     0.000 C 
BRANCH   9  10
ATOM     10  C   UNL     1     -52.997   6.707 -31.850  1.00  0.00     0.000 C 
BRANCH  10  11
ATOM     11  C   UNL     1     -52.759   6.677 -33.370  1.00  0.00     0.000 C 
BRANCH  11  12
ATOM     12  C   UNL     1     -51.287   6.535 -33.800  1.00  0.00     0.006 C 
BRANCH  12  13
ATOM     13  C   UNL     1     -50.299   6.833 -32.665  1.00  0.00     0.053 C 
BRANCH  13  14
ATOM     14  C   UNL     1     -48.917   7.023 -33.207  1.00  0.00     0.041 C 
ATOM     15  O   UNL     1     -48.167   6.028 -33.391  1.00  0.00    -0.550 OA
ATOM     16  O   UNL     1     -48.471   8.294 -33.546  1.00  0.00    -0.550 OA
ENDBRANCH  13  14
ENDBRANCH  12  13
ENDBRANCH  11  12
ENDBRANCH  10  11
ENDBRANCH   9  10
ENDBRANCH   8   9
ENDBRANCH   7   8
ENDBRANCH   6   7
ENDBRANCH   5   6
ENDBRANCH   4   5
ENDBRANCH   3   4
ENDBRANCH   2   3
ENDBRANCH   1   2
BRANCH   1  17
ATOM     17  C   UNL     1     -53.497  17.254 -28.186  1.00  0.00     0.000 C 
BRANCH  17  18
ATOM     18  C   UNL     1     -52.730  18.210 -29.118  1.00  0.00     0.000 C 
BRANCH  18  19
ATOM     19  C   UNL     1     -53.155  18.163 -30.596  1.00  0.00     0.000 C 
BRANCH  19  20
ATOM     20  C   UNL     1     -52.559  16.970 -31.358  1.00  0.00     0.000 C 
BRANCH  20  21
ATOM     21  C   UNL     1     -51.024  16.978 -31.274  1.00  0.00     0.000 C 
BRANCH  21  22
ATOM     22  C   UNL     1     -50.398  15.650 -31.729  1.00  0.00    -0.000 C 
BRANCH  22  23
ATOM     23  C   UNL     1     -51.188  14.423 -31.240  1.00  0.00    -0.000 C 
BRANCH  23  24
ATOM     24  C   UNL     1     -50.289  13.201 -30.999  1.00  0.00    -0.000 C 
BRANCH  24  25
ATOM     25  C   UNL     1     -49.600  13.232 -29.623  1.00  0.00    -0.000 C 
BRANCH  25  26
ATOM     26  C   UNL     1     -49.121  11.834 -29.182  1.00  0.00    -0.000 C 
BRANCH  26  27
ATOM     27  C   UNL     1     -49.524  10.709 -30.152  1.00  0.00    -0.000 C 
BRANCH  27  28
ATOM     28  C   UNL     1     -49.313   9.306 -29.564  1.00  0.00    -0.000 C 
BRANCH  28  29
ATOM     29  C   UNL     1     -48.101   8.617 -30.200  1.00  0.00    -0.003 C 
ATOM     30  C   UNL     1     -46.966   8.459 -29.194  1.00  0.00     0.004 C 
ENDBRANCH  28  29
ENDBRANCH  27  28
ENDBRANCH  26  27
ENDBRANCH  25  26
ENDBRANCH  24  25
ENDBRANCH  23  24
ENDBRANCH  22  23
ENDBRANCH  21  22
ENDBRANCH  20  21
ENDBRANCH  19  20
ENDBRANCH  18  19
ENDBRANCH  17  18
ENDBRANCH   1  17
TORSDOF 26
ENDMDL
MODEL 6
REMARK VINA RESULT:    -3.904      1.837      3.000
REMARK INTER + INTRA:         -14.163
REMARK INTER:                 -10.674
REMARK INTRA:                  -3.489
REMARK UNBOUND:                -4.326
REMARK SMILES CCCCCCCCCCCCCCCCCCCCCCCCCCCC(=O)[O-]
REMARK SMILES IDX 15 1 16 2 17 3 18 4 19 5 20 6 21 7 22 8 23 9 24 10 25 11
REMARK SMILES IDX 26 12 27 13 28 14 29 15 30 16 14 17 13 18 12 19 11 20 10 21
REMARK SMILES IDX 9 22 8 23 7 24 6 25 5 26 4 27 3 28 2 29 1 30
REMARK H PARENT
REMARK Flexibility Score: inf
ROOT
ATOM      1  C   UNL     1     -47.586  10.009 -30.034  1.00  0.00     0.000 C 
ENDROOT
BRANCH   1   2
ATOM      2  C   UNL     1     -47.354   8.572 -30.535  1.00  0.00     0.000 C 
BRANCH   2   3
ATOM      3  C   UNL     1     -47.400   8.389 -32.067  1.00  0.00     0.000 C 
BRANCH   3   4
ATOM      4  C   UNL     1     -48.143   7.133 -32.554  1.00  0.00     0.000 C 
BRANCH   4   5
ATOM      5  C   UNL     1     -49.669   7.309 -32.562  1.00  0.00     0.000 C 
BRANCH   5   6
ATOM      6  C   UNL     1     -50.362   6.066 -33.138  1.00  0.00     0.000 C 
BRANCH   6   7
ATOM      7  C   UNL     1     -51.543   6.421 -34.056  1.00  0.00     0.000 C 
BRANCH   7   8
ATOM      8  C   UNL     1     -52.713   7.067 -33.291  1.00  0.00     0.000 C 
BRANCH   8   9
ATOM      9  C   UNL     1     -53.130   6.256 -32.053  1.00  0.00     0.000 C 
BRANCH   9  10
ATOM     10  C   UNL     1     -53.552   7.154 -30.878  1.00  0.00     0.000 C 
BRANCH  10  11
ATOM     11  C   UNL     1     -52.378   7.950 -30.281  1.00  0.00     0.000 C 
BRANCH  11  12
ATOM     12  C   UNL     1     -52.595   9.472 -30.196  1.00  0.00     0.006 C 
BRANCH  12  13
ATOM     13  C   UNL     1     -53.283  10.051 -31.440  1.00  0.00     0.053 C 
BRANCH  13  14
ATOM     14  C   UNL     1     -52.317  10.862 -32.245  1.00  0.00     0.041 C 
ATOM     15  O   UNL     1     -51.316  10.309 -32.776  1.00  0.00    -0.550 OA
ATOM     16  O   UNL     1     -52.541  12.218 -32.443  1.00  0.00    -0.550 OA
ENDBRANCH  13  14
ENDBRANCH  12  13
ENDBRANCH  11  12
ENDBRANCH  10  11
ENDBRANCH   9  10
ENDBRANCH   8   9
ENDBRANCH   7   8
ENDBRANCH   6   7
ENDBRANCH   5   6
ENDBRANCH   4   5
ENDBRANCH   3   4
ENDBRANCH   2   3
ENDBRANCH   1   2
BRANCH   1  17
ATOM     17  C   UNL     1     -48.999  10.223 -29.467  1.00  0.00     0.000 C 
BRANCH  17  18
ATOM     18  C   UNL     1     -49.330  11.707 -29.223  1.00  0.00     0.000 C 
BRANCH  18  19
ATOM     19  C   UNL     1     -50.725  11.976 -28.630  1.00  0.00     0.000 C 
BRANCH  19  20
ATOM     20  C   UNL     1     -51.470  13.119 -29.337  1.00  0.00     0.000 C 
BRANCH  20  21
ATOM     21  C   UNL     1     -52.985  13.012 -29.102  1.00  0.00     0.000 C 
BRANCH  21  22
ATOM     22  C   UNL     1     -53.723  14.330 -29.385  1.00  0.00    -0.000 C 
BRANCH  22  23
ATOM     23  C   UNL     1     -54.125  15.074 -28.099  1.00  0.00    -0.000 C 
BRANCH  23  24
ATOM     24  C   UNL     1     -53.072  16.104 -27.660  1.00  0.00    -0.000 C 
BRANCH  24  25
ATOM     25  C   UNL     1     -53.623  17.540 -27.628  1.00  0.00    -0.000 C 
BRANCH  25  26
ATOM     26  C   UNL     1     -53.280  18.322 -28.914  1.00  0.00    -0.000 C 
BRANCH  26  27
ATOM     27  C   UNL     1     -51.944  17.902 -29.554  1.00  0.00    -0.000 C 
BRANCH  27  28
ATOM     28  C   UNL     1     -52.122  17.211 -30.914  1.00  0.00    -0.000 C 
BRANCH  28  29
ATOM     29  C   UNL     1     -50.771  16.781 -31.494  1.00  0.00    -0.003 C 
ATOM     30  C   UNL     1     -50.850  15.378 -32.090  1.00  0.00     0.004 C 
ENDBRANCH  28  29
ENDBRANCH  27  28
ENDBRANCH  26  27
ENDBRANCH  25  26
ENDBRANCH  24  25
ENDBRANCH  23  24
ENDBRANCH  22  23
ENDBRANCH  21  22
ENDBRANCH  20  21
ENDBRANCH  19  20
ENDBRANCH  18  19
ENDBRANCH  17  18
ENDBRANCH   1  17
TORSDOF 26
ENDMDL
MODEL 7
REMARK VINA RESULT:    -3.887      1.925      3.736
REMARK INTER + INTRA:         -14.122
REMARK INTER:                 -10.095
REMARK INTRA:                  -4.027
REMARK UNBOUND:                -4.326
REMARK SMILES CCCCCCCCCCCCCCCCCCCCCCCCCCCC(=O)[O-]
REMARK SMILES IDX 15 1 16 2 17 3 18 4 19 5 20 6 21 7 22 8 23 9 24 10 25 11
REMARK SMILES IDX 26 12 27 13 28 14 29 15 30 16 14 17 13 18 12 19 11 20 10 21
REMARK SMILES IDX 9 22 8 23 7 24 6 25 5 26 4 27 3 28 2 29 1 30
REMARK H PARENT
REMARK Flexibility Score: inf
ROOT
ATOM      1  C   UNL     1     -49.945  12.393 -29.561  1.00  0.00     0.000 C 
ENDROOT
BRANCH   1   2
ATOM      2  C   UNL     1     -48.867  11.414 -29.062  1.00  0.00     0.000 C 
BRANCH   2   3
ATOM      3  C   UNL     1     -48.816  10.057 -29.794  1.00  0.00     0.000 C 
BRANCH   3   4
ATOM      4  C   UNL     1     -50.149   9.291 -29.848  1.00  0.00     0.000 C 
BRANCH   4   5
ATOM      5  C   UNL     1     -49.998   7.805 -29.490  1.00  0.00     0.000 C 
BRANCH   5   6
ATOM      6  C   UNL     1     -48.551   7.335 -29.700  1.00  0.00     0.000 C 
BRANCH   6   7
ATOM      7  C   UNL     1     -48.466   6.021 -30.495  1.00  0.00     0.000 C 
BRANCH   7   8
ATOM      8  C   UNL     1     -47.544   6.132 -31.722  1.00  0.00     0.000 C 
BRANCH   8   9
ATOM      9  C   UNL     1     -48.324   6.329 -33.032  1.00  0.00     0.000 C 
BRANCH   9  10
ATOM     10  C   UNL     1     -49.190   7.600 -33.016  1.00  0.00     0.000 C 
BRANCH  10  11
ATOM     11  C   UNL     1     -50.654   7.331 -33.402  1.00  0.00     0.000 C 
BRANCH  11  12
ATOM     12  C   UNL     1     -51.195   5.947 -32.998  1.00  0.00     0.006 C 
BRANCH  12  13
ATOM     13  C   UNL     1     -52.729   5.881 -32.986  1.00  0.00     0.053 C 
BRANCH  13  14
ATOM     14  C   UNL     1     -53.313   7.158 -33.502  1.00  0.00     0.041 C 
ATOM     15  O   UNL     1     -53.728   8.035 -32.697  1.00  0.00    -0.550 OA
ATOM     16  O   UNL     1     -53.364   7.398 -34.868  1.00  0.00    -0.550 OA
ENDBRANCH  13  14
ENDBRANCH  12  13
ENDBRANCH  11  12
ENDBRANCH  10  11
ENDBRANCH   9  10
ENDBRANCH   8   9
ENDBRANCH   7   8
ENDBRANCH   6   7
ENDBRANCH   5   6
ENDBRANCH   4   5
ENDBRANCH   3   4
ENDBRANCH   2   3
ENDBRANCH   1   2
BRANCH   1  17
ATOM     17  C   UNL     1     -49.352  13.637 -30.243  1.00  0.00     0.000 C 
BRANCH  17  18
ATOM     18  C   UNL     1     -50.276  14.229 -31.322  1.00  0.00     0.000 C 
BRANCH  18  19
ATOM     19  C   UNL     1     -51.031  15.506 -30.910  1.00  0.00     0.000 C 
BRANCH  19  20
ATOM     20  C   UNL     1     -52.432  15.606 -31.533  1.00  0.00     0.000 C 
BRANCH  20  21
ATOM     21  C   UNL     1     -53.323  16.563 -30.725  1.00  0.00     0.000 C 
BRANCH  21  22
ATOM     22  C   UNL     1     -52.632  17.087 -29.457  1.00  0.00    -0.000 C 
BRANCH  22  23
ATOM     23  C   UNL     1     -53.359  16.666 -28.167  1.00  0.00    -0.000 C 
BRANCH  23  24
ATOM     24  C   UNL     1     -52.979  15.248 -27.713  1.00  0.00    -0.000 C 
BRANCH  24  25
ATOM     25  C   UNL     1     -54.012  14.190 -28.139  1.00  0.00    -0.000 C 
BRANCH  25  26
ATOM     26  C   UNL     1     -53.346  12.950 -28.772  1.00  0.00    -0.000 C 
BRANCH  26  27
ATOM     27  C   UNL     1     -53.938  12.562 -30.139  1.00  0.00    -0.000 C 
BRANCH  27  28
ATOM     28  C   UNL     1     -53.214  11.373 -30.789  1.00  0.00    -0.000 C 
BRANCH  28  29
ATOM     29  C   UNL     1     -52.644  11.757 -32.159  1.00  0.00    -0.003 C 
ATOM     30  C   UNL     1     -51.590  10.753 -32.617  1.00  0.00     0.004 C 
ENDBRANCH  28  29
ENDBRANCH  27  28
ENDBRANCH  26  27
ENDBRANCH  25  26
ENDBRANCH  24  25
ENDBRANCH  23  24
ENDBRANCH  22  23
ENDBRANCH  21  22
ENDBRANCH  20  21
ENDBRANCH  19  20
ENDBRANCH  18  19
ENDBRANCH  17  18
ENDBRANCH   1  17
TORSDOF 26
ENDMDL
MODEL 8
REMARK VINA RESULT:    -3.831      1.641      7.539
REMARK INTER + INTRA:         -13.980
REMARK INTER:                  -9.460
REMARK INTRA:                  -4.520
REMARK UNBOUND:                -4.326
REMARK SMILES CCCCCCCCCCCCCCCCCCCCCCCCCCCC(=O)[O-]
REMARK SMILES IDX 15 1 16 2 17 3 18 4 19 5 20 6 21 7 22 8 23 9 24 10 25 11
REMARK SMILES IDX 26 12 27 13 28 14 29 15 30 16 14 17 13 18 12 19 11 20 10 21
REMARK SMILES IDX 9 22 8 23 7 24 6 25 5 26 4 27 3 28 2 29 1 30
REMARK H PARENT
REMARK Flexibility Score: inf
ROOT
ATOM      1  C   UNL     1     -51.030  15.420 -31.104  1.00  0.00     0.000 C 
ENDROOT
BRANCH   1   2
ATOM      2  C   UNL     1     -51.565  16.780 -31.589  1.00  0.00     0.000 C 
BRANCH   2   3
ATOM      3  C   UNL     1     -52.862  17.262 -30.907  1.00  0.00     0.000 C 
BRANCH   3   4
ATOM      4  C   UNL     1     -52.776  17.425 -29.379  1.00  0.00     0.000 C 
BRANCH   4   5
ATOM      5  C   UNL     1     -53.604  16.376 -28.621  1.00  0.00     0.000 C 
BRANCH   5   6
ATOM      6  C   UNL     1     -52.716  15.220 -28.139  1.00  0.00     0.000 C 
BRANCH   6   7
ATOM      7  C   UNL     1     -53.532  14.000 -27.680  1.00  0.00     0.000 C 
BRANCH   7   8
ATOM      8  C   UNL     1     -53.476  12.839 -28.689  1.00  0.00     0.000 C 
BRANCH   8   9
ATOM      9  C   UNL     1     -52.339  11.848 -28.389  1.00  0.00     0.000 C 
BRANCH   9  10
ATOM     10  C   UNL     1     -51.017  12.248 -29.067  1.00  0.00     0.000 C 
BRANCH  10  11
ATOM     11  C   UNL     1     -49.851  11.313 -28.702  1.00  0.00     0.000 C 
BRANCH  11  12
ATOM     12  C   UNL     1     -49.311  10.456 -29.862  1.00  0.00     0.006 C 
BRANCH  12  13
ATOM     13  C   UNL     1     -49.204   8.966 -29.509  1.00  0.00     0.053 C 
BRANCH  13  14
ATOM     14  C   UNL     1     -48.012   8.353 -30.174  1.00  0.00     0.041 C 
ATOM     15  O   UNL     1     -47.880   7.100 -30.207  1.00  0.00    -0.550 OA
ATOM     16  O   UNL     1     -47.066   9.161 -30.791  1.00  0.00    -0.550 OA
ENDBRANCH  13  14
ENDBRANCH  12  13
ENDBRANCH  11  12
ENDBRANCH  10  11
ENDBRANCH   9  10
ENDBRANCH   8   9
ENDBRANCH   7   8
ENDBRANCH   6   7
ENDBRANCH   5   6
ENDBRANCH   4   5
ENDBRANCH   3   4
ENDBRANCH   2   3
ENDBRANCH   1   2
BRANCH   1  17
ATOM     17  C   UNL     1     -51.485  14.249 -31.989  1.00  0.00     0.000 C 
BRANCH  17  18
ATOM     18  C   UNL     1     -52.934  13.811 -31.710  1.00  0.00     0.000 C 
BRANCH  18  19
ATOM     19  C   UNL     1     -53.246  12.337 -32.029  1.00  0.00     0.000 C 
BRANCH  19  20
ATOM     20  C   UNL     1     -51.997  11.526 -32.409  1.00  0.00     0.000 C 
BRANCH  20  21
ATOM     21  C   UNL     1     -52.178  10.043 -32.048  1.00  0.00     0.000 C 
BRANCH  21  22
ATOM     22  C   UNL     1     -53.323   9.811 -31.050  1.00  0.00    -0.000 C 
BRANCH  22  23
ATOM     23  C   UNL     1     -53.093   8.577 -30.159  1.00  0.00    -0.000 C 
BRANCH  23  24
ATOM     24  C   UNL     1     -53.788   7.319 -30.703  1.00  0.00    -0.000 C 
BRANCH  24  25
ATOM     25  C   UNL     1     -52.868   6.085 -30.702  1.00  0.00    -0.000 C 
BRANCH  25  26
ATOM     26  C   UNL     1     -51.391   6.462 -30.941  1.00  0.00    -0.000 C 
BRANCH  26  27
ATOM     27  C   UNL     1     -50.972   6.408 -32.421  1.00  0.00    -0.000 C 
BRANCH  27  28
ATOM     28  C   UNL     1     -52.118   5.986 -33.354  1.00  0.00    -0.000 C 
BRANCH  28  29
ATOM     29  C   UNL     1     -52.485   7.116 -34.321  1.00  0.00    -0.003 C 
ATOM     30  C   UNL     1     -53.998   7.275 -34.432  1.00  0.00     0.004 C 
ENDBRANCH  28  29
ENDBRANCH  27  28
ENDBRANCH  26  27
ENDBRANCH  25  26
ENDBRANCH  24  25
ENDBRANCH  23  24
ENDBRANCH  22  23
ENDBRANCH  21  22
ENDBRANCH  20  21
ENDBRANCH  19  20
ENDBRANCH  18  19
ENDBRANCH  17  18
ENDBRANCH   1  17
TORSDOF 26
ENDMDL
MODEL 9
REMARK VINA RESULT:    -3.730      3.301      9.000
REMARK INTER + INTRA:         -13.726
REMARK INTER:                 -10.388
REMARK INTRA:                  -3.338
REMARK UNBOUND:                -4.326
REMARK SMILES CCCCCCCCCCCCCCCCCCCCCCCCCCCC(=O)[O-]
REMARK SMILES IDX 15 1 16 2 17 3 18 4 19 5 20 6 21 7 22 8 23 9 24 10 25 11
REMARK SMILES IDX 26 12 27 13 28 14 29 15 30 16 14 17 13 18 12 19 11 20 10 21
REMARK SMILES IDX 9 22 8 23 7 24 6 25 5 26 4 27 3 28 2 29 1 30
REMARK H PARENT
REMARK Flexibility Score: inf
ROOT
ATOM      1  C   UNL     1     -50.392  11.098 -29.408  1.00  0.00     0.000 C 
ENDROOT
BRANCH   1   2
ATOM      2  C   UNL     1     -50.254  11.755 -30.794  1.00  0.00     0.000 C 
BRANCH   2   3
ATOM      3  C   UNL     1     -50.704  10.886 -31.986  1.00  0.00     0.000 C 
BRANCH   3   4
ATOM      4  C   UNL     1     -52.227  10.779 -32.181  1.00  0.00     0.000 C 
BRANCH   4   5
ATOM      5  C   UNL     1     -53.019  11.279 -30.964  1.00  0.00     0.000 C 
BRANCH   5   6
ATOM      6  C   UNL     1     -53.800  12.556 -31.304  1.00  0.00     0.000 C 
BRANCH   6   7
ATOM      7  C   UNL     1     -53.510  13.705 -30.324  1.00  0.00     0.000 C 
BRANCH   7   8
ATOM      8  C   UNL     1     -52.977  13.205 -28.969  1.00  0.00     0.000 C 
BRANCH   8   9
ATOM      9  C   UNL     1     -53.221  14.208 -27.830  1.00  0.00     0.000 C 
BRANCH   9  10
ATOM     10  C   UNL     1     -53.970  15.465 -28.304  1.00  0.00     0.000 C 
BRANCH  10  11
ATOM     11  C   UNL     1     -53.528  16.740 -27.565  1.00  0.00     0.000 C 
BRANCH  11  12
ATOM     12  C   UNL     1     -52.945  17.848 -28.462  1.00  0.00     0.006 C 
BRANCH  12  13
ATOM     13  C   UNL     1     -52.212  17.300 -29.695  1.00  0.00     0.053 C 
BRANCH  13  14
ATOM     14  C   UNL     1     -52.637  18.033 -30.928  1.00  0.00     0.041 C 
ATOM     15  O   UNL     1     -51.904  18.938 -31.410  1.00  0.00    -0.550 OA
ATOM     16  O   UNL     1     -53.821  17.693 -31.568  1.00  0.00    -0.550 OA
ENDBRANCH  13  14
ENDBRANCH  12  13
ENDBRANCH  11  12
ENDBRANCH  10  11
ENDBRANCH   9  10
ENDBRANCH   8   9
ENDBRANCH   7   8
ENDBRANCH   6   7
ENDBRANCH   5   6
ENDBRANCH   4   5
ENDBRANCH   3   4
ENDBRANCH   2   3
ENDBRANCH   1   2
BRANCH   1  17
ATOM     17  C   UNL     1     -49.134  11.265 -28.540  1.00  0.00     0.000 C 
BRANCH  17  18
ATOM     18  C   UNL     1     -48.229  10.019 -28.546  1.00  0.00     0.000 C 
BRANCH  18  19
ATOM     19  C   UNL     1     -48.430   9.070 -29.741  1.00  0.00     0.000 C 
BRANCH  19  20
ATOM     20  C   UNL     1     -47.392   9.274 -30.855  1.00  0.00     0.000 C 
BRANCH  20  21
ATOM     21  C   UNL     1     -47.736   8.422 -32.087  1.00  0.00     0.000 C 
BRANCH  21  22
ATOM     22  C   UNL     1     -48.618   7.211 -31.742  1.00  0.00    -0.000 C 
BRANCH  22  23
ATOM     23  C   UNL     1     -48.388   6.020 -32.690  1.00  0.00    -0.000 C 
BRANCH  23  24
ATOM     24  C   UNL     1     -49.479   5.903 -33.766  1.00  0.00    -0.000 C 
BRANCH  24  25
ATOM     25  C   UNL     1     -50.898   5.881 -33.172  1.00  0.00    -0.000 C 
BRANCH  25  26
ATOM     26  C   UNL     1     -51.868   6.792 -33.953  1.00  0.00    -0.000 C 
BRANCH  26  27
ATOM     27  C   UNL     1     -53.235   6.969 -33.268  1.00  0.00    -0.000 C 
BRANCH  27  28
ATOM     28  C   UNL     1     -53.256   6.442 -31.825  1.00  0.00    -0.000 C 
BRANCH  28  29
ATOM     29  C   UNL     1     -53.208   7.593 -30.816  1.00  0.00    -0.003 C 
ATOM     30  C   UNL     1     -51.911   7.567 -30.013  1.00  0.00     0.004 C 
ENDBRANCH  28  29
ENDBRANCH  27  28
ENDBRANCH  26  27
ENDBRANCH  25  26
ENDBRANCH  24  25
ENDBRANCH  23  24
ENDBRANCH  22  23
ENDBRANCH  21  22
ENDBRANCH  20  21
ENDBRANCH  19  20
ENDBRANCH  18  19
ENDBRANCH  17  18
ENDBRANCH   1  17
TORSDOF 26
ENDMDL
