MODEL 1
REMARK VINA RESULT:    -5.898      0.000      0.000
REMARK INTER + INTRA:          -8.335
REMARK INTER:                  -9.345
REMARK INTRA:                   1.010
REMARK UNBOUND:                 1.010
REMARK SMILES C[C@@H]1O[C@@H](O[C@H]2CC[C@@]3(C)[C@H](CC[C@@]4(C)[C@@H]3C=C[C@@]35OC[C@]6(CCC(C)(C)C[C@H]63)[C@H](O)C[C@]45C)[C@]2(C)CO)[C@@H](O)[C@@H](O[C@@H]2O[C@@H](CO)[C@@H](O)[C@@H](O)[C@@H]2O)[C@H]1O
REMARK SMILES IDX 1 1 2 2 54 3 41 4 39 5 4 6 3 7 55 8 42 10 43 11 52 12 44 13
REMARK SMILES IDX 50 14 45 15 48 16 53 17 51 19 46 21 47 22 49 24 5 26 6 27
REMARK SMILES IDX 7 28 35 29 8 30 11 31 36 32 9 33 12 34 10 35 16 36 13 37
REMARK SMILES IDX 14 38 17 39 15 40 33 41 18 42 19 43 32 44 34 45 29 46 20 47
REMARK SMILES IDX 30 48 22 49 28 50 21 51 23 52 25 53 24 54 26 55 27 56 37 57
REMARK SMILES IDX 38 58 31 60 40 62
REMARK H PARENT 55 9 53 18 51 20 47 23 49 25 38 59 31 61 40 63
REMARK Flexibility Score: inf
ROOT
ATOM      1  C   UNL     1      18.175  31.958  29.652  1.00  0.00     0.041 C 
ATOM      2  C   UNL     1      19.521  32.608  29.979  1.00  0.00     0.150 C 
ATOM      3  C   UNL     1      19.693  32.771  31.506  1.00  0.00     0.175 C 
ATOM      4  C   UNL     1      21.082  33.363  31.841  1.00  0.00     0.186 C 
ATOM      5  C   UNL     1      22.171  32.630  31.033  1.00  0.00     0.202 C 
ATOM      6  C   UNL     1      21.809  32.408  29.529  1.00  0.00     0.282 C 
ATOM      7  O   UNL     1      20.544  31.777  29.449  1.00  0.00    -0.344 OA
ENDROOT
BRANCH   3   8
ATOM      8  O   UNL     1      18.673  33.592  32.016  1.00  0.00    -0.388 OA
ATOM      9  H   UNL     1      18.916  34.527  31.782  1.00  0.00     0.211 HD
ENDBRANCH   3   8
BRANCH   4  10
ATOM     10  O   UNL     1      21.129  34.774  31.599  1.00  0.00    -0.341 OA
BRANCH  10  11
ATOM     11  C   UNL     1      21.478  35.523  32.774  1.00  0.00     0.282 C 
ATOM     12  C   UNL     1      20.233  35.806  33.662  1.00  0.00     0.202 C 
ATOM     13  O   UNL     1      22.538  34.887  33.476  1.00  0.00    -0.341 OA
ATOM     14  C   UNL     1      19.862  34.615  34.584  1.00  0.00     0.179 C 
ATOM     15  C   UNL     1      22.116  33.689  34.094  1.00  0.00     0.178 C 
ATOM     16  C   UNL     1      21.120  34.009  35.223  1.00  0.00     0.177 C 
BRANCH  12  17
ATOM     17  O   UNL     1      19.142  36.125  32.836  1.00  0.00    -0.385 OA
ATOM     18  H   UNL     1      18.918  37.082  32.986  1.00  0.00     0.211 HD
ENDBRANCH  12  17
BRANCH  14  19
ATOM     19  O   UNL     1      18.931  34.968  35.583  1.00  0.00    -0.387 OA
ATOM     20  H   UNL     1      18.019  34.706  35.284  1.00  0.00     0.211 HD
ENDBRANCH  14  19
BRANCH  15  21
ATOM     21  C   UNL     1      23.345  32.941  34.623  1.00  0.00     0.191 C 
BRANCH  21  22
ATOM     22  O   UNL     1      24.436  33.149  33.755  1.00  0.00    -0.394 OA
ATOM     23  H   UNL     1      24.961  33.897  34.138  1.00  0.00     0.210 HD
ENDBRANCH  21  22
ENDBRANCH  15  21
BRANCH  16  24
ATOM     24  O   UNL     1      21.702  34.924  36.125  1.00  0.00    -0.387 OA
ATOM     25  H   UNL     1      21.563  35.831  35.745  1.00  0.00     0.211 HD
ENDBRANCH  16  24
ENDBRANCH  10  11
ENDBRANCH   4  10
BRANCH   6  26
ATOM     26  O   UNL     1      21.793  33.560  28.684  1.00  0.00    -0.346 OA
BRANCH  26  27
ATOM     27  C   UNL     1      21.763  33.306  27.282  1.00  0.00     0.130 C 
ATOM     28  C   UNL     1      21.349  31.875  26.896  1.00  0.00     0.033 C 
ATOM     29  C   UNL     1      20.801  34.321  26.593  1.00  0.00     0.020 C 
ATOM     30  C   UNL     1      21.605  31.668  25.401  1.00  0.00     0.010 C 
ATOM     31  C   UNL     1      20.924  34.177  25.008  1.00  0.00     0.006 C 
ATOM     32  C   UNL     1      19.320  34.131  27.040  1.00  0.00     0.017 C 
ATOM     33  C   UNL     1      20.888  32.683  24.426  1.00  0.00    -0.022 C 
ATOM     34  C   UNL     1      22.124  34.949  24.401  1.00  0.00     0.005 C 
ATOM     35  C   UNL     1      19.404  32.203  24.295  1.00  0.00     0.012 C 
ATOM     36  C   UNL     1      21.670  32.570  23.011  1.00  0.00     0.024 C 
ATOM     37  C   UNL     1      21.878  35.180  22.911  1.00  0.00     0.008 C 
ATOM     38  C   UNL     1      21.881  33.854  22.085  1.00  0.00    -0.017 C 
ATOM     39  C   UNL     1      21.327  31.327  22.201  1.00  0.00    -0.024 C 
ATOM     40  C   UNL     1      23.350  33.743  21.523  1.00  0.00     0.013 C 
ATOM     41  C   UNL     1      20.779  33.875  20.912  1.00  0.00     0.009 C 
ATOM     42  C   UNL     1      20.971  31.325  20.900  1.00  0.00     0.005 C 
ATOM     43  C   UNL     1      20.935  32.568  20.018  1.00  0.00     0.096 C 
ATOM     44  C   UNL     1      20.896  35.146  19.993  1.00  0.00     0.043 C 
ATOM     45  C   UNL     1      19.336  33.911  21.532  1.00  0.00     0.015 C 
ATOM     46  C   UNL     1      19.829  32.531  18.929  1.00  0.00     0.037 C 
ATOM     47  O   UNL     1      22.155  32.625  19.298  1.00  0.00    -0.369 OA
ATOM     48  C   UNL     1      20.183  34.992  18.608  1.00  0.00     0.124 C 
ATOM     49  C   UNL     1      20.409  33.573  17.972  1.00  0.00     0.026 C 
ATOM     50  C   UNL     1      19.617  31.165  18.225  1.00  0.00     0.014 C 
ATOM     51  C   UNL     1      21.897  33.187  18.029  1.00  0.00     0.171 C 
ATOM     52  C   UNL     1      19.821  33.478  16.525  1.00  0.00     0.013 C 
ATOM     53  C   UNL     1      18.627  31.261  17.013  1.00  0.00    -0.035 C 
ATOM     54  C   UNL     1      18.488  32.721  16.490  1.00  0.00     0.007 C 
ATOM     55  C   UNL     1      19.130  30.344  15.875  1.00  0.00     0.011 C 
ATOM     56  C   UNL     1      17.229  30.765  17.445  1.00  0.00     0.011 C 
BRANCH  29  57
ATOM     57  C   UNL     1      21.183  35.760  27.072  1.00  0.00     0.165 C 
BRANCH  57  58
ATOM     58  O   UNL     1      20.643  36.058  28.340  1.00  0.00    -0.396 OA
ATOM     59  H   UNL     1      19.836  35.497  28.457  1.00  0.00     0.210 HD
ENDBRANCH  57  58
ENDBRANCH  29  57
BRANCH  48  60
ATOM     60  O   UNL     1      20.569  36.034  17.740  1.00  0.00    -0.392 OA
ATOM     61  H   UNL     1      21.470  36.344  17.997  1.00  0.00     0.210 HD
ENDBRANCH  48  60
ENDBRANCH  26  27
ENDBRANCH   6  26
BRANCH   5  62
ATOM     62  O   UNL     1      23.411  33.256  31.226  1.00  0.00    -0.385 OA
ATOM     63  H   UNL     1      24.078  32.534  31.415  1.00  0.00     0.211 HD
ENDBRANCH   5  62
TORSDOF 14
ENDMDL
MODEL 2
REMARK VINA RESULT:    -5.872      2.155      4.089
REMARK INTER + INTRA:          -8.295
REMARK INTER:                  -6.765
REMARK INTRA:                  -1.530
REMARK UNBOUND:                 1.010
REMARK SMILES C[C@@H]1O[C@@H](O[C@H]2CC[C@@]3(C)[C@H](CC[C@@]4(C)[C@@H]3C=C[C@@]35OC[C@]6(CCC(C)(C)C[C@H]63)[C@H](O)C[C@]45C)[C@]2(C)CO)[C@@H](O)[C@@H](O[C@@H]2O[C@@H](CO)[C@@H](O)[C@@H](O)[C@@H]2O)[C@H]1O
REMARK SMILES IDX 1 1 2 2 54 3 41 4 39 5 4 6 3 7 55 8 42 10 43 11 52 12 44 13
REMARK SMILES IDX 50 14 45 15 48 16 53 17 51 19 46 21 47 22 49 24 5 26 6 27
REMARK SMILES IDX 7 28 35 29 8 30 11 31 36 32 9 33 12 34 10 35 16 36 13 37
REMARK SMILES IDX 14 38 17 39 15 40 33 41 18 42 19 43 32 44 34 45 29 46 20 47
REMARK SMILES IDX 30 48 22 49 28 50 21 51 23 52 25 53 24 54 26 55 27 56 37 57
REMARK SMILES IDX 38 58 31 60 40 62
REMARK H PARENT 55 9 53 18 51 20 47 23 49 25 38 59 31 61 40 63
REMARK Flexibility Score: inf
ROOT
ATOM      1  C   UNL     1      23.566  31.086  32.635  1.00  0.00     0.041 C 
ATOM      2  C   UNL     1      22.641  32.288  32.431  1.00  0.00     0.150 C 
ATOM      3  C   UNL     1      22.502  33.099  33.739  1.00  0.00     0.175 C 
ATOM      4  C   UNL     1      21.624  34.352  33.517  1.00  0.00     0.186 C 
ATOM      5  C   UNL     1      22.059  35.072  32.225  1.00  0.00     0.202 C 
ATOM      6  C   UNL     1      22.299  34.117  31.012  1.00  0.00     0.282 C 
ATOM      7  O   UNL     1      23.196  33.094  31.402  1.00  0.00    -0.344 OA
ENDROOT
BRANCH   3   8
ATOM      8  O   UNL     1      21.954  32.288  34.747  1.00  0.00    -0.388 OA
ATOM      9  H   UNL     1      21.006  32.125  34.498  1.00  0.00     0.211 HD
ENDBRANCH   3   8
BRANCH   4  10
ATOM     10  O   UNL     1      20.231  34.022  33.473  1.00  0.00    -0.341 OA
BRANCH  10  11
ATOM     11  C   UNL     1      19.448  34.815  34.379  1.00  0.00     0.282 C 
ATOM     12  C   UNL     1      18.340  35.611  33.630  1.00  0.00     0.202 C 
ATOM     13  O   UNL     1      18.945  34.014  35.440  1.00  0.00    -0.341 OA
ATOM     14  C   UNL     1      17.073  34.764  33.343  1.00  0.00     0.179 C 
ATOM     15  C   UNL     1      17.940  33.124  34.998  1.00  0.00     0.178 C 
ATOM     16  C   UNL     1      16.694  33.918  34.569  1.00  0.00     0.177 C 
BRANCH  12  17
ATOM     17  O   UNL     1      18.865  36.104  32.423  1.00  0.00    -0.385 OA
ATOM     18  H   UNL     1      18.864  35.357  31.766  1.00  0.00     0.211 HD
ENDBRANCH  12  17
BRANCH  14  19
ATOM     19  O   UNL     1      15.973  35.548  32.935  1.00  0.00    -0.387 OA
ATOM     20  H   UNL     1      15.663  36.095  33.706  1.00  0.00     0.211 HD
ENDBRANCH  14  19
BRANCH  15  21
ATOM     21  C   UNL     1      17.618  32.137  36.124  1.00  0.00     0.191 C 
BRANCH  21  22
ATOM     22  O   UNL     1      16.301  31.656  35.972  1.00  0.00    -0.394 OA
ATOM     23  H   UNL     1      15.900  31.643  36.877  1.00  0.00     0.210 HD
ENDBRANCH  21  22
ENDBRANCH  15  21
BRANCH  16  24
ATOM     24  O   UNL     1      16.273  34.751  35.628  1.00  0.00    -0.387 OA
ATOM     25  H   UNL     1      16.726  35.625  35.504  1.00  0.00     0.211 HD
ENDBRANCH  16  24
ENDBRANCH  10  11
ENDBRANCH   4  10
BRANCH   6  26
ATOM     26  O   UNL     1      21.149  33.507  30.422  1.00  0.00    -0.346 OA
BRANCH  26  27
ATOM     27  C   UNL     1      20.879  33.862  29.069  1.00  0.00     0.130 C 
ATOM     28  C   UNL     1      22.086  34.421  28.296  1.00  0.00     0.033 C 
ATOM     29  C   UNL     1      20.315  32.622  28.311  1.00  0.00     0.020 C 
ATOM     30  C   UNL     1      21.602  34.993  26.961  1.00  0.00     0.010 C 
ATOM     31  C   UNL     1      19.818  33.065  26.862  1.00  0.00     0.006 C 
ATOM     32  C   UNL     1      21.362  31.472  28.195  1.00  0.00     0.017 C 
ATOM     33  C   UNL     1      20.817  33.995  26.021  1.00  0.00    -0.022 C 
ATOM     34  C   UNL     1      18.393  33.680  26.851  1.00  0.00     0.005 C 
ATOM     35  C   UNL     1      21.894  33.108  25.314  1.00  0.00     0.012 C 
ATOM     36  C   UNL     1      20.023  34.920  24.953  1.00  0.00     0.024 C 
ATOM     37  C   UNL     1      17.815  33.597  25.439  1.00  0.00     0.008 C 
ATOM     38  C   UNL     1      18.578  34.501  24.418  1.00  0.00    -0.017 C 
ATOM     39  C   UNL     1      20.899  35.498  23.849  1.00  0.00    -0.024 C 
ATOM     40  C   UNL     1      17.736  35.833  24.367  1.00  0.00     0.013 C 
ATOM     41  C   UNL     1      18.705  33.803  22.975  1.00  0.00     0.009 C 
ATOM     42  C   UNL     1      20.627  35.431  22.529  1.00  0.00     0.005 C 
ATOM     43  C   UNL     1      19.352  34.831  21.947  1.00  0.00     0.096 C 
ATOM     44  C   UNL     1      17.319  33.314  22.413  1.00  0.00     0.043 C 
ATOM     45  C   UNL     1      19.614  32.525  23.074  1.00  0.00     0.015 C 
ATOM     46  C   UNL     1      19.556  34.148  20.567  1.00  0.00     0.037 C 
ATOM     47  O   UNL     1      18.447  35.892  21.699  1.00  0.00    -0.369 OA
ATOM     48  C   UNL     1      17.317  33.063  20.868  1.00  0.00     0.124 C 
ATOM     49  C   UNL     1      18.107  34.169  20.079  1.00  0.00     0.026 C 
ATOM     50  C   UNL     1      20.501  34.883  19.580  1.00  0.00     0.014 C 
ATOM     51  C   UNL     1      17.689  35.572  20.551  1.00  0.00     0.171 C 
ATOM     52  C   UNL     1      17.974  33.993  18.530  1.00  0.00     0.013 C 
ATOM     53  C   UNL     1      20.499  34.237  18.152  1.00  0.00    -0.035 C 
ATOM     54  C   UNL     1      19.229  33.370  17.908  1.00  0.00     0.007 C 
ATOM     55  C   UNL     1      20.579  35.357  17.090  1.00  0.00     0.011 C 
ATOM     56  C   UNL     1      21.742  33.334  17.989  1.00  0.00     0.011 C 
BRANCH  29  57
ATOM     57  C   UNL     1      19.150  32.017  29.161  1.00  0.00     0.165 C 
BRANCH  57  58
ATOM     58  O   UNL     1      19.566  30.899  29.913  1.00  0.00    -0.396 OA
ATOM     59  H   UNL     1      18.935  30.801  30.669  1.00  0.00     0.210 HD
ENDBRANCH  57  58
ENDBRANCH  29  57
BRANCH  48  60
ATOM     60  O   UNL     1      15.995  32.915  20.398  1.00  0.00    -0.392 OA
ATOM     61  H   UNL     1      15.981  32.208  19.709  1.00  0.00     0.210 HD
ENDBRANCH  48  60
ENDBRANCH  26  27
ENDBRANCH   6  26
BRANCH   5  62
ATOM     62  O   UNL     1      21.176  36.125  31.944  1.00  0.00    -0.385 OA
ATOM     63  H   UNL     1      20.402  36.033  32.572  1.00  0.00     0.211 HD
ENDBRANCH   5  62
TORSDOF 14
ENDMDL
MODEL 3
REMARK VINA RESULT:    -5.795      2.318     11.860
REMARK INTER + INTRA:          -8.172
REMARK INTER:                  -9.359
REMARK INTRA:                   1.187
REMARK UNBOUND:                 1.010
REMARK SMILES C[C@@H]1O[C@@H](O[C@H]2CC[C@@]3(C)[C@H](CC[C@@]4(C)[C@@H]3C=C[C@@]35OC[C@]6(CCC(C)(C)C[C@H]63)[C@H](O)C[C@]45C)[C@]2(C)CO)[C@@H](O)[C@@H](O[C@@H]2O[C@@H](CO)[C@@H](O)[C@@H](O)[C@@H]2O)[C@H]1O
REMARK SMILES IDX 1 1 2 2 54 3 41 4 39 5 4 6 3 7 55 8 42 10 43 11 52 12 44 13
REMARK SMILES IDX 50 14 45 15 48 16 53 17 51 19 46 21 47 22 49 24 5 26 6 27
REMARK SMILES IDX 7 28 35 29 8 30 11 31 36 32 9 33 12 34 10 35 16 36 13 37
REMARK SMILES IDX 14 38 17 39 15 40 33 41 18 42 19 43 32 44 34 45 29 46 20 47
REMARK SMILES IDX 30 48 22 49 28 50 21 51 23 52 25 53 24 54 26 55 27 56 37 57
REMARK SMILES IDX 38 58 31 60 40 62
REMARK H PARENT 55 9 53 18 51 20 47 23 49 25 38 59 31 61 40 63
REMARK Flexibility Score: inf
ROOT
ATOM      1  C   UNL     1      20.819  30.194  22.963  1.00  0.00     0.041 C 
ATOM      2  C   UNL     1      20.243  31.333  22.119  1.00  0.00     0.150 C 
ATOM      3  C   UNL     1      20.490  31.077  20.614  1.00  0.00     0.175 C 
ATOM      4  C   UNL     1      19.847  32.192  19.756  1.00  0.00     0.186 C 
ATOM      5  C   UNL     1      18.413  32.470  20.249  1.00  0.00     0.202 C 
ATOM      6  C   UNL     1      18.281  32.569  21.804  1.00  0.00     0.282 C 
ATOM      7  O   UNL     1      18.851  31.412  22.388  1.00  0.00    -0.344 OA
ENDROOT
BRANCH   3   8
ATOM      8  O   UNL     1      21.870  30.999  20.364  1.00  0.00    -0.388 OA
ATOM      9  H   UNL     1      22.296  31.734  20.880  1.00  0.00     0.211 HD
ENDBRANCH   3   8
BRANCH   4  10
ATOM     10  O   UNL     1      20.633  33.390  19.770  1.00  0.00    -0.341 OA
BRANCH  10  11
ATOM     11  C   UNL     1      22.039  33.128  19.636  1.00  0.00     0.282 C 
ATOM     12  C   UNL     1      22.634  33.831  18.382  1.00  0.00     0.202 C 
ATOM     13  O   UNL     1      22.724  33.449  20.839  1.00  0.00    -0.341 OA
ATOM     14  C   UNL     1      22.978  35.323  18.629  1.00  0.00     0.179 C 
ATOM     15  C   UNL     1      22.778  34.843  21.059  1.00  0.00     0.178 C 
ATOM     16  C   UNL     1      23.665  35.505  19.991  1.00  0.00     0.177 C 
BRANCH  12  17
ATOM     17  O   UNL     1      21.721  33.724  17.319  1.00  0.00    -0.385 OA
ATOM     18  H   UNL     1      20.957  33.168  17.631  1.00  0.00     0.211 HD
ENDBRANCH  12  17
BRANCH  14  19
ATOM     19  O   UNL     1      23.775  35.876  17.605  1.00  0.00    -0.387 OA
ATOM     20  H   UNL     1      23.535  36.834  17.489  1.00  0.00     0.211 HD
ENDBRANCH  14  19
BRANCH  15  21
ATOM     21  C   UNL     1      23.309  35.105  22.473  1.00  0.00     0.191 C 
BRANCH  21  22
ATOM     22  O   UNL     1      23.777  33.899  23.035  1.00  0.00    -0.394 OA
ATOM     23  H   UNL     1      23.018  33.263  23.007  1.00  0.00     0.210 HD
ENDBRANCH  21  22
ENDBRANCH  15  21
BRANCH  16  24
ATOM     24  O   UNL     1      24.937  34.894  19.984  1.00  0.00    -0.387 OA
ATOM     25  H   UNL     1      24.785  33.914  19.990  1.00  0.00     0.211 HD
ENDBRANCH  16  24
ENDBRANCH  10  11
ENDBRANCH   4  10
BRANCH   6  26
ATOM     26  O   UNL     1      18.845  33.719  22.436  1.00  0.00    -0.346 OA
BRANCH  26  27
ATOM     27  C   UNL     1      19.128  33.591  23.827  1.00  0.00     0.130 C 
ATOM     28  C   UNL     1      20.594  33.260  24.158  1.00  0.00     0.033 C 
ATOM     29  C   UNL     1      18.722  34.906  24.560  1.00  0.00     0.020 C 
ATOM     30  C   UNL     1      20.700  32.902  25.642  1.00  0.00     0.010 C 
ATOM     31  C   UNL     1      18.841  34.693  26.137  1.00  0.00     0.006 C 
ATOM     32  C   UNL     1      19.585  36.125  24.112  1.00  0.00     0.017 C 
ATOM     33  C   UNL     1      20.187  33.995  26.660  1.00  0.00    -0.022 C 
ATOM     34  C   UNL     1      17.607  33.997  26.768  1.00  0.00     0.005 C 
ATOM     35  C   UNL     1      21.324  35.064  26.778  1.00  0.00     0.012 C 
ATOM     36  C   UNL     1      19.956  33.223  28.066  1.00  0.00     0.024 C 
ATOM     37  C   UNL     1      17.571  34.289  28.268  1.00  0.00     0.008 C 
ATOM     38  C   UNL     1      18.760  33.632  29.041  1.00  0.00    -0.017 C 
ATOM     39  C   UNL     1      21.237  32.909  28.828  1.00  0.00    -0.024 C 
ATOM     40  C   UNL     1      18.170  32.278  29.591  1.00  0.00     0.013 C 
ATOM     41  C   UNL     1      19.308  34.582  30.218  1.00  0.00     0.009 C 
ATOM     42  C   UNL     1      21.452  33.190  30.129  1.00  0.00     0.005 C 
ATOM     43  C   UNL     1      20.408  33.797  31.059  1.00  0.00     0.096 C 
ATOM     44  C   UNL     1      18.167  35.068  31.186  1.00  0.00     0.043 C 
ATOM     45  C   UNL     1      19.949  35.879  29.607  1.00  0.00     0.015 C 
ATOM     46  C   UNL     1      21.006  34.725  32.151  1.00  0.00     0.037 C 
ATOM     47  O   UNL     1      19.796  32.738  31.775  1.00  0.00    -0.369 OA
ATOM     48  C   UNL     1      18.690  35.588  32.567  1.00  0.00     0.124 C 
ATOM     49  C   UNL     1      19.846  34.694  33.146  1.00  0.00     0.026 C 
ATOM     50  C   UNL     1      22.329  34.240  32.802  1.00  0.00     0.014 C 
ATOM     51  C   UNL     1      19.468  33.205  33.067  1.00  0.00     0.171 C 
ATOM     52  C   UNL     1      20.259  35.132  34.591  1.00  0.00     0.013 C 
ATOM     53  C   UNL     1      22.759  35.127  34.021  1.00  0.00    -0.035 C 
ATOM     54  C   UNL     1      21.563  35.937  34.602  1.00  0.00     0.007 C 
ATOM     55  C   UNL     1      23.358  34.220  35.119  1.00  0.00     0.011 C 
ATOM     56  C   UNL     1      23.851  36.125  33.576  1.00  0.00     0.011 C 
BRANCH  29  57
ATOM     57  C   UNL     1      17.262  35.272  24.136  1.00  0.00     0.165 C 
BRANCH  57  58
ATOM     58  O   UNL     1      17.188  35.689  22.791  1.00  0.00    -0.396 OA
ATOM     59  H   UNL     1      17.166  34.873  22.230  1.00  0.00     0.210 HD
ENDBRANCH  57  58
ENDBRANCH  29  57
BRANCH  48  60
ATOM     60  O   UNL     1      17.620  35.729  33.474  1.00  0.00    -0.392 OA
ATOM     61  H   UNL     1      17.415  36.689  33.579  1.00  0.00     0.210 HD
ENDBRANCH  48  60
ENDBRANCH  26  27
ENDBRANCH   6  26
BRANCH   5  62
ATOM     62  O   UNL     1      17.880  33.574  19.569  1.00  0.00    -0.385 OA
ATOM     63  H   UNL     1      17.097  33.896  20.102  1.00  0.00     0.211 HD
ENDBRANCH   5  62
TORSDOF 14
ENDMDL
MODEL 4
REMARK VINA RESULT:    -4.854      2.280     12.023
REMARK INTER + INTRA:          -6.682
REMARK INTER:                  -7.530
REMARK INTRA:                   0.847
REMARK UNBOUND:                 1.010
REMARK SMILES C[C@@H]1O[C@@H](O[C@H]2CC[C@@]3(C)[C@H](CC[C@@]4(C)[C@@H]3C=C[C@@]35OC[C@]6(CCC(C)(C)C[C@H]63)[C@H](O)C[C@]45C)[C@]2(C)CO)[C@@H](O)[C@@H](O[C@@H]2O[C@@H](CO)[C@@H](O)[C@@H](O)[C@@H]2O)[C@H]1O
REMARK SMILES IDX 1 1 2 2 54 3 41 4 39 5 4 6 3 7 55 8 42 10 43 11 52 12 44 13
REMARK SMILES IDX 50 14 45 15 48 16 53 17 51 19 46 21 47 22 49 24 5 26 6 27
REMARK SMILES IDX 7 28 35 29 8 30 11 31 36 32 9 33 12 34 10 35 16 36 13 37
REMARK SMILES IDX 14 38 17 39 15 40 33 41 18 42 19 43 32 44 34 45 29 46 20 47
REMARK SMILES IDX 30 48 22 49 28 50 21 51 23 52 25 53 24 54 26 55 27 56 37 57
REMARK SMILES IDX 38 58 31 60 40 62
REMARK H PARENT 55 9 53 18 51 20 47 23 49 25 38 59 31 61 40 63
REMARK Flexibility Score: inf
ROOT
ATOM      1  C   UNL     1      20.290  30.629  20.710  1.00  0.00     0.041 C 
ATOM      2  C   UNL     1      20.036  32.135  20.809  1.00  0.00     0.150 C 
ATOM      3  C   UNL     1      19.620  32.711  19.436  1.00  0.00     0.175 C 
ATOM      4  C   UNL     1      19.295  34.218  19.549  1.00  0.00     0.186 C 
ATOM      5  C   UNL     1      18.396  34.468  20.776  1.00  0.00     0.202 C 
ATOM      6  C   UNL     1      18.853  33.715  22.066  1.00  0.00     0.282 C 
ATOM      7  O   UNL     1      19.007  32.340  21.766  1.00  0.00    -0.344 OA
ENDROOT
BRANCH   3   8
ATOM      8  O   UNL     1      20.646  32.498  18.499  1.00  0.00    -0.388 OA
ATOM      9  H   UNL     1      20.660  33.296  17.906  1.00  0.00     0.211 HD
ENDBRANCH   3   8
BRANCH   4  10
ATOM     10  O   UNL     1      20.485  35.013  19.618  1.00  0.00    -0.341 OA
BRANCH  10  11
ATOM     11  C   UNL     1      21.681  34.222  19.534  1.00  0.00     0.282 C 
ATOM     12  C   UNL     1      22.582  34.672  18.349  1.00  0.00     0.202 C 
ATOM     13  O   UNL     1      22.360  34.207  20.783  1.00  0.00    -0.341 OA
ATOM     14  C   UNL     1      23.468  35.899  18.692  1.00  0.00     0.179 C 
ATOM     15  C   UNL     1      22.942  35.459  21.081  1.00  0.00     0.178 C 
ATOM     16  C   UNL     1      24.084  35.751  20.092  1.00  0.00     0.177 C 
BRANCH  12  17
ATOM     17  O   UNL     1      21.770  34.969  17.241  1.00  0.00    -0.385 OA
ATOM     18  H   UNL     1      21.465  34.107  16.850  1.00  0.00     0.211 HD
ENDBRANCH  12  17
BRANCH  14  19
ATOM     19  O   UNL     1      24.481  36.125  17.737  1.00  0.00    -0.387 OA
ATOM     20  H   UNL     1      25.368  36.010  18.173  1.00  0.00     0.211 HD
ENDBRANCH  14  19
BRANCH  15  21
ATOM     21  C   UNL     1      23.443  35.443  22.530  1.00  0.00     0.191 C 
BRANCH  21  22
ATOM     22  O   UNL     1      24.136  34.240  22.779  1.00  0.00    -0.394 OA
ATOM     23  H   UNL     1      25.096  34.476  22.836  1.00  0.00     0.210 HD
ENDBRANCH  21  22
ENDBRANCH  15  21
BRANCH  16  24
ATOM     24  O   UNL     1      25.012  34.688  20.110  1.00  0.00    -0.387 OA
ATOM     25  H   UNL     1      25.539  34.752  19.271  1.00  0.00     0.211 HD
ENDBRANCH  16  24
ENDBRANCH  10  11
ENDBRANCH   4  10
BRANCH   6  26
ATOM     26  O   UNL     1      20.046  34.174  22.703  1.00  0.00    -0.346 OA
BRANCH  26  27
ATOM     27  C   UNL     1      19.944  34.451  24.097  1.00  0.00     0.130 C 
ATOM     28  C   UNL     1      18.571  34.979  24.549  1.00  0.00     0.033 C 
ATOM     29  C   UNL     1      20.289  33.164  24.907  1.00  0.00     0.020 C 
ATOM     30  C   UNL     1      18.678  35.471  25.995  1.00  0.00     0.010 C 
ATOM     31  C   UNL     1      20.379  33.522  26.459  1.00  0.00     0.006 C 
ATOM     32  C   UNL     1      19.254  32.022  24.674  1.00  0.00     0.017 C 
ATOM     33  C   UNL     1      19.187  34.415  27.053  1.00  0.00    -0.022 C 
ATOM     34  C   UNL     1      21.746  34.120  26.885  1.00  0.00     0.005 C 
ATOM     35  C   UNL     1      17.964  33.501  27.396  1.00  0.00     0.012 C 
ATOM     36  C   UNL     1      19.663  35.271  28.345  1.00  0.00     0.024 C 
ATOM     37  C   UNL     1      21.926  33.953  28.393  1.00  0.00     0.008 C 
ATOM     38  C   UNL     1      20.914  34.808  29.221  1.00  0.00    -0.017 C 
ATOM     39  C   UNL     1      18.521  35.796  29.205  1.00  0.00    -0.024 C 
ATOM     40  C   UNL     1      21.706  36.125  29.571  1.00  0.00     0.013 C 
ATOM     41  C   UNL     1      20.409  34.032  30.537  1.00  0.00     0.009 C 
ATOM     42  C   UNL     1      18.431  35.653  30.543  1.00  0.00     0.005 C 
ATOM     43  C   UNL     1      19.506  35.008  31.411  1.00  0.00     0.096 C 
ATOM     44  C   UNL     1      21.596  33.498  31.420  1.00  0.00     0.043 C 
ATOM     45  C   UNL     1      19.565  32.772  30.127  1.00  0.00     0.015 C 
ATOM     46  C   UNL     1      18.943  34.252  32.645  1.00  0.00     0.037 C 
ATOM     47  O   UNL     1      20.307  36.044  31.951  1.00  0.00    -0.369 OA
ATOM     48  C   UNL     1      21.186  33.162  32.893  1.00  0.00     0.124 C 
ATOM     49  C   UNL     1      20.209  34.231  33.503  1.00  0.00     0.026 C 
ATOM     50  C   UNL     1      17.766  34.942  33.383  1.00  0.00     0.014 C 
ATOM     51  C   UNL     1      20.732  35.653  33.240  1.00  0.00     0.171 C 
ATOM     52  C   UNL     1      19.924  33.968  35.019  1.00  0.00     0.013 C 
ATOM     53  C   UNL     1      17.389  34.219  34.722  1.00  0.00    -0.035 C 
ATOM     54  C   UNL     1      18.551  33.326  35.247  1.00  0.00     0.007 C 
ATOM     55  C   UNL     1      17.023  35.279  35.785  1.00  0.00     0.011 C 
ATOM     56  C   UNL     1      16.152  33.322  34.496  1.00  0.00     0.011 C 
BRANCH  29  57
ATOM     57  C   UNL     1      21.642  32.595  24.367  1.00  0.00     0.165 C 
BRANCH  57  58
ATOM     58  O   UNL     1      21.700  31.189  24.455  1.00  0.00    -0.396 OA
ATOM     59  H   UNL     1      22.625  30.946  24.708  1.00  0.00     0.210 HD
ENDBRANCH  57  58
ENDBRANCH  29  57
BRANCH  48  60
ATOM     60  O   UNL     1      22.335  32.974  33.690  1.00  0.00    -0.392 OA
ATOM     61  H   UNL     1      22.192  32.190  34.273  1.00  0.00     0.210 HD
ENDBRANCH  48  60
ENDBRANCH  26  27
ENDBRANCH   6  26
BRANCH   5  62
ATOM     62  O   UNL     1      18.217  35.846  20.964  1.00  0.00    -0.385 OA
ATOM     63  H   UNL     1      18.424  36.040  21.923  1.00  0.00     0.211 HD
ENDBRANCH   5  62
TORSDOF 14
ENDMDL
MODEL 5
REMARK VINA RESULT:    -4.182      2.675     11.532
REMARK INTER + INTRA:          -5.617
REMARK INTER:                  -4.670
REMARK INTRA:                  -0.947
REMARK UNBOUND:                 1.010
REMARK SMILES C[C@@H]1O[C@@H](O[C@H]2CC[C@@]3(C)[C@H](CC[C@@]4(C)[C@@H]3C=C[C@@]35OC[C@]6(CCC(C)(C)C[C@H]63)[C@H](O)C[C@]45C)[C@]2(C)CO)[C@@H](O)[C@@H](O[C@@H]2O[C@@H](CO)[C@@H](O)[C@@H](O)[C@@H]2O)[C@H]1O
REMARK SMILES IDX 1 1 2 2 54 3 41 4 39 5 4 6 3 7 55 8 42 10 43 11 52 12 44 13
REMARK SMILES IDX 50 14 45 15 48 16 53 17 51 19 46 21 47 22 49 24 5 26 6 27
REMARK SMILES IDX 7 28 35 29 8 30 11 31 36 32 9 33 12 34 10 35 16 36 13 37
REMARK SMILES IDX 14 38 17 39 15 40 33 41 18 42 19 43 32 44 34 45 29 46 20 47
REMARK SMILES IDX 30 48 22 49 28 50 21 51 23 52 25 53 24 54 26 55 27 56 37 57
REMARK SMILES IDX 38 58 31 60 40 62
REMARK H PARENT 55 9 53 18 51 20 47 23 49 25 38 59 31 61 40 63
REMARK Flexibility Score: inf
ROOT
ATOM      1  C   UNL     1      20.421  31.973  17.761  1.00  0.00     0.041 C 
ATOM      2  C   UNL     1      20.783  32.897  18.926  1.00  0.00     0.150 C 
ATOM      3  C   UNL     1      21.704  34.043  18.450  1.00  0.00     0.175 C 
ATOM      4  C   UNL     1      22.013  35.016  19.611  1.00  0.00     0.186 C 
ATOM      5  C   UNL     1      20.714  35.357  20.368  1.00  0.00     0.202 C 
ATOM      6  C   UNL     1      19.806  34.121  20.665  1.00  0.00     0.282 C 
ATOM      7  O   UNL     1      19.574  33.419  19.458  1.00  0.00    -0.344 OA
ENDROOT
BRANCH   3   8
ATOM      8  O   UNL     1      22.894  33.512  17.925  1.00  0.00    -0.388 OA
ATOM      9  H   UNL     1      23.544  34.262  17.873  1.00  0.00     0.211 HD
ENDBRANCH   3   8
BRANCH   4  10
ATOM     10  O   UNL     1      22.997  34.480  20.504  1.00  0.00    -0.341 OA
BRANCH  10  11
ATOM     11  C   UNL     1      23.783  35.504  21.136  1.00  0.00     0.282 C 
ATOM     12  C   UNL     1      24.437  34.992  22.451  1.00  0.00     0.202 C 
ATOM     13  O   UNL     1      24.720  36.053  20.218  1.00  0.00    -0.341 OA
ATOM     14  C   UNL     1      25.746  34.195  22.208  1.00  0.00     0.179 C 
ATOM     15  C   UNL     1      25.752  35.140  19.909  1.00  0.00     0.178 C 
ATOM     16  C   UNL     1      26.620  34.894  21.155  1.00  0.00     0.177 C 
BRANCH  12  17
ATOM     17  O   UNL     1      23.514  34.187  23.140  1.00  0.00    -0.385 OA
ATOM     18  H   UNL     1      22.791  33.942  22.502  1.00  0.00     0.211 HD
ENDBRANCH  12  17
BRANCH  14  19
ATOM     19  O   UNL     1      26.485  33.986  23.391  1.00  0.00    -0.387 OA
ATOM     20  H   UNL     1      26.571  34.850  23.876  1.00  0.00     0.211 HD
ENDBRANCH  14  19
BRANCH  15  21
ATOM     21  C   UNL     1      26.581  35.700  18.748  1.00  0.00     0.191 C 
BRANCH  21  22
ATOM     22  O   UNL     1      27.913  35.894  19.166  1.00  0.00    -0.394 OA
ATOM     23  H   UNL     1      27.875  36.121  20.129  1.00  0.00     0.210 HD
ENDBRANCH  21  22
ENDBRANCH  15  21
BRANCH  16  24
ATOM     24  O   UNL     1      27.098  36.125  21.652  1.00  0.00    -0.387 OA
ATOM     25  H   UNL     1      26.907  36.809  20.959  1.00  0.00     0.211 HD
ENDBRANCH  16  24
ENDBRANCH  10  11
ENDBRANCH   4  10
BRANCH   6  26
ATOM     26  O   UNL     1      20.269  33.191  21.646  1.00  0.00    -0.346 OA
BRANCH  26  27
ATOM     27  C   UNL     1      20.177  33.616  23.003  1.00  0.00     0.130 C 
ATOM     28  C   UNL     1      18.839  34.277  23.381  1.00  0.00     0.033 C 
ATOM     29  C   UNL     1      20.431  32.401  23.945  1.00  0.00     0.020 C 
ATOM     30  C   UNL     1      18.970  34.908  24.769  1.00  0.00     0.010 C 
ATOM     31  C   UNL     1      20.536  32.910  25.453  1.00  0.00     0.006 C 
ATOM     32  C   UNL     1      19.324  31.310  23.818  1.00  0.00     0.017 C 
ATOM     33  C   UNL     1      19.402  33.936  25.937  1.00  0.00    -0.022 C 
ATOM     34  C   UNL     1      21.937  33.457  25.832  1.00  0.00     0.005 C 
ATOM     35  C   UNL     1      18.119  33.144  26.356  1.00  0.00     0.012 C 
ATOM     36  C   UNL     1      19.926  34.887  27.140  1.00  0.00     0.024 C 
ATOM     37  C   UNL     1      22.097  33.436  27.352  1.00  0.00     0.008 C 
ATOM     38  C   UNL     1      21.139  34.436  28.075  1.00  0.00    -0.017 C 
ATOM     39  C   UNL     1      18.816  35.572  27.927  1.00  0.00    -0.024 C 
ATOM     40  C   UNL     1      22.015  35.728  28.298  1.00  0.00     0.013 C 
ATOM     41  C   UNL     1      20.575  33.835  29.457  1.00  0.00     0.009 C 
ATOM     42  C   UNL     1      18.710  35.575  29.272  1.00  0.00     0.005 C 
ATOM     43  C   UNL     1      19.734  34.954  30.215  1.00  0.00     0.096 C 
ATOM     44  C   UNL     1      21.720  33.319  30.405  1.00  0.00     0.043 C 
ATOM     45  C   UNL     1      19.652  32.598  29.168  1.00  0.00     0.015 C 
ATOM     46  C   UNL     1      19.115  34.368  31.512  1.00  0.00     0.037 C 
ATOM     47  O   UNL     1      20.600  35.986  30.655  1.00  0.00    -0.369 OA
ATOM     48  C   UNL     1      21.280  33.165  31.900  1.00  0.00     0.124 C 
ATOM     49  C   UNL     1      20.372  34.352  32.384  1.00  0.00     0.026 C 
ATOM     50  C   UNL     1      17.982  35.206  32.161  1.00  0.00     0.014 C 
ATOM     51  C   UNL     1      20.990  35.703  31.982  1.00  0.00     0.171 C 
ATOM     52  C   UNL     1      20.061  34.268  33.915  1.00  0.00     0.013 C 
ATOM     53  C   UNL     1      17.550  34.651  33.562  1.00  0.00    -0.035 C 
ATOM     54  C   UNL     1      18.648  33.743  34.191  1.00  0.00     0.007 C 
ATOM     55  C   UNL     1      17.250  35.838  34.506  1.00  0.00     0.011 C 
ATOM     56  C   UNL     1      16.257  33.819  33.414  1.00  0.00     0.011 C 
BRANCH  29  57
ATOM     57  C   UNL     1      21.746  31.691  23.483  1.00  0.00     0.165 C 
BRANCH  57  58
ATOM     58  O   UNL     1      21.951  30.466  24.150  1.00  0.00    -0.396 OA
ATOM     59  H   UNL     1      21.794  30.625  25.114  1.00  0.00     0.210 HD
ENDBRANCH  57  58
ENDBRANCH  29  57
BRANCH  48  60
ATOM     60  O   UNL     1      22.408  32.985  32.726  1.00  0.00    -0.392 OA
ATOM     61  H   UNL     1      22.464  33.741  33.357  1.00  0.00     0.210 HD
ENDBRANCH  48  60
ENDBRANCH  26  27
ENDBRANCH   6  26
BRANCH   5  62
ATOM     62  O   UNL     1      21.010  36.124  21.504  1.00  0.00    -0.385 OA
ATOM     63  H   UNL     1      20.579  37.018  21.375  1.00  0.00     0.211 HD
ENDBRANCH   5  62
TORSDOF 14
ENDMDL
MODEL 6
REMARK VINA RESULT:    -3.977      2.470      5.099
REMARK INTER + INTRA:          -5.292
REMARK INTER:                  -4.295
REMARK INTRA:                  -0.997
REMARK UNBOUND:                 1.010
REMARK SMILES C[C@@H]1O[C@@H](O[C@H]2CC[C@@]3(C)[C@H](CC[C@@]4(C)[C@@H]3C=C[C@@]35OC[C@]6(CCC(C)(C)C[C@H]63)[C@H](O)C[C@]45C)[C@]2(C)CO)[C@@H](O)[C@@H](O[C@@H]2O[C@@H](CO)[C@@H](O)[C@@H](O)[C@@H]2O)[C@H]1O
REMARK SMILES IDX 1 1 2 2 54 3 41 4 39 5 4 6 3 7 55 8 42 10 43 11 52 12 44 13
REMARK SMILES IDX 50 14 45 15 48 16 53 17 51 19 46 21 47 22 49 24 5 26 6 27
REMARK SMILES IDX 7 28 35 29 8 30 11 31 36 32 9 33 12 34 10 35 16 36 13 37
REMARK SMILES IDX 14 38 17 39 15 40 33 41 18 42 19 43 32 44 34 45 29 46 20 47
REMARK SMILES IDX 30 48 22 49 28 50 21 51 23 52 25 53 24 54 26 55 27 56 37 57
REMARK SMILES IDX 38 58 31 60 40 62
REMARK H PARENT 55 9 53 18 51 20 47 23 49 25 38 59 31 61 40 63
REMARK Flexibility Score: inf
ROOT
ATOM      1  C   UNL     1      23.580  35.358  31.661  1.00  0.00     0.041 C 
ATOM      2  C   UNL     1      22.818  34.546  32.711  1.00  0.00     0.150 C 
ATOM      3  C   UNL     1      23.696  34.306  33.960  1.00  0.00     0.175 C 
ATOM      4  C   UNL     1      22.904  33.546  35.049  1.00  0.00     0.186 C 
ATOM      5  C   UNL     1      21.509  34.180  35.218  1.00  0.00     0.202 C 
ATOM      6  C   UNL     1      20.786  34.501  33.870  1.00  0.00     0.282 C 
ATOM      7  O   UNL     1      21.649  35.275  33.057  1.00  0.00    -0.344 OA
ENDROOT
BRANCH   3   8
ATOM      8  O   UNL     1      24.849  33.587  33.601  1.00  0.00    -0.388 OA
ATOM      9  H   UNL     1      24.567  32.644  33.464  1.00  0.00     0.211 HD
ENDBRANCH   3   8
BRANCH   4  10
ATOM     10  O   UNL     1      22.796  32.150  34.749  1.00  0.00    -0.341 OA
BRANCH  10  11
ATOM     11  C   UNL     1      23.447  31.324  35.728  1.00  0.00     0.282 C 
ATOM     12  C   UNL     1      22.606  30.058  36.058  1.00  0.00     0.202 C 
ATOM     13  O   UNL     1      24.778  31.027  35.326  1.00  0.00    -0.341 OA
ATOM     14  C   UNL     1      22.800  28.915  35.027  1.00  0.00     0.179 C 
ATOM     15  C   UNL     1      24.811  30.138  34.229  1.00  0.00     0.178 C 
ATOM     16  C   UNL     1      24.284  28.758  34.661  1.00  0.00     0.177 C 
BRANCH  12  17
ATOM     17  O   UNL     1      21.248  30.413  36.124  1.00  0.00    -0.385 OA
ATOM     18  H   UNL     1      21.198  31.374  36.377  1.00  0.00     0.211 HD
ENDBRANCH  12  17
BRANCH  14  19
ATOM     19  O   UNL     1      22.277  27.684  35.474  1.00  0.00    -0.387 OA
ATOM     20  H   UNL     1      23.029  27.095  35.753  1.00  0.00     0.211 HD
ENDBRANCH  14  19
BRANCH  15  21
ATOM     21  C   UNL     1      26.247  30.050  33.701  1.00  0.00     0.191 C 
BRANCH  21  22
ATOM     22  O   UNL     1      26.689  28.712  33.746  1.00  0.00    -0.394 OA
ATOM     23  H   UNL     1      27.177  28.549  32.900  1.00  0.00     0.210 HD
ENDBRANCH  21  22
ENDBRANCH  15  21
BRANCH  16  24
ATOM     24  O   UNL     1      25.017  28.296  35.774  1.00  0.00    -0.387 OA
ATOM     25  H   UNL     1      25.171  29.079  36.363  1.00  0.00     0.211 HD
ENDBRANCH  16  24
ENDBRANCH  10  11
ENDBRANCH   4  10
BRANCH   6  26
ATOM     26  O   UNL     1      20.316  33.392  33.101  1.00  0.00    -0.346 OA
BRANCH  26  27
ATOM     27  C   UNL     1      20.533  33.470  31.695  1.00  0.00     0.130 C 
ATOM     28  C   UNL     1      21.366  32.317  31.107  1.00  0.00     0.033 C 
ATOM     29  C   UNL     1      19.159  33.535  30.961  1.00  0.00     0.020 C 
ATOM     30  C   UNL     1      21.736  32.656  29.661  1.00  0.00     0.010 C 
ATOM     31  C   UNL     1      19.398  33.831  29.412  1.00  0.00     0.006 C 
ATOM     32  C   UNL     1      18.330  32.227  31.140  1.00  0.00     0.017 C 
ATOM     33  C   UNL     1      20.530  32.957  28.687  1.00  0.00    -0.022 C 
ATOM     34  C   UNL     1      19.606  35.334  29.088  1.00  0.00     0.005 C 
ATOM     35  C   UNL     1      19.938  31.570  28.269  1.00  0.00     0.012 C 
ATOM     36  C   UNL     1      21.166  33.733  27.414  1.00  0.00     0.024 C 
ATOM     37  C   UNL     1      19.318  35.580  27.607  1.00  0.00     0.008 C 
ATOM     38  C   UNL     1      20.355  34.886  26.666  1.00  0.00    -0.017 C 
ATOM     39  C   UNL     1      21.916  32.833  26.441  1.00  0.00    -0.024 C 
ATOM     40  C   UNL     1      21.408  36.014  26.344  1.00  0.00     0.013 C 
ATOM     41  C   UNL     1      19.662  34.301  25.337  1.00  0.00     0.009 C 
ATOM     42  C   UNL     1      21.728  32.811  25.105  1.00  0.00     0.005 C 
ATOM     43  C   UNL     1      20.786  33.748  24.356  1.00  0.00     0.096 C 
ATOM     44  C   UNL     1      18.798  35.375  24.580  1.00  0.00     0.043 C 
ATOM     45  C   UNL     1      18.680  33.134  25.713  1.00  0.00     0.015 C 
ATOM     46  C   UNL     1      20.131  33.106  23.103  1.00  0.00     0.037 C 
ATOM     47  O   UNL     1      21.555  34.827  23.855  1.00  0.00    -0.369 OA
ATOM     48  C   UNL     1      18.497  35.006  23.088  1.00  0.00     0.124 C 
ATOM     49  C   UNL     1      19.744  34.385  22.361  1.00  0.00     0.026 C 
ATOM     50  C   UNL     1      21.055  32.204  22.243  1.00  0.00     0.014 C 
ATOM     51  C   UNL     1      21.000  35.234  22.622  1.00  0.00     0.171 C 
ATOM     52  C   UNL     1      19.480  34.158  20.835  1.00  0.00     0.013 C 
ATOM     53  C   UNL     1      20.379  31.758  20.901  1.00  0.00    -0.035 C 
ATOM     54  C   UNL     1      19.194  32.688  20.509  1.00  0.00     0.007 C 
ATOM     55  C   UNL     1      21.438  31.758  19.776  1.00  0.00     0.011 C 
ATOM     56  C   UNL     1      19.838  30.318  21.047  1.00  0.00     0.011 C 
BRANCH  29  57
ATOM     57  C   UNL     1      18.296  34.651  31.636  1.00  0.00     0.165 C 
BRANCH  57  58
ATOM     58  O   UNL     1      16.915  34.383  31.544  1.00  0.00    -0.396 OA
ATOM     59  H   UNL     1      16.560  34.344  32.467  1.00  0.00     0.210 HD
ENDBRANCH  57  58
ENDBRANCH  29  57
BRANCH  48  60
ATOM     60  O   UNL     1      17.982  36.125  22.402  1.00  0.00    -0.392 OA
ATOM     61  H   UNL     1      18.346  36.946  22.812  1.00  0.00     0.210 HD
ENDBRANCH  48  60
ENDBRANCH  26  27
ENDBRANCH   6  26
BRANCH   5  62
ATOM     62  O   UNL     1      20.737  33.410  36.100  1.00  0.00    -0.385 OA
ATOM     63  H   UNL     1      19.786  33.697  35.985  1.00  0.00     0.211 HD
ENDBRANCH   5  62
TORSDOF 14
ENDMDL
MODEL 7
REMARK VINA RESULT:    -3.860      2.485      5.026
REMARK INTER + INTRA:          -5.107
REMARK INTER:                  -3.832
REMARK INTRA:                  -1.276
REMARK UNBOUND:                 1.010
REMARK SMILES C[C@@H]1O[C@@H](O[C@H]2CC[C@@]3(C)[C@H](CC[C@@]4(C)[C@@H]3C=C[C@@]35OC[C@]6(CCC(C)(C)C[C@H]63)[C@H](O)C[C@]45C)[C@]2(C)CO)[C@@H](O)[C@@H](O[C@@H]2O[C@@H](CO)[C@@H](O)[C@@H](O)[C@@H]2O)[C@H]1O
REMARK SMILES IDX 1 1 2 2 54 3 41 4 39 5 4 6 3 7 55 8 42 10 43 11 52 12 44 13
REMARK SMILES IDX 50 14 45 15 48 16 53 17 51 19 46 21 47 22 49 24 5 26 6 27
REMARK SMILES IDX 7 28 35 29 8 30 11 31 36 32 9 33 12 34 10 35 16 36 13 37
REMARK SMILES IDX 14 38 17 39 15 40 33 41 18 42 19 43 32 44 34 45 29 46 20 47
REMARK SMILES IDX 30 48 22 49 28 50 21 51 23 52 25 53 24 54 26 55 27 56 37 57
REMARK SMILES IDX 38 58 31 60 40 62
REMARK H PARENT 55 9 53 18 51 20 47 23 49 25 38 59 31 61 40 63
REMARK Flexibility Score: inf
ROOT
ATOM      1  C   UNL     1      23.747  36.125  32.539  1.00  0.00     0.041 C 
ATOM      2  C   UNL     1      22.830  34.984  32.985  1.00  0.00     0.150 C 
ATOM      3  C   UNL     1      23.008  34.697  34.494  1.00  0.00     0.175 C 
ATOM      4  C   UNL     1      22.032  33.593  34.961  1.00  0.00     0.186 C 
ATOM      5  C   UNL     1      20.621  33.873  34.406  1.00  0.00     0.202 C 
ATOM      6  C   UNL     1      20.598  34.287  32.899  1.00  0.00     0.282 C 
ATOM      7  O   UNL     1      21.492  35.368  32.706  1.00  0.00    -0.344 OA
ENDROOT
BRANCH   3   8
ATOM      8  O   UNL     1      24.336  34.322  34.755  1.00  0.00    -0.388 OA
ATOM      9  H   UNL     1      24.916  34.961  34.263  1.00  0.00     0.211 HD
ENDBRANCH   3   8
BRANCH   4  10
ATOM     10  O   UNL     1      22.483  32.289  34.572  1.00  0.00    -0.341 OA
BRANCH  10  11
ATOM     11  C   UNL     1      23.182  31.611  35.628  1.00  0.00     0.282 C 
ATOM     12  C   UNL     1      22.422  30.336  36.090  1.00  0.00     0.202 C 
ATOM     13  O   UNL     1      24.530  31.359  35.253  1.00  0.00    -0.341 OA
ATOM     14  C   UNL     1      22.689  29.107  35.181  1.00  0.00     0.179 C 
ATOM     15  C   UNL     1      24.621  30.365  34.253  1.00  0.00     0.178 C 
ATOM     16  C   UNL     1      24.180  29.007  34.826  1.00  0.00     0.177 C 
BRANCH  12  17
ATOM     17  O   UNL     1      21.044  30.609  36.125  1.00  0.00    -0.385 OA
ATOM     18  H   UNL     1      20.716  30.395  37.039  1.00  0.00     0.211 HD
ENDBRANCH  12  17
BRANCH  14  19
ATOM     19  O   UNL     1      22.244  27.898  35.755  1.00  0.00    -0.387 OA
ATOM     20  H   UNL     1      23.008  27.456  36.213  1.00  0.00     0.211 HD
ENDBRANCH  14  19
BRANCH  15  21
ATOM     21  C   UNL     1      26.061  30.314  33.730  1.00  0.00     0.191 C 
BRANCH  21  22
ATOM     22  O   UNL     1      26.562  29.002  33.848  1.00  0.00    -0.394 OA
ATOM     23  H   UNL     1      25.783  28.419  34.031  1.00  0.00     0.210 HD
ENDBRANCH  21  22
ENDBRANCH  15  21
BRANCH  16  24
ATOM     24  O   UNL     1      24.940  28.708  35.977  1.00  0.00    -0.387 OA
ATOM     25  H   UNL     1      24.607  29.297  36.703  1.00  0.00     0.211 HD
ENDBRANCH  16  24
ENDBRANCH  10  11
ENDBRANCH   4  10
BRANCH   6  26
ATOM     26  O   UNL     1      20.900  33.274  31.938  1.00  0.00    -0.346 OA
BRANCH  26  27
ATOM     27  C   UNL     1      20.770  33.652  30.571  1.00  0.00     0.130 C 
ATOM     28  C   UNL     1      22.062  34.181  29.924  1.00  0.00     0.033 C 
ATOM     29  C   UNL     1      20.244  32.438  29.746  1.00  0.00     0.020 C 
ATOM     30  C   UNL     1      21.725  34.782  28.557  1.00  0.00     0.010 C 
ATOM     31  C   UNL     1      19.900  32.913  28.262  1.00  0.00     0.006 C 
ATOM     32  C   UNL     1      21.262  31.258  29.714  1.00  0.00     0.017 C 
ATOM     33  C   UNL     1      21.003  33.820  27.533  1.00  0.00    -0.022 C 
ATOM     34  C   UNL     1      18.502  33.572  28.125  1.00  0.00     0.005 C 
ATOM     35  C   UNL     1      22.115  32.907  26.919  1.00  0.00     0.012 C 
ATOM     36  C   UNL     1      20.342  34.781  26.407  1.00  0.00     0.024 C 
ATOM     37  C   UNL     1      18.059  33.522  26.664  1.00  0.00     0.008 C 
ATOM     38  C   UNL     1      18.943  34.414  25.733  1.00  0.00    -0.017 C 
ATOM     39  C   UNL     1      21.336  35.343  25.399  1.00  0.00    -0.024 C 
ATOM     40  C   UNL     1      18.149  35.771  25.620  1.00  0.00     0.013 C 
ATOM     41  C   UNL     1      19.185  33.727  24.298  1.00  0.00     0.009 C 
ATOM     42  C   UNL     1      21.188  35.299  24.059  1.00  0.00     0.005 C 
ATOM     43  C   UNL     1      19.958  34.745  23.350  1.00  0.00     0.096 C 
ATOM     44  C   UNL     1      17.845  33.289  23.601  1.00  0.00     0.043 C 
ATOM     45  C   UNL     1      20.041  32.421  24.465  1.00  0.00     0.015 C 
ATOM     46  C   UNL     1      20.271  34.071  21.987  1.00  0.00     0.037 C 
ATOM     47  O   UNL     1      19.112  35.837  23.032  1.00  0.00    -0.369 OA
ATOM     48  C   UNL     1      17.982  33.054  22.059  1.00  0.00     0.124 C 
ATOM     49  C   UNL     1      18.876  34.143  21.364  1.00  0.00     0.026 C 
ATOM     50  C   UNL     1      21.327  34.787  21.104  1.00  0.00     0.014 C 
ATOM     51  C   UNL     1      18.458  35.553  21.813  1.00  0.00     0.171 C 
ATOM     52  C   UNL     1      18.886  33.989  19.807  1.00  0.00     0.013 C 
ATOM     53  C   UNL     1      21.441  34.158  19.673  1.00  0.00    -0.035 C 
ATOM     54  C   UNL     1      20.175  33.334  19.298  1.00  0.00     0.007 C 
ATOM     55  C   UNL     1      21.656  35.286  18.639  1.00  0.00     0.011 C 
ATOM     56  C   UNL     1      22.666  33.218  19.616  1.00  0.00     0.011 C 
BRANCH  29  57
ATOM     57  C   UNL     1      18.985  31.861  30.473  1.00  0.00     0.165 C 
BRANCH  57  58
ATOM     58  O   UNL     1      18.451  30.742  29.802  1.00  0.00    -0.396 OA
ATOM     59  H   UNL     1      17.690  30.410  30.341  1.00  0.00     0.210 HD
ENDBRANCH  57  58
ENDBRANCH  29  57
BRANCH  48  60
ATOM     60  O   UNL     1      16.707  32.952  21.464  1.00  0.00    -0.392 OA
ATOM     61  H   UNL     1      16.415  32.010  21.497  1.00  0.00     0.210 HD
ENDBRANCH  48  60
ENDBRANCH  26  27
ENDBRANCH   6  26
BRANCH   5  62
ATOM     62  O   UNL     1      19.768  32.802  34.707  1.00  0.00    -0.385 OA
ATOM     63  H   UNL     1      19.850  32.629  35.690  1.00  0.00     0.211 HD
ENDBRANCH   5  62
TORSDOF 14
ENDMDL
MODEL 8
REMARK VINA RESULT:    -3.823      2.692      4.928
REMARK INTER + INTRA:          -5.047
REMARK INTER:                  -4.651
REMARK INTRA:                  -0.396
REMARK UNBOUND:                 1.010
REMARK SMILES C[C@@H]1O[C@@H](O[C@H]2CC[C@@]3(C)[C@H](CC[C@@]4(C)[C@@H]3C=C[C@@]35OC[C@]6(CCC(C)(C)C[C@H]63)[C@H](O)C[C@]45C)[C@]2(C)CO)[C@@H](O)[C@@H](O[C@@H]2O[C@@H](CO)[C@@H](O)[C@@H](O)[C@@H]2O)[C@H]1O
REMARK SMILES IDX 1 1 2 2 54 3 41 4 39 5 4 6 3 7 55 8 42 10 43 11 52 12 44 13
REMARK SMILES IDX 50 14 45 15 48 16 53 17 51 19 46 21 47 22 49 24 5 26 6 27
REMARK SMILES IDX 7 28 35 29 8 30 11 31 36 32 9 33 12 34 10 35 16 36 13 37
REMARK SMILES IDX 14 38 17 39 15 40 33 41 18 42 19 43 32 44 34 45 29 46 20 47
REMARK SMILES IDX 30 48 22 49 28 50 21 51 23 52 25 53 24 54 26 55 27 56 37 57
REMARK SMILES IDX 38 58 31 60 40 62
REMARK H PARENT 55 9 53 18 51 20 47 23 49 25 38 59 31 61 40 63
REMARK Flexibility Score: inf
ROOT
ATOM      1  C   UNL     1      18.759  36.125  30.876  1.00  0.00     0.041 C 
ATOM      2  C   UNL     1      18.947  34.956  31.846  1.00  0.00     0.150 C 
ATOM      3  C   UNL     1      19.468  35.457  33.212  1.00  0.00     0.175 C 
ATOM      4  C   UNL     1      19.593  34.287  34.215  1.00  0.00     0.186 C 
ATOM      5  C   UNL     1      18.320  33.418  34.165  1.00  0.00     0.202 C 
ATOM      6  C   UNL     1      17.822  33.099  32.718  1.00  0.00     0.282 C 
ATOM      7  O   UNL     1      17.691  34.311  31.998  1.00  0.00    -0.344 OA
ENDROOT
BRANCH   3   8
ATOM      8  O   UNL     1      20.709  36.095  33.045  1.00  0.00    -0.388 OA
ATOM      9  H   UNL     1      21.163  36.072  33.929  1.00  0.00     0.211 HD
ENDBRANCH   3   8
BRANCH   4  10
ATOM     10  O   UNL     1      20.760  33.496  33.963  1.00  0.00    -0.341 OA
BRANCH  10  11
ATOM     11  C   UNL     1      21.862  33.855  34.813  1.00  0.00     0.282 C 
ATOM     12  C   UNL     1      22.334  32.650  35.676  1.00  0.00     0.202 C 
ATOM     13  O   UNL     1      22.907  34.447  34.053  1.00  0.00    -0.341 OA
ATOM     14  C   UNL     1      23.289  31.694  34.912  1.00  0.00     0.179 C 
ATOM     15  C   UNL     1      23.560  33.503  33.230  1.00  0.00     0.178 C 
ATOM     16  C   UNL     1      24.323  32.490  34.102  1.00  0.00     0.177 C 
BRANCH  12  17
ATOM     17  O   UNL     1      21.209  31.938  36.125  1.00  0.00    -0.385 OA
ATOM     18  H   UNL     1      20.769  32.482  36.832  1.00  0.00     0.211 HD
ENDBRANCH  12  17
BRANCH  14  19
ATOM     19  O   UNL     1      23.940  30.779  35.765  1.00  0.00    -0.387 OA
ATOM     20  H   UNL     1      24.616  30.271  35.240  1.00  0.00     0.211 HD
ENDBRANCH  14  19
BRANCH  15  21
ATOM     21  C   UNL     1      24.502  34.242  32.273  1.00  0.00     0.191 C 
BRANCH  21  22
ATOM     22  O   UNL     1      24.048  35.564  32.088  1.00  0.00    -0.394 OA
ATOM     23  H   UNL     1      23.544  35.572  31.235  1.00  0.00     0.210 HD
ENDBRANCH  21  22
ENDBRANCH  15  21
BRANCH  16  24
ATOM     24  O   UNL     1      25.202  33.175  34.967  1.00  0.00    -0.387 OA
ATOM     25  H   UNL     1      25.459  34.017  34.509  1.00  0.00     0.211 HD
ENDBRANCH  16  24
ENDBRANCH  10  11
ENDBRANCH   4  10
BRANCH   6  26
ATOM     26  O   UNL     1      18.609  32.195  31.941  1.00  0.00    -0.346 OA
BRANCH  26  27
ATOM     27  C   UNL     1      19.162  32.723  30.739  1.00  0.00     0.130 C 
ATOM     28  C   UNL     1      20.692  32.887  30.752  1.00  0.00     0.033 C 
ATOM     29  C   UNL     1      18.754  31.815  29.539  1.00  0.00     0.020 C 
ATOM     30  C   UNL     1      21.118  33.690  29.521  1.00  0.00     0.010 C 
ATOM     31  C   UNL     1      19.193  32.513  28.172  1.00  0.00     0.006 C 
ATOM     32  C   UNL     1      19.372  30.387  29.639  1.00  0.00     0.017 C 
ATOM     33  C   UNL     1      20.684  33.101  28.121  1.00  0.00    -0.022 C 
ATOM     34  C   UNL     1      18.189  33.581  27.665  1.00  0.00     0.005 C 
ATOM     35  C   UNL     1      21.693  31.952  27.789  1.00  0.00     0.012 C 
ATOM     36  C   UNL     1      20.813  34.321  27.063  1.00  0.00     0.024 C 
ATOM     37  C   UNL     1      18.403  33.811  26.170  1.00  0.00     0.008 C 
ATOM     38  C   UNL     1      19.784  34.470  25.851  1.00  0.00    -0.017 C 
ATOM     39  C   UNL     1      22.242  34.642  26.645  1.00  0.00    -0.024 C 
ATOM     40  C   UNL     1      19.467  36.011  25.742  1.00  0.00     0.013 C 
ATOM     41  C   UNL     1      20.432  33.883  24.501  1.00  0.00     0.009 C 
ATOM     42  C   UNL     1      22.666  34.775  25.371  1.00  0.00     0.005 C 
ATOM     43  C   UNL     1      21.753  34.698  24.152  1.00  0.00     0.096 C 
ATOM     44  C   UNL     1      19.447  33.948  23.277  1.00  0.00     0.043 C 
ATOM     45  C   UNL     1      20.793  32.366  24.694  1.00  0.00     0.015 C 
ATOM     46  C   UNL     1      22.437  34.094  22.896  1.00  0.00     0.037 C 
ATOM     47  O   UNL     1      21.413  36.023  23.782  1.00  0.00    -0.369 OA
ATOM     48  C   UNL     1      20.158  33.832  21.887  1.00  0.00     0.124 C 
ATOM     49  C   UNL     1      21.497  34.652  21.827  1.00  0.00     0.026 C 
ATOM     50  C   UNL     1      23.905  34.530  22.648  1.00  0.00     0.014 C 
ATOM     51  C   UNL     1      21.284  36.073  22.376  1.00  0.00     0.171 C 
ATOM     52  C   UNL     1      22.122  34.652  20.393  1.00  0.00     0.013 C 
ATOM     53  C   UNL     1      24.454  34.036  21.265  1.00  0.00    -0.035 C 
ATOM     54  C   UNL     1      23.304  33.682  20.277  1.00  0.00     0.007 C 
ATOM     55  C   UNL     1      25.350  35.136  20.653  1.00  0.00     0.011 C 
ATOM     56  C   UNL     1      25.320  32.774  21.473  1.00  0.00     0.011 C 
BRANCH  29  57
ATOM     57  C   UNL     1      17.208  31.588  29.600  1.00  0.00     0.165 C 
BRANCH  57  58
ATOM     58  O   UNL     1      16.879  30.244  29.870  1.00  0.00    -0.396 OA
ATOM     59  H   UNL     1      17.724  29.766  30.062  1.00  0.00     0.210 HD
ENDBRANCH  57  58
ENDBRANCH  29  57
BRANCH  48  60
ATOM     60  O   UNL     1      19.269  34.185  20.851  1.00  0.00    -0.392 OA
ATOM     61  H   UNL     1      19.733  34.793  20.227  1.00  0.00     0.210 HD
ENDBRANCH  48  60
ENDBRANCH  26  27
ENDBRANCH   6  26
BRANCH   5  62
ATOM     62  O   UNL     1      18.487  32.279  34.965  1.00  0.00    -0.385 OA
ATOM     63  H   UNL     1      18.662  31.511  34.349  1.00  0.00     0.211 HD
ENDBRANCH   5  62
TORSDOF 14
ENDMDL
MODEL 9
REMARK VINA RESULT:    -3.598      1.622      2.067
REMARK INTER + INTRA:          -4.691
REMARK INTER:                  -5.869
REMARK INTRA:                   1.178
REMARK UNBOUND:                 1.010
REMARK SMILES C[C@@H]1O[C@@H](O[C@H]2CC[C@@]3(C)[C@H](CC[C@@]4(C)[C@@H]3C=C[C@@]35OC[C@]6(CCC(C)(C)C[C@H]63)[C@H](O)C[C@]45C)[C@]2(C)CO)[C@@H](O)[C@@H](O[C@@H]2O[C@@H](CO)[C@@H](O)[C@@H](O)[C@@H]2O)[C@H]1O
REMARK SMILES IDX 1 1 2 2 54 3 41 4 39 5 4 6 3 7 55 8 42 10 43 11 52 12 44 13
REMARK SMILES IDX 50 14 45 15 48 16 53 17 51 19 46 21 47 22 49 24 5 26 6 27
REMARK SMILES IDX 7 28 35 29 8 30 11 31 36 32 9 33 12 34 10 35 16 36 13 37
REMARK SMILES IDX 14 38 17 39 15 40 33 41 18 42 19 43 32 44 34 45 29 46 20 47
REMARK SMILES IDX 30 48 22 49 28 50 21 51 23 52 25 53 24 54 26 55 27 56 37 57
REMARK SMILES IDX 38 58 31 60 40 62
REMARK H PARENT 55 9 53 18 51 20 47 23 49 25 38 59 31 61 40 63
REMARK Flexibility Score: inf
ROOT
ATOM      1  C   UNL     1      20.245  31.281  29.035  1.00  0.00     0.041 C 
ATOM      2  C   UNL     1      20.567  32.713  29.473  1.00  0.00     0.150 C 
ATOM      3  C   UNL     1      20.623  32.813  31.014  1.00  0.00     0.175 C 
ATOM      4  C   UNL     1      21.016  34.242  31.456  1.00  0.00     0.186 C 
ATOM      5  C   UNL     1      22.217  34.734  30.623  1.00  0.00     0.202 C 
ATOM      6  C   UNL     1      22.093  34.445  29.092  1.00  0.00     0.282 C 
ATOM      7  O   UNL     1      21.819  33.069  28.905  1.00  0.00    -0.344 OA
ENDROOT
BRANCH   3   8
ATOM      8  O   UNL     1      19.379  32.456  31.561  1.00  0.00    -0.388 OA
ATOM      9  H   UNL     1      18.984  31.776  30.953  1.00  0.00     0.211 HD
ENDBRANCH   3   8
BRANCH   4  10
ATOM     10  O   UNL     1      19.915  35.152  31.350  1.00  0.00    -0.341 OA
BRANCH  10  11
ATOM     11  C   UNL     1      19.715  35.916  32.550  1.00  0.00     0.282 C 
ATOM     12  C   UNL     1      18.225  35.900  32.996  1.00  0.00     0.202 C 
ATOM     13  O   UNL     1      20.612  35.491  33.569  1.00  0.00    -0.341 OA
ATOM     14  C   UNL     1      17.843  34.626  33.794  1.00  0.00     0.179 C 
ATOM     15  C   UNL     1      20.279  34.211  34.063  1.00  0.00     0.178 C 
ATOM     16  C   UNL     1      18.937  34.274  34.814  1.00  0.00     0.177 C 
BRANCH  12  17
ATOM     17  O   UNL     1      17.405  36.012  31.860  1.00  0.00    -0.385 OA
ATOM     18  H   UNL     1      16.816  35.212  31.833  1.00  0.00     0.211 HD
ENDBRANCH  12  17
BRANCH  14  19
ATOM     19  O   UNL     1      16.595  34.741  34.441  1.00  0.00    -0.387 OA
ATOM     20  H   UNL     1      16.740  34.753  35.425  1.00  0.00     0.211 HD
ENDBRANCH  14  19
BRANCH  15  21
ATOM     21  C   UNL     1      21.409  33.719  34.973  1.00  0.00     0.191 C 
BRANCH  21  22
ATOM     22  O   UNL     1      22.157  32.726  34.307  1.00  0.00    -0.394 OA
ATOM     23  H   UNL     1      21.905  32.779  33.351  1.00  0.00     0.210 HD
ENDBRANCH  21  22
ENDBRANCH  15  21
BRANCH  16  24
ATOM     24  O   UNL     1      19.003  35.259  35.822  1.00  0.00    -0.387 OA
ATOM     25  H   UNL     1      18.306  35.034  36.491  1.00  0.00     0.211 HD
ENDBRANCH  16  24
ENDBRANCH  10  11
ENDBRANCH   4  10
BRANCH   6  26
ATOM     26  O   UNL     1      21.127  35.201  28.360  1.00  0.00    -0.346 OA
BRANCH  26  27
ATOM     27  C   UNL     1      21.048  34.929  26.964  1.00  0.00     0.130 C 
ATOM     28  C   UNL     1      21.771  33.647  26.516  1.00  0.00     0.033 C 
ATOM     29  C   UNL     1      19.551  34.848  26.536  1.00  0.00     0.020 C 
ATOM     30  C   UNL     1      21.826  33.614  24.987  1.00  0.00     0.010 C 
ATOM     31  C   UNL     1      19.457  34.752  24.946  1.00  0.00     0.006 C 
ATOM     32  C   UNL     1      18.810  33.645  27.195  1.00  0.00     0.017 C 
ATOM     33  C   UNL     1      20.437  33.699  24.239  1.00  0.00    -0.022 C 
ATOM     34  C   UNL     1      19.555  36.125  24.230  1.00  0.00     0.005 C 
ATOM     35  C   UNL     1      19.808  32.268  24.303  1.00  0.00     0.012 C 
ATOM     36  C   UNL     1      20.777  34.125  22.713  1.00  0.00     0.024 C 
ATOM     37  C   UNL     1      18.961  36.010  22.827  1.00  0.00     0.008 C 
ATOM     38  C   UNL     1      19.799  35.082  21.890  1.00  0.00    -0.017 C 
ATOM     39  C   UNL     1      21.332  32.995  21.854  1.00  0.00    -0.024 C 
ATOM     40  C   UNL     1      20.734  36.070  21.092  1.00  0.00     0.013 C 
ATOM     41  C   UNL     1      18.862  34.208  20.916  1.00  0.00     0.009 C 
ATOM     42  C   UNL     1      20.874  32.654  20.632  1.00  0.00     0.005 C 
ATOM     43  C   UNL     1      19.774  33.404  19.889  1.00  0.00     0.096 C 
ATOM     44  C   UNL     1      17.833  35.088  20.115  1.00  0.00     0.043 C 
ATOM     45  C   UNL     1      18.010  33.193  21.760  1.00  0.00     0.015 C 
ATOM     46  C   UNL     1      18.891  32.493  18.994  1.00  0.00     0.037 C 
ATOM     47  O   UNL     1      20.394  34.308  18.992  1.00  0.00    -0.369 OA
ATOM     48  C   UNL     1      17.241  34.374  18.853  1.00  0.00     0.124 C 
ATOM     49  C   UNL     1      18.326  33.563  18.058  1.00  0.00     0.026 C 
ATOM     50  C   UNL     1      19.641  31.386  18.207  1.00  0.00     0.014 C 
ATOM     51  C   UNL     1      19.587  34.417  17.839  1.00  0.00     0.171 C 
ATOM     52  C   UNL     1      17.760  32.978  16.722  1.00  0.00     0.013 C 
ATOM     53  C   UNL     1      18.714  30.643  17.183  1.00  0.00    -0.035 C 
ATOM     54  C   UNL     1      17.450  31.481  16.830  1.00  0.00     0.007 C 
ATOM     55  C   UNL     1      19.518  30.342  15.899  1.00  0.00     0.011 C 
ATOM     56  C   UNL     1      18.252  29.297  17.785  1.00  0.00     0.011 C 
BRANCH  29  57
ATOM     57  C   UNL     1      18.817  36.117  27.082  1.00  0.00     0.165 C 
BRANCH  57  58
ATOM     58  O   UNL     1      18.312  35.920  28.384  1.00  0.00    -0.396 OA
ATOM     59  H   UNL     1      17.442  35.457  28.295  1.00  0.00     0.210 HD
ENDBRANCH  57  58
ENDBRANCH  29  57
BRANCH  48  60
ATOM     60  O   UNL     1      16.566  35.305  18.037  1.00  0.00    -0.392 OA
ATOM     61  H   UNL     1      16.420  34.901  17.148  1.00  0.00     0.210 HD
ENDBRANCH  48  60
ENDBRANCH  26  27
ENDBRANCH   6  26
BRANCH   5  62
ATOM     62  O   UNL     1      22.486  36.078  30.921  1.00  0.00    -0.385 OA
ATOM     63  H   UNL     1      22.100  36.626  30.177  1.00  0.00     0.211 HD
ENDBRANCH   5  62
TORSDOF 14
ENDMDL
