MODEL 1
REMARK VINA RESULT:    -3.740      0.000      0.000
REMARK INTER + INTRA:          -6.142
REMARK INTER:                  -5.708
REMARK INTRA:                  -0.434
REMARK UNBOUND:                -0.434
REMARK SMILES CC1=CCC[C@@H](C)C(=O)C[C@@H](C(C)C)C(=O)C1
REMARK SMILES IDX 8 1 9 2 6 3 7 4 5 5 4 6 3 7 2 8 1 9 10 11 11 12 15 13 16 14
REMARK SMILES IDX 17 15 12 17 13 18 14 19
REMARK H PARENT
REMARK Flexibility Score: 70.00
ROOT
ATOM      1  C   UNL     1      19.995  19.025   8.969  1.00  0.00     0.136 C 
ATOM      2  O   UNL     1      20.694  18.314   8.260  1.00  0.00    -0.299 OA
ENDROOT
BRANCH   1   3
ATOM      3  C   UNL     1      19.703  18.562  10.388  1.00  0.00     0.053 C 
ATOM      4  C   UNL     1      21.013  18.259  11.125  1.00  0.00     0.016 C 
BRANCH   3   5
ATOM      5  C   UNL     1      18.790  17.318  10.376  1.00  0.00     0.015 C 
BRANCH   5   6
ATOM      6  C   UNL     1      17.458  17.553   9.643  1.00  0.00     0.028 C 
BRANCH   6   7
ATOM      7  C   UNL     1      16.486  18.340  10.489  1.00  0.00    -0.028 C 
ATOM      8  C   UNL     1      15.976  19.563  10.202  1.00  0.00    -0.070 CG0
ATOM      9  C   UNL     1      15.024  20.174  11.200  1.00  0.00     0.039 C 
ATOM     10  G   UNL     1      16.337  20.369   8.966  1.00  0.00     0.000 G0
ENDBRANCH   6   7
ENDBRANCH   5   6
ENDBRANCH   3   5
ENDBRANCH   1   3
BRANCH   1  11
ATOM     11  C   UNL     1      19.383  20.261   8.334  1.00  0.00     0.087 C 
BRANCH  11  12
ATOM     12  C   UNL     1      18.810  21.325   9.310  1.00  0.00     0.066 C 
BRANCH  12  13
ATOM     13  C   UNL     1      17.293  21.493   9.265  1.00  0.00     0.140 C 
ATOM     14  O   UNL     1      16.837  22.615   9.436  1.00  0.00    -0.299 OA
BRANCH  13  15
ATOM     15  C   UNL     1      16.321  20.375   8.948  1.00  0.00     0.106 CG0
ATOM     16  G   UNL     1      15.995  19.568  10.194  1.00  0.00     0.000 G0
ENDBRANCH  13  15
ENDBRANCH  12  13
BRANCH  12  17
ATOM     17  C   UNL     1      19.545  22.694   9.160  1.00  0.00    -0.006 C 
ATOM     18  C   UNL     1      20.618  22.654   8.059  1.00  0.00     0.008 C 
ATOM     19  C   UNL     1      20.157  23.206  10.474  1.00  0.00     0.008 C 
ENDBRANCH  12  17
ENDBRANCH  11  12
ENDBRANCH   1  11
TORSDOF 1
ENDMDL
MODEL 2
REMARK VINA RESULT:    -3.580      4.433      6.677
REMARK INTER + INTRA:          -5.898
REMARK INTER:                  -5.618
REMARK INTRA:                  -0.280
REMARK UNBOUND:                -0.434
REMARK SMILES CC1=CCC[C@@H](C)C(=O)C[C@@H](C(C)C)C(=O)C1
REMARK SMILES IDX 8 1 9 2 6 3 7 4 5 5 4 6 3 7 2 8 1 9 10 11 11 12 15 13 16 14
REMARK SMILES IDX 17 15 12 17 13 18 14 19
REMARK H PARENT
REMARK Flexibility Score: 70.00
ROOT
ATOM      1  C   UNL     1      17.996  13.653  10.018  1.00  0.00     0.136 C 
ATOM      2  O   UNL     1      17.183  12.763   9.808  1.00  0.00    -0.299 OA
ENDROOT
BRANCH   1   3
ATOM      3  C   UNL     1      18.166  14.736   8.965  1.00  0.00     0.053 C 
ATOM      4  C   UNL     1      19.618  15.234   8.948  1.00  0.00     0.016 C 
BRANCH   3   5
ATOM      5  C   UNL     1      17.197  15.907   9.226  1.00  0.00     0.015 C 
BRANCH   5   6
ATOM      6  C   UNL     1      17.915  17.208   9.625  1.00  0.00     0.028 C 
BRANCH   6   7
ATOM      7  C   UNL     1      17.495  17.680  10.996  1.00  0.00    -0.028 C 
ATOM      8  C   UNL     1      18.196  17.537  12.147  1.00  0.00    -0.070 CG0
ATOM      9  C   UNL     1      17.577  18.076  13.414  1.00  0.00     0.039 C 
ATOM     10  G   UNL     1      19.537  16.830  12.247  1.00  0.00     0.000 G0
ENDBRANCH   6   7
ENDBRANCH   5   6
ENDBRANCH   3   5
ENDBRANCH   1   3
BRANCH   1  11
ATOM     11  C   UNL     1      18.850  13.540  11.268  1.00  0.00     0.087 C 
BRANCH  11  12
ATOM     12  C   UNL     1      18.407  14.397  12.485  1.00  0.00     0.066 C 
BRANCH  12  13
ATOM     13  C   UNL     1      19.402  15.475  12.914  1.00  0.00     0.140 C 
ATOM     14  O   UNL     1      20.184  15.203  13.814  1.00  0.00    -0.299 OA
BRANCH  13  15
ATOM     15  C   UNL     1      19.531  16.828  12.248  1.00  0.00     0.106 CG0
ATOM     16  G   UNL     1      18.181  17.521  12.156  1.00  0.00     0.000 G0
ENDBRANCH  13  15
ENDBRANCH  12  13
BRANCH  12  17
ATOM     17  C   UNL     1      17.975  13.502  13.689  1.00  0.00    -0.006 C 
ATOM     18  C   UNL     1      17.501  12.113  13.232  1.00  0.00     0.008 C 
ATOM     19  C   UNL     1      16.910  14.154  14.585  1.00  0.00     0.008 C 
ENDBRANCH  12  17
ENDBRANCH  11  12
ENDBRANCH   1  11
TORSDOF 1
ENDMDL
MODEL 3
REMARK VINA RESULT:    -3.567      4.453      6.345
REMARK INTER + INTRA:          -5.878
REMARK INTER:                  -5.456
REMARK INTRA:                  -0.423
REMARK UNBOUND:                -0.434
REMARK SMILES CC1=CCC[C@@H](C)C(=O)C[C@@H](C(C)C)C(=O)C1
REMARK SMILES IDX 8 1 9 2 6 3 7 4 5 5 4 6 3 7 2 8 1 9 10 11 11 12 15 13 16 14
REMARK SMILES IDX 17 15 12 17 13 18 14 19
REMARK H PARENT
REMARK Flexibility Score: 70.00
ROOT
ATOM      1  C   UNL     1      18.172  17.115  13.078  1.00  0.00     0.136 C 
ATOM      2  O   UNL     1      17.786  18.213  12.701  1.00  0.00    -0.299 OA
ENDROOT
BRANCH   1   3
ATOM      3  C   UNL     1      17.354  16.390  14.136  1.00  0.00     0.053 C 
ATOM      4  C   UNL     1      18.258  15.465  14.961  1.00  0.00     0.016 C 
BRANCH   3   5
ATOM      5  C   UNL     1      16.211  15.586  13.483  1.00  0.00     0.015 C 
BRANCH   5   6
ATOM      6  C   UNL     1      16.445  14.066  13.517  1.00  0.00     0.028 C 
BRANCH   6   7
ATOM      7  C   UNL     1      16.490  13.476  12.127  1.00  0.00    -0.028 C 
ATOM      8  C   UNL     1      17.603  13.222  11.397  1.00  0.00    -0.070 CG0
ATOM      9  C   UNL     1      17.415  12.638  10.018  1.00  0.00     0.039 C 
ATOM     10  G   UNL     1      19.017  13.528  11.861  1.00  0.00     0.000 G0
ENDBRANCH   6   7
ENDBRANCH   5   6
ENDBRANCH   3   5
ENDBRANCH   1   3
BRANCH   1  11
ATOM     11  C   UNL     1      19.501  16.616  12.540  1.00  0.00     0.087 C 
BRANCH  11  12
ATOM     12  C   UNL     1      19.492  16.065  11.088  1.00  0.00     0.066 C 
BRANCH  12  13
ATOM     13  C   UNL     1      19.716  14.559  10.966  1.00  0.00     0.140 C 
ATOM     14  O   UNL     1      20.533  14.169  10.143  1.00  0.00    -0.299 OA
BRANCH  13  15
ATOM     15  C   UNL     1      19.047  13.525  11.846  1.00  0.00     0.106 CG0
ATOM     16  G   UNL     1      17.628  13.247  11.377  1.00  0.00     0.000 G0
ENDBRANCH  13  15
ENDBRANCH  12  13
BRANCH  12  17
ATOM     17  C   UNL     1      20.464  16.868  10.167  1.00  0.00    -0.006 C 
ATOM     18  C   UNL     1      21.019  18.120  10.866  1.00  0.00     0.008 C 
ATOM     19  C   UNL     1      19.847  17.250   8.812  1.00  0.00     0.008 C 
ENDBRANCH  12  17
ENDBRANCH  11  12
ENDBRANCH   1  11
TORSDOF 1
ENDMDL
MODEL 4
REMARK VINA RESULT:    -3.509      1.978      4.505
REMARK INTER + INTRA:          -5.790
REMARK INTER:                  -5.734
REMARK INTRA:                  -0.056
REMARK UNBOUND:                -0.434
REMARK SMILES CC1=CCC[C@@H](C)C(=O)C[C@@H](C(C)C)C(=O)C1
REMARK SMILES IDX 8 1 9 2 6 3 7 4 5 5 4 6 3 7 2 8 1 9 10 11 11 12 15 13 16 14
REMARK SMILES IDX 17 15 12 17 13 18 14 19
REMARK H PARENT
REMARK Flexibility Score: 70.00
ROOT
ATOM      1  C   UNL     1      18.634  21.866   9.248  1.00  0.00     0.136 C 
ATOM      2  O   UNL     1      18.212  22.993   9.025  1.00  0.00    -0.299 OA
ENDROOT
BRANCH   1   3
ATOM      3  C   UNL     1      20.061  21.719   9.753  1.00  0.00     0.053 C 
ATOM      4  C   UNL     1      20.505  23.005  10.463  1.00  0.00     0.016 C 
BRANCH   3   5
ATOM      5  C   UNL     1      21.018  21.385   8.591  1.00  0.00     0.015 C 
BRANCH   5   6
ATOM      6  C   UNL     1      20.762  19.999   7.976  1.00  0.00     0.028 C 
BRANCH   6   7
ATOM      7  C   UNL     1      21.018  18.891   8.970  1.00  0.00    -0.028 C 
ATOM      8  C   UNL     1      20.148  17.917   9.331  1.00  0.00    -0.070 CG0
ATOM      9  C   UNL     1      20.612  16.912  10.357  1.00  0.00     0.039 C 
ATOM     10  G   UNL     1      18.728  17.802   8.803  1.00  0.00     0.000 G0
ENDBRANCH   6   7
ENDBRANCH   5   6
ENDBRANCH   3   5
ENDBRANCH   1   3
BRANCH   1  11
ATOM     11  C   UNL     1      17.733  20.697   8.892  1.00  0.00     0.087 C 
BRANCH  11  12
ATOM     12  C   UNL     1      17.354  19.741  10.055  1.00  0.00     0.066 C 
BRANCH  12  13
ATOM     13  C   UNL     1      17.709  18.273   9.826  1.00  0.00     0.140 C 
ATOM     14  O   UNL     1      17.093  17.430  10.464  1.00  0.00    -0.299 OA
BRANCH  13  15
ATOM     15  C   UNL     1      18.721  17.790   8.809  1.00  0.00     0.106 CG0
ATOM     16  G   UNL     1      20.136  17.908   9.349  1.00  0.00     0.000 G0
ENDBRANCH  13  15
ENDBRANCH  12  13
BRANCH  12  17
ATOM     17  C   UNL     1      15.860  19.913  10.474  1.00  0.00    -0.006 C 
ATOM     18  C   UNL     1      15.149  20.991   9.640  1.00  0.00     0.008 C 
ATOM     19  C   UNL     1      15.674  20.197  11.973  1.00  0.00     0.008 C 
ENDBRANCH  12  17
ENDBRANCH  11  12
ENDBRANCH   1  11
TORSDOF 1
ENDMDL
MODEL 5
REMARK VINA RESULT:    -3.494      4.983      6.883
REMARK INTER + INTRA:          -5.766
REMARK INTER:                  -5.695
REMARK INTRA:                  -0.071
REMARK UNBOUND:                -0.434
REMARK SMILES CC1=CCC[C@@H](C)C(=O)C[C@@H](C(C)C)C(=O)C1
REMARK SMILES IDX 8 1 9 2 6 3 7 4 5 5 4 6 3 7 2 8 1 9 10 11 11 12 15 13 16 14
REMARK SMILES IDX 17 15 12 17 13 18 14 19
REMARK H PARENT
REMARK Flexibility Score: 70.00
ROOT
ATOM      1  C   UNL     1      17.353  17.690  16.685  1.00  0.00     0.136 C 
ATOM      2  O   UNL     1      17.649  17.123  17.728  1.00  0.00    -0.299 OA
ENDROOT
BRANCH   1   3
ATOM      3  C   UNL     1      17.600  19.187  16.585  1.00  0.00     0.053 C 
ATOM      4  C   UNL     1      18.250  19.703  17.875  1.00  0.00     0.016 C 
BRANCH   3   5
ATOM      5  C   UNL     1      16.282  19.939  16.306  1.00  0.00     0.015 C 
BRANCH   5   6
ATOM      6  C   UNL     1      16.233  20.571  14.904  1.00  0.00     0.028 C 
BRANCH   6   7
ATOM      7  C   UNL     1      15.036  20.092  14.117  1.00  0.00    -0.028 C 
ATOM      8  C   UNL     1      15.049  19.208  13.091  1.00  0.00    -0.070 CG0
ATOM      9  C   UNL     1      13.731  18.878  12.435  1.00  0.00     0.039 C 
ATOM     10  G   UNL     1      16.309  18.567  12.533  1.00  0.00     0.000 G0
ENDBRANCH   6   7
ENDBRANCH   5   6
ENDBRANCH   3   5
ENDBRANCH   1   3
BRANCH   1  11
ATOM     11  C   UNL     1      16.656  16.869  15.616  1.00  0.00     0.087 C 
BRANCH  11  12
ATOM     12  C   UNL     1      17.376  16.772  14.243  1.00  0.00     0.066 C 
BRANCH  12  13
ATOM     13  C   UNL     1      16.521  17.155  13.036  1.00  0.00     0.140 C 
ATOM     14  O   UNL     1      15.896  16.266  12.475  1.00  0.00    -0.299 OA
BRANCH  13  15
ATOM     15  C   UNL     1      16.341  18.573  12.536  1.00  0.00     0.106 CG0
ATOM     16  G   UNL     1      15.076  19.194  13.104  1.00  0.00     0.000 G0
ENDBRANCH  13  15
ENDBRANCH  12  13
BRANCH  12  17
ATOM     17  C   UNL     1      18.053  15.379  14.050  1.00  0.00    -0.006 C 
ATOM     18  C   UNL     1      18.448  14.739  15.390  1.00  0.00     0.008 C 
ATOM     19  C   UNL     1      19.266  15.415  13.105  1.00  0.00     0.008 C 
ENDBRANCH  12  17
ENDBRANCH  11  12
ENDBRANCH   1  11
TORSDOF 1
ENDMDL
MODEL 6
REMARK VINA RESULT:    -3.415      2.020      5.167
REMARK INTER + INTRA:          -5.646
REMARK INTER:                  -5.319
REMARK INTRA:                  -0.327
REMARK UNBOUND:                -0.434
REMARK SMILES CC1=CCC[C@@H](C)C(=O)C[C@@H](C(C)C)C(=O)C1
REMARK SMILES IDX 8 1 9 2 6 3 7 4 5 5 4 6 3 7 2 8 1 9 10 11 11 12 15 13 16 14
REMARK SMILES IDX 17 15 12 17 13 18 14 19
REMARK H PARENT
REMARK Flexibility Score: 70.00
ROOT
ATOM      1  C   UNL     1      16.190  18.897  11.063  1.00  0.00     0.136 C 
ATOM      2  O   UNL     1      15.699  18.245  11.975  1.00  0.00    -0.299 OA
ENDROOT
BRANCH   1   3
ATOM      3  C   UNL     1      15.901  20.389  11.008  1.00  0.00     0.053 C 
ATOM      4  C   UNL     1      15.036  20.715   9.784  1.00  0.00     0.016 C 
BRANCH   3   5
ATOM      5  C   UNL     1      17.215  21.196  10.970  1.00  0.00     0.015 C 
BRANCH   5   6
ATOM      6  C   UNL     1      17.546  21.747   9.572  1.00  0.00     0.028 C 
BRANCH   6   7
ATOM      7  C   UNL     1      19.033  21.743   9.309  1.00  0.00    -0.028 C 
ATOM      8  C   UNL     1      19.735  20.774   8.672  1.00  0.00    -0.070 CG0
ATOM      9  C   UNL     1      21.224  20.971   8.528  1.00  0.00     0.039 C 
ATOM     10  G   UNL     1      19.125  19.489   8.139  1.00  0.00     0.000 G0
ENDBRANCH   6   7
ENDBRANCH   5   6
ENDBRANCH   3   5
ENDBRANCH   1   3
BRANCH   1  11
ATOM     11  C   UNL     1      16.957  18.138   9.995  1.00  0.00     0.087 C 
BRANCH  11  12
ATOM     12  C   UNL     1      18.481  17.965  10.234  1.00  0.00     0.066 C 
BRANCH  12  13
ATOM     13  C   UNL     1      19.367  18.313   9.039  1.00  0.00     0.140 C 
ATOM     14  O   UNL     1      20.293  17.557   8.776  1.00  0.00    -0.299 OA
BRANCH  13  15
ATOM     15  C   UNL     1      19.129  19.490   8.117  1.00  0.00     0.106 CG0
ATOM     16  G   UNL     1      19.751  20.757   8.680  1.00  0.00     0.000 G0
ENDBRANCH  13  15
ENDBRANCH  12  13
BRANCH  12  17
ATOM     17  C   UNL     1      18.814  16.550  10.804  1.00  0.00    -0.006 C 
ATOM     18  C   UNL     1      17.639  15.572  10.639  1.00  0.00     0.008 C 
ATOM     19  C   UNL     1      19.278  16.574  12.269  1.00  0.00     0.008 C 
ENDBRANCH  12  17
ENDBRANCH  11  12
ENDBRANCH   1  11
TORSDOF 1
ENDMDL
MODEL 7
REMARK VINA RESULT:    -3.384      4.221      6.573
REMARK INTER + INTRA:          -5.598
REMARK INTER:                  -5.117
REMARK INTRA:                  -0.481
REMARK UNBOUND:                -0.434
REMARK SMILES CC1=CCC[C@@H](C)C(=O)C[C@@H](C(C)C)C(=O)C1
REMARK SMILES IDX 8 1 9 2 6 3 7 4 5 5 4 6 3 7 2 8 1 9 10 11 11 12 15 13 16 14
REMARK SMILES IDX 17 15 12 17 13 18 14 19
REMARK H PARENT
REMARK Flexibility Score: 70.00
ROOT
ATOM      1  C   UNL     1      19.871  14.583  11.000  1.00  0.00     0.136 C 
ATOM      2  O   UNL     1      21.033  14.223  10.867  1.00  0.00    -0.299 OA
ENDROOT
BRANCH   1   3
ATOM      3  C   UNL     1      19.288  15.529   9.962  1.00  0.00     0.053 C 
ATOM      4  C   UNL     1      19.436  14.928   8.558  1.00  0.00     0.016 C 
BRANCH   3   5
ATOM      5  C   UNL     1      19.976  16.907  10.035  1.00  0.00     0.015 C 
BRANCH   5   6
ATOM      6  C   UNL     1      19.910  17.542  11.435  1.00  0.00     0.028 C 
BRANCH   6   7
ATOM      7  C   UNL     1      18.555  18.150  11.710  1.00  0.00    -0.028 C 
ATOM      8  C   UNL     1      17.730  17.843  12.740  1.00  0.00    -0.070 CG0
ATOM      9  C   UNL     1      16.409  18.569  12.816  1.00  0.00     0.039 C 
ATOM     10  G   UNL     1      18.032  16.788  13.790  1.00  0.00     0.000 G0
ENDBRANCH   6   7
ENDBRANCH   5   6
ENDBRANCH   3   5
ENDBRANCH   1   3
BRANCH   1  11
ATOM     11  C   UNL     1      19.140  14.143  12.256  1.00  0.00     0.087 C 
BRANCH  11  12
ATOM     12  C   UNL     1      17.645  14.547  12.360  1.00  0.00     0.066 C 
BRANCH  12  13
ATOM     13  C   UNL     1      17.307  15.479  13.523  1.00  0.00     0.140 C 
ATOM     14  O   UNL     1      16.436  15.123  14.305  1.00  0.00    -0.299 OA
BRANCH  13  15
ATOM     15  C   UNL     1      18.029  16.778  13.810  1.00  0.00     0.106 CG0
ATOM     16  G   UNL     1      17.726  17.817  12.743  1.00  0.00     0.000 G0
ENDBRANCH  13  15
ENDBRANCH  12  13
BRANCH  12  17
ATOM     17  C   UNL     1      16.711  13.297  12.335  1.00  0.00    -0.006 C 
ATOM     18  C   UNL     1      17.428  12.032  12.834  1.00  0.00     0.008 C 
ATOM     19  C   UNL     1      16.076  13.035  10.960  1.00  0.00     0.008 C 
ENDBRANCH  12  17
ENDBRANCH  11  12
ENDBRANCH   1  11
TORSDOF 1
ENDMDL
MODEL 8
REMARK VINA RESULT:    -3.305      1.701      4.008
REMARK INTER + INTRA:          -5.478
REMARK INTER:                  -5.376
REMARK INTRA:                  -0.103
REMARK UNBOUND:                -0.434
REMARK SMILES CC1=CCC[C@@H](C)C(=O)C[C@@H](C(C)C)C(=O)C1
REMARK SMILES IDX 8 1 9 2 6 3 7 4 5 5 4 6 3 7 2 8 1 9 10 11 11 12 15 13 16 14
REMARK SMILES IDX 17 15 12 17 13 18 14 19
REMARK H PARENT
REMARK Flexibility Score: 70.00
ROOT
ATOM      1  C   UNL     1      20.326  20.665   8.903  1.00  0.00     0.136 C 
ATOM      2  O   UNL     1      20.380  20.298   7.737  1.00  0.00    -0.299 OA
ENDROOT
BRANCH   1   3
ATOM      3  C   UNL     1      20.638  22.120   9.214  1.00  0.00     0.053 C 
ATOM      4  C   UNL     1      21.001  22.278  10.696  1.00  0.00     0.016 C 
BRANCH   3   5
ATOM      5  C   UNL     1      19.441  23.023   8.852  1.00  0.00     0.015 C 
BRANCH   5   6
ATOM      6  C   UNL     1      18.392  23.114   9.974  1.00  0.00     0.028 C 
BRANCH   6   7
ATOM      7  C   UNL     1      17.073  22.509   9.556  1.00  0.00    -0.028 C 
ATOM      8  C   UNL     1      16.571  21.316   9.958  1.00  0.00    -0.070 CG0
ATOM      9  C   UNL     1      15.232  20.899   9.402  1.00  0.00     0.039 C 
ATOM     10  G   UNL     1      17.291  20.359  10.893  1.00  0.00     0.000 G0
ENDBRANCH   6   7
ENDBRANCH   5   6
ENDBRANCH   3   5
ENDBRANCH   1   3
BRANCH   1  11
ATOM     11  C   UNL     1      20.062  19.607   9.959  1.00  0.00     0.087 C 
BRANCH  11  12
ATOM     12  C   UNL     1      18.898  18.621   9.669  1.00  0.00     0.066 C 
BRANCH  12  13
ATOM     13  C   UNL     1      17.547  19.025  10.255  1.00  0.00     0.140 C 
ATOM     14  O   UNL     1      16.649  18.194  10.245  1.00  0.00    -0.299 OA
BRANCH  13  15
ATOM     15  C   UNL     1      17.269  20.360  10.913  1.00  0.00     0.106 CG0
ATOM     16  G   UNL     1      16.560  21.302   9.956  1.00  0.00     0.000 G0
ENDBRANCH  13  15
ENDBRANCH  12  13
BRANCH  12  17
ATOM     17  C   UNL     1      19.279  17.157  10.056  1.00  0.00    -0.006 C 
ATOM     18  C   UNL     1      20.648  17.082  10.751  1.00  0.00     0.008 C 
ATOM     19  C   UNL     1      19.235  16.180   8.870  1.00  0.00     0.008 C 
ENDBRANCH  12  17
ENDBRANCH  11  12
ENDBRANCH   1  11
TORSDOF 1
ENDMDL
MODEL 9
REMARK VINA RESULT:    -3.266      3.450      5.415
REMARK INTER + INTRA:          -5.419
REMARK INTER:                  -4.935
REMARK INTRA:                  -0.484
REMARK UNBOUND:                -0.434
REMARK SMILES CC1=CCC[C@@H](C)C(=O)C[C@@H](C(C)C)C(=O)C1
REMARK SMILES IDX 8 1 9 2 6 3 7 4 5 5 4 6 3 7 2 8 1 9 10 11 11 12 15 13 16 14
REMARK SMILES IDX 17 15 12 17 13 18 14 19
REMARK H PARENT
REMARK Flexibility Score: 70.00
ROOT
ATOM      1  C   UNL     1      19.154  15.350  13.215  1.00  0.00     0.136 C 
ATOM      2  O   UNL     1      19.959  14.835  13.980  1.00  0.00    -0.299 OA
ENDROOT
BRANCH   1   3
ATOM      3  C   UNL     1      18.607  14.507  12.073  1.00  0.00     0.053 C 
ATOM      4  C   UNL     1      17.823  13.311  12.629  1.00  0.00     0.016 C 
BRANCH   3   5
ATOM      5  C   UNL     1      19.750  14.025  11.157  1.00  0.00     0.015 C 
BRANCH   5   6
ATOM      6  C   UNL     1      20.410  15.165  10.363  1.00  0.00     0.028 C 
BRANCH   6   7
ATOM      7  C   UNL     1      19.448  15.793   9.383  1.00  0.00    -0.028 C 
ATOM      8  C   UNL     1      18.966  17.059   9.427  1.00  0.00    -0.070 CG0
ATOM      9  C   UNL     1      18.000  17.477   8.345  1.00  0.00     0.039 C 
ATOM     10  G   UNL     1      19.302  18.062  10.518  1.00  0.00     0.000 G0
ENDBRANCH   6   7
ENDBRANCH   5   6
ENDBRANCH   3   5
ENDBRANCH   1   3
BRANCH   1  11
ATOM     11  C   UNL     1      18.854  16.826  13.403  1.00  0.00     0.087 C 
BRANCH  11  12
ATOM     12  C   UNL     1      17.683  17.403  12.562  1.00  0.00     0.066 C 
BRANCH  12  13
ATOM     13  C   UNL     1      18.101  18.322  11.416  1.00  0.00     0.140 C 
ATOM     14  O   UNL     1      17.471  19.358  11.256  1.00  0.00    -0.299 OA
BRANCH  13  15
ATOM     15  C   UNL     1      19.289  18.068  10.512  1.00  0.00     0.106 CG0
ATOM     16  G   UNL     1      18.944  17.060   9.429  1.00  0.00     0.000 G0
ENDBRANCH  13  15
ENDBRANCH  12  13
BRANCH  12  17
ATOM     17  C   UNL     1      16.602  18.071  13.470  1.00  0.00    -0.006 C 
ATOM     18  C   UNL     1      17.092  18.244  14.917  1.00  0.00     0.008 C 
ATOM     19  C   UNL     1      15.252  17.337  13.454  1.00  0.00     0.008 C 
ENDBRANCH  12  17
ENDBRANCH  11  12
ENDBRANCH   1  11
TORSDOF 1
ENDMDL
