MODEL 1
REMARK VINA RESULT:    -4.514      0.000      0.000
REMARK INTER + INTRA:          -4.968
REMARK INTER:                  -4.910
REMARK INTRA:                  -0.058
REMARK UNBOUND:                -0.058
REMARK SMILES CC1(C)[C@H]2CC=C(CO)[C@@H]1C2
REMARK SMILES IDX 8 1 7 2 1 3 2 4 4 5 3 6 10 7 5 8 11 9 6 10 9 11
REMARK H PARENT 9 12
REMARK Flexibility Score: inf
ROOT
ATOM      1  C   UNL     1       8.933   4.877   7.435  1.00  0.00     0.187 C 
ENDROOT
BRANCH   1   2
ATOM      2  C   UNL     1       9.902   3.733   7.507  1.00  0.00    -0.045 C 
ATOM      3  C   UNL     1      11.511   2.850   5.189  1.00  0.00     0.012 C 
ATOM      4  C   UNL     1      10.751   1.834   6.088  1.00  0.00    -0.026 C 
ATOM      5  C   UNL     1      11.388   1.418   7.444  1.00  0.00    -0.000 C 
ATOM      6  C   UNL     1      10.370   0.607   5.221  1.00  0.00     0.012 C 
ATOM      7  C   UNL     1       9.559   2.348   6.938  1.00  0.00     0.023 C 
ATOM      8  C   UNL     1      12.074   2.653   8.125  1.00  0.00     0.031 C 
ATOM      9  C   UNL     1       9.967   1.350   8.039  1.00  0.00     0.013 C 
ATOM     10  C   UNL     1      11.122   3.864   8.108  1.00  0.00    -0.025 C 
ENDBRANCH   1   2
BRANCH   1  11
ATOM     11  O   UNL     1       8.124   4.734   6.301  1.00  0.00    -0.392 OA
ATOM     12  H   UNL     1       7.895   3.770   6.247  1.00  0.00     0.211 HD
ENDBRANCH   1  11
TORSDOF 2
ENDMDL
MODEL 2
REMARK VINA RESULT:    -4.105      0.987      2.076
REMARK INTER + INTRA:          -4.523
REMARK INTER:                  -4.480
REMARK INTRA:                  -0.043
REMARK UNBOUND:                -0.058
REMARK SMILES CC1(C)[C@H]2CC=C(CO)[C@@H]1C2
REMARK SMILES IDX 8 1 7 2 1 3 2 4 4 5 3 6 10 7 5 8 11 9 6 10 9 11
REMARK H PARENT 9 12
REMARK Flexibility Score: inf
ROOT
ATOM      1  C   UNL     1       9.098   4.062   7.538  1.00  0.00     0.187 C 
ENDROOT
BRANCH   1   2
ATOM      2  C   UNL     1       9.793   2.755   7.292  1.00  0.00    -0.045 C 
ATOM      3  C   UNL     1      12.661   2.332   7.877  1.00  0.00     0.012 C 
ATOM      4  C   UNL     1      12.026   1.872   6.533  1.00  0.00    -0.026 C 
ATOM      5  C   UNL     1      11.224   0.540   6.506  1.00  0.00    -0.000 C 
ATOM      6  C   UNL     1      13.121   1.917   5.438  1.00  0.00     0.012 C 
ATOM      7  C   UNL     1      10.705   2.542   6.074  1.00  0.00     0.023 C 
ATOM      8  C   UNL     1      10.387   0.381   7.823  1.00  0.00     0.031 C 
ATOM      9  C   UNL     1      10.272   1.188   5.481  1.00  0.00     0.013 C 
ATOM     10  C   UNL     1       9.624   1.686   8.125  1.00  0.00    -0.025 C 
ENDBRANCH   1   2
BRANCH   1  11
ATOM     11  O   UNL     1       8.503   4.505   6.351  1.00  0.00    -0.392 OA
ATOM     12  H   UNL     1       9.073   4.166   5.614  1.00  0.00     0.211 HD
ENDBRANCH   1  11
TORSDOF 2
ENDMDL
MODEL 3
REMARK VINA RESULT:    -4.081      1.107      1.382
REMARK INTER + INTRA:          -4.497
REMARK INTER:                  -4.432
REMARK INTRA:                  -0.065
REMARK UNBOUND:                -0.058
REMARK SMILES CC1(C)[C@H]2CC=C(CO)[C@@H]1C2
REMARK SMILES IDX 8 1 7 2 1 3 2 4 4 5 3 6 10 7 5 8 11 9 6 10 9 11
REMARK H PARENT 9 12
REMARK Flexibility Score: inf
ROOT
ATOM      1  C   UNL     1       9.189   3.539   7.467  1.00  0.00     0.187 C 
ENDROOT
BRANCH   1   2
ATOM      2  C   UNL     1      10.431   2.744   7.184  1.00  0.00    -0.045 C 
ATOM      3  C   UNL     1      12.213   3.322   4.897  1.00  0.00     0.012 C 
ATOM      4  C   UNL     1      11.757   1.873   5.228  1.00  0.00    -0.026 C 
ATOM      5  C   UNL     1      12.484   1.106   6.367  1.00  0.00    -0.000 C 
ATOM      6  C   UNL     1      11.718   1.062   3.909  1.00  0.00     0.012 C 
ATOM      7  C   UNL     1      10.472   1.680   6.076  1.00  0.00     0.023 C 
ATOM      8  C   UNL     1      12.815   2.076   7.554  1.00  0.00     0.031 C 
ATOM      9  C   UNL     1      11.135   0.451   6.726  1.00  0.00     0.013 C 
ATOM     10  C   UNL     1      11.571   2.911   7.916  1.00  0.00    -0.025 C 
ENDBRANCH   1   2
BRANCH   1  11
ATOM     11  O   UNL     1       8.704   4.089   6.275  1.00  0.00    -0.392 OA
ATOM     12  H   UNL     1       9.361   4.782   6.005  1.00  0.00     0.211 HD
ENDBRANCH   1  11
TORSDOF 2
ENDMDL
MODEL 4
REMARK VINA RESULT:    -3.880      1.678      2.695
REMARK INTER + INTRA:          -4.278
REMARK INTER:                  -4.255
REMARK INTRA:                  -0.023
REMARK UNBOUND:                -0.058
REMARK SMILES CC1(C)[C@H]2CC=C(CO)[C@@H]1C2
REMARK SMILES IDX 8 1 7 2 1 3 2 4 4 5 3 6 10 7 5 8 11 9 6 10 9 11
REMARK H PARENT 9 12
REMARK Flexibility Score: inf
ROOT
ATOM      1  C   UNL     1      12.169   3.728   4.702  1.00  0.00     0.187 C 
ENDROOT
BRANCH   1   2
ATOM      2  C   UNL     1      11.371   3.289   5.895  1.00  0.00    -0.045 C 
ATOM      3  C   UNL     1      12.544   1.741   8.124  1.00  0.00     0.012 C 
ATOM      4  C   UNL     1      11.186   1.341   7.480  1.00  0.00    -0.026 C 
ATOM      5  C   UNL     1       9.905   2.112   7.904  1.00  0.00    -0.000 C 
ATOM      6  C   UNL     1      11.017  -0.194   7.615  1.00  0.00     0.012 C 
ATOM      7  C   UNL     1      10.874   1.843   6.046  1.00  0.00     0.023 C 
ATOM      8  C   UNL     1      10.224   3.635   8.093  1.00  0.00     0.031 C 
ATOM      9  C   UNL     1       9.395   1.969   6.456  1.00  0.00     0.013 C 
ATOM     10  C   UNL     1      11.026   4.162   6.887  1.00  0.00    -0.025 C 
ENDBRANCH   1   2
BRANCH   1  11
ATOM     11  O   UNL     1      12.398   5.107   4.775  1.00  0.00    -0.392 OA
ATOM     12  H   UNL     1      13.005   5.245   5.548  1.00  0.00     0.211 HD
ENDBRANCH   1  11
TORSDOF 2
ENDMDL
MODEL 5
REMARK VINA RESULT:    -3.816      2.068      3.582
REMARK INTER + INTRA:          -4.209
REMARK INTER:                  -4.144
REMARK INTRA:                  -0.065
REMARK UNBOUND:                -0.058
REMARK SMILES CC1(C)[C@H]2CC=C(CO)[C@@H]1C2
REMARK SMILES IDX 8 1 7 2 1 3 2 4 4 5 3 6 10 7 5 8 11 9 6 10 9 11
REMARK H PARENT 9 12
REMARK Flexibility Score: inf
ROOT
ATOM      1  C   UNL     1      12.739   3.278   4.047  1.00  0.00     0.187 C 
ENDROOT
BRANCH   1   2
ATOM      2  C   UNL     1      12.042   2.138   4.730  1.00  0.00    -0.045 C 
ATOM      3  C   UNL     1       9.288   2.348   5.787  1.00  0.00     0.012 C 
ATOM      4  C   UNL     1      10.437   1.718   6.624  1.00  0.00    -0.026 C 
ATOM      5  C   UNL     1      10.849   0.248   6.334  1.00  0.00    -0.000 C 
ATOM      6  C   UNL     1      10.130   1.953   8.125  1.00  0.00     0.012 C 
ATOM      7  C   UNL     1      11.901   2.079   6.259  1.00  0.00     0.023 C 
ATOM      8  C   UNL     1      10.804  -0.037   4.793  1.00  0.00     0.031 C 
ATOM      9  C   UNL     1      12.307   0.643   6.643  1.00  0.00     0.013 C 
ATOM     10  C   UNL     1      11.526   1.088   4.026  1.00  0.00    -0.025 C 
ENDBRANCH   1   2
BRANCH   1  11
ATOM     11  O   UNL     1      12.259   4.491   4.554  1.00  0.00    -0.392 OA
ATOM     12  H   UNL     1      12.204   5.110   3.780  1.00  0.00     0.211 HD
ENDBRANCH   1  11
TORSDOF 2
ENDMDL
MODEL 6
REMARK VINA RESULT:    -3.804      5.788      6.993
REMARK INTER + INTRA:          -4.196
REMARK INTER:                  -4.172
REMARK INTRA:                  -0.023
REMARK UNBOUND:                -0.058
REMARK SMILES CC1(C)[C@H]2CC=C(CO)[C@@H]1C2
REMARK SMILES IDX 8 1 7 2 1 3 2 4 4 5 3 6 10 7 5 8 11 9 6 10 9 11
REMARK H PARENT 9 12
REMARK Flexibility Score: inf
ROOT
ATOM      1  C   UNL     1      15.959   4.502   1.119  1.00  0.00     0.187 C 
ENDROOT
BRANCH   1   2
ATOM      2  C   UNL     1      15.293   3.397   1.884  1.00  0.00    -0.045 C 
ATOM      3  C   UNL     1      14.722   0.748   0.700  1.00  0.00     0.012 C 
ATOM      4  C   UNL     1      13.653   1.520   1.525  1.00  0.00    -0.026 C 
ATOM      5  C   UNL     1      13.731   1.470   3.077  1.00  0.00    -0.000 C 
ATOM      6  C   UNL     1      12.251   1.122   0.998  1.00  0.00     0.012 C 
ATOM      7  C   UNL     1      13.809   3.055   1.682  1.00  0.00     0.023 C 
ATOM      8  C   UNL     1      15.226   1.527   3.549  1.00  0.00     0.031 C 
ATOM      9  C   UNL     1      13.229   2.928   3.103  1.00  0.00     0.013 C 
ATOM     10  C   UNL     1      15.968   2.662   2.817  1.00  0.00    -0.025 C 
ENDBRANCH   1   2
BRANCH   1  11
ATOM     11  O   UNL     1      17.328   4.516   1.414  1.00  0.00    -0.392 OA
ATOM     12  H   UNL     1      17.788   4.179   0.602  1.00  0.00     0.211 HD
ENDBRANCH   1  11
TORSDOF 2
ENDMDL
MODEL 7
REMARK VINA RESULT:    -3.752      1.130      1.843
REMARK INTER + INTRA:          -4.140
REMARK INTER:                  -4.112
REMARK INTRA:                  -0.028
REMARK UNBOUND:                -0.058
REMARK SMILES CC1(C)[C@H]2CC=C(CO)[C@@H]1C2
REMARK SMILES IDX 8 1 7 2 1 3 2 4 4 5 3 6 10 7 5 8 11 9 6 10 9 11
REMARK H PARENT 9 12
REMARK Flexibility Score: inf
ROOT
ATOM      1  C   UNL     1       9.186   3.840   7.451  1.00  0.00     0.187 C 
ENDROOT
BRANCH   1   2
ATOM      2  C   UNL     1      10.386   3.077   6.971  1.00  0.00    -0.045 C 
ATOM      3  C   UNL     1      10.182   0.733   5.180  1.00  0.00     0.012 C 
ATOM      4  C   UNL     1      11.086   0.716   6.446  1.00  0.00    -0.026 C 
ATOM      5  C   UNL     1      12.481   1.397   6.373  1.00  0.00    -0.000 C 
ATOM      6  C   UNL     1      11.174  -0.743   6.961  1.00  0.00     0.012 C 
ATOM      7  C   UNL     1      10.781   1.725   7.584  1.00  0.00     0.023 C 
ATOM      8  C   UNL     1      12.401   2.716   5.528  1.00  0.00     0.031 C 
ATOM      9  C   UNL     1      12.296   1.829   7.841  1.00  0.00     0.013 C 
ATOM     10  C   UNL     1      11.198   3.564   5.986  1.00  0.00    -0.025 C 
ENDBRANCH   1   2
BRANCH   1  11
ATOM     11  O   UNL     1       8.559   4.458   6.362  1.00  0.00    -0.392 OA
ATOM     12  H   UNL     1       8.430   3.748   5.680  1.00  0.00     0.211 HD
ENDBRANCH   1  11
TORSDOF 2
ENDMDL
MODEL 8
REMARK VINA RESULT:    -3.601      2.422      3.571
REMARK INTER + INTRA:          -3.975
REMARK INTER:                  -3.920
REMARK INTRA:                  -0.055
REMARK UNBOUND:                -0.058
REMARK SMILES CC1(C)[C@H]2CC=C(CO)[C@@H]1C2
REMARK SMILES IDX 8 1 7 2 1 3 2 4 4 5 3 6 10 7 5 8 11 9 6 10 9 11
REMARK H PARENT 9 12
REMARK Flexibility Score: inf
ROOT
ATOM      1  C   UNL     1      12.999   3.409   3.367  1.00  0.00     0.187 C 
ENDROOT
BRANCH   1   2
ATOM      2  C   UNL     1      12.683   2.796   4.700  1.00  0.00    -0.045 C 
ATOM      3  C   UNL     1      10.886   0.468   5.005  1.00  0.00     0.012 C 
ATOM      4  C   UNL     1      10.761   1.719   5.920  1.00  0.00    -0.026 C 
ATOM      5  C   UNL     1      11.743   1.869   7.115  1.00  0.00    -0.000 C 
ATOM      6  C   UNL     1       9.281   1.854   6.360  1.00  0.00     0.012 C 
ATOM      7  C   UNL     1      11.350   3.063   5.416  1.00  0.00     0.023 C 
ATOM      8  C   UNL     1      13.177   1.381   6.706  1.00  0.00     0.031 C 
ATOM      9  C   UNL     1      11.736   3.392   6.871  1.00  0.00     0.013 C 
ATOM     10  C   UNL     1      13.578   1.994   5.350  1.00  0.00    -0.025 C 
ENDBRANCH   1   2
BRANCH   1  11
ATOM     11  O   UNL     1      12.670   2.507   2.348  1.00  0.00    -0.392 OA
ATOM     12  H   UNL     1      11.715   2.275   2.484  1.00  0.00     0.211 HD
ENDBRANCH   1  11
TORSDOF 2
ENDMDL
MODEL 9
REMARK VINA RESULT:    -2.499      1.716      3.228
REMARK INTER + INTRA:          -2.777
REMARK INTER:                  -2.726
REMARK INTRA:                  -0.051
REMARK UNBOUND:                -0.058
REMARK SMILES CC1(C)[C@H]2CC=C(CO)[C@@H]1C2
REMARK SMILES IDX 8 1 7 2 1 3 2 4 4 5 3 6 10 7 5 8 11 9 6 10 9 11
REMARK H PARENT 9 12
REMARK Flexibility Score: inf
ROOT
ATOM      1  C   UNL     1      12.627   3.162   4.529  1.00  0.00     0.187 C 
ENDROOT
BRANCH   1   2
ATOM      2  C   UNL     1      11.930   2.720   5.781  1.00  0.00    -0.045 C 
ATOM      3  C   UNL     1       8.995   2.398   5.951  1.00  0.00     0.012 C 
ATOM      4  C   UNL     1       9.798   3.145   7.053  1.00  0.00    -0.026 C 
ATOM      5  C   UNL     1      10.549   2.306   8.125  1.00  0.00    -0.000 C 
ATOM      6  C   UNL     1       8.873   4.213   7.690  1.00  0.00     0.012 C 
ATOM      7  C   UNL     1      11.194   3.717   6.690  1.00  0.00     0.023 C 
ATOM      8  C   UNL     1      11.184   1.030   7.472  1.00  0.00     0.031 C 
ATOM      9  C   UNL     1      11.660   3.375   8.119  1.00  0.00     0.013 C 
ATOM     10  C   UNL     1      11.941   1.415   6.186  1.00  0.00    -0.025 C 
ENDBRANCH   1   2
BRANCH   1  11
ATOM     11  O   UNL     1      12.311   4.500   4.265  1.00  0.00    -0.392 OA
ATOM     12  H   UNL     1      12.898   4.779   3.515  1.00  0.00     0.211 HD
ENDBRANCH   1  11
TORSDOF 2
ENDMDL
