MODEL 1
REMARK VINA RESULT:    -3.902      0.000      0.000
REMARK INTER + INTRA:          -4.797
REMARK INTER:                  -4.587
REMARK INTRA:                  -0.210
REMARK UNBOUND:                -0.210
REMARK SMILES [NH3+][C@H](CO)C(=O)[O-]
REMARK SMILES IDX 3 1 2 2 1 3 5 7 6 8 7 9 4 10
REMARK H PARENT 1 4 1 5 1 6 4 11
REMARK Flexibility Score: inf
ROOT
ATOM      1  C   UNL     1      12.958  -4.734  22.585  1.00  0.00     0.227 C 
ENDROOT
BRANCH   1   2
ATOM      2  C   UNL     1      12.634  -3.561  21.640  1.00  0.00     0.253 C 
BRANCH   2   3
ATOM      3  N   UNL     1      13.816  -3.145  20.875  1.00  0.00    -0.348 N 
ATOM      4  H   UNL     1      13.990  -2.125  21.026  1.00  0.00     0.345 HD
ATOM      5  H   UNL     1      14.656  -3.674  21.206  1.00  0.00     0.345 HD
ATOM      6  H   UNL     1      13.684  -3.319  19.852  1.00  0.00     0.345 HD
ENDBRANCH   2   3
BRANCH   2   7
ATOM      7  C   UNL     1      11.492  -3.911  20.722  1.00  0.00     0.102 C 
ATOM      8  O   UNL     1      10.873  -3.011  20.094  1.00  0.00    -0.544 OA
ATOM      9  O   UNL     1      11.139  -5.242  20.533  1.00  0.00    -0.544 OA
ENDBRANCH   2   7
ENDBRANCH   1   2
BRANCH   1  10
ATOM     10  O   UNL     1      11.924  -4.943  23.513  1.00  0.00    -0.390 OA
ATOM     11  H   UNL     1      11.417  -5.738  23.203  1.00  0.00     0.210 HD
ENDBRANCH   1  10
TORSDOF 4
ENDMDL
MODEL 2
REMARK VINA RESULT:    -3.900      2.022      3.156
REMARK INTER + INTRA:          -4.794
REMARK INTER:                  -4.573
REMARK INTRA:                  -0.221
REMARK UNBOUND:                -0.210
REMARK SMILES [NH3+][C@H](CO)C(=O)[O-]
REMARK SMILES IDX 3 1 2 2 1 3 5 7 6 8 7 9 4 10
REMARK H PARENT 1 4 1 5 1 6 4 11
REMARK Flexibility Score: inf
ROOT
ATOM      1  C   UNL     1      11.935  -3.257  19.882  1.00  0.00     0.227 C 
ENDROOT
BRANCH   1   2
ATOM      2  C   UNL     1      11.477  -4.036  21.129  1.00  0.00     0.253 C 
BRANCH   2   3
ATOM      3  N   UNL     1      11.026  -5.389  20.783  1.00  0.00    -0.348 N 
ATOM      4  H   UNL     1      10.846  -5.446  19.754  1.00  0.00     0.345 HD
ATOM      5  H   UNL     1      11.771  -6.083  21.023  1.00  0.00     0.345 HD
ATOM      6  H   UNL     1      10.149  -5.637  21.295  1.00  0.00     0.345 HD
ENDBRANCH   2   3
BRANCH   2   7
ATOM      7  C   UNL     1      12.569  -4.079  22.166  1.00  0.00     0.102 C 
ATOM      8  O   UNL     1      13.566  -3.314  22.082  1.00  0.00    -0.544 OA
ATOM      9  O   UNL     1      12.460  -4.942  23.250  1.00  0.00    -0.544 OA
ENDBRANCH   2   7
ENDBRANCH   1   2
BRANCH   1  10
ATOM     10  O   UNL     1      12.939  -3.949  19.186  1.00  0.00    -0.390 OA
ATOM     11  H   UNL     1      12.604  -4.873  19.042  1.00  0.00     0.210 HD
ENDBRANCH   1  10
TORSDOF 4
ENDMDL
MODEL 3
REMARK VINA RESULT:    -3.806     18.708     19.660
REMARK INTER + INTRA:          -4.684
REMARK INTER:                  -4.468
REMARK INTRA:                  -0.216
REMARK UNBOUND:                -0.210
REMARK SMILES [NH3+][C@H](CO)C(=O)[O-]
REMARK SMILES IDX 3 1 2 2 1 3 5 7 6 8 7 9 4 10
REMARK H PARENT 1 4 1 5 1 6 4 11
REMARK Flexibility Score: inf
ROOT
ATOM      1  C   UNL     1      15.514  12.607  12.725  1.00  0.00     0.227 C 
ENDROOT
BRANCH   1   2
ATOM      2  C   UNL     1      16.666  13.523  13.178  1.00  0.00     0.253 C 
BRANCH   2   3
ATOM      3  N   UNL     1      16.634  13.751  14.627  1.00  0.00    -0.348 N 
ATOM      4  H   UNL     1      16.747  12.839  15.128  1.00  0.00     0.345 HD
ATOM      5  H   UNL     1      17.425  14.377  14.905  1.00  0.00     0.345 HD
ATOM      6  H   UNL     1      15.732  14.190  14.921  1.00  0.00     0.345 HD
ENDBRANCH   2   3
BRANCH   2   7
ATOM      7  C   UNL     1      17.998  12.965  12.747  1.00  0.00     0.102 C 
ATOM      8  O   UNL     1      18.365  11.820  13.120  1.00  0.00    -0.544 OA
ATOM      9  O   UNL     1      18.815  13.702  11.899  1.00  0.00    -0.544 OA
ENDBRANCH   2   7
ENDBRANCH   1   2
BRANCH   1  10
ATOM     10  O   UNL     1      15.367  11.507  13.585  1.00  0.00    -0.390 OA
ATOM     11  H   UNL     1      16.242  11.377  14.037  1.00  0.00     0.210 HD
ENDBRANCH   1  10
TORSDOF 4
ENDMDL
MODEL 4
REMARK VINA RESULT:    -3.805     18.912     19.886
REMARK INTER + INTRA:          -4.682
REMARK INTER:                  -4.673
REMARK INTRA:                  -0.009
REMARK UNBOUND:                -0.210
REMARK SMILES [NH3+][C@H](CO)C(=O)[O-]
REMARK SMILES IDX 3 1 2 2 1 3 5 7 6 8 7 9 4 10
REMARK H PARENT 1 4 1 5 1 6 4 11
REMARK Flexibility Score: inf
ROOT
ATOM      1  C   UNL     1      18.602  13.713  12.300  1.00  0.00     0.227 C 
ENDROOT
BRANCH   1   2
ATOM      2  C   UNL     1      17.699  12.550  12.753  1.00  0.00     0.253 C 
BRANCH   2   3
ATOM      3  N   UNL     1      18.489  11.420  13.257  1.00  0.00    -0.348 N 
ATOM      4  H   UNL     1      18.169  11.171  14.221  1.00  0.00     0.345 HD
ATOM      5  H   UNL     1      18.348  10.587  12.640  1.00  0.00     0.345 HD
ATOM      6  H   UNL     1      19.507  11.655  13.287  1.00  0.00     0.345 HD
ENDBRANCH   2   3
BRANCH   2   7
ATOM      7  C   UNL     1      16.702  13.015  13.782  1.00  0.00     0.102 C 
ATOM      8  O   UNL     1      16.118  14.124  13.657  1.00  0.00    -0.544 OA
ATOM      9  O   UNL     1      16.391  12.197  14.862  1.00  0.00    -0.544 OA
ENDBRANCH   2   7
ENDBRANCH   1   2
BRANCH   1  10
ATOM     10  O   UNL     1      19.214  13.434  11.066  1.00  0.00    -0.390 OA
ATOM     11  H   UNL     1      19.780  14.219  10.843  1.00  0.00     0.210 HD
ENDBRANCH   1  10
TORSDOF 4
ENDMDL
MODEL 5
REMARK VINA RESULT:    -3.782      1.901      2.445
REMARK INTER + INTRA:          -4.655
REMARK INTER:                  -4.407
REMARK INTRA:                  -0.248
REMARK UNBOUND:                -0.210
REMARK SMILES [NH3+][C@H](CO)C(=O)[O-]
REMARK SMILES IDX 3 1 2 2 1 3 5 7 6 8 7 9 4 10
REMARK H PARENT 1 4 1 5 1 6 4 11
REMARK Flexibility Score: inf
ROOT
ATOM      1  C   UNL     1      13.487  -3.356  21.785  1.00  0.00     0.227 C 
ENDROOT
BRANCH   1   2
ATOM      2  C   UNL     1      12.373  -4.407  21.949  1.00  0.00     0.253 C 
BRANCH   2   3
ATOM      3  N   UNL     1      11.691  -4.269  23.242  1.00  0.00    -0.348 N 
ATOM      4  H   UNL     1      11.248  -3.323  23.306  1.00  0.00     0.345 HD
ATOM      5  H   UNL     1      10.936  -4.989  23.322  1.00  0.00     0.345 HD
ATOM      6  H   UNL     1      12.360  -4.385  24.036  1.00  0.00     0.345 HD
ENDBRANCH   2   3
BRANCH   2   7
ATOM      7  C   UNL     1      11.391  -4.333  20.809  1.00  0.00     0.102 C 
ATOM      8  O   UNL     1      11.000  -5.380  20.229  1.00  0.00    -0.544 OA
ATOM      9  O   UNL     1      10.879  -3.102  20.416  1.00  0.00    -0.544 OA
ENDBRANCH   2   7
ENDBRANCH   1   2
BRANCH   1  10
ATOM     10  O   UNL     1      13.716  -3.061  20.430  1.00  0.00    -0.390 OA
ATOM     11  H   UNL     1      13.636  -2.076  20.334  1.00  0.00     0.210 HD
ENDBRANCH   1  10
TORSDOF 4
ENDMDL
MODEL 6
REMARK VINA RESULT:    -3.704     18.236     19.077
REMARK INTER + INTRA:          -4.564
REMARK INTER:                  -4.351
REMARK INTRA:                  -0.213
REMARK UNBOUND:                -0.210
REMARK SMILES [NH3+][C@H](CO)C(=O)[O-]
REMARK SMILES IDX 3 1 2 2 1 3 5 7 6 8 7 9 4 10
REMARK H PARENT 1 4 1 5 1 6 4 11
REMARK Flexibility Score: inf
ROOT
ATOM      1  C   UNL     1      16.322  11.799  15.011  1.00  0.00     0.227 C 
ENDROOT
BRANCH   1   2
ATOM      2  C   UNL     1      16.445  12.719  13.782  1.00  0.00     0.253 C 
BRANCH   2   3
ATOM      3  N   UNL     1      16.197  14.122  14.135  1.00  0.00    -0.348 N 
ATOM      4  H   UNL     1      15.890  14.184  15.133  1.00  0.00     0.345 HD
ATOM      5  H   UNL     1      17.078  14.676  14.029  1.00  0.00     0.345 HD
ATOM      6  H   UNL     1      15.456  14.539  13.526  1.00  0.00     0.345 HD
ENDBRANCH   2   3
BRANCH   2   7
ATOM      7  C   UNL     1      17.789  12.558  13.122  1.00  0.00     0.102 C 
ATOM      8  O   UNL     1      18.131  13.307  12.168  1.00  0.00    -0.544 OA
ATOM      9  O   UNL     1      18.680  11.600  13.591  1.00  0.00    -0.544 OA
ENDBRANCH   2   7
ENDBRANCH   1   2
BRANCH   1  10
ATOM     10  O   UNL     1      17.314  12.082  15.964  1.00  0.00    -0.390 OA
ATOM     11  H   UNL     1      17.487  11.238  16.458  1.00  0.00     0.210 HD
ENDBRANCH   1  10
TORSDOF 4
ENDMDL
MODEL 7
REMARK VINA RESULT:    -3.573      2.337      2.493
REMARK INTER + INTRA:          -4.410
REMARK INTER:                  -4.191
REMARK INTRA:                  -0.218
REMARK UNBOUND:                -0.210
REMARK SMILES [NH3+][C@H](CO)C(=O)[O-]
REMARK SMILES IDX 3 1 2 2 1 3 5 7 6 8 7 9 4 10
REMARK H PARENT 1 4 1 5 1 6 4 11
REMARK Flexibility Score: inf
ROOT
ATOM      1  C   UNL     1      14.545  -4.621  23.192  1.00  0.00     0.227 C 
ENDROOT
BRANCH   1   2
ATOM      2  C   UNL     1      13.062  -4.786  22.809  1.00  0.00     0.253 C 
BRANCH   2   3
ATOM      3  N   UNL     1      12.183  -4.588  23.967  1.00  0.00    -0.348 N 
ATOM      4  H   UNL     1      11.256  -4.225  23.646  1.00  0.00     0.345 HD
ATOM      5  H   UNL     1      12.025  -5.502  24.453  1.00  0.00     0.345 HD
ATOM      6  H   UNL     1      12.597  -3.908  24.645  1.00  0.00     0.345 HD
ENDBRANCH   2   3
BRANCH   2   7
ATOM      7  C   UNL     1      12.691  -3.856  21.684  1.00  0.00     0.102 C 
ATOM      8  O   UNL     1      13.533  -3.043  21.218  1.00  0.00    -0.544 OA
ATOM      9  O   UNL     1      11.421  -3.920  21.124  1.00  0.00    -0.544 OA
ENDBRANCH   2   7
ENDBRANCH   1   2
BRANCH   1  10
ATOM     10  O   UNL     1      14.748  -3.466  23.966  1.00  0.00    -0.390 OA
ATOM     11  H   UNL     1      14.671  -3.740  24.917  1.00  0.00     0.210 HD
ENDBRANCH   1  10
TORSDOF 4
ENDMDL
MODEL 8
REMARK VINA RESULT:    -3.540     19.462     20.174
REMARK INTER + INTRA:          -4.371
REMARK INTER:                  -4.167
REMARK INTRA:                  -0.204
REMARK UNBOUND:                -0.210
REMARK SMILES [NH3+][C@H](CO)C(=O)[O-]
REMARK SMILES IDX 3 1 2 2 1 3 5 7 6 8 7 9 4 10
REMARK H PARENT 1 4 1 5 1 6 4 11
REMARK Flexibility Score: inf
ROOT
ATOM      1  C   UNL     1      20.627  12.715  12.965  1.00  0.00     0.227 C 
ENDROOT
BRANCH   1   2
ATOM      2  C   UNL     1      19.313  13.234  12.351  1.00  0.00     0.253 C 
BRANCH   2   3
ATOM      3  N   UNL     1      19.275  13.016  10.900  1.00  0.00    -0.348 N 
ATOM      4  H   UNL     1      19.031  13.911  10.416  1.00  0.00     0.345 HD
ATOM      5  H   UNL     1      20.217  12.709  10.563  1.00  0.00     0.345 HD
ATOM      6  H   UNL     1      18.568  12.289  10.645  1.00  0.00     0.345 HD
ENDBRANCH   2   3
BRANCH   2   7
ATOM      7  C   UNL     1      18.120  12.606  13.022  1.00  0.00     0.102 C 
ATOM      8  O   UNL     1      18.269  11.673  13.856  1.00  0.00    -0.544 OA
ATOM      9  O   UNL     1      16.844  13.084  12.753  1.00  0.00    -0.544 OA
ENDBRANCH   2   7
ENDBRANCH   1   2
BRANCH   1  10
ATOM     10  O   UNL     1      21.002  11.483  12.405  1.00  0.00    -0.390 OA
ATOM     11  H   UNL     1      20.395  10.796  12.788  1.00  0.00     0.210 HD
ENDBRANCH   1  10
TORSDOF 4
ENDMDL
MODEL 9
REMARK VINA RESULT:    -3.537      2.308      3.286
REMARK INTER + INTRA:          -4.367
REMARK INTER:                  -4.112
REMARK INTRA:                  -0.255
REMARK UNBOUND:                -0.210
REMARK SMILES [NH3+][C@H](CO)C(=O)[O-]
REMARK SMILES IDX 3 1 2 2 1 3 5 7 6 8 7 9 4 10
REMARK H PARENT 1 4 1 5 1 6 4 11
REMARK Flexibility Score: inf
ROOT
ATOM      1  C   UNL     1      12.073  -4.343  22.647  1.00  0.00     0.227 C 
ENDROOT
BRANCH   1   2
ATOM      2  C   UNL     1      13.498  -4.046  22.142  1.00  0.00     0.253 C 
BRANCH   2   3
ATOM      3  N   UNL     1      13.580  -2.725  21.509  1.00  0.00    -0.348 N 
ATOM      4  H   UNL     1      14.507  -2.290  21.722  1.00  0.00     0.345 HD
ATOM      5  H   UNL     1      13.496  -2.823  20.471  1.00  0.00     0.345 HD
ATOM      6  H   UNL     1      12.822  -2.093  21.855  1.00  0.00     0.345 HD
ENDBRANCH   2   3
BRANCH   2   7
ATOM      7  C   UNL     1      14.501  -4.173  23.259  1.00  0.00     0.102 C 
ATOM      8  O   UNL     1      14.324  -3.575  24.353  1.00  0.00    -0.544 OA
ATOM      9  O   UNL     1      15.614  -4.989  23.099  1.00  0.00    -0.544 OA
ENDBRANCH   2   7
ENDBRANCH   1   2
BRANCH   1  10
ATOM     10  O   UNL     1      12.080  -5.328  23.648  1.00  0.00    -0.390 OA
ATOM     11  H   UNL     1      11.609  -6.119  23.275  1.00  0.00     0.210 HD
ENDBRANCH   1  10
TORSDOF 4
ENDMDL
