MODEL 1
REMARK VINA RESULT:    -3.720      0.000      0.000
REMARK INTER + INTRA:          -7.904
REMARK INTER:                  -6.438
REMARK INTRA:                  -1.466
REMARK UNBOUND:                -1.466
REMARK SMILES CCCCCCCCCCCCCCO
REMARK SMILES IDX 8 1 7 2 6 3 5 4 4 5 3 6 2 7 1 8 9 9 10 10 11 11 12 12 13 13
REMARK SMILES IDX 14 14 15 15
REMARK H PARENT 15 16
REMARK Flexibility Score: inf
ROOT
ATOM      1  C   UNL     1     160.973 177.179 187.973  1.00  0.00     0.000 C 
ENDROOT
BRANCH   1   2
ATOM      2  C   UNL     1     160.641 175.745 187.526  1.00  0.00    -0.000 C 
BRANCH   2   3
ATOM      3  C   UNL     1     161.856 174.806 187.361  1.00  0.00    -0.000 C 
BRANCH   3   4
ATOM      4  C   UNL     1     163.227 175.440 187.676  1.00  0.00    -0.000 C 
BRANCH   4   5
ATOM      5  C   UNL     1     164.023 175.873 186.424  1.00  0.00    -0.000 C 
BRANCH   5   6
ATOM      6  C   UNL     1     165.406 176.471 186.748  1.00  0.00    -0.000 C 
BRANCH   6   7
ATOM      7  C   UNL     1     165.563 177.953 186.372  1.00  0.00    -0.003 C 
ATOM      8  C   UNL     1     164.387 178.812 186.835  1.00  0.00     0.004 C 
ENDBRANCH   6   7
ENDBRANCH   5   6
ENDBRANCH   4   5
ENDBRANCH   3   4
ENDBRANCH   2   3
ENDBRANCH   1   2
BRANCH   1   9
ATOM      9  C   UNL     1     160.576 178.235 186.927  1.00  0.00     0.000 C 
BRANCH   9  10
ATOM     10  C   UNL     1     161.254 178.004 185.567  1.00  0.00     0.000 C 
BRANCH  10  11
ATOM     11  C   UNL     1     160.244 177.710 184.447  1.00  0.00     0.000 C 
BRANCH  11  12
ATOM     12  C   UNL     1     160.852 176.773 183.392  1.00  0.00     0.002 C 
BRANCH  12  13
ATOM     13  C   UNL     1     162.371 176.953 183.247  1.00  0.00     0.028 C 
BRANCH  13  14
ATOM     14  C   UNL     1     162.749 177.922 182.120  1.00  0.00     0.156 C 
BRANCH  14  15
ATOM     15  O   UNL     1     163.826 178.727 182.517  1.00  0.00    -0.396 OA
ATOM     16  H   UNL     1     164.567 178.544 181.883  1.00  0.00     0.210 HD
ENDBRANCH  14  15
ENDBRANCH  13  14
ENDBRANCH  12  13
ENDBRANCH  11  12
ENDBRANCH  10  11
ENDBRANCH   9  10
ENDBRANCH   1   9
TORSDOF 13
ENDMDL
MODEL 2
REMARK VINA RESULT:    -3.675      1.570      4.315
REMARK INTER + INTRA:          -7.827
REMARK INTER:                  -5.947
REMARK INTRA:                  -1.880
REMARK UNBOUND:                -1.466
REMARK SMILES CCCCCCCCCCCCCCO
REMARK SMILES IDX 8 1 7 2 6 3 5 4 4 5 3 6 2 7 1 8 9 9 10 10 11 11 12 12 13 13
REMARK SMILES IDX 14 14 15 15
REMARK H PARENT 15 16
REMARK Flexibility Score: inf
ROOT
ATOM      1  C   UNL     1     160.509 178.361 186.298  1.00  0.00     0.000 C 
ENDROOT
BRANCH   1   2
ATOM      2  C   UNL     1     160.308 177.765 184.894  1.00  0.00    -0.000 C 
BRANCH   2   3
ATOM      3  C   UNL     1     161.593 177.270 184.196  1.00  0.00    -0.000 C 
BRANCH   3   4
ATOM      4  C   UNL     1     161.400 176.099 183.212  1.00  0.00    -0.000 C 
BRANCH   4   5
ATOM      5  C   UNL     1     160.723 174.857 183.836  1.00  0.00    -0.000 C 
BRANCH   5   6
ATOM      6  C   UNL     1     161.493 174.270 185.035  1.00  0.00    -0.000 C 
BRANCH   6   7
ATOM      7  C   UNL     1     160.605 173.849 186.217  1.00  0.00    -0.003 C 
ATOM      8  C   UNL     1     161.406 173.543 187.483  1.00  0.00     0.004 C 
ENDBRANCH   6   7
ENDBRANCH   5   6
ENDBRANCH   4   5
ENDBRANCH   3   4
ENDBRANCH   2   3
ENDBRANCH   1   2
BRANCH   1   9
ATOM      9  C   UNL     1     160.587 177.286 187.396  1.00  0.00     0.000 C 
BRANCH   9  10
ATOM     10  C   UNL     1     161.738 177.533 188.385  1.00  0.00     0.000 C 
BRANCH  10  11
ATOM     11  C   UNL     1     163.089 177.727 187.680  1.00  0.00     0.000 C 
BRANCH  11  12
ATOM     12  C   UNL     1     163.640 176.386 187.172  1.00  0.00     0.002 C 
BRANCH  12  13
ATOM     13  C   UNL     1     164.737 176.562 186.109  1.00  0.00     0.028 C 
BRANCH  13  14
ATOM     14  C   UNL     1     165.709 177.700 186.441  1.00  0.00     0.156 C 
BRANCH  14  15
ATOM     15  O   UNL     1     165.636 178.698 185.459  1.00  0.00    -0.396 OA
ATOM     16  H   UNL     1     164.993 178.378 184.774  1.00  0.00     0.210 HD
ENDBRANCH  14  15
ENDBRANCH  13  14
ENDBRANCH  12  13
ENDBRANCH  11  12
ENDBRANCH  10  11
ENDBRANCH   9  10
ENDBRANCH   1   9
TORSDOF 13
ENDMDL
MODEL 3
REMARK VINA RESULT:    -3.670      1.583      3.424
REMARK INTER + INTRA:          -7.818
REMARK INTER:                  -6.292
REMARK INTRA:                  -1.526
REMARK UNBOUND:                -1.466
REMARK SMILES CCCCCCCCCCCCCCO
REMARK SMILES IDX 8 1 7 2 6 3 5 4 4 5 3 6 2 7 1 8 9 9 10 10 11 11 12 12 13 13
REMARK SMILES IDX 14 14 15 15
REMARK H PARENT 15 16
REMARK Flexibility Score: inf
ROOT
ATOM      1  C   UNL     1     160.608 178.242 187.331  1.00  0.00     0.000 C 
ENDROOT
BRANCH   1   2
ATOM      2  C   UNL     1     161.411 177.449 188.376  1.00  0.00    -0.000 C 
BRANCH   2   3
ATOM      3  C   UNL     1     162.674 176.740 187.841  1.00  0.00    -0.000 C 
BRANCH   3   4
ATOM      4  C   UNL     1     162.533 175.221 187.619  1.00  0.00    -0.000 C 
BRANCH   4   5
ATOM      5  C   UNL     1     161.071 174.731 187.520  1.00  0.00    -0.000 C 
BRANCH   5   6
ATOM      6  C   UNL     1     160.753 173.996 186.203  1.00  0.00    -0.000 C 
BRANCH   6   7
ATOM      7  C   UNL     1     160.491 172.489 186.362  1.00  0.00    -0.003 C 
ATOM      8  C   UNL     1     160.681 172.001 187.799  1.00  0.00     0.004 C 
ENDBRANCH   6   7
ENDBRANCH   5   6
ENDBRANCH   4   5
ENDBRANCH   3   4
ENDBRANCH   2   3
ENDBRANCH   1   2
BRANCH   1   9
ATOM      9  C   UNL     1     161.221 178.161 185.922  1.00  0.00     0.000 C 
BRANCH   9  10
ATOM     10  C   UNL     1     160.214 177.676 184.866  1.00  0.00     0.000 C 
BRANCH  10  11
ATOM     11  C   UNL     1     160.877 176.845 183.758  1.00  0.00     0.000 C 
BRANCH  11  12
ATOM     12  C   UNL     1     162.351 176.568 184.087  1.00  0.00     0.002 C 
BRANCH  12  13
ATOM     13  C   UNL     1     163.237 176.514 182.833  1.00  0.00     0.028 C 
BRANCH  13  14
ATOM     14  C   UNL     1     163.089 177.756 181.946  1.00  0.00     0.156 C 
BRANCH  14  15
ATOM     15  O   UNL     1     163.587 178.885 182.611  1.00  0.00    -0.396 OA
ATOM     16  H   UNL     1     163.043 179.658 182.308  1.00  0.00     0.210 HD
ENDBRANCH  14  15
ENDBRANCH  13  14
ENDBRANCH  12  13
ENDBRANCH  11  12
ENDBRANCH  10  11
ENDBRANCH   9  10
ENDBRANCH   1   9
TORSDOF 13
ENDMDL
MODEL 4
REMARK VINA RESULT:    -3.651      1.896      4.448
REMARK INTER + INTRA:          -7.785
REMARK INTER:                  -5.986
REMARK INTRA:                  -1.799
REMARK UNBOUND:                -1.466
REMARK SMILES CCCCCCCCCCCCCCO
REMARK SMILES IDX 8 1 7 2 6 3 5 4 4 5 3 6 2 7 1 8 9 9 10 10 11 11 12 12 13 13
REMARK SMILES IDX 14 14 15 15
REMARK H PARENT 15 16
REMARK Flexibility Score: inf
ROOT
ATOM      1  C   UNL     1     162.873 177.718 187.880  1.00  0.00     0.000 C 
ENDROOT
BRANCH   1   2
ATOM      2  C   UNL     1     161.336 177.787 187.871  1.00  0.00    -0.000 C 
BRANCH   2   3
ATOM      3  C   UNL     1     160.614 176.424 187.806  1.00  0.00    -0.000 C 
BRANCH   3   4
ATOM      4  C   UNL     1     161.346 175.327 187.007  1.00  0.00    -0.000 C 
BRANCH   4   5
ATOM      5  C   UNL     1     160.991 175.299 185.503  1.00  0.00    -0.000 C 
BRANCH   5   6
ATOM      6  C   UNL     1     162.079 175.913 184.601  1.00  0.00    -0.000 C 
BRANCH   6   7
ATOM      7  C   UNL     1     161.727 177.295 184.027  1.00  0.00    -0.003 C 
ATOM      8  C   UNL     1     160.268 177.684 184.267  1.00  0.00     0.004 C 
ENDBRANCH   6   7
ENDBRANCH   5   6
ENDBRANCH   4   5
ENDBRANCH   3   4
ENDBRANCH   2   3
ENDBRANCH   1   2
BRANCH   1   9
ATOM      9  C   UNL     1     163.519 178.683 186.872  1.00  0.00     0.000 C 
BRANCH   9  10
ATOM     10  C   UNL     1     164.815 178.122 186.264  1.00  0.00     0.000 C 
BRANCH  10  11
ATOM     11  C   UNL     1     165.113 176.689 186.730  1.00  0.00     0.000 C 
BRANCH  11  12
ATOM     12  C   UNL     1     166.616 176.495 186.981  1.00  0.00     0.002 C 
BRANCH  12  13
ATOM     13  C   UNL     1     167.398 177.818 186.941  1.00  0.00     0.028 C 
BRANCH  13  14
ATOM     14  C   UNL     1     168.408 177.877 185.789  1.00  0.00     0.156 C 
BRANCH  14  15
ATOM     15  O   UNL     1     168.129 178.971 184.959  1.00  0.00    -0.396 OA
ATOM     16  H   UNL     1     167.938 179.741 185.556  1.00  0.00     0.210 HD
ENDBRANCH  14  15
ENDBRANCH  13  14
ENDBRANCH  12  13
ENDBRANCH  11  12
ENDBRANCH  10  11
ENDBRANCH   9  10
ENDBRANCH   1   9
TORSDOF 13
ENDMDL
MODEL 5
REMARK VINA RESULT:    -3.623      1.371      4.360
REMARK INTER + INTRA:          -7.736
REMARK INTER:                  -6.231
REMARK INTRA:                  -1.505
REMARK UNBOUND:                -1.466
REMARK SMILES CCCCCCCCCCCCCCO
REMARK SMILES IDX 8 1 7 2 6 3 5 4 4 5 3 6 2 7 1 8 9 9 10 10 11 11 12 12 13 13
REMARK SMILES IDX 14 14 15 15
REMARK H PARENT 15 16
REMARK Flexibility Score: inf
ROOT
ATOM      1  C   UNL     1     160.625 178.256 186.348  1.00  0.00     0.000 C 
ENDROOT
BRANCH   1   2
ATOM      2  C   UNL     1     160.344 177.858 184.889  1.00  0.00    -0.000 C 
BRANCH   2   3
ATOM      3  C   UNL     1     160.777 176.428 184.500  1.00  0.00    -0.000 C 
BRANCH   3   4
ATOM      4  C   UNL     1     160.644 176.084 183.002  1.00  0.00    -0.000 C 
BRANCH   4   5
ATOM      5  C   UNL     1     161.974 175.671 182.330  1.00  0.00    -0.000 C 
BRANCH   5   6
ATOM      6  C   UNL     1     162.690 176.832 181.614  1.00  0.00    -0.000 C 
BRANCH   6   7
ATOM      7  C   UNL     1     161.786 178.030 181.281  1.00  0.00    -0.003 C 
ATOM      8  C   UNL     1     161.479 178.146 179.788  1.00  0.00     0.004 C 
ENDBRANCH   6   7
ENDBRANCH   5   6
ENDBRANCH   4   5
ENDBRANCH   3   4
ENDBRANCH   2   3
ENDBRANCH   1   2
BRANCH   1   9
ATOM      9  C   UNL     1     160.742 177.042 187.285  1.00  0.00     0.000 C 
BRANCH   9  10
ATOM     10  C   UNL     1     161.924 177.160 188.261  1.00  0.00     0.000 C 
BRANCH  10  11
ATOM     11  C   UNL     1     163.234 177.544 187.557  1.00  0.00     0.000 C 
BRANCH  11  12
ATOM     12  C   UNL     1     163.890 176.315 186.910  1.00  0.00     0.002 C 
BRANCH  12  13
ATOM     13  C   UNL     1     164.279 176.555 185.443  1.00  0.00     0.028 C 
BRANCH  13  14
ATOM     14  C   UNL     1     164.697 178.005 185.169  1.00  0.00     0.156 C 
BRANCH  14  15
ATOM     15  O   UNL     1     163.823 178.593 184.246  1.00  0.00    -0.396 OA
ATOM     16  H   UNL     1     162.921 178.219 184.428  1.00  0.00     0.210 HD
ENDBRANCH  14  15
ENDBRANCH  13  14
ENDBRANCH  12  13
ENDBRANCH  11  12
ENDBRANCH  10  11
ENDBRANCH   9  10
ENDBRANCH   1   9
TORSDOF 13
ENDMDL
MODEL 6
REMARK VINA RESULT:    -3.622      1.470      2.340
REMARK INTER + INTRA:          -7.735
REMARK INTER:                  -6.171
REMARK INTRA:                  -1.564
REMARK UNBOUND:                -1.466
REMARK SMILES CCCCCCCCCCCCCCO
REMARK SMILES IDX 8 1 7 2 6 3 5 4 4 5 3 6 2 7 1 8 9 9 10 10 11 11 12 12 13 13
REMARK SMILES IDX 14 14 15 15
REMARK H PARENT 15 16
REMARK Flexibility Score: inf
ROOT
ATOM      1  C   UNL     1     160.414 177.719 185.245  1.00  0.00     0.000 C 
ENDROOT
BRANCH   1   2
ATOM      2  C   UNL     1     160.568 178.378 186.627  1.00  0.00    -0.000 C 
BRANCH   2   3
ATOM      3  C   UNL     1     160.915 177.414 187.783  1.00  0.00    -0.000 C 
BRANCH   3   4
ATOM      4  C   UNL     1     162.352 177.531 188.330  1.00  0.00    -0.000 C 
BRANCH   4   5
ATOM      5  C   UNL     1     163.365 176.586 187.646  1.00  0.00    -0.000 C 
BRANCH   5   6
ATOM      6  C   UNL     1     164.542 177.323 186.977  1.00  0.00    -0.000 C 
BRANCH   6   7
ATOM      7  C   UNL     1     164.125 178.435 186.000  1.00  0.00    -0.003 C 
ATOM      8  C   UNL     1     164.152 177.984 184.539  1.00  0.00     0.004 C 
ENDBRANCH   6   7
ENDBRANCH   5   6
ENDBRANCH   4   5
ENDBRANCH   3   4
ENDBRANCH   2   3
ENDBRANCH   1   2
BRANCH   1   9
ATOM      9  C   UNL     1     160.667 176.202 185.276  1.00  0.00     0.000 C 
BRANCH   9  10
ATOM     10  C   UNL     1     161.417 175.702 184.031  1.00  0.00     0.000 C 
BRANCH  10  11
ATOM     11  C   UNL     1     160.916 176.359 182.737  1.00  0.00     0.000 C 
BRANCH  11  12
ATOM     12  C   UNL     1     162.089 176.723 181.816  1.00  0.00     0.002 C 
BRANCH  12  13
ATOM     13  C   UNL     1     161.629 177.358 180.494  1.00  0.00     0.028 C 
BRANCH  13  14
ATOM     14  C   UNL     1     161.464 178.879 180.591  1.00  0.00     0.156 C 
BRANCH  14  15
ATOM     15  O   UNL     1     162.405 179.410 181.484  1.00  0.00    -0.396 OA
ATOM     16  H   UNL     1     162.733 178.654 182.036  1.00  0.00     0.210 HD
ENDBRANCH  14  15
ENDBRANCH  13  14
ENDBRANCH  12  13
ENDBRANCH  11  12
ENDBRANCH  10  11
ENDBRANCH   9  10
ENDBRANCH   1   9
TORSDOF 13
ENDMDL
MODEL 7
REMARK VINA RESULT:    -3.589      1.053      2.665
REMARK INTER + INTRA:          -7.678
REMARK INTER:                  -5.910
REMARK INTRA:                  -1.768
REMARK UNBOUND:                -1.466
REMARK SMILES CCCCCCCCCCCCCCO
REMARK SMILES IDX 8 1 7 2 6 3 5 4 4 5 3 6 2 7 1 8 9 9 10 10 11 11 12 12 13 13
REMARK SMILES IDX 14 14 15 15
REMARK H PARENT 15 16
REMARK Flexibility Score: inf
ROOT
ATOM      1  C   UNL     1     162.386 177.725 188.243  1.00  0.00     0.000 C 
ENDROOT
BRANCH   1   2
ATOM      2  C   UNL     1     163.346 178.241 187.158  1.00  0.00    -0.000 C 
BRANCH   2   3
ATOM      3  C   UNL     1     164.478 177.269 186.761  1.00  0.00    -0.000 C 
BRANCH   3   4
ATOM      4  C   UNL     1     164.188 176.384 185.532  1.00  0.00    -0.000 C 
BRANCH   4   5
ATOM      5  C   UNL     1     164.020 174.883 185.862  1.00  0.00    -0.000 C 
BRANCH   5   6
ATOM      6  C   UNL     1     164.068 174.573 187.370  1.00  0.00    -0.000 C 
BRANCH   6   7
ATOM      7  C   UNL     1     162.915 173.691 187.876  1.00  0.00    -0.003 C 
ATOM      8  C   UNL     1     161.556 174.108 187.315  1.00  0.00     0.004 C 
ENDBRANCH   6   7
ENDBRANCH   5   6
ENDBRANCH   4   5
ENDBRANCH   3   4
ENDBRANCH   2   3
ENDBRANCH   1   2
BRANCH   1   9
ATOM      9  C   UNL     1     160.925 177.663 187.765  1.00  0.00     0.000 C 
BRANCH   9  10
ATOM     10  C   UNL     1     160.755 178.150 186.317  1.00  0.00     0.000 C 
BRANCH  10  11
ATOM     11  C   UNL     1     160.550 176.994 185.326  1.00  0.00     0.000 C 
BRANCH  11  12
ATOM     12  C   UNL     1     160.497 177.512 183.882  1.00  0.00     0.002 C 
BRANCH  12  13
ATOM     13  C   UNL     1     161.579 176.885 182.988  1.00  0.00     0.028 C 
BRANCH  13  14
ATOM     14  C   UNL     1     162.086 177.845 181.906  1.00  0.00     0.156 C 
BRANCH  14  15
ATOM     15  O   UNL     1     163.208 178.546 182.370  1.00  0.00    -0.396 OA
ATOM     16  H   UNL     1     162.868 179.277 182.948  1.00  0.00     0.210 HD
ENDBRANCH  14  15
ENDBRANCH  13  14
ENDBRANCH  12  13
ENDBRANCH  11  12
ENDBRANCH  10  11
ENDBRANCH   9  10
ENDBRANCH   1   9
TORSDOF 13
ENDMDL
MODEL 8
REMARK VINA RESULT:    -3.568      1.833      3.953
REMARK INTER + INTRA:          -7.642
REMARK INTER:                  -5.953
REMARK INTRA:                  -1.689
REMARK UNBOUND:                -1.466
REMARK SMILES CCCCCCCCCCCCCCO
REMARK SMILES IDX 8 1 7 2 6 3 5 4 4 5 3 6 2 7 1 8 9 9 10 10 11 11 12 12 13 13
REMARK SMILES IDX 14 14 15 15
REMARK H PARENT 15 16
REMARK Flexibility Score: inf
ROOT
ATOM      1  C   UNL     1     160.700 176.749 187.530  1.00  0.00     0.000 C 
ENDROOT
BRANCH   1   2
ATOM      2  C   UNL     1     160.738 175.213 187.469  1.00  0.00    -0.000 C 
BRANCH   2   3
ATOM      3  C   UNL     1     161.349 174.618 186.182  1.00  0.00    -0.000 C 
BRANCH   3   4
ATOM      4  C   UNL     1     161.110 175.438 184.898  1.00  0.00    -0.000 C 
BRANCH   4   5
ATOM      5  C   UNL     1     162.407 175.875 184.179  1.00  0.00    -0.000 C 
BRANCH   5   6
ATOM      6  C   UNL     1     162.363 177.322 183.652  1.00  0.00    -0.000 C 
BRANCH   6   7
ATOM      7  C   UNL     1     163.742 177.930 183.345  1.00  0.00    -0.003 C 
ATOM      8  C   UNL     1     164.842 176.877 183.220  1.00  0.00     0.004 C 
ENDBRANCH   6   7
ENDBRANCH   5   6
ENDBRANCH   4   5
ENDBRANCH   3   4
ENDBRANCH   2   3
ENDBRANCH   1   2
BRANCH   1   9
ATOM      9  C   UNL     1     161.917 177.346 188.258  1.00  0.00     0.000 C 
BRANCH   9  10
ATOM     10  C   UNL     1     162.894 178.047 187.300  1.00  0.00     0.000 C 
BRANCH  10  11
ATOM     11  C   UNL     1     164.179 177.236 187.072  1.00  0.00     0.000 C 
BRANCH  11  12
ATOM     12  C   UNL     1     165.365 178.163 186.763  1.00  0.00     0.002 C 
BRANCH  12  13
ATOM     13  C   UNL     1     166.714 177.554 187.174  1.00  0.00     0.028 C 
BRANCH  13  14
ATOM     14  C   UNL     1     167.859 177.959 186.238  1.00  0.00     0.156 C 
BRANCH  14  15
ATOM     15  O   UNL     1     167.346 178.551 185.076  1.00  0.00    -0.396 OA
ATOM     16  H   UNL     1     166.669 177.923 184.712  1.00  0.00     0.210 HD
ENDBRANCH  14  15
ENDBRANCH  13  14
ENDBRANCH  12  13
ENDBRANCH  11  12
ENDBRANCH  10  11
ENDBRANCH   9  10
ENDBRANCH   1   9
TORSDOF 13
ENDMDL
MODEL 9
REMARK VINA RESULT:    -3.506      2.036      4.164
REMARK INTER + INTRA:          -7.534
REMARK INTER:                  -6.108
REMARK INTRA:                  -1.426
REMARK UNBOUND:                -1.466
REMARK SMILES CCCCCCCCCCCCCCO
REMARK SMILES IDX 8 1 7 2 6 3 5 4 4 5 3 6 2 7 1 8 9 9 10 10 11 11 12 12 13 13
REMARK SMILES IDX 14 14 15 15
REMARK H PARENT 15 16
REMARK Flexibility Score: inf
ROOT
ATOM      1  C   UNL     1     159.945 174.170 187.479  1.00  0.00     0.000 C 
ENDROOT
BRANCH   1   2
ATOM      2  C   UNL     1     160.381 172.698 187.394  1.00  0.00    -0.000 C 
BRANCH   2   3
ATOM      3  C   UNL     1     161.242 172.334 186.165  1.00  0.00    -0.000 C 
BRANCH   3   4
ATOM      4  C   UNL     1     160.643 172.729 184.800  1.00  0.00    -0.000 C 
BRANCH   4   5
ATOM      5  C   UNL     1     161.433 173.831 184.059  1.00  0.00    -0.000 C 
BRANCH   5   6
ATOM      6  C   UNL     1     160.584 175.067 183.703  1.00  0.00    -0.000 C 
BRANCH   6   7
ATOM      7  C   UNL     1     161.251 176.414 184.026  1.00  0.00    -0.003 C 
ATOM      8  C   UNL     1     160.247 177.559 184.155  1.00  0.00     0.004 C 
ENDBRANCH   6   7
ENDBRANCH   5   6
ENDBRANCH   4   5
ENDBRANCH   3   4
ENDBRANCH   2   3
ENDBRANCH   1   2
BRANCH   1   9
ATOM      9  C   UNL     1     161.136 175.143 187.515  1.00  0.00     0.000 C 
BRANCH   9  10
ATOM     10  C   UNL     1     160.700 176.605 187.707  1.00  0.00     0.000 C 
BRANCH  10  11
ATOM     11  C   UNL     1     161.817 177.480 188.297  1.00  0.00     0.000 C 
BRANCH  11  12
ATOM     12  C   UNL     1     162.609 178.182 187.184  1.00  0.00     0.002 C 
BRANCH  12  13
ATOM     13  C   UNL     1     163.899 177.432 186.814  1.00  0.00     0.028 C 
BRANCH  13  14
ATOM     14  C   UNL     1     165.118 178.358 186.721  1.00  0.00     0.156 C 
BRANCH  14  15
ATOM     15  O   UNL     1     165.416 178.629 185.378  1.00  0.00    -0.396 OA
ATOM     16  H   UNL     1     165.523 177.752 184.927  1.00  0.00     0.210 HD
ENDBRANCH  14  15
ENDBRANCH  13  14
ENDBRANCH  12  13
ENDBRANCH  11  12
ENDBRANCH  10  11
ENDBRANCH   9  10
ENDBRANCH   1   9
TORSDOF 13
ENDMDL
