MODEL 1
REMARK VINA RESULT:    -6.822      0.000      0.000
REMARK INTER + INTRA:          -7.420
REMARK INTER:                  -7.420
REMARK INTRA:                   0.000
REMARK UNBOUND:                 0.000
REMARK SMILES Cc1cc(O)c2c(c1)C(=O)c1cc(O)cc(O)c1C2=O
REMARK SMILES IDX 1 1 2 2 8 3 7 4 6 5 4 6 3 7 19 8 20 9 18 10 11 11 9 12 10 13
REMARK SMILES IDX 12 14 13 15 15 16 16 17 5 18 17 20 14 22
REMARK H PARENT 5 19 17 21 14 23
REMARK Flexibility Score: inf
ROOT
ATOM      1  C   UNL     1       7.660   4.610  -3.194  1.00  0.00     0.044 C 
ATOM      2  C   UNL     1       6.643   5.397  -2.420  1.00  0.00    -0.047 A 
ATOM      3  C   UNL     1       5.500   4.767  -1.915  1.00  0.00     0.016 A 
ATOM      4  C   UNL     1       4.524   5.502  -1.218  1.00  0.00     0.038 A 
ATOM      5  C   UNL     1       4.687   6.892  -1.043  1.00  0.00     0.076 A 
ATOM      6  C   UNL     1       5.836   7.527  -1.565  1.00  0.00     0.127 A 
ATOM      7  C   UNL     1       6.799   6.777  -2.255  1.00  0.00     0.050 A 
ATOM      8  C   UNL     1       3.627   7.660  -0.337  1.00  0.00     0.201 C 
ATOM      9  O   UNL     1       3.567   8.911  -0.482  1.00  0.00    -0.288 OA
ATOM     10  C   UNL     1       2.575   6.947   0.438  1.00  0.00     0.076 A 
ATOM     11  C   UNL     1       2.386   5.564   0.201  1.00  0.00     0.041 A 
ATOM     12  C   UNL     1       3.326   4.824  -0.674  1.00  0.00     0.194 C 
ATOM     13  O   UNL     1       3.115   3.609  -0.940  1.00  0.00    -0.289 OA
ATOM     14  C   UNL     1       1.309   4.891   0.805  1.00  0.00     0.059 A 
ATOM     15  C   UNL     1       0.431   5.571   1.651  1.00  0.00     0.120 A 
ATOM     16  C   UNL     1       0.641   6.921   1.926  1.00  0.00     0.093 A 
ATOM     17  C   UNL     1       1.718   7.609   1.361  1.00  0.00     0.131 A 
ENDROOT
BRANCH   6  18
ATOM     18  O   UNL     1       6.032   8.898  -1.397  1.00  0.00    -0.507 OA
ATOM     19  H   UNL     1       5.256   9.549  -1.368  1.00  0.00     0.293 HD
ENDBRANCH   6  18
BRANCH  17  20
ATOM     20  O   UNL     1       1.918   8.928   1.772  1.00  0.00    -0.507 OA
ATOM     21  H   UNL     1       1.169   9.589   1.925  1.00  0.00     0.293 HD
ENDBRANCH  17  20
BRANCH  15  22
ATOM     22  O   UNL     1      -0.647   4.910   2.236  1.00  0.00    -0.508 OA
ATOM     23  H   UNL     1      -0.538   4.000   2.670  1.00  0.00     0.293 HD
ENDBRANCH  15  22
TORSDOF 3
ENDMDL
MODEL 2
REMARK VINA RESULT:    -6.218      1.480      5.554
REMARK INTER + INTRA:          -6.763
REMARK INTER:                  -6.763
REMARK INTRA:                   0.000
REMARK UNBOUND:                 0.000
REMARK SMILES Cc1cc(O)c2c(c1)C(=O)c1cc(O)cc(O)c1C2=O
REMARK SMILES IDX 1 1 2 2 8 3 7 4 6 5 4 6 3 7 19 8 20 9 18 10 11 11 9 12 10 13
REMARK SMILES IDX 12 14 13 15 15 16 16 17 5 18 17 20 14 22
REMARK H PARENT 5 19 17 21 14 23
REMARK Flexibility Score: inf
ROOT
ATOM      1  C   UNL     1      -0.061   5.045   2.746  1.00  0.00     0.044 C 
ATOM      2  C   UNL     1       0.942   5.767   1.894  1.00  0.00    -0.047 A 
ATOM      3  C   UNL     1       2.100   5.111   1.461  1.00  0.00     0.016 A 
ATOM      4  C   UNL     1       3.062   5.787   0.691  1.00  0.00     0.038 A 
ATOM      5  C   UNL     1       2.871   7.147   0.368  1.00  0.00     0.076 A 
ATOM      6  C   UNL     1       1.707   7.810   0.818  1.00  0.00     0.127 A 
ATOM      7  C   UNL     1       0.758   7.118   1.582  1.00  0.00     0.050 A 
ATOM      8  C   UNL     1       3.917   7.858  -0.414  1.00  0.00     0.201 C 
ATOM      9  O   UNL     1       3.950   9.118  -0.404  1.00  0.00    -0.288 OA
ATOM     10  C   UNL     1       4.987   7.088  -1.108  1.00  0.00     0.076 A 
ATOM     11  C   UNL     1       5.204   5.743  -0.724  1.00  0.00     0.041 A 
ATOM     12  C   UNL     1       4.276   5.081   0.223  1.00  0.00     0.194 C 
ATOM     13  O   UNL     1       4.512   3.906   0.618  1.00  0.00    -0.289 OA
ATOM     14  C   UNL     1       6.296   5.032  -1.251  1.00  0.00     0.059 A 
ATOM     15  C   UNL     1       7.163   5.637  -2.164  1.00  0.00     0.120 A 
ATOM     16  C   UNL     1       6.926   6.944  -2.581  1.00  0.00     0.093 A 
ATOM     17  C   UNL     1       5.833   7.666  -2.095  1.00  0.00     0.131 A 
ENDROOT
BRANCH   6  18
ATOM     18  O   UNL     1       1.483   9.151   0.503  1.00  0.00    -0.507 OA
ATOM     19  H   UNL     1       0.878   9.426  -0.261  1.00  0.00     0.293 HD
ENDBRANCH   6  18
BRANCH  17  20
ATOM     20  O   UNL     1       5.607   8.929  -2.645  1.00  0.00    -0.507 OA
ATOM     21  H   UNL     1       6.010   9.243  -3.517  1.00  0.00     0.293 HD
ENDBRANCH  17  20
BRANCH  15  22
ATOM     22  O   UNL     1       8.256   4.939  -2.674  1.00  0.00    -0.508 OA
ATOM     23  H   UNL     1       9.125   5.408  -2.904  1.00  0.00     0.293 HD
ENDBRANCH  15  22
TORSDOF 3
ENDMDL
MODEL 3
REMARK VINA RESULT:    -5.977      1.507      3.259
REMARK INTER + INTRA:          -6.501
REMARK INTER:                  -6.501
REMARK INTRA:                   0.000
REMARK UNBOUND:                 0.000
REMARK SMILES Cc1cc(O)c2c(c1)C(=O)c1cc(O)cc(O)c1C2=O
REMARK SMILES IDX 1 1 2 2 8 3 7 4 6 5 4 6 3 7 19 8 20 9 18 10 11 11 9 12 10 13
REMARK SMILES IDX 12 14 13 15 15 16 16 17 5 18 17 20 14 22
REMARK H PARENT 5 19 17 21 14 23
REMARK Flexibility Score: inf
ROOT
ATOM      1  C   UNL     1       8.015   5.146  -3.959  1.00  0.00     0.044 C 
ATOM      2  C   UNL     1       7.034   5.138  -2.824  1.00  0.00    -0.047 A 
ATOM      3  C   UNL     1       6.262   6.274  -2.552  1.00  0.00     0.016 A 
ATOM      4  C   UNL     1       5.365   6.289  -1.470  1.00  0.00     0.038 A 
ATOM      5  C   UNL     1       5.254   5.157  -0.635  1.00  0.00     0.076 A 
ATOM      6  C   UNL     1       6.045   4.017  -0.904  1.00  0.00     0.127 A 
ATOM      7  C   UNL     1       6.932   4.020  -1.989  1.00  0.00     0.050 A 
ATOM      8  C   UNL     1       4.329   5.205   0.528  1.00  0.00     0.201 C 
ATOM      9  O   UNL     1       4.474   4.381   1.470  1.00  0.00    -0.288 OA
ATOM     10  C   UNL     1       3.315   6.290   0.635  1.00  0.00     0.076 A 
ATOM     11  C   UNL     1       3.478   7.444  -0.167  1.00  0.00     0.041 A 
ATOM     12  C   UNL     1       4.540   7.488  -1.200  1.00  0.00     0.194 C 
ATOM     13  O   UNL     1       4.729   8.545  -1.864  1.00  0.00    -0.289 OA
ATOM     14  C   UNL     1       2.626   8.548   0.012  1.00  0.00     0.059 A 
ATOM     15  C   UNL     1       1.605   8.509   0.965  1.00  0.00     0.120 A 
ATOM     16  C   UNL     1       1.409   7.357   1.723  1.00  0.00     0.093 A 
ATOM     17  C   UNL     1       2.225   6.236   1.548  1.00  0.00     0.131 A 
ENDROOT
BRANCH   6  18
ATOM     18  O   UNL     1       5.949   2.878  -0.104  1.00  0.00    -0.507 OA
ATOM     19  H   UNL     1       6.299   2.862   0.846  1.00  0.00     0.293 HD
ENDBRANCH   6  18
BRANCH  17  20
ATOM     20  O   UNL     1       1.893   5.087   2.269  1.00  0.00    -0.507 OA
ATOM     21  H   UNL     1       2.477   4.690   2.993  1.00  0.00     0.293 HD
ENDBRANCH  17  20
BRANCH  15  22
ATOM     22  O   UNL     1       0.770   9.609   1.155  1.00  0.00    -0.508 OA
ATOM     23  H   UNL     1      -0.166   9.505   1.532  1.00  0.00     0.293 HD
ENDBRANCH  15  22
TORSDOF 3
ENDMDL
MODEL 4
REMARK VINA RESULT:    -5.848      1.879      5.943
REMARK INTER + INTRA:          -6.361
REMARK INTER:                  -6.361
REMARK INTRA:                   0.000
REMARK UNBOUND:                 0.000
REMARK SMILES Cc1cc(O)c2c(c1)C(=O)c1cc(O)cc(O)c1C2=O
REMARK SMILES IDX 1 1 2 2 8 3 7 4 6 5 4 6 3 7 19 8 20 9 18 10 11 11 9 12 10 13
REMARK SMILES IDX 12 14 13 15 15 16 16 17 5 18 17 20 14 22
REMARK H PARENT 5 19 17 21 14 23
REMARK Flexibility Score: inf
ROOT
ATOM      1  C   UNL     1       0.744   5.167   0.895  1.00  0.00     0.044 C 
ATOM      2  C   UNL     1       2.026   5.604   0.249  1.00  0.00    -0.047 A 
ATOM      3  C   UNL     1       2.803   4.685  -0.466  1.00  0.00     0.016 A 
ATOM      4  C   UNL     1       4.022   5.076  -1.047  1.00  0.00     0.038 A 
ATOM      5  C   UNL     1       4.480   6.401  -0.892  1.00  0.00     0.076 A 
ATOM      6  C   UNL     1       3.698   7.323  -0.158  1.00  0.00     0.127 A 
ATOM      7  C   UNL     1       2.485   6.915   0.412  1.00  0.00     0.050 A 
ATOM      8  C   UNL     1       5.790   6.787  -1.479  1.00  0.00     0.201 C 
ATOM      9  O   UNL     1       6.377   7.821  -1.060  1.00  0.00    -0.288 OA
ATOM     10  C   UNL     1       6.458   5.898  -2.469  1.00  0.00     0.076 A 
ATOM     11  C   UNL     1       6.026   4.554  -2.565  1.00  0.00     0.041 A 
ATOM     12  C   UNL     1       4.830   4.102  -1.815  1.00  0.00     0.194 C 
ATOM     13  O   UNL     1       4.489   2.887  -1.847  1.00  0.00    -0.289 OA
ATOM     14  C   UNL     1       6.727   3.649  -3.381  1.00  0.00     0.059 A 
ATOM     15  C   UNL     1       7.841   4.068  -4.112  1.00  0.00     0.120 A 
ATOM     16  C   UNL     1       8.242   5.401  -4.059  1.00  0.00     0.093 A 
ATOM     17  C   UNL     1       7.547   6.329  -3.277  1.00  0.00     0.131 A 
ENDROOT
BRANCH   6  18
ATOM     18  O   UNL     1       4.118   8.644   0.002  1.00  0.00    -0.507 OA
ATOM     19  H   UNL     1       3.677   9.267   0.669  1.00  0.00     0.293 HD
ENDBRANCH   6  18
BRANCH  17  20
ATOM     20  O   UNL     1       7.948   7.664  -3.364  1.00  0.00    -0.507 OA
ATOM     21  H   UNL     1       7.688   8.280  -4.121  1.00  0.00     0.293 HD
ENDBRANCH  17  20
BRANCH  15  22
ATOM     22  O   UNL     1       8.548   3.169  -4.908  1.00  0.00    -0.508 OA
ATOM     23  H   UNL     1       9.304   2.608  -4.531  1.00  0.00     0.293 HD
ENDBRANCH  15  22
TORSDOF 3
ENDMDL
MODEL 5
REMARK VINA RESULT:    -5.749      1.916      6.321
REMARK INTER + INTRA:          -6.253
REMARK INTER:                  -6.253
REMARK INTRA:                   0.000
REMARK UNBOUND:                 0.000
REMARK SMILES Cc1cc(O)c2c(c1)C(=O)c1cc(O)cc(O)c1C2=O
REMARK SMILES IDX 1 1 2 2 8 3 7 4 6 5 4 6 3 7 19 8 20 9 18 10 11 11 9 12 10 13
REMARK SMILES IDX 12 14 13 15 15 16 16 17 5 18 17 20 14 22
REMARK H PARENT 5 19 17 21 14 23
REMARK Flexibility Score: inf
ROOT
ATOM      1  C   UNL     1       0.843   9.210   1.403  1.00  0.00     0.044 C 
ATOM      2  C   UNL     1       1.875   8.178   1.053  1.00  0.00    -0.047 A 
ATOM      3  C   UNL     1       2.780   8.412   0.012  1.00  0.00     0.016 A 
ATOM      4  C   UNL     1       3.730   7.439  -0.346  1.00  0.00     0.038 A 
ATOM      5  C   UNL     1       3.759   6.204   0.336  1.00  0.00     0.076 A 
ATOM      6  C   UNL     1       2.834   5.967   1.379  1.00  0.00     0.127 A 
ATOM      7  C   UNL     1       1.898   6.950   1.723  1.00  0.00     0.050 A 
ATOM      8  C   UNL     1       4.743   5.171  -0.081  1.00  0.00     0.201 C 
ATOM      9  O   UNL     1       4.558   3.968   0.249  1.00  0.00    -0.288 OA
ATOM     10  C   UNL     1       5.875   5.533  -0.979  1.00  0.00     0.076 A 
ATOM     11  C   UNL     1       5.797   6.746  -1.702  1.00  0.00     0.041 A 
ATOM     12  C   UNL     1       4.694   7.701  -1.438  1.00  0.00     0.194 C 
ATOM     13  O   UNL     1       4.587   8.748  -2.134  1.00  0.00    -0.289 OA
ATOM     14  C   UNL     1       6.774   7.051  -2.667  1.00  0.00     0.059 A 
ATOM     15  C   UNL     1       7.832   6.172  -2.907  1.00  0.00     0.120 A 
ATOM     16  C   UNL     1       7.940   4.999  -2.163  1.00  0.00     0.093 A 
ATOM     17  C   UNL     1       6.998   4.683  -1.180  1.00  0.00     0.131 A 
ENDROOT
BRANCH   6  18
ATOM     18  O   UNL     1       2.847   4.761   2.081  1.00  0.00    -0.507 OA
ATOM     19  H   UNL     1       2.062   4.466   2.650  1.00  0.00     0.293 HD
ENDBRANCH   6  18
BRANCH  17  20
ATOM     20  O   UNL     1       7.239   3.545  -0.408  1.00  0.00    -0.507 OA
ATOM     21  H   UNL     1       7.012   2.606  -0.705  1.00  0.00     0.293 HD
ENDBRANCH  17  20
BRANCH  15  22
ATOM     22  O   UNL     1       8.792   6.463  -3.874  1.00  0.00    -0.508 OA
ATOM     23  H   UNL     1       9.507   5.793  -4.131  1.00  0.00     0.293 HD
ENDBRANCH  15  22
TORSDOF 3
ENDMDL
MODEL 6
REMARK VINA RESULT:    -5.620      1.250      3.422
REMARK INTER + INTRA:          -6.113
REMARK INTER:                  -6.113
REMARK INTRA:                   0.000
REMARK UNBOUND:                 0.000
REMARK SMILES Cc1cc(O)c2c(c1)C(=O)c1cc(O)cc(O)c1C2=O
REMARK SMILES IDX 1 1 2 2 8 3 7 4 6 5 4 6 3 7 19 8 20 9 18 10 11 11 9 12 10 13
REMARK SMILES IDX 12 14 13 15 15 16 16 17 5 18 17 20 14 22
REMARK H PARENT 5 19 17 21 14 23
REMARK Flexibility Score: inf
ROOT
ATOM      1  C   UNL     1       8.831   6.165  -3.985  1.00  0.00     0.044 C 
ATOM      2  C   UNL     1       7.617   5.853  -3.161  1.00  0.00    -0.047 A 
ATOM      3  C   UNL     1       6.909   6.883  -2.530  1.00  0.00     0.016 A 
ATOM      4  C   UNL     1       5.790   6.599  -1.728  1.00  0.00     0.038 A 
ATOM      5  C   UNL     1       5.386   5.260  -1.538  1.00  0.00     0.076 A 
ATOM      6  C   UNL     1       6.111   4.222  -2.166  1.00  0.00     0.127 A 
ATOM      7  C   UNL     1       7.222   4.526  -2.964  1.00  0.00     0.050 A 
ATOM      8  C   UNL     1       4.224   4.974  -0.656  1.00  0.00     0.201 C 
ATOM      9  O   UNL     1       4.070   3.814  -0.189  1.00  0.00    -0.288 OA
ATOM     10  C   UNL     1       3.316   6.076  -0.232  1.00  0.00     0.076 A 
ATOM     11  C   UNL     1       3.766   7.410  -0.373  1.00  0.00     0.041 A 
ATOM     12  C   UNL     1       5.038   7.696  -1.078  1.00  0.00     0.194 C 
ATOM     13  O   UNL     1       5.472   8.879  -1.140  1.00  0.00    -0.289 OA
ATOM     14  C   UNL     1       2.999   8.467   0.148  1.00  0.00     0.059 A 
ATOM     15  C   UNL     1       1.786   8.213   0.793  1.00  0.00     0.120 A 
ATOM     16  C   UNL     1       1.315   6.906   0.891  1.00  0.00     0.093 A 
ATOM     17  C   UNL     1       2.043   5.839   0.358  1.00  0.00     0.131 A 
ENDROOT
BRANCH   6  18
ATOM     18  O   UNL     1       5.728   2.889  -2.008  1.00  0.00    -0.507 OA
ATOM     19  H   UNL     1       5.705   2.445  -1.098  1.00  0.00     0.293 HD
ENDBRANCH   6  18
BRANCH  17  20
ATOM     20  O   UNL     1       1.450   4.575   0.404  1.00  0.00    -0.507 OA
ATOM     21  H   UNL     1       1.940   3.734   0.673  1.00  0.00     0.293 HD
ENDBRANCH  17  20
BRANCH  15  22
ATOM     22  O   UNL     1       1.033   9.258   1.325  1.00  0.00    -0.508 OA
ATOM     23  H   UNL     1       0.923   9.375   2.326  1.00  0.00     0.293 HD
ENDBRANCH  15  22
TORSDOF 3
ENDMDL
MODEL 7
REMARK VINA RESULT:    -4.771      6.765      9.612
REMARK INTER + INTRA:          -5.189
REMARK INTER:                  -5.189
REMARK INTRA:                   0.000
REMARK UNBOUND:                 0.000
REMARK SMILES Cc1cc(O)c2c(c1)C(=O)c1cc(O)cc(O)c1C2=O
REMARK SMILES IDX 1 1 2 2 8 3 7 4 6 5 4 6 3 7 19 8 20 9 18 10 11 11 9 12 10 13
REMARK SMILES IDX 12 14 13 15 15 16 16 17 5 18 17 20 14 22
REMARK H PARENT 5 19 17 21 14 23
REMARK Flexibility Score: inf
ROOT
ATOM      1  C   UNL     1      17.042   3.819  -1.952  1.00  0.00     0.044 C 
ATOM      2  C   UNL     1      15.625   4.303  -1.852  1.00  0.00    -0.047 A 
ATOM      3  C   UNL     1      14.941   4.723  -2.999  1.00  0.00     0.016 A 
ATOM      4  C   UNL     1      13.625   5.210  -2.911  1.00  0.00     0.038 A 
ATOM      5  C   UNL     1      12.992   5.297  -1.653  1.00  0.00     0.076 A 
ATOM      6  C   UNL     1      13.691   4.884  -0.496  1.00  0.00     0.127 A 
ATOM      7  C   UNL     1      15.001   4.399  -0.604  1.00  0.00     0.050 A 
ATOM      8  C   UNL     1      11.614   5.850  -1.574  1.00  0.00     0.201 C 
ATOM      9  O   UNL     1      11.176   6.269  -0.469  1.00  0.00    -0.288 OA
ATOM     10  C   UNL     1      10.802   6.018  -2.811  1.00  0.00     0.076 A 
ATOM     11  C   UNL     1      11.466   5.990  -4.060  1.00  0.00     0.041 A 
ATOM     12  C   UNL     1      12.904   5.637  -4.131  1.00  0.00     0.194 C 
ATOM     13  O   UNL     1      13.510   5.682  -5.237  1.00  0.00    -0.289 OA
ATOM     14  C   UNL     1      10.757   6.290  -5.237  1.00  0.00     0.059 A 
ATOM     15  C   UNL     1       9.396   6.600  -5.187  1.00  0.00     0.120 A 
ATOM     16  C   UNL     1       8.727   6.581  -3.965  1.00  0.00     0.093 A 
ATOM     17  C   UNL     1       9.401   6.261  -2.783  1.00  0.00     0.131 A 
ENDROOT
BRANCH   6  18
ATOM     18  O   UNL     1      13.087   4.945   0.760  1.00  0.00    -0.507 OA
ATOM     19  H   UNL     1      13.630   4.924   1.615  1.00  0.00     0.293 HD
ENDBRANCH   6  18
BRANCH  17  20
ATOM     20  O   UNL     1       8.634   6.159  -1.620  1.00  0.00    -0.507 OA
ATOM     21  H   UNL     1       9.019   6.214  -0.687  1.00  0.00     0.293 HD
ENDBRANCH  17  20
BRANCH  15  22
ATOM     22  O   UNL     1       8.696   6.914  -6.350  1.00  0.00    -0.508 OA
ATOM     23  H   UNL     1       8.634   7.866  -6.691  1.00  0.00     0.293 HD
ENDBRANCH  15  22
TORSDOF 3
ENDMDL
MODEL 8
REMARK VINA RESULT:    -4.684      2.185      4.398
REMARK INTER + INTRA:          -5.095
REMARK INTER:                  -5.095
REMARK INTRA:                   0.000
REMARK UNBOUND:                 0.000
REMARK SMILES Cc1cc(O)c2c(c1)C(=O)c1cc(O)cc(O)c1C2=O
REMARK SMILES IDX 1 1 2 2 8 3 7 4 6 5 4 6 3 7 19 8 20 9 18 10 11 11 9 12 10 13
REMARK SMILES IDX 12 14 13 15 15 16 16 17 5 18 17 20 14 22
REMARK H PARENT 5 19 17 21 14 23
REMARK Flexibility Score: inf
ROOT
ATOM      1  C   UNL     1       9.782   7.013  -5.318  1.00  0.00     0.044 C 
ATOM      2  C   UNL     1       8.931   6.295  -4.311  1.00  0.00    -0.047 A 
ATOM      3  C   UNL     1       7.948   6.989  -3.597  1.00  0.00     0.016 A 
ATOM      4  C   UNL     1       7.168   6.334  -2.628  1.00  0.00     0.038 A 
ATOM      5  C   UNL     1       7.391   4.967  -2.355  1.00  0.00     0.076 A 
ATOM      6  C   UNL     1       8.394   4.273  -3.070  1.00  0.00     0.127 A 
ATOM      7  C   UNL     1       9.159   4.943  -4.034  1.00  0.00     0.050 A 
ATOM      8  C   UNL     1       6.584   4.300  -1.300  1.00  0.00     0.201 C 
ATOM      9  O   UNL     1       6.994   3.220  -0.796  1.00  0.00    -0.288 OA
ATOM     10  C   UNL     1       5.363   4.960  -0.761  1.00  0.00     0.076 A 
ATOM     11  C   UNL     1       5.190   6.345  -0.991  1.00  0.00     0.041 A 
ATOM     12  C   UNL     1       6.120   7.072  -1.888  1.00  0.00     0.194 C 
ATOM     13  O   UNL     1       6.005   8.320  -2.036  1.00  0.00    -0.289 OA
ATOM     14  C   UNL     1       4.128   7.030  -0.376  1.00  0.00     0.059 A 
ATOM     15  C   UNL     1       3.230   6.352   0.452  1.00  0.00     0.120 A 
ATOM     16  C   UNL     1       3.368   4.979   0.643  1.00  0.00     0.093 A 
ATOM     17  C   UNL     1       4.398   4.267   0.023  1.00  0.00     0.131 A 
ENDROOT
BRANCH   6  18
ATOM     18  O   UNL     1       8.629   2.918  -2.833  1.00  0.00    -0.507 OA
ATOM     19  H   UNL     1       9.321   2.606  -2.162  1.00  0.00     0.293 HD
ENDBRANCH   6  18
BRANCH  17  20
ATOM     20  O   UNL     1       4.400   2.880   0.181  1.00  0.00    -0.507 OA
ATOM     21  H   UNL     1       4.472   2.416   1.076  1.00  0.00     0.293 HD
ENDBRANCH  17  20
BRANCH  15  22
ATOM     22  O   UNL     1       2.187   7.033   1.077  1.00  0.00    -0.508 OA
ATOM     23  H   UNL     1       1.845   6.756   1.990  1.00  0.00     0.293 HD
ENDBRANCH  15  22
TORSDOF 3
ENDMDL
MODEL 9
REMARK VINA RESULT:    -4.532      6.566     10.164
REMARK INTER + INTRA:          -4.929
REMARK INTER:                  -4.929
REMARK INTRA:                   0.000
REMARK UNBOUND:                 0.000
REMARK SMILES Cc1cc(O)c2c(c1)C(=O)c1cc(O)cc(O)c1C2=O
REMARK SMILES IDX 1 1 2 2 8 3 7 4 6 5 4 6 3 7 19 8 20 9 18 10 11 11 9 12 10 13
REMARK SMILES IDX 12 14 13 15 15 16 16 17 5 18 17 20 14 22
REMARK H PARENT 5 19 17 21 14 23
REMARK Flexibility Score: inf
ROOT
ATOM      1  C   UNL     1       8.648   7.147  -5.986  1.00  0.00     0.044 C 
ATOM      2  C   UNL     1       9.356   6.658  -4.756  1.00  0.00    -0.047 A 
ATOM      3  C   UNL     1      10.679   6.210  -4.837  1.00  0.00     0.016 A 
ATOM      4  C   UNL     1      11.341   5.718  -3.698  1.00  0.00     0.038 A 
ATOM      5  C   UNL     1      10.660   5.656  -2.464  1.00  0.00     0.076 A 
ATOM      6  C   UNL     1       9.319   6.097  -2.389  1.00  0.00     0.127 A 
ATOM      7  C   UNL     1       8.678   6.586  -3.535  1.00  0.00     0.050 A 
ATOM      8  C   UNL     1      11.362   5.097  -1.278  1.00  0.00     0.201 C 
ATOM      9  O   UNL     1      10.690   4.701  -0.289  1.00  0.00    -0.288 OA
ATOM     10  C   UNL     1      12.838   4.899  -1.306  1.00  0.00     0.076 A 
ATOM     11  C   UNL     1      13.493   4.903  -2.560  1.00  0.00     0.041 A 
ATOM     12  C   UNL     1      12.746   5.261  -3.789  1.00  0.00     0.194 C 
ATOM     13  O   UNL     1      13.315   5.195  -4.914  1.00  0.00    -0.289 OA
ATOM     14  C   UNL     1      14.858   4.574  -2.638  1.00  0.00     0.059 A 
ATOM     15  C   UNL     1      15.579   4.258  -1.484  1.00  0.00     0.120 A 
ATOM     16  C   UNL     1      14.951   4.301  -0.242  1.00  0.00     0.093 A 
ATOM     17  C   UNL     1      13.602   4.650  -0.132  1.00  0.00     0.131 A 
ENDROOT
BRANCH   6  18
ATOM     18  O   UNL     1       8.624   6.060  -1.181  1.00  0.00    -0.507 OA
ATOM     19  H   UNL     1       9.090   5.870  -0.302  1.00  0.00     0.293 HD
ENDBRANCH   6  18
BRANCH  17  20
ATOM     20  O   UNL     1      13.078   4.773   1.157  1.00  0.00    -0.507 OA
ATOM     21  H   UNL     1      13.461   4.304   1.966  1.00  0.00     0.293 HD
ENDBRANCH  17  20
BRANCH  15  22
ATOM     22  O   UNL     1      16.928   3.916  -1.562  1.00  0.00    -0.508 OA
ATOM     23  H   UNL     1      17.389   3.404  -0.818  1.00  0.00     0.293 HD
ENDBRANCH  15  22
TORSDOF 3
ENDMDL
