MODEL 1
REMARK VINA RESULT:    -6.213      0.000      0.000
REMARK INTER + INTRA:         -14.025
REMARK INTER:                 -11.297
REMARK INTRA:                  -2.728
REMARK UNBOUND:                -2.728
REMARK SMILES CCCCCC=CCC=CCCCCCCCC(=O)[O-]
REMARK SMILES IDX 11 1 12 2 13 3 14 4 15 5 16 6 17 7 18 8 19 9 20 10 10 11
REMARK SMILES IDX 9 12 8 13 7 14 6 15 5 16 4 17 3 18 2 19 1 20
REMARK H PARENT
REMARK Flexibility Score: inf
ROOT
ATOM      1  C   UNL     1       9.829 -14.774  38.492  1.00  0.00     0.027 C 
ENDROOT
BRANCH   1   2
ATOM      2  C   UNL     1       8.413 -14.179  38.484  1.00  0.00     0.004 C 
BRANCH   2   3
ATOM      3  C   UNL     1       8.430 -12.640  38.527  1.00  0.00     0.000 C 
BRANCH   3   4
ATOM      4  C   UNL     1       9.671 -12.048  37.826  1.00  0.00     0.000 C 
BRANCH   4   5
ATOM      5  C   UNL     1       9.360 -11.380  36.473  1.00  0.00     0.000 C 
BRANCH   5   6
ATOM      6  C   UNL     1       9.839 -12.162  35.238  1.00  0.00     0.006 C 
BRANCH   6   7
ATOM      7  C   UNL     1       8.855 -12.083  34.064  1.00  0.00     0.053 C 
BRANCH   7   8
ATOM      8  C   UNL     1       7.909 -13.240  34.090  1.00  0.00     0.041 C 
ATOM      9  O   UNL     1       7.657 -13.877  33.032  1.00  0.00    -0.550 OA
ATOM     10  O   UNL     1       7.281 -13.601  35.278  1.00  0.00    -0.550 OA
ENDBRANCH   7   8
ENDBRANCH   6   7
ENDBRANCH   5   6
ENDBRANCH   4   5
ENDBRANCH   3   4
ENDBRANCH   2   3
ENDBRANCH   1   2
BRANCH   1  11
ATOM     11  C   UNL     1      10.210 -15.344  37.147  1.00  0.00    -0.031 C 
ATOM     12  C   UNL     1      11.443 -15.276  36.612  1.00  0.00    -0.027 C 
BRANCH  12  13
ATOM     13  C   UNL     1      12.646 -14.688  37.305  1.00  0.00     0.054 C 
BRANCH  13  14
ATOM     14  C   UNL     1      12.947 -13.308  36.792  1.00  0.00    -0.027 C 
ATOM     15  C   UNL     1      13.251 -13.089  35.504  1.00  0.00    -0.031 C 
BRANCH  15  16
ATOM     16  C   UNL     1      13.552 -11.708  34.987  1.00  0.00     0.027 C 
BRANCH  16  17
ATOM     17  C   UNL     1      13.795 -10.724  36.140  1.00  0.00     0.004 C 
BRANCH  17  18
ATOM     18  C   UNL     1      12.668  -9.686  36.287  1.00  0.00     0.000 C 
BRANCH  18  19
ATOM     19  C   UNL     1      12.181  -9.455  37.730  1.00  0.00    -0.003 C 
ATOM     20  C   UNL     1      12.908 -10.324  38.757  1.00  0.00     0.004 C 
ENDBRANCH  18  19
ENDBRANCH  17  18
ENDBRANCH  16  17
ENDBRANCH  15  16
ENDBRANCH  13  14
ENDBRANCH  12  13
ENDBRANCH   1  11
TORSDOF 14
ENDMDL
MODEL 2
REMARK VINA RESULT:    -6.165      2.780      5.603
REMARK INTER + INTRA:         -13.938
REMARK INTER:                 -11.237
REMARK INTRA:                  -2.701
REMARK UNBOUND:                -2.728
REMARK SMILES CCCCCC=CCC=CCCCCCCCC(=O)[O-]
REMARK SMILES IDX 11 1 12 2 13 3 14 4 15 5 16 6 17 7 18 8 19 9 20 10 10 11
REMARK SMILES IDX 9 12 8 13 7 14 6 15 5 16 4 17 3 18 2 19 1 20
REMARK H PARENT
REMARK Flexibility Score: inf
ROOT
ATOM      1  C   UNL     1      13.009 -13.270  35.307  1.00  0.00     0.027 C 
ENDROOT
BRANCH   1   2
ATOM      2  C   UNL     1      13.687 -11.930  34.985  1.00  0.00     0.004 C 
BRANCH   2   3
ATOM      3  C   UNL     1      12.664 -10.806  34.739  1.00  0.00     0.000 C 
BRANCH   3   4
ATOM      4  C   UNL     1      11.224 -11.240  35.088  1.00  0.00     0.000 C 
BRANCH   4   5
ATOM      5  C   UNL     1      10.647 -10.534  36.331  1.00  0.00     0.000 C 
BRANCH   5   6
ATOM      6  C   UNL     1      10.940 -11.235  37.668  1.00  0.00     0.006 C 
BRANCH   6   7
ATOM      7  C   UNL     1      11.376 -10.260  38.769  1.00  0.00     0.053 C 
BRANCH   7   8
ATOM      8  C   UNL     1      12.857 -10.313  38.963  1.00  0.00     0.041 C 
ATOM      9  O   UNL     1      13.625 -10.375  37.966  1.00  0.00    -0.550 OA
ATOM     10  O   UNL     1      13.392 -10.323  40.247  1.00  0.00    -0.550 OA
ENDBRANCH   7   8
ENDBRANCH   6   7
ENDBRANCH   5   6
ENDBRANCH   4   5
ENDBRANCH   3   4
ENDBRANCH   2   3
ENDBRANCH   1   2
BRANCH   1  11
ATOM     11  C   UNL     1      13.224 -13.682  36.743  1.00  0.00    -0.031 C 
ATOM     12  C   UNL     1      12.478 -14.594  37.395  1.00  0.00    -0.027 C 
BRANCH  12  13
ATOM     13  C   UNL     1      11.365 -15.395  36.769  1.00  0.00     0.054 C 
BRANCH  13  14
ATOM     14  C   UNL     1      10.039 -14.710  36.943  1.00  0.00    -0.027 C 
ATOM     15  C   UNL     1       9.553 -14.421  38.160  1.00  0.00    -0.031 C 
BRANCH  15  16
ATOM     16  C   UNL     1       8.226 -13.734  38.337  1.00  0.00     0.027 C 
BRANCH  16  17
ATOM     17  C   UNL     1       7.436 -13.703  37.021  1.00  0.00     0.004 C 
BRANCH  17  18
ATOM     18  C   UNL     1       7.248 -12.278  36.469  1.00  0.00     0.000 C 
BRANCH  18  19
ATOM     19  C   UNL     1       7.602 -12.106  34.980  1.00  0.00    -0.003 C 
ATOM     20  C   UNL     1       7.886 -13.430  34.272  1.00  0.00     0.004 C 
ENDBRANCH  18  19
ENDBRANCH  17  18
ENDBRANCH  16  17
ENDBRANCH  15  16
ENDBRANCH  13  14
ENDBRANCH  12  13
ENDBRANCH   1  11
TORSDOF 14
ENDMDL
MODEL 3
REMARK VINA RESULT:    -5.991      2.547      4.860
REMARK INTER + INTRA:         -13.621
REMARK INTER:                 -11.082
REMARK INTRA:                  -2.539
REMARK UNBOUND:                -2.728
REMARK SMILES CCCCCC=CCC=CCCCCCCCC(=O)[O-]
REMARK SMILES IDX 11 1 12 2 13 3 14 4 15 5 16 6 17 7 18 8 19 9 20 10 10 11
REMARK SMILES IDX 9 12 8 13 7 14 6 15 5 16 4 17 3 18 2 19 1 20
REMARK H PARENT
REMARK Flexibility Score: inf
ROOT
ATOM      1  C   UNL     1       7.636 -12.048  35.873  1.00  0.00     0.027 C 
ENDROOT
BRANCH   1   2
ATOM      2  C   UNL     1       8.330 -12.364  34.540  1.00  0.00     0.004 C 
BRANCH   2   3
ATOM      3  C   UNL     1       9.794 -11.891  34.521  1.00  0.00     0.000 C 
BRANCH   3   4
ATOM      4  C   UNL     1      10.169 -11.097  35.792  1.00  0.00     0.000 C 
BRANCH   4   5
ATOM      5  C   UNL     1      11.356 -10.134  35.594  1.00  0.00     0.000 C 
BRANCH   5   6
ATOM      6  C   UNL     1      11.741  -9.316  36.838  1.00  0.00     0.006 C 
BRANCH   6   7
ATOM      7  C   UNL     1      12.896  -9.944  37.629  1.00  0.00     0.053 C 
BRANCH   7   8
ATOM      8  C   UNL     1      12.428 -10.393  38.976  1.00  0.00     0.041 C 
ATOM      9  O   UNL     1      11.285 -10.905  39.111  1.00  0.00    -0.550 OA
ATOM     10  O   UNL     1      13.243 -10.221  40.091  1.00  0.00    -0.550 OA
ENDBRANCH   7   8
ENDBRANCH   6   7
ENDBRANCH   5   6
ENDBRANCH   4   5
ENDBRANCH   3   4
ENDBRANCH   2   3
ENDBRANCH   1   2
BRANCH   1  11
ATOM     11  C   UNL     1       7.009 -13.275  36.490  1.00  0.00    -0.031 C 
ATOM     12  C   UNL     1       7.448 -13.873  37.613  1.00  0.00    -0.027 C 
BRANCH  12  13
ATOM     13  C   UNL     1       8.583 -13.365  38.466  1.00  0.00     0.054 C 
BRANCH  13  14
ATOM     14  C   UNL     1       9.845 -14.139  38.209  1.00  0.00    -0.027 C 
ATOM     15  C   UNL     1      10.183 -14.539  36.974  1.00  0.00    -0.031 C 
BRANCH  15  16
ATOM     16  C   UNL     1      11.447 -15.312  36.713  1.00  0.00     0.027 C 
BRANCH  16  17
ATOM     17  C   UNL     1      12.673 -14.582  37.279  1.00  0.00     0.004 C 
BRANCH  17  18
ATOM     18  C   UNL     1      12.943 -13.238  36.581  1.00  0.00     0.000 C 
BRANCH  18  19
ATOM     19  C   UNL     1      13.547 -13.349  35.168  1.00  0.00    -0.003 C 
ATOM     20  C   UNL     1      14.218 -12.058  34.697  1.00  0.00     0.004 C 
ENDBRANCH  18  19
ENDBRANCH  17  18
ENDBRANCH  16  17
ENDBRANCH  15  16
ENDBRANCH  13  14
ENDBRANCH  12  13
ENDBRANCH   1  11
TORSDOF 14
ENDMDL
MODEL 4
REMARK VINA RESULT:    -5.833      2.595      5.475
REMARK INTER + INTRA:         -13.334
REMARK INTER:                 -10.968
REMARK INTRA:                  -2.366
REMARK UNBOUND:                -2.728
REMARK SMILES CCCCCC=CCC=CCCCCCCCC(=O)[O-]
REMARK SMILES IDX 11 1 12 2 13 3 14 4 15 5 16 6 17 7 18 8 19 9 20 10 10 11
REMARK SMILES IDX 9 12 8 13 7 14 6 15 5 16 4 17 3 18 2 19 1 20
REMARK H PARENT
REMARK Flexibility Score: inf
ROOT
ATOM      1  C   UNL     1      12.312 -14.358  37.353  1.00  0.00     0.027 C 
ENDROOT
BRANCH   1   2
ATOM      2  C   UNL     1      12.910 -13.424  36.290  1.00  0.00     0.004 C 
BRANCH   2   3
ATOM      3  C   UNL     1      11.825 -12.661  35.510  1.00  0.00     0.000 C 
BRANCH   3   4
ATOM      4  C   UNL     1      12.256 -11.219  35.165  1.00  0.00     0.000 C 
BRANCH   4   5
ATOM      5  C   UNL     1      11.357 -10.136  35.794  1.00  0.00     0.000 C 
BRANCH   5   6
ATOM      6  C   UNL     1      12.018  -9.317  36.916  1.00  0.00     0.006 C 
BRANCH   6   7
ATOM      7  C   UNL     1      13.052 -10.122  37.712  1.00  0.00     0.053 C 
BRANCH   7   8
ATOM      8  C   UNL     1      12.565 -10.375  39.103  1.00  0.00     0.041 C 
ATOM      9  O   UNL     1      11.339 -10.569  39.319  1.00  0.00    -0.550 OA
ATOM     10  O   UNL     1      13.460 -10.369  40.168  1.00  0.00    -0.550 OA
ENDBRANCH   7   8
ENDBRANCH   6   7
ENDBRANCH   5   6
ENDBRANCH   4   5
ENDBRANCH   3   4
ENDBRANCH   2   3
ENDBRANCH   1   2
BRANCH   1  11
ATOM     11  C   UNL     1      11.294 -15.305  36.764  1.00  0.00    -0.031 C 
ATOM     12  C   UNL     1      10.122 -15.622  37.346  1.00  0.00    -0.027 C 
BRANCH  12  13
ATOM     13  C   UNL     1       9.615 -15.022  38.632  1.00  0.00     0.054 C 
BRANCH  13  14
ATOM     14  C   UNL     1       8.642 -13.908  38.367  1.00  0.00    -0.027 C 
ATOM     15  C   UNL     1       9.053 -12.707  37.931  1.00  0.00    -0.031 C 
BRANCH  15  16
ATOM     16  C   UNL     1       8.082 -11.590  37.662  1.00  0.00     0.027 C 
BRANCH  16  17
ATOM     17  C   UNL     1       7.242 -11.873  36.408  1.00  0.00     0.004 C 
BRANCH  17  18
ATOM     18  C   UNL     1       8.103 -12.163  35.166  1.00  0.00     0.000 C 
BRANCH  18  19
ATOM     19  C   UNL     1       8.046 -13.617  34.660  1.00  0.00    -0.003 C 
ATOM     20  C   UNL     1       7.687 -13.725  33.178  1.00  0.00     0.004 C 
ENDBRANCH  18  19
ENDBRANCH  17  18
ENDBRANCH  16  17
ENDBRANCH  15  16
ENDBRANCH  13  14
ENDBRANCH  12  13
ENDBRANCH   1  11
TORSDOF 14
ENDMDL
MODEL 5
REMARK VINA RESULT:    -5.770      1.228      2.243
REMARK INTER + INTRA:         -13.220
REMARK INTER:                 -10.979
REMARK INTRA:                  -2.240
REMARK UNBOUND:                -2.728
REMARK SMILES CCCCCC=CCC=CCCCCCCCC(=O)[O-]
REMARK SMILES IDX 11 1 12 2 13 3 14 4 15 5 16 6 17 7 18 8 19 9 20 10 10 11
REMARK SMILES IDX 9 12 8 13 7 14 6 15 5 16 4 17 3 18 2 19 1 20
REMARK H PARENT
REMARK Flexibility Score: inf
ROOT
ATOM      1  C   UNL     1      11.401 -15.038  36.625  1.00  0.00     0.027 C 
ENDROOT
BRANCH   1   2
ATOM      2  C   UNL     1      10.095 -14.742  37.377  1.00  0.00     0.004 C 
BRANCH   2   3
ATOM      3  C   UNL     1      10.121 -13.366  38.066  1.00  0.00     0.000 C 
BRANCH   3   4
ATOM      4  C   UNL     1       8.746 -12.665  38.028  1.00  0.00     0.000 C 
BRANCH   4   5
ATOM      5  C   UNL     1       7.582 -13.602  37.651  1.00  0.00     0.000 C 
BRANCH   5   6
ATOM      6  C   UNL     1       6.980 -13.360  36.257  1.00  0.00     0.006 C 
BRANCH   6   7
ATOM      7  C   UNL     1       7.651 -12.199  35.511  1.00  0.00     0.053 C 
BRANCH   7   8
ATOM      8  C   UNL     1       8.110 -12.638  34.158  1.00  0.00     0.041 C 
ATOM      9  O   UNL     1       7.628 -13.676  33.631  1.00  0.00    -0.550 OA
ATOM     10  O   UNL     1       9.093 -11.917  33.488  1.00  0.00    -0.550 OA
ENDBRANCH   7   8
ENDBRANCH   6   7
ENDBRANCH   5   6
ENDBRANCH   4   5
ENDBRANCH   3   4
ENDBRANCH   2   3
ENDBRANCH   1   2
BRANCH   1  11
ATOM     11  C   UNL     1      12.602 -14.449  37.324  1.00  0.00    -0.031 C 
ATOM     12  C   UNL     1      13.545 -13.701  36.720  1.00  0.00    -0.027 C 
BRANCH  12  13
ATOM     13  C   UNL     1      13.505 -13.277  35.274  1.00  0.00     0.054 C 
BRANCH  13  14
ATOM     14  C   UNL     1      13.113 -11.832  35.142  1.00  0.00    -0.027 C 
ATOM     15  C   UNL     1      11.890 -11.403  35.486  1.00  0.00    -0.031 C 
BRANCH  15  16
ATOM     16  C   UNL     1      11.496  -9.957  35.356  1.00  0.00     0.027 C 
BRANCH  16  17
ATOM     17  C   UNL     1      11.808  -9.178  36.642  1.00  0.00     0.004 C 
BRANCH  17  18
ATOM     18  C   UNL     1      11.818 -10.072  37.895  1.00  0.00     0.000 C 
BRANCH  18  19
ATOM     19  C   UNL     1      13.205 -10.288  38.528  1.00  0.00    -0.003 C 
ATOM     20  C   UNL     1      13.154 -10.450  40.047  1.00  0.00     0.004 C 
ENDBRANCH  18  19
ENDBRANCH  17  18
ENDBRANCH  16  17
ENDBRANCH  15  16
ENDBRANCH  13  14
ENDBRANCH  12  13
ENDBRANCH   1  11
TORSDOF 14
ENDMDL
MODEL 6
REMARK VINA RESULT:    -5.623      1.065      4.091
REMARK INTER + INTRA:         -12.953
REMARK INTER:                 -10.670
REMARK INTRA:                  -2.282
REMARK UNBOUND:                -2.728
REMARK SMILES CCCCCC=CCC=CCCCCCCCC(=O)[O-]
REMARK SMILES IDX 11 1 12 2 13 3 14 4 15 5 16 6 17 7 18 8 19 9 20 10 10 11
REMARK SMILES IDX 9 12 8 13 7 14 6 15 5 16 4 17 3 18 2 19 1 20
REMARK H PARENT
REMARK Flexibility Score: inf
ROOT
ATOM      1  C   UNL     1      12.086  -9.704  37.058  1.00  0.00     0.027 C 
ENDROOT
BRANCH   1   2
ATOM      2  C   UNL     1      11.771 -10.172  38.487  1.00  0.00     0.004 C 
BRANCH   2   3
ATOM      3  C   UNL     1      10.686 -11.264  38.514  1.00  0.00     0.000 C 
BRANCH   3   4
ATOM      4  C   UNL     1       9.799 -11.239  37.250  1.00  0.00     0.000 C 
BRANCH   4   5
ATOM      5  C   UNL     1       8.351 -11.702  37.500  1.00  0.00     0.000 C 
BRANCH   5   6
ATOM      6  C   UNL     1       7.452 -11.721  36.252  1.00  0.00     0.006 C 
BRANCH   6   7
ATOM      7  C   UNL     1       7.440 -13.084  35.547  1.00  0.00     0.053 C 
BRANCH   7   8
ATOM      8  C   UNL     1       8.065 -12.982  34.193  1.00  0.00     0.041 C 
ATOM      9  O   UNL     1       9.083 -12.260  34.018  1.00  0.00    -0.550 OA
ATOM     10  O   UNL     1       7.507 -13.661  33.114  1.00  0.00    -0.550 OA
ENDBRANCH   7   8
ENDBRANCH   6   7
ENDBRANCH   5   6
ENDBRANCH   4   5
ENDBRANCH   3   4
ENDBRANCH   2   3
ENDBRANCH   1   2
BRANCH   1  11
ATOM     11  C   UNL     1      13.532  -9.938  36.693  1.00  0.00    -0.031 C 
ATOM     12  C   UNL     1      13.953 -10.828  35.775  1.00  0.00    -0.027 C 
BRANCH  12  13
ATOM     13  C   UNL     1      13.041 -11.671  34.920  1.00  0.00     0.054 C 
BRANCH  13  14
ATOM     14  C   UNL     1      12.928 -13.068  35.460  1.00  0.00    -0.027 C 
ATOM     15  C   UNL     1      12.820 -13.304  36.776  1.00  0.00    -0.031 C 
BRANCH  15  16
ATOM     16  C   UNL     1      12.704 -14.702  37.320  1.00  0.00     0.027 C 
BRANCH  16  17
ATOM     17  C   UNL     1      11.559 -15.470  36.643  1.00  0.00     0.004 C 
BRANCH  17  18
ATOM     18  C   UNL     1      10.172 -14.895  36.980  1.00  0.00     0.000 C 
BRANCH  18  19
ATOM     19  C   UNL     1       9.873 -14.759  38.485  1.00  0.00    -0.003 C 
ATOM     20  C   UNL     1       9.462 -16.079  39.138  1.00  0.00     0.004 C 
ENDBRANCH  18  19
ENDBRANCH  17  18
ENDBRANCH  16  17
ENDBRANCH  15  16
ENDBRANCH  13  14
ENDBRANCH  12  13
ENDBRANCH   1  11
TORSDOF 14
ENDMDL
MODEL 7
REMARK VINA RESULT:    -5.508      2.716      4.335
REMARK INTER + INTRA:         -12.743
REMARK INTER:                 -10.073
REMARK INTRA:                  -2.670
REMARK UNBOUND:                -2.728
REMARK SMILES CCCCCC=CCC=CCCCCCCCC(=O)[O-]
REMARK SMILES IDX 11 1 12 2 13 3 14 4 15 5 16 6 17 7 18 8 19 9 20 10 10 11
REMARK SMILES IDX 9 12 8 13 7 14 6 15 5 16 4 17 3 18 2 19 1 20
REMARK H PARENT
REMARK Flexibility Score: inf
ROOT
ATOM      1  C   UNL     1       7.300 -13.977  37.101  1.00  0.00     0.027 C 
ENDROOT
BRANCH   1   2
ATOM      2  C   UNL     1       7.148 -12.634  36.372  1.00  0.00     0.004 C 
BRANCH   2   3
ATOM      3  C   UNL     1       7.989 -12.574  35.084  1.00  0.00     0.000 C 
BRANCH   3   4
ATOM      4  C   UNL     1       9.418 -12.048  35.341  1.00  0.00     0.000 C 
BRANCH   4   5
ATOM      5  C   UNL     1       9.575 -11.311  36.685  1.00  0.00     0.000 C 
BRANCH   5   6
ATOM      6  C   UNL     1      11.009 -10.865  37.016  1.00  0.00     0.006 C 
BRANCH   6   7
ATOM      7  C   UNL     1      11.296 -10.852  38.523  1.00  0.00     0.053 C 
BRANCH   7   8
ATOM      8  C   UNL     1      12.741 -10.570  38.781  1.00  0.00     0.041 C 
ATOM      9  O   UNL     1      13.176 -10.522  39.963  1.00  0.00    -0.550 OA
ATOM     10  O   UNL     1      13.606 -10.331  37.718  1.00  0.00    -0.550 OA
ENDBRANCH   7   8
ENDBRANCH   6   7
ENDBRANCH   5   6
ENDBRANCH   4   5
ENDBRANCH   3   4
ENDBRANCH   2   3
ENDBRANCH   1   2
BRANCH   1  11
ATOM     11  C   UNL     1       8.112 -13.845  38.367  1.00  0.00    -0.031 C 
ATOM     12  C   UNL     1       9.253 -14.516  38.615  1.00  0.00    -0.027 C 
BRANCH  12  13
ATOM     13  C   UNL     1       9.931 -15.442  37.638  1.00  0.00     0.054 C 
BRANCH  13  14
ATOM     14  C   UNL     1      11.089 -14.765  36.961  1.00  0.00    -0.027 C 
ATOM     15  C   UNL     1      12.212 -14.462  37.629  1.00  0.00    -0.031 C 
BRANCH  15  16
ATOM     16  C   UNL     1      13.374 -13.785  36.954  1.00  0.00     0.027 C 
BRANCH  16  17
ATOM     17  C   UNL     1      12.991 -13.289  35.552  1.00  0.00     0.004 C 
BRANCH  17  18
ATOM     18  C   UNL     1      14.205 -12.819  34.732  1.00  0.00     0.000 C 
BRANCH  18  19
ATOM     19  C   UNL     1      14.317 -11.293  34.554  1.00  0.00    -0.003 C 
ATOM     20  C   UNL     1      12.980 -10.625  34.232  1.00  0.00     0.004 C 
ENDBRANCH  18  19
ENDBRANCH  17  18
ENDBRANCH  16  17
ENDBRANCH  15  16
ENDBRANCH  13  14
ENDBRANCH  12  13
ENDBRANCH   1  11
TORSDOF 14
ENDMDL
MODEL 8
REMARK VINA RESULT:    -5.482      2.690      5.971
REMARK INTER + INTRA:         -12.697
REMARK INTER:                 -10.822
REMARK INTRA:                  -1.875
REMARK UNBOUND:                -2.728
REMARK SMILES CCCCCC=CCC=CCCCCCCCC(=O)[O-]
REMARK SMILES IDX 11 1 12 2 13 3 14 4 15 5 16 6 17 7 18 8 19 9 20 10 10 11
REMARK SMILES IDX 9 12 8 13 7 14 6 15 5 16 4 17 3 18 2 19 1 20
REMARK H PARENT
REMARK Flexibility Score: inf
ROOT
ATOM      1  C   UNL     1      10.033 -11.508  35.902  1.00  0.00     0.027 C 
ENDROOT
BRANCH   1   2
ATOM      2  C   UNL     1      10.765 -10.204  35.550  1.00  0.00     0.004 C 
BRANCH   2   3
ATOM      3  C   UNL     1      11.789 -10.400  34.417  1.00  0.00     0.000 C 
BRANCH   3   4
ATOM      4  C   UNL     1      12.882 -11.426  34.788  1.00  0.00     0.000 C 
BRANCH   4   5
ATOM      5  C   UNL     1      14.046 -10.826  35.601  1.00  0.00     0.000 C 
BRANCH   5   6
ATOM      6  C   UNL     1      13.640 -10.195  36.944  1.00  0.00     0.006 C 
BRANCH   6   7
ATOM      7  C   UNL     1      13.218 -11.236  37.989  1.00  0.00     0.053 C 
BRANCH   7   8
ATOM      8  C   UNL     1      12.616 -10.568  39.183  1.00  0.00     0.041 C 
ATOM      9  O   UNL     1      11.386 -10.295  39.204  1.00  0.00    -0.550 OA
ATOM     10  O   UNL     1      13.419 -10.220  40.265  1.00  0.00    -0.550 OA
ENDBRANCH   7   8
ENDBRANCH   6   7
ENDBRANCH   5   6
ENDBRANCH   4   5
ENDBRANCH   3   4
ENDBRANCH   2   3
ENDBRANCH   1   2
BRANCH   1  11
ATOM     11  C   UNL     1       9.539 -12.228  34.671  1.00  0.00    -0.031 C 
ATOM     12  C   UNL     1       8.290 -12.707  34.517  1.00  0.00    -0.027 C 
BRANCH  12  13
ATOM     13  C   UNL     1       7.176 -12.529  35.518  1.00  0.00     0.054 C 
BRANCH  13  14
ATOM     14  C   UNL     1       7.250 -13.567  36.602  1.00  0.00    -0.027 C 
ATOM     15  C   UNL     1       7.629 -13.252  37.850  1.00  0.00    -0.031 C 
BRANCH  15  16
ATOM     16  C   UNL     1       7.702 -14.288  38.938  1.00  0.00     0.027 C 
BRANCH  16  17
ATOM     17  C   UNL     1       8.954 -15.165  38.788  1.00  0.00     0.004 C 
BRANCH  17  18
ATOM     18  C   UNL     1      10.159 -14.394  38.220  1.00  0.00     0.000 C 
BRANCH  18  19
ATOM     19  C   UNL     1      10.790 -15.012  36.958  1.00  0.00    -0.003 C 
ATOM     20  C   UNL     1      12.200 -14.493  36.675  1.00  0.00     0.004 C 
ENDBRANCH  18  19
ENDBRANCH  17  18
ENDBRANCH  16  17
ENDBRANCH  15  16
ENDBRANCH  13  14
ENDBRANCH  12  13
ENDBRANCH   1  11
TORSDOF 14
ENDMDL
MODEL 9
REMARK VINA RESULT:    -5.416      2.260      3.656
REMARK INTER + INTRA:         -12.577
REMARK INTER:                 -10.071
REMARK INTRA:                  -2.507
REMARK UNBOUND:                -2.728
REMARK SMILES CCCCCC=CCC=CCCCCCCCC(=O)[O-]
REMARK SMILES IDX 11 1 12 2 13 3 14 4 15 5 16 6 17 7 18 8 19 9 20 10 10 11
REMARK SMILES IDX 9 12 8 13 7 14 6 15 5 16 4 17 3 18 2 19 1 20
REMARK H PARENT
REMARK Flexibility Score: inf
ROOT
ATOM      1  C   UNL     1       7.041 -13.006  36.320  1.00  0.00     0.027 C 
ENDROOT
BRANCH   1   2
ATOM      2  C   UNL     1       6.907 -14.131  37.356  1.00  0.00     0.004 C 
BRANCH   2   3
ATOM      3  C   UNL     1       7.773 -13.878  38.604  1.00  0.00     0.000 C 
BRANCH   3   4
ATOM      4  C   UNL     1       8.691 -12.648  38.439  1.00  0.00     0.000 C 
BRANCH   4   5
ATOM      5  C   UNL     1      10.163 -13.005  38.157  1.00  0.00     0.000 C 
BRANCH   5   6
ATOM      6  C   UNL     1      10.428 -14.497  37.891  1.00  0.00     0.006 C 
BRANCH   6   7
ATOM      7  C   UNL     1      11.080 -14.752  36.525  1.00  0.00     0.053 C 
BRANCH   7   8
ATOM      8  C   UNL     1      12.531 -14.392  36.559  1.00  0.00     0.041 C 
ATOM      9  O   UNL     1      13.202 -14.568  37.611  1.00  0.00    -0.550 OA
ATOM     10  O   UNL     1      13.138 -13.836  35.438  1.00  0.00    -0.550 OA
ENDBRANCH   7   8
ENDBRANCH   6   7
ENDBRANCH   5   6
ENDBRANCH   4   5
ENDBRANCH   3   4
ENDBRANCH   2   3
ENDBRANCH   1   2
BRANCH   1  11
ATOM     11  C   UNL     1       7.706 -13.482  35.051  1.00  0.00    -0.031 C 
ATOM     12  C   UNL     1       8.675 -12.812  34.400  1.00  0.00    -0.027 C 
BRANCH  12  13
ATOM     13  C   UNL     1       9.295 -11.524  34.879  1.00  0.00     0.054 C 
BRANCH  13  14
ATOM     14  C   UNL     1      10.794 -11.573  34.781  1.00  0.00    -0.027 C 
ATOM     15  C   UNL     1      11.554 -10.524  35.131  1.00  0.00    -0.031 C 
BRANCH  15  16
ATOM     16  C   UNL     1      13.055 -10.571  35.036  1.00  0.00     0.027 C 
BRANCH  16  17
ATOM     17  C   UNL     1      13.709 -10.228  36.382  1.00  0.00     0.004 C 
BRANCH  17  18
ATOM     18  C   UNL     1      13.214 -11.124  37.532  1.00  0.00     0.000 C 
BRANCH  18  19
ATOM     19  C   UNL     1      13.119 -10.428  38.903  1.00  0.00    -0.003 C 
ATOM     20  C   UNL     1      11.683 -10.107  39.316  1.00  0.00     0.004 C 
ENDBRANCH  18  19
ENDBRANCH  17  18
ENDBRANCH  16  17
ENDBRANCH  15  16
ENDBRANCH  13  14
ENDBRANCH  12  13
ENDBRANCH   1  11
TORSDOF 14
ENDMDL
