MODEL 1
REMARK VINA RESULT:    -5.320      0.000      0.000
REMARK INTER + INTRA:          -5.631
REMARK INTER:                  -5.631
REMARK INTRA:                   0.000
REMARK UNBOUND:                 0.000
REMARK SMILES Cc1cc(O)c(C)c(C)c1O
REMARK SMILES IDX 1 1 2 2 3 3 4 4 6 5 8 6 10 7 9 8 7 9 11 10 5 12
REMARK H PARENT 11 11 5 13
REMARK Flexibility Score: inf
ROOT
ATOM      1  C   UNL     1     -24.147 -12.360 -33.167  1.00  0.00     0.048 C 
ATOM      2  C   UNL     1     -24.768 -12.116 -31.818  1.00  0.00    -0.005 A 
ATOM      3  C   UNL     1     -26.058 -12.596 -31.564  1.00  0.00     0.053 A 
ATOM      4  C   UNL     1     -26.676 -12.385 -30.333  1.00  0.00     0.119 A 
ATOM      5  C   UNL     1     -26.012 -11.655 -29.319  1.00  0.00    -0.003 A 
ATOM      6  C   UNL     1     -24.676 -11.218 -29.542  1.00  0.00    -0.002 A 
ATOM      7  C   UNL     1     -24.071 -11.429 -30.802  1.00  0.00     0.121 A 
ATOM      8  C   UNL     1     -23.903 -10.506 -28.456  1.00  0.00     0.049 C 
ATOM      9  C   UNL     1     -26.727 -11.385 -28.014  1.00  0.00     0.049 C 
ENDROOT
BRANCH   7  10
ATOM     10  O   UNL     1     -22.776 -10.946 -31.026  1.00  0.00    -0.507 OA
ATOM     11  H   UNL     1     -22.160 -11.309 -31.741  1.00  0.00     0.293 HD
ENDBRANCH   7  10
BRANCH   4  12
ATOM     12  O   UNL     1     -27.953 -12.923 -30.149  1.00  0.00    -0.508 OA
ATOM     13  H   UNL     1     -28.125 -13.891 -29.911  1.00  0.00     0.293 HD
ENDBRANCH   4  12
TORSDOF 2
ENDMDL
MODEL 2
REMARK VINA RESULT:    -5.221      1.248      3.029
REMARK INTER + INTRA:          -5.526
REMARK INTER:                  -5.526
REMARK INTRA:                   0.000
REMARK UNBOUND:                 0.000
REMARK SMILES Cc1cc(O)c(C)c(C)c1O
REMARK SMILES IDX 1 1 2 2 3 3 4 4 6 5 8 6 10 7 9 8 7 9 11 10 5 12
REMARK H PARENT 11 11 5 13
REMARK Flexibility Score: inf
ROOT
ATOM      1  C   UNL     1     -23.282 -10.096 -28.386  1.00  0.00     0.048 C 
ATOM      2  C   UNL     1     -24.516 -10.762 -28.933  1.00  0.00    -0.005 A 
ATOM      3  C   UNL     1     -25.666 -10.828 -28.138  1.00  0.00     0.053 A 
ATOM      4  C   UNL     1     -26.827 -11.444 -28.600  1.00  0.00     0.119 A 
ATOM      5  C   UNL     1     -26.854 -12.039 -29.883  1.00  0.00    -0.003 A 
ATOM      6  C   UNL     1     -25.714 -11.923 -30.725  1.00  0.00    -0.002 A 
ATOM      7  C   UNL     1     -24.540 -11.307 -30.234  1.00  0.00     0.121 A 
ATOM      8  C   UNL     1     -25.731 -12.474 -32.133  1.00  0.00     0.049 C 
ATOM      9  C   UNL     1     -28.106 -12.757 -30.338  1.00  0.00     0.049 C 
ENDROOT
BRANCH   7  10
ATOM     10  O   UNL     1     -23.407 -11.247 -31.054  1.00  0.00    -0.507 OA
ATOM     11  H   UNL     1     -22.493 -10.967 -30.725  1.00  0.00     0.293 HD
ENDBRANCH   7  10
BRANCH   4  12
ATOM     12  O   UNL     1     -27.941 -11.440 -27.755  1.00  0.00    -0.508 OA
ATOM     13  H   UNL     1     -28.008 -10.880 -26.916  1.00  0.00     0.293 HD
ENDBRANCH   4  12
TORSDOF 2
ENDMDL
MODEL 3
REMARK VINA RESULT:    -5.071      1.251      4.321
REMARK INTER + INTRA:          -5.367
REMARK INTER:                  -5.367
REMARK INTRA:                   0.000
REMARK UNBOUND:                 0.000
REMARK SMILES Cc1cc(O)c(C)c(C)c1O
REMARK SMILES IDX 1 1 2 2 3 3 4 4 6 5 8 6 10 7 9 8 7 9 11 10 5 12
REMARK H PARENT 11 11 5 13
REMARK Flexibility Score: inf
ROOT
ATOM      1  C   UNL     1     -27.799 -10.999 -27.749  1.00  0.00     0.048 C 
ATOM      2  C   UNL     1     -26.571 -11.116 -28.614  1.00  0.00    -0.005 A 
ATOM      3  C   UNL     1     -25.352 -10.618 -28.139  1.00  0.00     0.053 A 
ATOM      4  C   UNL     1     -24.194 -10.695 -28.910  1.00  0.00     0.119 A 
ATOM      5  C   UNL     1     -24.238 -11.263 -30.205  1.00  0.00    -0.003 A 
ATOM      6  C   UNL     1     -25.456 -11.830 -30.672  1.00  0.00    -0.002 A 
ATOM      7  C   UNL     1     -26.624 -11.729 -29.883  1.00  0.00     0.121 A 
ATOM      8  C   UNL     1     -25.524 -12.517 -32.018  1.00  0.00     0.049 C 
ATOM      9  C   UNL     1     -22.981 -11.279 -31.047  1.00  0.00     0.049 C 
ENDROOT
BRANCH   7  10
ATOM     10  O   UNL     1     -27.829 -12.244 -30.378  1.00  0.00    -0.507 OA
ATOM     11  H   UNL     1     -28.649 -11.678 -30.549  1.00  0.00     0.293 HD
ENDBRANCH   7  10
BRANCH   4  12
ATOM     12  O   UNL     1     -23.011 -10.202 -28.351  1.00  0.00    -0.508 OA
ATOM     13  H   UNL     1     -22.125 -10.184 -28.838  1.00  0.00     0.293 HD
ENDBRANCH   4  12
TORSDOF 2
ENDMDL
MODEL 4
REMARK VINA RESULT:    -5.011      1.700      3.452
REMARK INTER + INTRA:          -5.304
REMARK INTER:                  -5.304
REMARK INTRA:                   0.000
REMARK UNBOUND:                 0.000
REMARK SMILES Cc1cc(O)c(C)c(C)c1O
REMARK SMILES IDX 1 1 2 2 3 3 4 4 6 5 8 6 10 7 9 8 7 9 11 10 5 12
REMARK H PARENT 11 11 5 13
REMARK Flexibility Score: inf
ROOT
ATOM      1  C   UNL     1     -28.125 -10.775 -27.711  1.00  0.00     0.048 C 
ATOM      2  C   UNL     1     -27.304 -11.171 -28.909  1.00  0.00    -0.005 A 
ATOM      3  C   UNL     1     -27.954 -11.621 -30.064  1.00  0.00     0.053 A 
ATOM      4  C   UNL     1     -27.234 -12.008 -31.192  1.00  0.00     0.119 A 
ATOM      5  C   UNL     1     -25.820 -11.971 -31.180  1.00  0.00    -0.003 A 
ATOM      6  C   UNL     1     -25.150 -11.454 -30.037  1.00  0.00    -0.002 A 
ATOM      7  C   UNL     1     -25.896 -11.081 -28.896  1.00  0.00     0.121 A 
ATOM      8  C   UNL     1     -23.643 -11.323 -30.015  1.00  0.00     0.049 C 
ATOM      9  C   UNL     1     -25.058 -12.455 -32.395  1.00  0.00     0.049 C 
ENDROOT
BRANCH   7  10
ATOM     10  O   UNL     1     -25.221 -10.625 -27.757  1.00  0.00    -0.507 OA
ATOM     11  H   UNL     1     -24.931 -11.229 -27.000  1.00  0.00     0.293 HD
ENDBRANCH   7  10
BRANCH   4  12
ATOM     12  O   UNL     1     -27.960 -12.417 -32.315  1.00  0.00    -0.508 OA
ATOM     13  H   UNL     1     -28.230 -13.375 -32.489  1.00  0.00     0.293 HD
ENDBRANCH   4  12
TORSDOF 2
ENDMDL
MODEL 5
REMARK VINA RESULT:    -4.982      1.560      3.515
REMARK INTER + INTRA:          -5.274
REMARK INTER:                  -5.274
REMARK INTRA:                   0.000
REMARK UNBOUND:                 0.000
REMARK SMILES Cc1cc(O)c(C)c(C)c1O
REMARK SMILES IDX 1 1 2 2 3 3 4 4 6 5 8 6 10 7 9 8 7 9 11 10 5 12
REMARK H PARENT 11 11 5 13
REMARK Flexibility Score: inf
ROOT
ATOM      1  C   UNL     1     -26.953 -12.721 -31.346  1.00  0.00     0.048 C 
ATOM      2  C   UNL     1     -25.570 -12.152 -31.175  1.00  0.00    -0.005 A 
ATOM      3  C   UNL     1     -24.686 -12.168 -32.260  1.00  0.00     0.053 A 
ATOM      4  C   UNL     1     -23.393 -11.662 -32.144  1.00  0.00     0.119 A 
ATOM      5  C   UNL     1     -22.943 -11.139 -30.909  1.00  0.00    -0.003 A 
ATOM      6  C   UNL     1     -23.852 -11.057 -29.818  1.00  0.00    -0.002 A 
ATOM      7  C   UNL     1     -25.155 -11.590 -29.950  1.00  0.00     0.121 A 
ATOM      8  C   UNL     1     -23.434 -10.431 -28.506  1.00  0.00     0.049 C 
ATOM      9  C   UNL     1     -21.515 -10.652 -30.790  1.00  0.00     0.049 C 
ENDROOT
BRANCH   7  10
ATOM     10  O   UNL     1     -26.022 -11.552 -28.851  1.00  0.00    -0.507 OA
ATOM     11  H   UNL     1     -26.503 -10.716 -28.548  1.00  0.00     0.293 HD
ENDBRANCH   7  10
BRANCH   4  12
ATOM     12  O   UNL     1     -22.583 -11.688 -33.283  1.00  0.00    -0.508 OA
ATOM     13  H   UNL     1     -21.582 -11.826 -33.256  1.00  0.00     0.293 HD
ENDBRANCH   4  12
TORSDOF 2
ENDMDL
MODEL 6
REMARK VINA RESULT:    -4.871      2.048      2.650
REMARK INTER + INTRA:          -5.156
REMARK INTER:                  -5.156
REMARK INTRA:                   0.000
REMARK UNBOUND:                 0.000
REMARK SMILES Cc1cc(O)c(C)c(C)c1O
REMARK SMILES IDX 1 1 2 2 3 3 4 4 6 5 8 6 10 7 9 8 7 9 11 10 5 12
REMARK H PARENT 11 11 5 13
REMARK Flexibility Score: inf
ROOT
ATOM      1  C   UNL     1     -22.499 -10.851 -29.836  1.00  0.00     0.048 C 
ATOM      2  C   UNL     1     -23.935 -10.712 -29.404  1.00  0.00    -0.005 A 
ATOM      3  C   UNL     1     -24.805 -11.795 -29.570  1.00  0.00     0.053 A 
ATOM      4  C   UNL     1     -26.144 -11.708 -29.194  1.00  0.00     0.119 A 
ATOM      5  C   UNL     1     -26.654 -10.504 -28.654  1.00  0.00    -0.003 A 
ATOM      6  C   UNL     1     -25.766  -9.418 -28.421  1.00  0.00    -0.002 A 
ATOM      7  C   UNL     1     -24.414  -9.519 -28.822  1.00  0.00     0.121 A 
ATOM      8  C   UNL     1     -26.254  -8.143 -27.772  1.00  0.00     0.049 C 
ATOM      9  C   UNL     1     -28.125 -10.413 -28.312  1.00  0.00     0.049 C 
ENDROOT
BRANCH   7  10
ATOM     10  O   UNL     1     -23.562  -8.424 -28.636  1.00  0.00    -0.507 OA
ATOM     11  H   UNL     1     -23.815  -7.605 -28.098  1.00  0.00     0.293 HD
ENDBRANCH   7  10
BRANCH   4  12
ATOM     12  O   UNL     1     -26.940 -12.845 -29.365  1.00  0.00    -0.508 OA
ATOM     13  H   UNL     1     -27.759 -13.045 -28.807  1.00  0.00     0.293 HD
ENDBRANCH   4  12
TORSDOF 2
ENDMDL
MODEL 7
REMARK VINA RESULT:    -4.804      1.259      2.981
REMARK INTER + INTRA:          -5.085
REMARK INTER:                  -5.085
REMARK INTRA:                   0.000
REMARK UNBOUND:                 0.000
REMARK SMILES Cc1cc(O)c(C)c(C)c1O
REMARK SMILES IDX 1 1 2 2 3 3 4 4 6 5 8 6 10 7 9 8 7 9 11 10 5 12
REMARK H PARENT 11 11 5 13
REMARK Flexibility Score: inf
ROOT
ATOM      1  C   UNL     1     -24.026 -12.479 -32.821  1.00  0.00     0.048 C 
ATOM      2  C   UNL     1     -24.687 -12.048 -31.539  1.00  0.00    -0.005 A 
ATOM      3  C   UNL     1     -23.931 -11.372 -30.575  1.00  0.00     0.053 A 
ATOM      4  C   UNL     1     -24.499 -10.965 -29.370  1.00  0.00     0.119 A 
ATOM      5  C   UNL     1     -25.856 -11.251 -29.090  1.00  0.00    -0.003 A 
ATOM      6  C   UNL     1     -26.651 -11.880 -30.087  1.00  0.00    -0.002 A 
ATOM      7  C   UNL     1     -26.054 -12.300 -31.299  1.00  0.00     0.121 A 
ATOM      8  C   UNL     1     -28.125 -12.131 -29.859  1.00  0.00     0.049 C 
ATOM      9  C   UNL     1     -26.434 -10.854 -27.749  1.00  0.00     0.049 C 
ENDROOT
BRANCH   7  10
ATOM     10  O   UNL     1     -26.836 -12.966 -32.250  1.00  0.00    -0.507 OA
ATOM     11  H   UNL     1     -26.638 -13.900 -32.581  1.00  0.00     0.293 HD
ENDBRANCH   7  10
BRANCH   4  12
ATOM     12  O   UNL     1     -23.683 -10.268 -28.473  1.00  0.00    -0.508 OA
ATOM     13  H   UNL     1     -22.735 -10.538 -28.251  1.00  0.00     0.293 HD
ENDBRANCH   4  12
TORSDOF 2
ENDMDL
MODEL 8
REMARK VINA RESULT:    -4.644      2.339      3.915
REMARK INTER + INTRA:          -4.916
REMARK INTER:                  -4.916
REMARK INTRA:                   0.000
REMARK UNBOUND:                 0.000
REMARK SMILES Cc1cc(O)c(C)c(C)c1O
REMARK SMILES IDX 1 1 2 2 3 3 4 4 6 5 8 6 10 7 9 8 7 9 11 10 5 12
REMARK H PARENT 11 11 5 13
REMARK Flexibility Score: inf
ROOT
ATOM      1  C   UNL     1     -24.478  -6.771 -27.683  1.00  0.00     0.048 C 
ATOM      2  C   UNL     1     -24.872  -8.155 -28.126  1.00  0.00    -0.005 A 
ATOM      3  C   UNL     1     -26.223  -8.522 -28.097  1.00  0.00     0.053 A 
ATOM      4  C   UNL     1     -26.632  -9.795 -28.488  1.00  0.00     0.119 A 
ATOM      5  C   UNL     1     -25.677 -10.753 -28.902  1.00  0.00    -0.003 A 
ATOM      6  C   UNL     1     -24.310 -10.373 -28.997  1.00  0.00    -0.002 A 
ATOM      7  C   UNL     1     -23.911  -9.081 -28.582  1.00  0.00     0.121 A 
ATOM      8  C   UNL     1     -23.270 -11.342 -29.511  1.00  0.00     0.049 C 
ATOM      9  C   UNL     1     -26.139 -12.149 -29.261  1.00  0.00     0.049 C 
ENDROOT
BRANCH   7  10
ATOM     10  O   UNL     1     -22.554  -8.738 -28.630  1.00  0.00    -0.507 OA
ATOM     11  H   UNL     1     -21.870  -9.241 -29.179  1.00  0.00     0.293 HD
ENDBRANCH   7  10
BRANCH   4  12
ATOM     12  O   UNL     1     -28.002 -10.072 -28.459  1.00  0.00    -0.508 OA
ATOM     13  H   UNL     1     -28.500 -10.355 -27.625  1.00  0.00     0.293 HD
ENDBRANCH   4  12
TORSDOF 2
ENDMDL
