MODEL 1
REMARK VINA RESULT:    -6.005      0.000      0.000
REMARK INTER + INTRA:          -6.774
REMARK INTER:                  -6.532
REMARK INTRA:                  -0.242
REMARK UNBOUND:                -0.242
REMARK SMILES O=C([O-])c1ccccc1O
REMARK SMILES IDX 4 1 9 2 5 3 8 4 6 5 7 6 2 7 1 8 3 9 10 10
REMARK H PARENT 10 11
REMARK Flexibility Score: inf
ROOT
ATOM      1  C   UNL     1      25.214   3.654 -79.728  1.00  0.00     0.039 A 
ATOM      2  C   UNL     1      26.028   4.780 -80.013  1.00  0.00     0.124 A 
ATOM      3  C   UNL     1      25.828   2.402 -79.529  1.00  0.00     0.014 A 
ATOM      4  C   UNL     1      27.413   4.616 -80.151  1.00  0.00     0.047 A 
ATOM      5  C   UNL     1      27.212   2.261 -79.650  1.00  0.00     0.001 A 
ATOM      6  C   UNL     1      28.002   3.364 -79.970  1.00  0.00     0.004 A 
ENDROOT
BRANCH   1   7
ATOM      7  C   UNL     1      23.738   3.737 -79.671  1.00  0.00     0.075 C 
ATOM      8  O   UNL     1      23.080   2.874 -79.031  1.00  0.00    -0.545 OA
ATOM      9  O   UNL     1      23.052   4.720 -80.375  1.00  0.00    -0.545 OA
ENDBRANCH   1   7
BRANCH   2  10
ATOM     10  O   UNL     1      25.511   6.072 -80.128  1.00  0.00    -0.507 OA
ATOM     11  H   UNL     1      25.805   6.726 -80.840  1.00  0.00     0.293 HD
ENDBRANCH   2  10
TORSDOF 2
ENDMDL
MODEL 2
REMARK VINA RESULT:    -5.807      2.805      4.844
REMARK INTER + INTRA:          -6.558
REMARK INTER:                  -6.359
REMARK INTRA:                  -0.200
REMARK UNBOUND:                -0.242
REMARK SMILES O=C([O-])c1ccccc1O
REMARK SMILES IDX 4 1 9 2 5 3 8 4 6 5 7 6 2 7 1 8 3 9 10 10
REMARK H PARENT 10 11
REMARK Flexibility Score: inf
ROOT
ATOM      1  C   UNL     1      22.694   4.574 -80.663  1.00  0.00     0.039 A 
ATOM      2  C   UNL     1      21.523   5.234 -80.213  1.00  0.00     0.124 A 
ATOM      3  C   UNL     1      22.989   4.573 -82.040  1.00  0.00     0.014 A 
ATOM      4  C   UNL     1      20.654   5.815 -81.146  1.00  0.00     0.047 A 
ATOM      5  C   UNL     1      22.122   5.175 -82.954  1.00  0.00     0.001 A 
ATOM      6  C   UNL     1      20.951   5.788 -82.509  1.00  0.00     0.004 A 
ENDROOT
BRANCH   1   7
ATOM      7  C   UNL     1      23.600   3.851 -79.744  1.00  0.00     0.075 C 
ATOM      8  O   UNL     1      24.829   4.126 -79.721  1.00  0.00    -0.545 OA
ATOM      9  O   UNL     1      23.127   2.816 -78.945  1.00  0.00    -0.545 OA
ENDBRANCH   1   7
BRANCH   2  10
ATOM     10  O   UNL     1      21.207   5.367 -78.859  1.00  0.00    -0.507 OA
ATOM     11  H   UNL     1      21.532   6.131 -78.285  1.00  0.00     0.293 HD
ENDBRANCH   2  10
TORSDOF 2
ENDMDL
MODEL 3
REMARK VINA RESULT:    -5.750      2.977      4.999
REMARK INTER + INTRA:          -6.496
REMARK INTER:                  -6.264
REMARK INTRA:                  -0.232
REMARK UNBOUND:                -0.242
REMARK SMILES O=C([O-])c1ccccc1O
REMARK SMILES IDX 4 1 9 2 5 3 8 4 6 5 7 6 2 7 1 8 3 9 10 10
REMARK H PARENT 10 11
REMARK Flexibility Score: inf
ROOT
ATOM      1  C   UNL     1      22.586   4.796 -80.885  1.00  0.00     0.039 A 
ATOM      2  C   UNL     1      21.328   5.246 -80.411  1.00  0.00     0.124 A 
ATOM      3  C   UNL     1      22.841   4.818 -82.270  1.00  0.00     0.014 A 
ATOM      4  C   UNL     1      20.346   5.644 -81.327  1.00  0.00     0.047 A 
ATOM      5  C   UNL     1      21.857   5.238 -83.168  1.00  0.00     0.001 A 
ATOM      6  C   UNL     1      20.608   5.641 -82.698  1.00  0.00     0.004 A 
ENDROOT
BRANCH   1   7
ATOM      7  C   UNL     1      23.631   4.265 -79.981  1.00  0.00     0.075 C 
ATOM      8  O   UNL     1      23.364   3.320 -79.192  1.00  0.00    -0.545 OA
ATOM      9  O   UNL     1      24.895   4.840 -79.939  1.00  0.00    -0.545 OA
ENDBRANCH   1   7
BRANCH   2  10
ATOM     10  O   UNL     1      21.029   5.348 -79.051  1.00  0.00    -0.507 OA
ATOM     11  H   UNL     1      20.108   5.180 -78.671  1.00  0.00     0.293 HD
ENDBRANCH   2  10
TORSDOF 2
ENDMDL
MODEL 4
REMARK VINA RESULT:    -5.450      2.285      2.773
REMARK INTER + INTRA:          -6.170
REMARK INTER:                  -5.942
REMARK INTRA:                  -0.228
REMARK UNBOUND:                -0.242
REMARK SMILES O=C([O-])c1ccccc1O
REMARK SMILES IDX 4 1 9 2 5 3 8 4 6 5 7 6 2 7 1 8 3 9 10 10
REMARK H PARENT 10 11
REMARK Flexibility Score: inf
ROOT
ATOM      1  C   UNL     1      22.993   4.148 -80.368  1.00  0.00     0.039 A 
ATOM      2  C   UNL     1      23.720   4.280 -81.578  1.00  0.00     0.124 A 
ATOM      3  C   UNL     1      23.575   3.443 -79.297  1.00  0.00     0.014 A 
ATOM      4  C   UNL     1      24.969   3.658 -81.707  1.00  0.00     0.047 A 
ATOM      5  C   UNL     1      24.831   2.847 -79.435  1.00  0.00     0.001 A 
ATOM      6  C   UNL     1      25.523   2.947 -80.642  1.00  0.00     0.004 A 
ENDROOT
BRANCH   1   7
ATOM      7  C   UNL     1      21.627   4.690 -80.200  1.00  0.00     0.075 C 
ATOM      8  O   UNL     1      20.712   4.360 -81.001  1.00  0.00    -0.545 OA
ATOM      9  O   UNL     1      21.347   5.619 -79.205  1.00  0.00    -0.545 OA
ENDBRANCH   1   7
BRANCH   2  10
ATOM     10  O   UNL     1      23.259   5.043 -82.653  1.00  0.00    -0.507 OA
ATOM     11  H   UNL     1      23.386   4.775 -83.619  1.00  0.00     0.293 HD
ENDBRANCH   2  10
TORSDOF 2
ENDMDL
MODEL 5
REMARK VINA RESULT:    -5.388      1.301      2.619
REMARK INTER + INTRA:          -6.103
REMARK INTER:                  -5.859
REMARK INTRA:                  -0.244
REMARK UNBOUND:                -0.242
REMARK SMILES O=C([O-])c1ccccc1O
REMARK SMILES IDX 4 1 9 2 5 3 8 4 6 5 7 6 2 7 1 8 3 9 10 10
REMARK H PARENT 10 11
REMARK Flexibility Score: inf
ROOT
ATOM      1  C   UNL     1      24.076   4.428 -79.888  1.00  0.00     0.039 A 
ATOM      2  C   UNL     1      24.113   3.120 -79.343  1.00  0.00     0.124 A 
ATOM      3  C   UNL     1      25.266   4.994 -80.385  1.00  0.00     0.014 A 
ATOM      4  C   UNL     1      25.337   2.443 -79.251  1.00  0.00     0.047 A 
ATOM      5  C   UNL     1      26.473   4.297 -80.305  1.00  0.00     0.001 A 
ATOM      6  C   UNL     1      26.510   3.027 -79.731  1.00  0.00     0.004 A 
ENDROOT
BRANCH   1   7
ATOM      7  C   UNL     1      22.839   5.239 -79.921  1.00  0.00     0.075 C 
ATOM      8  O   UNL     1      21.732   4.696 -80.178  1.00  0.00    -0.545 OA
ATOM      9  O   UNL     1      22.886   6.617 -79.737  1.00  0.00    -0.545 OA
ENDBRANCH   1   7
BRANCH   2  10
ATOM     10  O   UNL     1      22.965   2.449 -78.919  1.00  0.00    -0.507 OA
ATOM     11  H   UNL     1      22.292   2.042 -79.554  1.00  0.00     0.293 HD
ENDBRANCH   2  10
TORSDOF 2
ENDMDL
MODEL 6
REMARK VINA RESULT:    -5.225      1.656      3.199
REMARK INTER + INTRA:          -5.925
REMARK INTER:                  -5.673
REMARK INTRA:                  -0.252
REMARK UNBOUND:                -0.242
REMARK SMILES O=C([O-])c1ccccc1O
REMARK SMILES IDX 4 1 9 2 5 3 8 4 6 5 7 6 2 7 1 8 3 9 10 10
REMARK H PARENT 10 11
REMARK Flexibility Score: inf
ROOT
ATOM      1  C   UNL     1      23.608   5.208 -80.039  1.00  0.00     0.039 A 
ATOM      2  C   UNL     1      23.360   3.853 -79.704  1.00  0.00     0.124 A 
ATOM      3  C   UNL     1      24.936   5.626 -80.251  1.00  0.00     0.014 A 
ATOM      4  C   UNL     1      24.437   2.975 -79.530  1.00  0.00     0.047 A 
ATOM      5  C   UNL     1      25.997   4.731 -80.093  1.00  0.00     0.001 A 
ATOM      6  C   UNL     1      25.749   3.410 -79.724  1.00  0.00     0.004 A 
ENDROOT
BRANCH   1   7
ATOM      7  C   UNL     1      22.526   6.212 -80.137  1.00  0.00     0.075 C 
ATOM      8  O   UNL     1      22.677   7.357 -79.634  1.00  0.00    -0.545 OA
ATOM      9  O   UNL     1      21.306   5.890 -80.721  1.00  0.00    -0.545 OA
ENDBRANCH   1   7
BRANCH   2  10
ATOM     10  O   UNL     1      22.070   3.334 -79.573  1.00  0.00    -0.507 OA
ATOM     11  H   UNL     1      21.784   2.742 -78.806  1.00  0.00     0.293 HD
ENDBRANCH   2  10
TORSDOF 2
ENDMDL
MODEL 7
REMARK VINA RESULT:    -5.219      3.769      5.587
REMARK INTER + INTRA:          -5.919
REMARK INTER:                  -5.672
REMARK INTRA:                  -0.247
REMARK UNBOUND:                -0.242
REMARK SMILES O=C([O-])c1ccccc1O
REMARK SMILES IDX 4 1 9 2 5 3 8 4 6 5 7 6 2 7 1 8 3 9 10 10
REMARK H PARENT 10 11
REMARK Flexibility Score: inf
ROOT
ATOM      1  C   UNL     1      21.978   5.509 -80.880  1.00  0.00     0.039 A 
ATOM      2  C   UNL     1      21.596   4.166 -80.636  1.00  0.00     0.124 A 
ATOM      3  C   UNL     1      21.328   6.228 -81.902  1.00  0.00     0.014 A 
ATOM      4  C   UNL     1      20.630   3.562 -81.452  1.00  0.00     0.047 A 
ATOM      5  C   UNL     1      20.353   5.617 -82.693  1.00  0.00     0.001 A 
ATOM      6  C   UNL     1      20.010   4.283 -82.474  1.00  0.00     0.004 A 
ENDROOT
BRANCH   1   7
ATOM      7  C   UNL     1      23.062   6.175 -80.125  1.00  0.00     0.075 C 
ATOM      8  O   UNL     1      22.929   7.369 -79.747  1.00  0.00    -0.545 OA
ATOM      9  O   UNL     1      24.266   5.523 -79.884  1.00  0.00    -0.545 OA
ENDBRANCH   1   7
BRANCH   2  10
ATOM     10  O   UNL     1      22.119   3.415 -79.582  1.00  0.00    -0.507 OA
ATOM     11  H   UNL     1      22.027   2.411 -79.516  1.00  0.00     0.293 HD
ENDBRANCH   2  10
TORSDOF 2
ENDMDL
MODEL 8
REMARK VINA RESULT:    -5.216      2.414      3.602
REMARK INTER + INTRA:          -5.915
REMARK INTER:                  -5.664
REMARK INTRA:                  -0.251
REMARK UNBOUND:                -0.242
REMARK SMILES O=C([O-])c1ccccc1O
REMARK SMILES IDX 4 1 9 2 5 3 8 4 6 5 7 6 2 7 1 8 3 9 10 10
REMARK H PARENT 10 11
REMARK Flexibility Score: inf
ROOT
ATOM      1  C   UNL     1      23.005   4.535 -81.315  1.00  0.00     0.039 A 
ATOM      2  C   UNL     1      22.675   4.130 -79.997  1.00  0.00     0.124 A 
ATOM      3  C   UNL     1      24.232   4.122 -81.868  1.00  0.00     0.014 A 
ATOM      4  C   UNL     1      23.597   3.384 -79.251  1.00  0.00     0.047 A 
ATOM      5  C   UNL     1      25.131   3.361 -81.117  1.00  0.00     0.001 A 
ATOM      6  C   UNL     1      24.818   3.000 -79.808  1.00  0.00     0.004 A 
ENDROOT
BRANCH   1   7
ATOM      7  C   UNL     1      22.123   5.409 -82.121  1.00  0.00     0.075 C 
ATOM      8  O   UNL     1      22.128   5.327 -83.377  1.00  0.00    -0.545 OA
ATOM      9  O   UNL     1      21.332   6.376 -81.512  1.00  0.00    -0.545 OA
ENDBRANCH   1   7
BRANCH   2  10
ATOM     10  O   UNL     1      21.440   4.413 -79.410  1.00  0.00    -0.507 OA
ATOM     11  H   UNL     1      20.941   5.279 -79.556  1.00  0.00     0.293 HD
ENDBRANCH   2  10
TORSDOF 2
ENDMDL
MODEL 9
REMARK VINA RESULT:    -5.125      1.974      3.514
REMARK INTER + INTRA:          -5.816
REMARK INTER:                  -5.584
REMARK INTRA:                  -0.232
REMARK UNBOUND:                -0.242
REMARK SMILES O=C([O-])c1ccccc1O
REMARK SMILES IDX 4 1 9 2 5 3 8 4 6 5 7 6 2 7 1 8 3 9 10 10
REMARK H PARENT 10 11
REMARK Flexibility Score: inf
ROOT
ATOM      1  C   UNL     1      25.536   3.532 -79.564  1.00  0.00     0.039 A 
ATOM      2  C   UNL     1      25.161   4.827 -80.002  1.00  0.00     0.124 A 
ATOM      3  C   UNL     1      24.527   2.610 -79.223  1.00  0.00     0.014 A 
ATOM      4  C   UNL     1      23.807   5.185 -80.027  1.00  0.00     0.047 A 
ATOM      5  C   UNL     1      23.181   2.976 -79.274  1.00  0.00     0.001 A 
ATOM      6  C   UNL     1      22.821   4.265 -79.666  1.00  0.00     0.004 A 
ENDROOT
BRANCH   1   7
ATOM      7  C   UNL     1      26.950   3.123 -79.415  1.00  0.00     0.075 C 
ATOM      8  O   UNL     1      27.843   3.990 -79.224  1.00  0.00    -0.545 OA
ATOM      9  O   UNL     1      27.323   1.791 -79.551  1.00  0.00    -0.545 OA
ENDBRANCH   1   7
BRANCH   2  10
ATOM     10  O   UNL     1      26.091   5.768 -80.451  1.00  0.00    -0.507 OA
ATOM     11  H   UNL     1      27.040   5.818 -80.108  1.00  0.00     0.293 HD
ENDBRANCH   2  10
TORSDOF 2
ENDMDL
