MODEL 1
REMARK VINA RESULT:    -4.878      0.000      0.000
REMARK INTER + INTRA:          -5.448
REMARK INTER:                  -5.305
REMARK INTRA:                  -0.143
REMARK UNBOUND:                -0.143
REMARK SMILES C=C(C)[C@@H]1CC[C@@H](C)C[C@@H]1O
REMARK SMILES IDX 8 1 7 2 6 3 5 4 4 5 10 6 9 7 11 8 2 10 1 11 3 12
REMARK H PARENT 11 9
REMARK Flexibility Score: inf
ROOT
ATOM      1  C   UNL     1     116.270 119.740 134.368  1.00  0.00     0.008 C 
ATOM      2  C   UNL     1     115.733 121.067 133.805  1.00  0.00    -0.012 C 
ATOM      3  C   UNL     1     114.231 120.986 133.473  1.00  0.00     0.004 C 
ATOM      4  C   UNL     1     113.939 120.149 132.220  1.00  0.00     0.011 C 
ATOM      5  C   UNL     1     114.797 120.516 130.987  1.00  0.00     0.043 C 
ATOM      6  C   UNL     1     116.302 120.727 131.322  1.00  0.00     0.121 C 
ATOM      7  C   UNL     1     116.550 121.556 132.594  1.00  0.00     0.035 C 
ENDROOT
BRANCH   6   8
ATOM      8  O   UNL     1     116.973 121.329 130.245  1.00  0.00    -0.392 OA
ATOM      9  H   UNL     1     116.997 122.305 130.429  1.00  0.00     0.210 HD
ENDBRANCH   6   8
BRANCH   5  10
ATOM     10  C   UNL     1     114.175 121.623 130.127  1.00  0.00    -0.075 C 
ATOM     11  C   UNL     1     113.953 121.403 128.818  1.00  0.00     0.008 C 
ATOM     12  C   UNL     1     113.784 122.971 130.676  1.00  0.00     0.039 C 
ENDBRANCH   5  10
TORSDOF 2
ENDMDL
MODEL 2
REMARK VINA RESULT:    -4.775      1.733      4.312
REMARK INTER + INTRA:          -5.337
REMARK INTER:                  -5.164
REMARK INTRA:                  -0.172
REMARK UNBOUND:                -0.143
REMARK SMILES C=C(C)[C@@H]1CC[C@@H](C)C[C@@H]1O
REMARK SMILES IDX 8 1 7 2 6 3 5 4 4 5 10 6 9 7 11 8 2 10 1 11 3 12
REMARK H PARENT 11 9
REMARK Flexibility Score: inf
ROOT
ATOM      1  C   UNL     1     113.956 121.467 127.109  1.00  0.00     0.008 C 
ATOM      2  C   UNL     1     115.107 121.713 128.099  1.00  0.00    -0.012 C 
ATOM      3  C   UNL     1     115.499 120.431 128.856  1.00  0.00     0.004 C 
ATOM      4  C   UNL     1     114.463 120.018 129.912  1.00  0.00     0.011 C 
ATOM      5  C   UNL     1     114.027 121.155 130.863  1.00  0.00     0.043 C 
ATOM      6  C   UNL     1     113.746 122.500 130.132  1.00  0.00     0.121 C 
ATOM      7  C   UNL     1     114.798 122.867 129.071  1.00  0.00     0.035 C 
ENDROOT
BRANCH   6   8
ATOM      8  O   UNL     1     113.636 123.554 131.053  1.00  0.00    -0.392 OA
ATOM      9  H   UNL     1     114.166 124.311 130.689  1.00  0.00     0.210 HD
ENDBRANCH   6   8
BRANCH   5  10
ATOM     10  C   UNL     1     114.920 121.280 132.104  1.00  0.00    -0.075 C 
ATOM     11  C   UNL     1     114.427 120.957 133.314  1.00  0.00     0.008 C 
ATOM     12  C   UNL     1     116.351 121.748 132.046  1.00  0.00     0.039 C 
ENDBRANCH   5  10
TORSDOF 2
ENDMDL
MODEL 3
REMARK VINA RESULT:    -4.612     15.378     16.659
REMARK INTER + INTRA:          -5.159
REMARK INTER:                  -4.992
REMARK INTRA:                  -0.167
REMARK UNBOUND:                -0.143
REMARK SMILES C=C(C)[C@@H]1CC[C@@H](C)C[C@@H]1O
REMARK SMILES IDX 8 1 7 2 6 3 5 4 4 5 10 6 9 7 11 8 2 10 1 11 3 12
REMARK H PARENT 11 9
REMARK Flexibility Score: inf
ROOT
ATOM      1  C   UNL     1     129.552 120.553 119.410  1.00  0.00     0.008 C 
ATOM      2  C   UNL     1     128.302 120.946 120.215  1.00  0.00    -0.012 C 
ATOM      3  C   UNL     1     127.910 119.861 121.235  1.00  0.00     0.004 C 
ATOM      4  C   UNL     1     127.294 118.617 120.579  1.00  0.00     0.011 C 
ATOM      5  C   UNL     1     126.162 118.916 119.570  1.00  0.00     0.043 C 
ATOM      6  C   UNL     1     126.486 120.095 118.608  1.00  0.00     0.121 C 
ATOM      7  C   UNL     1     127.117 121.314 119.303  1.00  0.00     0.035 C 
ENDROOT
BRANCH   6   8
ATOM      8  O   UNL     1     125.336 120.506 117.917  1.00  0.00    -0.392 OA
ATOM      9  H   UNL     1     125.544 120.445 116.948  1.00  0.00     0.210 HD
ENDBRANCH   6   8
BRANCH   5  10
ATOM     10  C   UNL     1     124.776 118.989 120.223  1.00  0.00    -0.075 C 
ATOM     11  C   UNL     1     123.809 118.140 119.828  1.00  0.00     0.008 C 
ATOM     12  C   UNL     1     124.427 119.975 121.308  1.00  0.00     0.039 C 
ENDBRANCH   5  10
TORSDOF 2
ENDMDL
MODEL 4
REMARK VINA RESULT:    -4.565      1.857      2.934
REMARK INTER + INTRA:          -5.108
REMARK INTER:                  -4.929
REMARK INTRA:                  -0.178
REMARK UNBOUND:                -0.143
REMARK SMILES C=C(C)[C@@H]1CC[C@@H](C)C[C@@H]1O
REMARK SMILES IDX 8 1 7 2 6 3 5 4 4 5 10 6 9 7 11 8 2 10 1 11 3 12
REMARK H PARENT 11 9
REMARK Flexibility Score: inf
ROOT
ATOM      1  C   UNL     1     118.334 120.372 134.840  1.00  0.00     0.008 C 
ATOM      2  C   UNL     1     117.402 119.689 133.825  1.00  0.00    -0.012 C 
ATOM      3  C   UNL     1     117.704 120.128 132.380  1.00  0.00     0.004 C 
ATOM      4  C   UNL     1     117.244 121.562 132.081  1.00  0.00     0.011 C 
ATOM      5  C   UNL     1     115.789 121.871 132.500  1.00  0.00     0.043 C 
ATOM      6  C   UNL     1     115.422 121.325 133.910  1.00  0.00     0.121 C 
ATOM      7  C   UNL     1     115.916 119.892 134.174  1.00  0.00     0.035 C 
ENDROOT
BRANCH   6   8
ATOM      8  O   UNL     1     114.035 121.378 134.120  1.00  0.00    -0.392 OA
ATOM      9  H   UNL     1     113.712 120.439 134.149  1.00  0.00     0.210 HD
ENDBRANCH   6   8
BRANCH   5  10
ATOM     10  C   UNL     1     114.764 121.548 131.405  1.00  0.00    -0.075 C 
ATOM     11  C   UNL     1     114.050 122.542 130.848  1.00  0.00     0.008 C 
ATOM     12  C   UNL     1     114.509 120.150 130.903  1.00  0.00     0.039 C 
ENDBRANCH   5  10
TORSDOF 2
ENDMDL
MODEL 5
REMARK VINA RESULT:    -4.506     15.006     16.366
REMARK INTER + INTRA:          -5.043
REMARK INTER:                  -4.890
REMARK INTRA:                  -0.153
REMARK UNBOUND:                -0.143
REMARK SMILES C=C(C)[C@@H]1CC[C@@H](C)C[C@@H]1O
REMARK SMILES IDX 8 1 7 2 6 3 5 4 4 5 10 6 9 7 11 8 2 10 1 11 3 12
REMARK H PARENT 11 9
REMARK Flexibility Score: inf
ROOT
ATOM      1  C   UNL     1     123.362 119.583 121.729  1.00  0.00     0.008 C 
ATOM      2  C   UNL     1     124.368 118.659 121.021  1.00  0.00    -0.012 C 
ATOM      3  C   UNL     1     125.750 118.686 121.700  1.00  0.00     0.004 C 
ATOM      4  C   UNL     1     126.519 119.989 121.442  1.00  0.00     0.011 C 
ATOM      5  C   UNL     1     126.582 120.416 119.958  1.00  0.00     0.043 C 
ATOM      6  C   UNL     1     125.221 120.277 119.216  1.00  0.00     0.121 C 
ATOM      7  C   UNL     1     124.476 118.965 119.515  1.00  0.00     0.035 C 
ENDROOT
BRANCH   6   8
ATOM      8  O   UNL     1     125.395 120.399 117.828  1.00  0.00    -0.392 OA
ATOM      9  H   UNL     1     125.487 119.478 117.467  1.00  0.00     0.210 HD
ENDBRANCH   6   8
BRANCH   5  10
ATOM     10  C   UNL     1     127.780 119.817 119.209  1.00  0.00    -0.075 C 
ATOM     11  C   UNL     1     128.817 120.606 118.875  1.00  0.00     0.008 C 
ATOM     12  C   UNL     1     127.865 118.363 118.821  1.00  0.00     0.039 C 
ENDBRANCH   5  10
TORSDOF 2
ENDMDL
MODEL 6
REMARK VINA RESULT:    -4.398      1.261      4.137
REMARK INTER + INTRA:          -4.926
REMARK INTER:                  -4.764
REMARK INTRA:                  -0.162
REMARK UNBOUND:                -0.143
REMARK SMILES C=C(C)[C@@H]1CC[C@@H](C)C[C@@H]1O
REMARK SMILES IDX 8 1 7 2 6 3 5 4 4 5 10 6 9 7 11 8 2 10 1 11 3 12
REMARK H PARENT 11 9
REMARK Flexibility Score: inf
ROOT
ATOM      1  C   UNL     1     114.500 123.086 127.534  1.00  0.00     0.008 C 
ATOM      2  C   UNL     1     113.787 122.102 128.477  1.00  0.00    -0.012 C 
ATOM      3  C   UNL     1     113.262 122.799 129.745  1.00  0.00     0.004 C 
ATOM      4  C   UNL     1     114.379 123.181 130.726  1.00  0.00     0.011 C 
ATOM      5  C   UNL     1     115.371 122.040 131.047  1.00  0.00     0.043 C 
ATOM      6  C   UNL     1     115.820 121.239 129.792  1.00  0.00     0.121 C 
ATOM      7  C   UNL     1     114.673 120.891 128.827  1.00  0.00     0.035 C 
ENDROOT
BRANCH   6   8
ATOM      8  O   UNL     1     116.480 120.057 130.164  1.00  0.00    -0.392 OA
ATOM      9  H   UNL     1     115.777 119.380 130.347  1.00  0.00     0.210 HD
ENDBRANCH   6   8
BRANCH   5  10
ATOM     10  C   UNL     1     114.928 121.172 132.232  1.00  0.00    -0.075 C 
ATOM     11  C   UNL     1     115.581 121.262 133.405  1.00  0.00     0.008 C 
ATOM     12  C   UNL     1     113.774 120.205 132.158  1.00  0.00     0.039 C 
ENDBRANCH   5  10
TORSDOF 2
ENDMDL
MODEL 7
REMARK VINA RESULT:    -4.365      2.027      3.011
REMARK INTER + INTRA:          -4.890
REMARK INTER:                  -4.714
REMARK INTRA:                  -0.176
REMARK UNBOUND:                -0.143
REMARK SMILES C=C(C)[C@@H]1CC[C@@H](C)C[C@@H]1O
REMARK SMILES IDX 8 1 7 2 6 3 5 4 4 5 10 6 9 7 11 8 2 10 1 11 3 12
REMARK H PARENT 11 9
REMARK Flexibility Score: inf
ROOT
ATOM      1  C   UNL     1     114.798 120.145 132.575  1.00  0.00     0.008 C 
ATOM      2  C   UNL     1     114.036 120.613 131.323  1.00  0.00    -0.012 C 
ATOM      3  C   UNL     1     114.651 120.046 130.030  1.00  0.00     0.004 C 
ATOM      4  C   UNL     1     115.987 120.706 129.662  1.00  0.00     0.011 C 
ATOM      5  C   UNL     1     115.967 122.251 129.678  1.00  0.00     0.043 C 
ATOM      6  C   UNL     1     115.238 122.848 130.916  1.00  0.00     0.121 C 
ATOM      7  C   UNL     1     113.912 122.147 131.260  1.00  0.00     0.035 C 
ENDROOT
BRANCH   6   8
ATOM      8  O   UNL     1     114.999 124.220 130.741  1.00  0.00    -0.392 OA
ATOM      9  H   UNL     1     115.272 124.445 129.813  1.00  0.00     0.210 HD
ENDBRANCH   6   8
BRANCH   5  10
ATOM     10  C   UNL     1     115.546 122.863 128.335  1.00  0.00    -0.075 C 
ATOM     11  C   UNL     1     116.447 123.540 127.601  1.00  0.00     0.008 C 
ATOM     12  C   UNL     1     114.151 122.741 127.776  1.00  0.00     0.039 C 
ENDBRANCH   5  10
TORSDOF 2
ENDMDL
MODEL 8
REMARK VINA RESULT:    -4.328      1.719      2.829
REMARK INTER + INTRA:          -4.850
REMARK INTER:                  -4.676
REMARK INTRA:                  -0.174
REMARK UNBOUND:                -0.143
REMARK SMILES C=C(C)[C@@H]1CC[C@@H](C)C[C@@H]1O
REMARK SMILES IDX 8 1 7 2 6 3 5 4 4 5 10 6 9 7 11 8 2 10 1 11 3 12
REMARK H PARENT 11 9
REMARK Flexibility Score: inf
ROOT
ATOM      1  C   UNL     1     114.376 120.848 132.673  1.00  0.00     0.008 C 
ATOM      2  C   UNL     1     115.364 121.371 131.616  1.00  0.00    -0.012 C 
ATOM      3  C   UNL     1     114.821 122.614 130.885  1.00  0.00     0.004 C 
ATOM      4  C   UNL     1     113.691 122.284 129.901  1.00  0.00     0.011 C 
ATOM      5  C   UNL     1     113.999 121.119 128.933  1.00  0.00     0.043 C 
ATOM      6  C   UNL     1     114.665 119.897 129.629  1.00  0.00     0.121 C 
ATOM      7  C   UNL     1     115.781 120.272 130.620  1.00  0.00     0.035 C 
ENDROOT
BRANCH   6   8
ATOM      8  O   UNL     1     115.178 119.001 128.678  1.00  0.00    -0.392 OA
ATOM      9  H   UNL     1     114.984 118.085 129.011  1.00  0.00     0.210 HD
ENDBRANCH   6   8
BRANCH   5  10
ATOM     10  C   UNL     1     114.694 121.574 127.643  1.00  0.00    -0.075 C 
ATOM     11  C   UNL     1     114.090 121.377 126.457  1.00  0.00     0.008 C 
ATOM     12  C   UNL     1     116.042 122.249 127.628  1.00  0.00     0.039 C 
ENDBRANCH   5  10
TORSDOF 2
ENDMDL
MODEL 9
REMARK VINA RESULT:    -4.235      2.270      3.561
REMARK INTER + INTRA:          -4.749
REMARK INTER:                  -4.578
REMARK INTRA:                  -0.171
REMARK UNBOUND:                -0.143
REMARK SMILES C=C(C)[C@@H]1CC[C@@H](C)C[C@@H]1O
REMARK SMILES IDX 8 1 7 2 6 3 5 4 4 5 10 6 9 7 11 8 2 10 1 11 3 12
REMARK H PARENT 11 9
REMARK Flexibility Score: inf
ROOT
ATOM      1  C   UNL     1     113.919 120.182 132.046  1.00  0.00     0.008 C 
ATOM      2  C   UNL     1     114.787 120.426 130.800  1.00  0.00    -0.012 C 
ATOM      3  C   UNL     1     116.156 121.033 131.161  1.00  0.00     0.004 C 
ATOM      4  C   UNL     1     116.065 122.506 131.586  1.00  0.00     0.011 C 
ATOM      5  C   UNL     1     115.257 123.404 130.622  1.00  0.00     0.043 C 
ATOM      6  C   UNL     1     113.926 122.757 130.143  1.00  0.00     0.121 C 
ATOM      7  C   UNL     1     114.057 121.277 129.743  1.00  0.00     0.035 C 
ENDROOT
BRANCH   6   8
ATOM      8  O   UNL     1     113.381 123.476 129.067  1.00  0.00    -0.392 OA
ATOM      9  H   UNL     1     112.519 123.856 129.381  1.00  0.00     0.210 HD
ENDBRANCH   6   8
BRANCH   5  10
ATOM     10  C   UNL     1     116.113 124.007 129.500  1.00  0.00    -0.075 C 
ATOM     11  C   UNL     1     116.374 125.327 129.499  1.00  0.00     0.008 C 
ATOM     12  C   UNL     1     116.694 123.188 128.377  1.00  0.00     0.039 C 
ENDBRANCH   5  10
TORSDOF 2
ENDMDL
