MODEL 1
REMARK VINA RESULT:    -3.807      0.000      0.000
REMARK INTER + INTRA:         -12.607
REMARK INTER:                  -8.704
REMARK INTRA:                  -3.903
REMARK UNBOUND:                -3.903
REMARK SMILES CCCCCCCCCCCCCCCCCCCCCCCC(=O)[O-]
REMARK SMILES IDX 13 1 14 2 15 3 16 4 17 5 18 6 19 7 20 8 21 9 22 10 23 11
REMARK SMILES IDX 24 12 25 13 26 14 12 15 11 16 10 17 9 18 8 19 7 20 6 21 5 22
REMARK SMILES IDX 4 23 3 24 2 25 1 26
REMARK H PARENT
REMARK Flexibility Score: inf
ROOT
ATOM      1  C   UNL     1      -5.534  -3.034   7.953  1.00  0.00     0.000 C 
ENDROOT
BRANCH   1   2
ATOM      2  C   UNL     1      -5.329  -4.126   9.020  1.00  0.00     0.000 C 
BRANCH   2   3
ATOM      3  C   UNL     1      -6.097  -3.843  10.323  1.00  0.00     0.000 C 
BRANCH   3   4
ATOM      4  C   UNL     1      -6.242  -2.338  10.608  1.00  0.00     0.000 C 
BRANCH   4   5
ATOM      5  C   UNL     1      -5.548  -1.923  11.915  1.00  0.00     0.000 C 
BRANCH   5   6
ATOM      6  C   UNL     1      -4.050  -2.278  11.938  1.00  0.00     0.000 C 
BRANCH   6   7
ATOM      7  C   UNL     1      -3.115  -1.222  11.318  1.00  0.00     0.000 C 
BRANCH   7   8
ATOM      8  C   UNL     1      -2.661  -1.584   9.894  1.00  0.00     0.000 C 
BRANCH   8   9
ATOM      9  C   UNL     1      -2.928  -0.453   8.888  1.00  0.00     0.000 C 
BRANCH   9  10
ATOM     10  C   UNL     1      -1.636   0.178   8.315  1.00  0.00     0.006 C 
BRANCH  10  11
ATOM     11  C   UNL     1      -0.867   1.017   9.345  1.00  0.00     0.053 C 
BRANCH  11  12
ATOM     12  C   UNL     1      -0.792   2.461   8.945  1.00  0.00     0.041 C 
ATOM     13  O   UNL     1      -1.683   2.960   8.207  1.00  0.00    -0.550 OA
ATOM     14  O   UNL     1       0.258   3.255   9.390  1.00  0.00    -0.550 OA
ENDBRANCH  11  12
ENDBRANCH  10  11
ENDBRANCH   9  10
ENDBRANCH   8   9
ENDBRANCH   7   8
ENDBRANCH   6   7
ENDBRANCH   5   6
ENDBRANCH   4   5
ENDBRANCH   3   4
ENDBRANCH   2   3
ENDBRANCH   1   2
BRANCH   1  15
ATOM     15  C   UNL     1      -4.510  -3.040   6.803  1.00  0.00     0.000 C 
BRANCH  15  16
ATOM     16  C   UNL     1      -3.349  -4.024   7.038  1.00  0.00     0.000 C 
BRANCH  16  17
ATOM     17  C   UNL     1      -1.972  -3.385   6.793  1.00  0.00     0.000 C 
BRANCH  17  18
ATOM     18  C   UNL     1      -1.939  -2.307   5.694  1.00  0.00    -0.000 C 
BRANCH  18  19
ATOM     19  C   UNL     1      -0.518  -1.806   5.357  1.00  0.00    -0.000 C 
BRANCH  19  20
ATOM     20  C   UNL     1      -0.164  -2.017   3.874  1.00  0.00    -0.000 C 
BRANCH  20  21
ATOM     21  C   UNL     1       0.003  -0.691   3.113  1.00  0.00    -0.000 C 
BRANCH  21  22
ATOM     22  C   UNL     1      -1.301  -0.231   2.437  1.00  0.00    -0.000 C 
BRANCH  22  23
ATOM     23  C   UNL     1      -1.962   0.947   3.169  1.00  0.00    -0.000 C 
BRANCH  23  24
ATOM     24  C   UNL     1      -3.336   0.582   3.755  1.00  0.00    -0.000 C 
BRANCH  24  25
ATOM     25  C   UNL     1      -3.522   1.102   5.188  1.00  0.00    -0.003 C 
ATOM     26  C   UNL     1      -4.766   0.531   5.868  1.00  0.00     0.004 C 
ENDBRANCH  24  25
ENDBRANCH  23  24
ENDBRANCH  22  23
ENDBRANCH  21  22
ENDBRANCH  20  21
ENDBRANCH  19  20
ENDBRANCH  18  19
ENDBRANCH  17  18
ENDBRANCH  16  17
ENDBRANCH  15  16
ENDBRANCH   1  15
TORSDOF 22
ENDMDL
MODEL 2
REMARK VINA RESULT:    -3.634      2.085      3.796
REMARK INTER + INTRA:         -12.212
REMARK INTER:                  -8.174
REMARK INTRA:                  -4.038
REMARK UNBOUND:                -3.903
REMARK SMILES CCCCCCCCCCCCCCCCCCCCCCCC(=O)[O-]
REMARK SMILES IDX 13 1 14 2 15 3 16 4 17 5 18 6 19 7 20 8 21 9 22 10 23 11
REMARK SMILES IDX 24 12 25 13 26 14 12 15 11 16 10 17 9 18 8 19 7 20 6 21 5 22
REMARK SMILES IDX 4 23 3 24 2 25 1 26
REMARK H PARENT
REMARK Flexibility Score: inf
ROOT
ATOM      1  C   UNL     1      -5.412  -3.266   8.796  1.00  0.00     0.000 C 
ENDROOT
BRANCH   1   2
ATOM      2  C   UNL     1      -6.060  -4.179   9.854  1.00  0.00     0.000 C 
BRANCH   2   3
ATOM      3  C   UNL     1      -7.303  -3.549  10.509  1.00  0.00     0.000 C 
BRANCH   3   4
ATOM      4  C   UNL     1      -7.009  -2.979  11.906  1.00  0.00     0.000 C 
BRANCH   4   5
ATOM      5  C   UNL     1      -6.496  -1.531  11.848  1.00  0.00     0.000 C 
BRANCH   5   6
ATOM      6  C   UNL     1      -5.126  -1.352  12.526  1.00  0.00     0.000 C 
BRANCH   6   7
ATOM      7  C   UNL     1      -4.032  -2.334  12.068  1.00  0.00     0.000 C 
BRANCH   7   8
ATOM      8  C   UNL     1      -3.011  -1.693  11.112  1.00  0.00     0.000 C 
BRANCH   8   9
ATOM      9  C   UNL     1      -2.927  -0.168  11.283  1.00  0.00     0.000 C 
BRANCH   9  10
ATOM     10  C   UNL     1      -1.638   0.447  10.687  1.00  0.00     0.006 C 
BRANCH  10  11
ATOM     11  C   UNL     1      -1.327   1.847  11.236  1.00  0.00     0.053 C 
BRANCH  11  12
ATOM     12  C   UNL     1      -0.764   2.749  10.179  1.00  0.00     0.041 C 
ATOM     13  O   UNL     1      -0.258   3.858  10.497  1.00  0.00    -0.550 OA
ATOM     14  O   UNL     1      -0.795   2.364   8.844  1.00  0.00    -0.550 OA
ENDBRANCH  11  12
ENDBRANCH  10  11
ENDBRANCH   9  10
ENDBRANCH   8   9
ENDBRANCH   7   8
ENDBRANCH   6   7
ENDBRANCH   5   6
ENDBRANCH   4   5
ENDBRANCH   3   4
ENDBRANCH   2   3
ENDBRANCH   1   2
BRANCH   1  15
ATOM     15  C   UNL     1      -6.365  -2.752   7.701  1.00  0.00     0.000 C 
BRANCH  15  16
ATOM     16  C   UNL     1      -6.473  -1.216   7.672  1.00  0.00     0.000 C 
BRANCH  16  17
ATOM     17  C   UNL     1      -5.472  -0.534   8.619  1.00  0.00     0.000 C 
BRANCH  17  18
ATOM     18  C   UNL     1      -4.641   0.597   7.986  1.00  0.00    -0.000 C 
BRANCH  18  19
ATOM     19  C   UNL     1      -3.856   0.163   6.729  1.00  0.00    -0.000 C 
BRANCH  19  20
ATOM     20  C   UNL     1      -2.379  -0.135   7.039  1.00  0.00    -0.000 C 
BRANCH  20  21
ATOM     21  C   UNL     1      -2.168  -1.546   7.611  1.00  0.00    -0.000 C 
BRANCH  21  22
ATOM     22  C   UNL     1      -1.926  -2.597   6.513  1.00  0.00    -0.000 C 
BRANCH  22  23
ATOM     23  C   UNL     1      -2.351  -4.010   6.943  1.00  0.00    -0.000 C 
BRANCH  23  24
ATOM     24  C   UNL     1      -3.462  -4.590   6.052  1.00  0.00    -0.000 C 
BRANCH  24  25
ATOM     25  C   UNL     1      -4.074  -5.873   6.634  1.00  0.00    -0.003 C 
ATOM     26  C   UNL     1      -3.628  -7.131   5.889  1.00  0.00     0.004 C 
ENDBRANCH  24  25
ENDBRANCH  23  24
ENDBRANCH  22  23
ENDBRANCH  21  22
ENDBRANCH  20  21
ENDBRANCH  19  20
ENDBRANCH  18  19
ENDBRANCH  17  18
ENDBRANCH  16  17
ENDBRANCH  15  16
ENDBRANCH   1  15
TORSDOF 22
ENDMDL
MODEL 3
REMARK VINA RESULT:    -3.567      3.422      6.981
REMARK INTER + INTRA:         -12.058
REMARK INTER:                  -8.343
REMARK INTRA:                  -3.716
REMARK UNBOUND:                -3.903
REMARK SMILES CCCCCCCCCCCCCCCCCCCCCCCC(=O)[O-]
REMARK SMILES IDX 13 1 14 2 15 3 16 4 17 5 18 6 19 7 20 8 21 9 22 10 23 11
REMARK SMILES IDX 24 12 25 13 26 14 12 15 11 16 10 17 9 18 8 19 7 20 6 21 5 22
REMARK SMILES IDX 4 23 3 24 2 25 1 26
REMARK H PARENT
REMARK Flexibility Score: inf
ROOT
ATOM      1  C   UNL     1      -5.179  -2.351   8.174  1.00  0.00     0.000 C 
ENDROOT
BRANCH   1   2
ATOM      2  C   UNL     1      -3.922  -1.980   7.364  1.00  0.00     0.000 C 
BRANCH   2   3
ATOM      3  C   UNL     1      -2.633  -2.587   7.946  1.00  0.00     0.000 C 
BRANCH   3   4
ATOM      4  C   UNL     1      -1.662  -3.068   6.856  1.00  0.00     0.000 C 
BRANCH   4   5
ATOM      5  C   UNL     1      -0.838  -1.914   6.261  1.00  0.00     0.000 C 
BRANCH   5   6
ATOM      6  C   UNL     1      -0.791  -1.941   4.722  1.00  0.00     0.000 C 
BRANCH   6   7
ATOM      7  C   UNL     1      -2.125  -1.631   4.018  1.00  0.00     0.000 C 
BRANCH   7   8
ATOM      8  C   UNL     1      -2.705  -2.843   3.269  1.00  0.00     0.000 C 
BRANCH   8   9
ATOM      9  C   UNL     1      -3.930  -3.440   3.981  1.00  0.00     0.000 C 
BRANCH   9  10
ATOM     10  C   UNL     1      -3.745  -4.924   4.380  1.00  0.00     0.006 C 
BRANCH  10  11
ATOM     11  C   UNL     1      -4.742  -5.387   5.453  1.00  0.00     0.053 C 
BRANCH  11  12
ATOM     12  C   UNL     1      -4.266  -6.621   6.161  1.00  0.00     0.041 C 
ATOM     13  O   UNL     1      -3.432  -7.386   5.609  1.00  0.00    -0.550 OA
ATOM     14  O   UNL     1      -4.740  -6.923   7.432  1.00  0.00    -0.550 OA
ENDBRANCH  11  12
ENDBRANCH  10  11
ENDBRANCH   9  10
ENDBRANCH   8   9
ENDBRANCH   7   8
ENDBRANCH   6   7
ENDBRANCH   5   6
ENDBRANCH   4   5
ENDBRANCH   3   4
ENDBRANCH   2   3
ENDBRANCH   1   2
BRANCH   1  15
ATOM     15  C   UNL     1      -5.153  -3.748   8.822  1.00  0.00     0.000 C 
BRANCH  15  16
ATOM     16  C   UNL     1      -5.951  -3.814  10.136  1.00  0.00     0.000 C 
BRANCH  16  17
ATOM     17  C   UNL     1      -5.623  -2.651  11.088  1.00  0.00     0.000 C 
BRANCH  17  18
ATOM     18  C   UNL     1      -4.269  -2.762  11.812  1.00  0.00    -0.000 C 
BRANCH  18  19
ATOM     19  C   UNL     1      -3.231  -1.714  11.354  1.00  0.00    -0.000 C 
BRANCH  19  20
ATOM     20  C   UNL     1      -3.883  -0.364  11.005  1.00  0.00    -0.000 C 
BRANCH  20  21
ATOM     21  C   UNL     1      -2.861   0.782  10.930  1.00  0.00    -0.000 C 
BRANCH  21  22
ATOM     22  C   UNL     1      -1.491   0.318  10.404  1.00  0.00    -0.000 C 
BRANCH  22  23
ATOM     23  C   UNL     1      -1.250   0.725   8.942  1.00  0.00    -0.000 C 
BRANCH  23  24
ATOM     24  C   UNL     1      -1.607   2.197   8.672  1.00  0.00    -0.000 C 
BRANCH  24  25
ATOM     25  C   UNL     1      -0.384   3.123   8.748  1.00  0.00    -0.003 C 
ATOM     26  C   UNL     1      -0.110   3.626  10.164  1.00  0.00     0.004 C 
ENDBRANCH  24  25
ENDBRANCH  23  24
ENDBRANCH  22  23
ENDBRANCH  21  22
ENDBRANCH  20  21
ENDBRANCH  19  20
ENDBRANCH  18  19
ENDBRANCH  17  18
ENDBRANCH  16  17
ENDBRANCH  15  16
ENDBRANCH   1  15
TORSDOF 22
ENDMDL
MODEL 4
REMARK VINA RESULT:    -3.533      1.801      3.376
REMARK INTER + INTRA:         -11.980
REMARK INTER:                  -7.650
REMARK INTRA:                  -4.330
REMARK UNBOUND:                -3.903
REMARK SMILES CCCCCCCCCCCCCCCCCCCCCCCC(=O)[O-]
REMARK SMILES IDX 13 1 14 2 15 3 16 4 17 5 18 6 19 7 20 8 21 9 22 10 23 11
REMARK SMILES IDX 24 12 25 13 26 14 12 15 11 16 10 17 9 18 8 19 7 20 6 21 5 22
REMARK SMILES IDX 4 23 3 24 2 25 1 26
REMARK H PARENT
REMARK Flexibility Score: inf
ROOT
ATOM      1  C   UNL     1      -5.528  -3.460   8.701  1.00  0.00     0.000 C 
ENDROOT
BRANCH   1   2
ATOM      2  C   UNL     1      -6.707  -3.303   9.679  1.00  0.00     0.000 C 
BRANCH   2   3
ATOM      3  C   UNL     1      -6.255  -3.091  11.135  1.00  0.00     0.000 C 
BRANCH   3   4
ATOM      4  C   UNL     1      -4.724  -3.084  11.282  1.00  0.00     0.000 C 
BRANCH   4   5
ATOM      5  C   UNL     1      -4.213  -1.823  11.997  1.00  0.00     0.000 C 
BRANCH   5   6
ATOM      6  C   UNL     1      -3.809  -0.702  11.022  1.00  0.00     0.000 C 
BRANCH   6   7
ATOM      7  C   UNL     1      -2.340  -0.732  10.559  1.00  0.00     0.000 C 
BRANCH   7   8
ATOM      8  C   UNL     1      -1.549   0.514  10.993  1.00  0.00     0.000 C 
BRANCH   8   9
ATOM      9  C   UNL     1      -1.262   1.464   9.818  1.00  0.00     0.000 C 
BRANCH   9  10
ATOM     10  C   UNL     1      -1.687   0.889   8.446  1.00  0.00     0.006 C 
BRANCH  10  11
ATOM     11  C   UNL     1      -2.963   1.537   7.889  1.00  0.00     0.053 C 
BRANCH  11  12
ATOM     12  C   UNL     1      -2.735   2.150   6.540  1.00  0.00     0.041 C 
ATOM     13  O   UNL     1      -2.289   3.324   6.445  1.00  0.00    -0.550 OA
ATOM     14  O   UNL     1      -3.011   1.423   5.387  1.00  0.00    -0.550 OA
ENDBRANCH  11  12
ENDBRANCH  10  11
ENDBRANCH   9  10
ENDBRANCH   8   9
ENDBRANCH   7   8
ENDBRANCH   6   7
ENDBRANCH   5   6
ENDBRANCH   4   5
ENDBRANCH   3   4
ENDBRANCH   2   3
ENDBRANCH   1   2
BRANCH   1  15
ATOM     15  C   UNL     1      -5.394  -2.343   7.650  1.00  0.00     0.000 C 
BRANCH  15  16
ATOM     16  C   UNL     1      -3.937  -1.901   7.426  1.00  0.00     0.000 C 
BRANCH  16  17
ATOM     17  C   UNL     1      -2.924  -3.007   7.766  1.00  0.00     0.000 C 
BRANCH  17  18
ATOM     18  C   UNL     1      -1.651  -3.016   6.899  1.00  0.00    -0.000 C 
BRANCH  18  19
ATOM     19  C   UNL     1      -1.569  -1.839   5.904  1.00  0.00    -0.000 C 
BRANCH  19  20
ATOM     20  C   UNL     1      -1.839  -2.283   4.455  1.00  0.00    -0.000 C 
BRANCH  20  21
ATOM     21  C   UNL     1      -3.199  -1.793   3.931  1.00  0.00    -0.000 C 
BRANCH  21  22
ATOM     22  C   UNL     1      -4.167  -2.951   3.629  1.00  0.00    -0.000 C 
BRANCH  22  23
ATOM     23  C   UNL     1      -3.610  -4.315   4.065  1.00  0.00    -0.000 C 
BRANCH  23  24
ATOM     24  C   UNL     1      -4.482  -4.995   5.134  1.00  0.00    -0.000 C 
BRANCH  24  25
ATOM     25  C   UNL     1      -3.755  -6.147   5.843  1.00  0.00    -0.003 C 
ATOM     26  C   UNL     1      -4.507  -6.656   7.071  1.00  0.00     0.004 C 
ENDBRANCH  24  25
ENDBRANCH  23  24
ENDBRANCH  22  23
ENDBRANCH  21  22
ENDBRANCH  20  21
ENDBRANCH  19  20
ENDBRANCH  18  19
ENDBRANCH  17  18
ENDBRANCH  16  17
ENDBRANCH  15  16
ENDBRANCH   1  15
TORSDOF 22
ENDMDL
MODEL 5
REMARK VINA RESULT:    -3.533      3.021      5.898
REMARK INTER + INTRA:         -11.980
REMARK INTER:                  -8.585
REMARK INTRA:                  -3.394
REMARK UNBOUND:                -3.903
REMARK SMILES CCCCCCCCCCCCCCCCCCCCCCCC(=O)[O-]
REMARK SMILES IDX 13 1 14 2 15 3 16 4 17 5 18 6 19 7 20 8 21 9 22 10 23 11
REMARK SMILES IDX 24 12 25 13 26 14 12 15 11 16 10 17 9 18 8 19 7 20 6 21 5 22
REMARK SMILES IDX 4 23 3 24 2 25 1 26
REMARK H PARENT
REMARK Flexibility Score: inf
ROOT
ATOM      1  C   UNL     1      -2.432  -0.546   8.072  1.00  0.00     0.000 C 
ENDROOT
BRANCH   1   2
ATOM      2  C   UNL     1      -2.393  -1.723   9.065  1.00  0.00     0.000 C 
BRANCH   2   3
ATOM      3  C   UNL     1      -3.772  -2.043   9.670  1.00  0.00     0.000 C 
BRANCH   3   4
ATOM      4  C   UNL     1      -4.931  -1.650   8.739  1.00  0.00     0.000 C 
BRANCH   4   5
ATOM      5  C   UNL     1      -6.097  -2.649   8.806  1.00  0.00     0.000 C 
BRANCH   5   6
ATOM      6  C   UNL     1      -5.903  -3.725   9.890  1.00  0.00     0.000 C 
BRANCH   6   7
ATOM      7  C   UNL     1      -7.065  -3.866  10.891  1.00  0.00     0.000 C 
BRANCH   7   8
ATOM      8  C   UNL     1      -7.761  -2.529  11.197  1.00  0.00     0.000 C 
BRANCH   8   9
ATOM      9  C   UNL     1      -7.154  -1.819  12.418  1.00  0.00     0.000 C 
BRANCH   9  10
ATOM     10  C   UNL     1      -6.342  -0.554  12.052  1.00  0.00     0.006 C 
BRANCH  10  11
ATOM     11  C   UNL     1      -4.989  -0.476  12.774  1.00  0.00     0.053 C 
BRANCH  11  12
ATOM     12  C   UNL     1      -4.275   0.811  12.485  1.00  0.00     0.041 C 
ATOM     13  O   UNL     1      -4.358   1.776  13.291  1.00  0.00    -0.550 OA
ATOM     14  O   UNL     1      -3.516   0.944  11.329  1.00  0.00    -0.550 OA
ENDBRANCH  11  12
ENDBRANCH  10  11
ENDBRANCH   9  10
ENDBRANCH   8   9
ENDBRANCH   7   8
ENDBRANCH   6   7
ENDBRANCH   5   6
ENDBRANCH   4   5
ENDBRANCH   3   4
ENDBRANCH   2   3
ENDBRANCH   1   2
BRANCH   1  15
ATOM     15  C   UNL     1      -1.632  -0.758   6.773  1.00  0.00     0.000 C 
BRANCH  15  16
ATOM     16  C   UNL     1      -1.487  -2.243   6.393  1.00  0.00     0.000 C 
BRANCH  16  17
ATOM     17  C   UNL     1      -2.408  -2.649   5.230  1.00  0.00     0.000 C 
BRANCH  17  18
ATOM     18  C   UNL     1      -3.561  -3.595   5.612  1.00  0.00    -0.000 C 
BRANCH  18  19
ATOM     19  C   UNL     1      -3.207  -4.583   6.744  1.00  0.00    -0.000 C 
BRANCH  19  20
ATOM     20  C   UNL     1      -4.416  -5.435   7.171  1.00  0.00    -0.000 C 
BRANCH  20  21
ATOM     21  C   UNL     1      -4.266  -6.913   6.776  1.00  0.00    -0.000 C 
BRANCH  21  22
ATOM     22  C   UNL     1      -5.229  -7.322   5.646  1.00  0.00    -0.000 C 
BRANCH  22  23
ATOM     23  C   UNL     1      -4.498  -7.933   4.440  1.00  0.00    -0.000 C 
BRANCH  23  24
ATOM     24  C   UNL     1      -2.969  -7.821   4.558  1.00  0.00    -0.000 C 
BRANCH  24  25
ATOM     25  C   UNL     1      -2.244  -9.056   4.002  1.00  0.00    -0.003 C 
ATOM     26  C   UNL     1      -1.169  -8.699   2.977  1.00  0.00     0.004 C 
ENDBRANCH  24  25
ENDBRANCH  23  24
ENDBRANCH  22  23
ENDBRANCH  21  22
ENDBRANCH  20  21
ENDBRANCH  19  20
ENDBRANCH  18  19
ENDBRANCH  17  18
ENDBRANCH  16  17
ENDBRANCH  15  16
ENDBRANCH   1  15
TORSDOF 22
ENDMDL
MODEL 6
REMARK VINA RESULT:    -3.529      1.999      5.858
REMARK INTER + INTRA:         -11.972
REMARK INTER:                  -7.952
REMARK INTRA:                  -4.020
REMARK UNBOUND:                -3.903
REMARK SMILES CCCCCCCCCCCCCCCCCCCCCCCC(=O)[O-]
REMARK SMILES IDX 13 1 14 2 15 3 16 4 17 5 18 6 19 7 20 8 21 9 22 10 23 11
REMARK SMILES IDX 24 12 25 13 26 14 12 15 11 16 10 17 9 18 8 19 7 20 6 21 5 22
REMARK SMILES IDX 4 23 3 24 2 25 1 26
REMARK H PARENT
REMARK Flexibility Score: inf
ROOT
ATOM      1  C   UNL     1      -6.117  -3.113   8.561  1.00  0.00     0.000 C 
ENDROOT
BRANCH   1   2
ATOM      2  C   UNL     1      -5.154  -3.166   7.361  1.00  0.00     0.000 C 
BRANCH   2   3
ATOM      3  C   UNL     1      -4.448  -4.527   7.218  1.00  0.00     0.000 C 
BRANCH   3   4
ATOM      4  C   UNL     1      -3.147  -4.435   6.403  1.00  0.00     0.000 C 
BRANCH   4   5
ATOM      5  C   UNL     1      -2.098  -3.539   7.082  1.00  0.00     0.000 C 
BRANCH   5   6
ATOM      6  C   UNL     1      -1.591  -2.409   6.167  1.00  0.00     0.000 C 
BRANCH   6   7
ATOM      7  C   UNL     1      -2.634  -1.838   5.189  1.00  0.00     0.000 C 
BRANCH   7   8
ATOM      8  C   UNL     1      -2.445  -0.335   4.920  1.00  0.00     0.000 C 
BRANCH   8   9
ATOM      9  C   UNL     1      -3.767   0.446   5.005  1.00  0.00     0.000 C 
BRANCH   9  10
ATOM     10  C   UNL     1      -3.572   1.980   5.048  1.00  0.00     0.006 C 
BRANCH  10  11
ATOM     11  C   UNL     1      -2.441   2.471   4.133  1.00  0.00     0.053 C 
BRANCH  11  12
ATOM     12  C   UNL     1      -2.607   3.915   3.765  1.00  0.00     0.041 C 
ATOM     13  O   UNL     1      -3.747   4.369   3.482  1.00  0.00    -0.550 OA
ATOM     14  O   UNL     1      -1.504   4.760   3.740  1.00  0.00    -0.550 OA
ENDBRANCH  11  12
ENDBRANCH  10  11
ENDBRANCH   9  10
ENDBRANCH   8   9
ENDBRANCH   7   8
ENDBRANCH   6   7
ENDBRANCH   5   6
ENDBRANCH   4   5
ENDBRANCH   3   4
ENDBRANCH   2   3
ENDBRANCH   1   2
BRANCH   1  15
ATOM     15  C   UNL     1      -5.731  -4.011   9.752  1.00  0.00     0.000 C 
BRANCH  15  16
ATOM     16  C   UNL     1      -6.286  -3.500  11.093  1.00  0.00     0.000 C 
BRANCH  16  17
ATOM     17  C   UNL     1      -7.146  -2.234  10.935  1.00  0.00     0.000 C 
BRANCH  17  18
ATOM     18  C   UNL     1      -6.543  -0.956  11.545  1.00  0.00    -0.000 C 
BRANCH  18  19
ATOM     19  C   UNL     1      -5.318  -1.215  12.448  1.00  0.00    -0.000 C 
BRANCH  19  20
ATOM     20  C   UNL     1      -4.023  -0.634  11.853  1.00  0.00    -0.000 C 
BRANCH  20  21
ATOM     21  C   UNL     1      -3.096  -1.719  11.283  1.00  0.00    -0.000 C 
BRANCH  21  22
ATOM     22  C   UNL     1      -2.753  -1.484   9.801  1.00  0.00    -0.000 C 
BRANCH  22  23
ATOM     23  C   UNL     1      -3.701  -0.479   9.128  1.00  0.00    -0.000 C 
BRANCH  23  24
ATOM     24  C   UNL     1      -2.963   0.760   8.592  1.00  0.00    -0.000 C 
BRANCH  24  25
ATOM     25  C   UNL     1      -1.449   0.534   8.464  1.00  0.00    -0.003 C 
ATOM     26  C   UNL     1      -0.629   1.587   9.208  1.00  0.00     0.004 C 
ENDBRANCH  24  25
ENDBRANCH  23  24
ENDBRANCH  22  23
ENDBRANCH  21  22
ENDBRANCH  20  21
ENDBRANCH  19  20
ENDBRANCH  18  19
ENDBRANCH  17  18
ENDBRANCH  16  17
ENDBRANCH  15  16
ENDBRANCH   1  15
TORSDOF 22
ENDMDL
MODEL 7
REMARK VINA RESULT:    -3.514      2.585      5.152
REMARK INTER + INTRA:         -11.937
REMARK INTER:                  -8.539
REMARK INTRA:                  -3.398
REMARK UNBOUND:                -3.903
REMARK SMILES CCCCCCCCCCCCCCCCCCCCCCCC(=O)[O-]
REMARK SMILES IDX 13 1 14 2 15 3 16 4 17 5 18 6 19 7 20 8 21 9 22 10 23 11
REMARK SMILES IDX 24 12 25 13 26 14 12 15 11 16 10 17 9 18 8 19 7 20 6 21 5 22
REMARK SMILES IDX 4 23 3 24 2 25 1 26
REMARK H PARENT
REMARK Flexibility Score: inf
ROOT
ATOM      1  C   UNL     1      -6.026  -1.909  12.000  1.00  0.00     0.000 C 
ENDROOT
BRANCH   1   2
ATOM      2  C   UNL     1      -6.765  -2.454  10.764  1.00  0.00     0.000 C 
BRANCH   2   3
ATOM      3  C   UNL     1      -6.323  -3.878  10.380  1.00  0.00     0.000 C 
BRANCH   3   4
ATOM      4  C   UNL     1      -5.399  -3.898   9.151  1.00  0.00     0.000 C 
BRANCH   4   5
ATOM      5  C   UNL     1      -5.468  -2.589   8.349  1.00  0.00     0.000 C 
BRANCH   5   6
ATOM      6  C   UNL     1      -4.322  -2.447   7.331  1.00  0.00     0.000 C 
BRANCH   6   7
ATOM      7  C   UNL     1      -3.462  -3.709   7.129  1.00  0.00     0.000 C 
BRANCH   7   8
ATOM      8  C   UNL     1      -1.953  -3.432   7.243  1.00  0.00     0.000 C 
BRANCH   8   9
ATOM      9  C   UNL     1      -1.591  -1.991   6.848  1.00  0.00     0.000 C 
BRANCH   9  10
ATOM     10  C   UNL     1      -1.051  -1.868   5.403  1.00  0.00     0.006 C 
BRANCH  10  11
ATOM     11  C   UNL     1      -1.779  -0.797   4.577  1.00  0.00     0.053 C 
BRANCH  11  12
ATOM     12  C   UNL     1      -3.063  -1.315   3.999  1.00  0.00     0.041 C 
ATOM     13  O   UNL     1      -3.177  -2.533   3.701  1.00  0.00    -0.550 OA
ATOM     14  O   UNL     1      -4.134  -0.453   3.795  1.00  0.00    -0.550 OA
ENDBRANCH  11  12
ENDBRANCH  10  11
ENDBRANCH   9  10
ENDBRANCH   8   9
ENDBRANCH   7   8
ENDBRANCH   6   7
ENDBRANCH   5   6
ENDBRANCH   4   5
ENDBRANCH   3   4
ENDBRANCH   2   3
ENDBRANCH   1   2
BRANCH   1  15
ATOM     15  C   UNL     1      -4.740  -1.115  11.699  1.00  0.00     0.000 C 
BRANCH  15  16
ATOM     16  C   UNL     1      -3.486  -2.005  11.641  1.00  0.00     0.000 C 
BRANCH  16  17
ATOM     17  C   UNL     1      -2.543  -1.625  10.487  1.00  0.00     0.000 C 
BRANCH  17  18
ATOM     18  C   UNL     1      -2.638  -0.160  10.022  1.00  0.00    -0.000 C 
BRANCH  18  19
ATOM     19  C   UNL     1      -1.346   0.652  10.256  1.00  0.00    -0.000 C 
BRANCH  19  20
ATOM     20  C   UNL     1      -0.886   1.391   8.987  1.00  0.00    -0.000 C 
BRANCH  20  21
ATOM     21  C   UNL     1      -1.999   1.504   7.933  1.00  0.00    -0.000 C 
BRANCH  21  22
ATOM     22  C   UNL     1      -2.376   2.965   7.628  1.00  0.00    -0.000 C 
BRANCH  22  23
ATOM     23  C   UNL     1      -1.175   3.919   7.728  1.00  0.00    -0.000 C 
BRANCH  23  24
ATOM     24  C   UNL     1      -1.126   4.929   6.570  1.00  0.00    -0.000 C 
BRANCH  24  25
ATOM     25  C   UNL     1       0.303   5.173   6.062  1.00  0.00    -0.003 C 
ATOM     26  C   UNL     1       0.345   5.594   4.594  1.00  0.00     0.004 C 
ENDBRANCH  24  25
ENDBRANCH  23  24
ENDBRANCH  22  23
ENDBRANCH  21  22
ENDBRANCH  20  21
ENDBRANCH  19  20
ENDBRANCH  18  19
ENDBRANCH  17  18
ENDBRANCH  16  17
ENDBRANCH  15  16
ENDBRANCH   1  15
TORSDOF 22
ENDMDL
MODEL 8
REMARK VINA RESULT:    -3.512      2.796      6.020
REMARK INTER + INTRA:         -11.931
REMARK INTER:                  -7.946
REMARK INTRA:                  -3.985
REMARK UNBOUND:                -3.903
REMARK SMILES CCCCCCCCCCCCCCCCCCCCCCCC(=O)[O-]
REMARK SMILES IDX 13 1 14 2 15 3 16 4 17 5 18 6 19 7 20 8 21 9 22 10 23 11
REMARK SMILES IDX 24 12 25 13 26 14 12 15 11 16 10 17 9 18 8 19 7 20 6 21 5 22
REMARK SMILES IDX 4 23 3 24 2 25 1 26
REMARK H PARENT
REMARK Flexibility Score: inf
ROOT
ATOM      1  C   UNL     1      -5.010  -2.109  11.346  1.00  0.00     0.000 C 
ENDROOT
BRANCH   1   2
ATOM      2  C   UNL     1      -5.472  -3.487  10.837  1.00  0.00     0.000 C 
BRANCH   2   3
ATOM      3  C   UNL     1      -6.592  -3.393   9.785  1.00  0.00     0.000 C 
BRANCH   3   4
ATOM      4  C   UNL     1      -6.069  -2.972   8.402  1.00  0.00     0.000 C 
BRANCH   4   5
ATOM      5  C   UNL     1      -4.940  -3.888   7.903  1.00  0.00     0.000 C 
BRANCH   5   6
ATOM      6  C   UNL     1      -3.935  -3.161   6.991  1.00  0.00     0.000 C 
BRANCH   6   7
ATOM      7  C   UNL     1      -2.578  -3.865   6.815  1.00  0.00     0.000 C 
BRANCH   7   8
ATOM      8  C   UNL     1      -1.380  -2.925   7.033  1.00  0.00     0.000 C 
BRANCH   8   9
ATOM      9  C   UNL     1      -1.381  -1.739   6.055  1.00  0.00     0.000 C 
BRANCH   9  10
ATOM     10  C   UNL     1      -0.618  -2.026   4.740  1.00  0.00     0.006 C 
BRANCH  10  11
ATOM     11  C   UNL     1      -1.075  -1.141   3.572  1.00  0.00     0.053 C 
BRANCH  11  12
ATOM     12  C   UNL     1      -0.401  -1.520   2.287  1.00  0.00     0.041 C 
ATOM     13  O   UNL     1      -0.162  -2.730   2.030  1.00  0.00    -0.550 OA
ATOM     14  O   UNL     1      -0.041  -0.539   1.371  1.00  0.00    -0.550 OA
ENDBRANCH  11  12
ENDBRANCH  10  11
ENDBRANCH   9  10
ENDBRANCH   8   9
ENDBRANCH   7   8
ENDBRANCH   6   7
ENDBRANCH   5   6
ENDBRANCH   4   5
ENDBRANCH   3   4
ENDBRANCH   2   3
ENDBRANCH   1   2
BRANCH   1  15
ATOM     15  C   UNL     1      -3.494  -1.973  11.587  1.00  0.00     0.000 C 
BRANCH  15  16
ATOM     16  C   UNL     1      -2.729  -1.498  10.339  1.00  0.00     0.000 C 
BRANCH  16  17
ATOM     17  C   UNL     1      -3.532  -0.490   9.500  1.00  0.00     0.000 C 
BRANCH  17  18
ATOM     18  C   UNL     1      -2.700   0.348   8.513  1.00  0.00    -0.000 C 
BRANCH  18  19
ATOM     19  C   UNL     1      -1.242   0.578   8.967  1.00  0.00    -0.000 C 
BRANCH  19  20
ATOM     20  C   UNL     1      -0.878   2.072   9.022  1.00  0.00    -0.000 C 
BRANCH  20  21
ATOM     21  C   UNL     1      -1.603   2.815  10.157  1.00  0.00    -0.000 C 
BRANCH  21  22
ATOM     22  C   UNL     1      -1.261   2.247  11.546  1.00  0.00    -0.000 C 
BRANCH  22  23
ATOM     23  C   UNL     1      -2.503   1.754  12.305  1.00  0.00    -0.000 C 
BRANCH  23  24
ATOM     24  C   UNL     1      -3.796   2.437  11.826  1.00  0.00    -0.000 C 
BRANCH  24  25
ATOM     25  C   UNL     1      -5.043   1.574  12.072  1.00  0.00    -0.003 C 
ATOM     26  C   UNL     1      -5.072   0.959  13.470  1.00  0.00     0.004 C 
ENDBRANCH  24  25
ENDBRANCH  23  24
ENDBRANCH  22  23
ENDBRANCH  21  22
ENDBRANCH  20  21
ENDBRANCH  19  20
ENDBRANCH  18  19
ENDBRANCH  17  18
ENDBRANCH  16  17
ENDBRANCH  15  16
ENDBRANCH   1  15
TORSDOF 22
ENDMDL
MODEL 9
REMARK VINA RESULT:    -3.475      2.161      6.561
REMARK INTER + INTRA:         -11.848
REMARK INTER:                  -7.082
REMARK INTRA:                  -4.766
REMARK UNBOUND:                -3.903
REMARK SMILES CCCCCCCCCCCCCCCCCCCCCCCC(=O)[O-]
REMARK SMILES IDX 13 1 14 2 15 3 16 4 17 5 18 6 19 7 20 8 21 9 22 10 23 11
REMARK SMILES IDX 24 12 25 13 26 14 12 15 11 16 10 17 9 18 8 19 7 20 6 21 5 22
REMARK SMILES IDX 4 23 3 24 2 25 1 26
REMARK H PARENT
REMARK Flexibility Score: inf
ROOT
ATOM      1  C   UNL     1      -2.007   0.398   8.264  1.00  0.00     0.000 C 
ENDROOT
BRANCH   1   2
ATOM      2  C   UNL     1      -2.419  -0.798   7.386  1.00  0.00     0.000 C 
BRANCH   2   3
ATOM      3  C   UNL     1      -1.319  -1.221   6.394  1.00  0.00     0.000 C 
BRANCH   3   4
ATOM      4  C   UNL     1      -1.359  -2.724   6.074  1.00  0.00     0.000 C 
BRANCH   4   5
ATOM      5  C   UNL     1      -2.039  -3.539   7.186  1.00  0.00     0.000 C 
BRANCH   5   6
ATOM      6  C   UNL     1      -3.147  -4.468   6.657  1.00  0.00     0.000 C 
BRANCH   6   7
ATOM      7  C   UNL     1      -3.708  -4.100   5.271  1.00  0.00     0.000 C 
BRANCH   7   8
ATOM      8  C   UNL     1      -5.076  -3.399   5.344  1.00  0.00     0.000 C 
BRANCH   8   9
ATOM      9  C   UNL     1      -5.297  -2.424   4.176  1.00  0.00     0.000 C 
BRANCH   9  10
ATOM     10  C   UNL     1      -4.221  -1.315   4.090  1.00  0.00     0.006 C 
BRANCH  10  11
ATOM     11  C   UNL     1      -4.708   0.040   4.625  1.00  0.00     0.053 C 
BRANCH  11  12
ATOM     12  C   UNL     1      -3.898   1.179   4.080  1.00  0.00     0.041 C 
ATOM     13  O   UNL     1      -2.724   1.375   4.492  1.00  0.00    -0.550 OA
ATOM     14  O   UNL     1      -4.438   2.021   3.115  1.00  0.00    -0.550 OA
ENDBRANCH  11  12
ENDBRANCH  10  11
ENDBRANCH   9  10
ENDBRANCH   8   9
ENDBRANCH   7   8
ENDBRANCH   6   7
ENDBRANCH   5   6
ENDBRANCH   4   5
ENDBRANCH   3   4
ENDBRANCH   2   3
ENDBRANCH   1   2
BRANCH   1  15
ATOM     15  C   UNL     1      -1.877   0.092   9.768  1.00  0.00     0.000 C 
BRANCH  15  16
ATOM     16  C   UNL     1      -2.374  -1.316  10.140  1.00  0.00     0.000 C 
BRANCH  16  17
ATOM     17  C   UNL     1      -3.452  -1.294  11.237  1.00  0.00     0.000 C 
BRANCH  17  18
ATOM     18  C   UNL     1      -4.353  -0.045  11.241  1.00  0.00    -0.000 C 
BRANCH  18  19
ATOM     19  C   UNL     1      -5.721  -0.263  10.558  1.00  0.00    -0.000 C 
BRANCH  19  20
ATOM     20  C   UNL     1      -5.714   0.185   9.086  1.00  0.00    -0.000 C 
BRANCH  20  21
ATOM     21  C   UNL     1      -5.710  -1.000   8.107  1.00  0.00    -0.000 C 
BRANCH  21  22
ATOM     22  C   UNL     1      -6.474  -2.219   8.654  1.00  0.00    -0.000 C 
BRANCH  22  23
ATOM     23  C   UNL     1      -5.542  -3.384   9.021  1.00  0.00    -0.000 C 
BRANCH  23  24
ATOM     24  C   UNL     1      -5.913  -4.037  10.364  1.00  0.00    -0.000 C 
BRANCH  24  25
ATOM     25  C   UNL     1      -7.401  -3.867  10.709  1.00  0.00    -0.003 C 
ATOM     26  C   UNL     1      -7.621  -3.162  12.046  1.00  0.00     0.004 C 
ENDBRANCH  24  25
ENDBRANCH  23  24
ENDBRANCH  22  23
ENDBRANCH  21  22
ENDBRANCH  20  21
ENDBRANCH  19  20
ENDBRANCH  18  19
ENDBRANCH  17  18
ENDBRANCH  16  17
ENDBRANCH  15  16
ENDBRANCH   1  15
TORSDOF 22
ENDMDL
