MODEL 1
REMARK VINA RESULT:    -4.934      0.000      0.000
REMARK INTER + INTRA:          -5.702
REMARK INTER:                  -5.655
REMARK INTRA:                  -0.047
REMARK UNBOUND:                -0.047
REMARK SMILES O=C([O-])c1cc(O)c(O)c(O)c1
REMARK SMILES IDX 4 1 5 2 12 3 6 4 10 5 8 6 2 7 1 8 3 9 7 10 11 12 9 14
REMARK H PARENT 7 11 11 13 9 15
REMARK Flexibility Score: inf
ROOT
ATOM      1  C   UNL     1     -24.309 -51.433 103.030  1.00  0.00     0.005 A 
ATOM      2  C   UNL     1     -24.080 -52.059 101.792  1.00  0.00     0.060 A 
ATOM      3  C   UNL     1     -25.180 -52.040 103.950  1.00  0.00     0.060 A 
ATOM      4  C   UNL     1     -24.711 -53.270 101.477  1.00  0.00     0.162 A 
ATOM      5  C   UNL     1     -25.814 -53.249 103.643  1.00  0.00     0.162 A 
ATOM      6  C   UNL     1     -25.581 -53.869 102.403  1.00  0.00     0.200 A 
ENDROOT
BRANCH   1   7
ATOM      7  C   UNL     1     -23.642 -50.155 103.364  1.00  0.00     0.072 C 
ATOM      8  O   UNL     1     -22.389 -50.050 103.302  1.00  0.00    -0.545 OA
ATOM      9  O   UNL     1     -24.392 -49.050 103.751  1.00  0.00    -0.545 OA
ENDBRANCH   1   7
BRANCH   4  10
ATOM     10  O   UNL     1     -24.476 -53.880 100.246  1.00  0.00    -0.504 OA
ATOM     11  H   UNL     1     -25.229 -54.272  99.694  1.00  0.00     0.293 HD
ENDBRANCH   4  10
BRANCH   5  12
ATOM     12  O   UNL     1     -26.672 -53.818 104.583  1.00  0.00    -0.504 OA
ATOM     13  H   UNL     1     -27.352 -54.526 104.334  1.00  0.00     0.293 HD
ENDBRANCH   5  12
BRANCH   6  14
ATOM     14  O   UNL     1     -26.218 -55.074 102.106  1.00  0.00    -0.502 OA
ATOM     15  H   UNL     1     -26.606 -55.269 101.191  1.00  0.00     0.293 HD
ENDBRANCH   6  14
TORSDOF 4
ENDMDL
MODEL 2
REMARK VINA RESULT:    -4.882      0.080      2.431
REMARK INTER + INTRA:          -5.642
REMARK INTER:                  -5.595
REMARK INTRA:                  -0.047
REMARK UNBOUND:                -0.047
REMARK SMILES O=C([O-])c1cc(O)c(O)c(O)c1
REMARK SMILES IDX 4 1 5 2 12 3 6 4 10 5 8 6 2 7 1 8 3 9 7 10 11 12 9 14
REMARK H PARENT 7 11 11 13 9 15
REMARK Flexibility Score: inf
ROOT
ATOM      1  C   UNL     1     -24.276 -51.395 103.062  1.00  0.00     0.005 A 
ATOM      2  C   UNL     1     -25.156 -51.996 103.978  1.00  0.00     0.060 A 
ATOM      3  C   UNL     1     -24.068 -52.006 101.814  1.00  0.00     0.060 A 
ATOM      4  C   UNL     1     -25.817 -53.189 103.654  1.00  0.00     0.162 A 
ATOM      5  C   UNL     1     -24.723 -53.197 101.484  1.00  0.00     0.162 A 
ATOM      6  C   UNL     1     -25.602 -53.793 102.404  1.00  0.00     0.200 A 
ENDROOT
BRANCH   1   7
ATOM      7  C   UNL     1     -23.577 -50.135 103.402  1.00  0.00     0.072 C 
ATOM      8  O   UNL     1     -22.320 -50.069 103.364  1.00  0.00    -0.545 OA
ATOM      9  O   UNL     1     -24.300 -49.006 103.770  1.00  0.00    -0.545 OA
ENDBRANCH   1   7
BRANCH   4  10
ATOM     10  O   UNL     1     -26.688 -53.775 104.571  1.00  0.00    -0.504 OA
ATOM     11  H   UNL     1     -26.549 -53.684 105.570  1.00  0.00     0.293 HD
ENDBRANCH   4  10
BRANCH   5  12
ATOM     12  O   UNL     1     -24.489 -53.772 100.235  1.00  0.00    -0.504 OA
ATOM     13  H   UNL     1     -24.672 -54.750 100.049  1.00  0.00     0.293 HD
ENDBRANCH   5  12
BRANCH   6  14
ATOM     14  O   UNL     1     -26.252 -54.981 102.065  1.00  0.00    -0.502 OA
ATOM     15  H   UNL     1     -25.790 -55.881 102.110  1.00  0.00     0.293 HD
ENDBRANCH   6  14
TORSDOF 4
ENDMDL
MODEL 3
REMARK VINA RESULT:    -4.806      7.715      9.343
REMARK INTER + INTRA:          -5.556
REMARK INTER:                  -5.505
REMARK INTRA:                  -0.051
REMARK UNBOUND:                -0.047
REMARK SMILES O=C([O-])c1cc(O)c(O)c(O)c1
REMARK SMILES IDX 4 1 5 2 12 3 6 4 10 5 8 6 2 7 1 8 3 9 7 10 11 12 9 14
REMARK H PARENT 7 11 11 13 9 15
REMARK Flexibility Score: inf
ROOT
ATOM      1  C   UNL     1     -20.306 -59.035 100.351  1.00  0.00     0.005 A 
ATOM      2  C   UNL     1     -18.904 -59.126 100.294  1.00  0.00     0.060 A 
ATOM      3  C   UNL     1     -20.954 -58.021  99.627  1.00  0.00     0.060 A 
ATOM      4  C   UNL     1     -18.162 -58.217  99.527  1.00  0.00     0.162 A 
ATOM      5  C   UNL     1     -20.220 -57.110  98.860  1.00  0.00     0.162 A 
ATOM      6  C   UNL     1     -18.819 -57.206  98.807  1.00  0.00     0.200 A 
ENDROOT
BRANCH   1   7
ATOM      7  C   UNL     1     -21.092 -59.994 101.160  1.00  0.00     0.072 C 
ATOM      8  O   UNL     1     -20.568 -60.583 102.143  1.00  0.00    -0.545 OA
ATOM      9  O   UNL     1     -22.420 -60.258 100.846  1.00  0.00    -0.545 OA
ENDBRANCH   1   7
BRANCH   4  10
ATOM     10  O   UNL     1     -16.772 -58.318  99.479  1.00  0.00    -0.504 OA
ATOM     11  H   UNL     1     -16.205 -58.259 100.316  1.00  0.00     0.293 HD
ENDBRANCH   4  10
BRANCH   5  12
ATOM     12  O   UNL     1     -20.901 -56.117  98.157  1.00  0.00    -0.504 OA
ATOM     13  H   UNL     1     -20.782 -55.132  98.362  1.00  0.00     0.293 HD
ENDBRANCH   5  12
BRANCH   6  14
ATOM     14  O   UNL     1     -18.095 -56.293  98.039  1.00  0.00    -0.502 OA
ATOM     15  H   UNL     1     -17.085 -56.330  97.966  1.00  0.00     0.293 HD
ENDBRANCH   6  14
TORSDOF 4
ENDMDL
MODEL 4
REMARK VINA RESULT:    -4.795      7.693      9.362
REMARK INTER + INTRA:          -5.543
REMARK INTER:                  -5.492
REMARK INTRA:                  -0.051
REMARK UNBOUND:                -0.047
REMARK SMILES O=C([O-])c1cc(O)c(O)c(O)c1
REMARK SMILES IDX 4 1 5 2 12 3 6 4 10 5 8 6 2 7 1 8 3 9 7 10 11 12 9 14
REMARK H PARENT 7 11 11 13 9 15
REMARK Flexibility Score: inf
ROOT
ATOM      1  C   UNL     1     -20.324 -59.005 100.360  1.00  0.00     0.005 A 
ATOM      2  C   UNL     1     -20.975 -57.992  99.634  1.00  0.00     0.060 A 
ATOM      3  C   UNL     1     -18.923 -59.092 100.304  1.00  0.00     0.060 A 
ATOM      4  C   UNL     1     -20.238 -57.082  98.862  1.00  0.00     0.162 A 
ATOM      5  C   UNL     1     -18.181 -58.187  99.536  1.00  0.00     0.162 A 
ATOM      6  C   UNL     1     -18.838 -57.178  98.812  1.00  0.00     0.200 A 
ENDROOT
BRANCH   1   7
ATOM      7  C   UNL     1     -21.100 -59.966 101.175  1.00  0.00     0.072 C 
ATOM      8  O   UNL     1     -20.577 -60.528 102.174  1.00  0.00    -0.545 OA
ATOM      9  O   UNL     1     -22.418 -60.262 100.850  1.00  0.00    -0.545 OA
ENDBRANCH   1   7
BRANCH   4  10
ATOM     10  O   UNL     1     -20.896 -56.083  98.146  1.00  0.00    -0.504 OA
ATOM     11  H   UNL     1     -21.838 -56.211  97.798  1.00  0.00     0.293 HD
ENDBRANCH   4  10
BRANCH   5  12
ATOM     12  O   UNL     1     -16.792 -58.308  99.506  1.00  0.00    -0.504 OA
ATOM     13  H   UNL     1     -16.270 -58.725 100.267  1.00  0.00     0.293 HD
ENDBRANCH   5  12
BRANCH   6  14
ATOM     14  O   UNL     1     -18.090 -56.280  98.049  1.00  0.00    -0.502 OA
ATOM     15  H   UNL     1     -17.190 -55.931  98.355  1.00  0.00     0.293 HD
ENDBRANCH   6  14
TORSDOF 4
ENDMDL
MODEL 5
REMARK VINA RESULT:    -4.777      6.341      8.383
REMARK INTER + INTRA:          -5.522
REMARK INTER:                  -5.477
REMARK INTRA:                  -0.045
REMARK UNBOUND:                -0.047
REMARK SMILES O=C([O-])c1cc(O)c(O)c(O)c1
REMARK SMILES IDX 4 1 5 2 12 3 6 4 10 5 8 6 2 7 1 8 3 9 7 10 11 12 9 14
REMARK H PARENT 7 11 11 13 9 15
REMARK Flexibility Score: inf
ROOT
ATOM      1  C   UNL     1     -21.645 -57.305  99.343  1.00  0.00     0.005 A 
ATOM      2  C   UNL     1     -20.313 -56.862  99.434  1.00  0.00     0.060 A 
ATOM      3  C   UNL     1     -22.090 -57.884  98.143  1.00  0.00     0.060 A 
ATOM      4  C   UNL     1     -19.442 -56.994  98.344  1.00  0.00     0.162 A 
ATOM      5  C   UNL     1     -21.226 -58.018  97.050  1.00  0.00     0.162 A 
ATOM      6  C   UNL     1     -19.897 -57.572  97.148  1.00  0.00     0.200 A 
ENDROOT
BRANCH   1   7
ATOM      7  C   UNL     1     -22.566 -57.168 100.493  1.00  0.00     0.072 C 
ATOM      8  O   UNL     1     -22.749 -58.129 101.286  1.00  0.00    -0.545 OA
ATOM      9  O   UNL     1     -23.243 -55.974 100.714  1.00  0.00    -0.545 OA
ENDBRANCH   1   7
BRANCH   4  10
ATOM     10  O   UNL     1     -18.124 -56.550  98.448  1.00  0.00    -0.504 OA
ATOM     11  H   UNL     1     -17.796 -56.044  99.261  1.00  0.00     0.293 HD
ENDBRANCH   4  10
BRANCH   5  12
ATOM     12  O   UNL     1     -21.707 -58.596  95.876  1.00  0.00    -0.504 OA
ATOM     13  H   UNL     1     -21.225 -59.357  95.413  1.00  0.00     0.293 HD
ENDBRANCH   5  12
BRANCH   6  14
ATOM     14  O   UNL     1     -19.042 -57.711  96.053  1.00  0.00    -0.502 OA
ATOM     15  H   UNL     1     -18.449 -58.523  95.931  1.00  0.00     0.293 HD
ENDBRANCH   6  14
TORSDOF 4
ENDMDL
MODEL 6
REMARK VINA RESULT:    -4.666      7.091      9.414
REMARK INTER + INTRA:          -5.395
REMARK INTER:                  -5.347
REMARK INTRA:                  -0.048
REMARK UNBOUND:                -0.047
REMARK SMILES O=C([O-])c1cc(O)c(O)c(O)c1
REMARK SMILES IDX 4 1 5 2 12 3 6 4 10 5 8 6 2 7 1 8 3 9 7 10 11 12 9 14
REMARK H PARENT 7 11 11 13 9 15
REMARK Flexibility Score: inf
ROOT
ATOM      1  C   UNL     1     -22.015 -58.845  98.231  1.00  0.00     0.005 A 
ATOM      2  C   UNL     1     -21.884 -58.099  99.415  1.00  0.00     0.060 A 
ATOM      3  C   UNL     1     -21.092 -58.642  97.191  1.00  0.00     0.060 A 
ATOM      4  C   UNL     1     -20.850 -57.164  99.557  1.00  0.00     0.162 A 
ATOM      5  C   UNL     1     -20.058 -57.710  97.326  1.00  0.00     0.162 A 
ATOM      6  C   UNL     1     -19.932 -56.967  98.512  1.00  0.00     0.200 A 
ENDROOT
BRANCH   1   7
ATOM      7  C   UNL     1     -23.106 -59.833  98.078  1.00  0.00     0.072 C 
ATOM      8  O   UNL     1     -23.305 -60.709  98.961  1.00  0.00    -0.545 OA
ATOM      9  O   UNL     1     -23.928 -59.808  96.957  1.00  0.00    -0.545 OA
ENDBRANCH   1   7
BRANCH   4  10
ATOM     10  O   UNL     1     -20.731 -56.429 100.737  1.00  0.00    -0.504 OA
ATOM     11  H   UNL     1     -21.064 -55.475 100.806  1.00  0.00     0.293 HD
ENDBRANCH   4  10
BRANCH   5  12
ATOM     12  O   UNL     1     -19.163 -57.538  96.270  1.00  0.00    -0.504 OA
ATOM     13  H   UNL     1     -18.206 -57.867  96.315  1.00  0.00     0.293 HD
ENDBRANCH   5  12
BRANCH   6  14
ATOM     14  O   UNL     1     -18.897 -56.040  98.638  1.00  0.00    -0.502 OA
ATOM     15  H   UNL     1     -18.392 -55.909  99.506  1.00  0.00     0.293 HD
ENDBRANCH   6  14
TORSDOF 4
ENDMDL
MODEL 7
REMARK VINA RESULT:    -4.658      7.182      9.156
REMARK INTER + INTRA:          -5.386
REMARK INTER:                  -5.338
REMARK INTRA:                  -0.048
REMARK UNBOUND:                -0.047
REMARK SMILES O=C([O-])c1cc(O)c(O)c(O)c1
REMARK SMILES IDX 4 1 5 2 12 3 6 4 10 5 8 6 2 7 1 8 3 9 7 10 11 12 9 14
REMARK H PARENT 7 11 11 13 9 15
REMARK Flexibility Score: inf
ROOT
ATOM      1  C   UNL     1     -21.947 -58.930  98.292  1.00  0.00     0.005 A 
ATOM      2  C   UNL     1     -21.063 -58.712  97.221  1.00  0.00     0.060 A 
ATOM      3  C   UNL     1     -21.787 -58.185  99.471  1.00  0.00     0.060 A 
ATOM      4  C   UNL     1     -20.035 -57.765  97.327  1.00  0.00     0.162 A 
ATOM      5  C   UNL     1     -20.763 -57.239  99.585  1.00  0.00     0.162 A 
ATOM      6  C   UNL     1     -19.882 -57.025  98.511  1.00  0.00     0.200 A 
ENDROOT
BRANCH   1   7
ATOM      7  C   UNL     1     -23.034 -59.929  98.181  1.00  0.00     0.072 C 
ATOM      8  O   UNL     1     -23.262 -60.734  99.122  1.00  0.00    -0.545 OA
ATOM      9  O   UNL     1     -23.819 -59.992  97.035  1.00  0.00    -0.545 OA
ENDBRANCH   1   7
BRANCH   4  10
ATOM     10  O   UNL     1     -19.164 -57.559  96.258  1.00  0.00    -0.504 OA
ATOM     11  H   UNL     1     -19.503 -57.449  95.310  1.00  0.00     0.293 HD
ENDBRANCH   4  10
BRANCH   5  12
ATOM     12  O   UNL     1     -20.637 -56.520 100.773  1.00  0.00    -0.504 OA
ATOM     13  H   UNL     1     -19.994 -56.796 101.506  1.00  0.00     0.293 HD
ENDBRANCH   5  12
BRANCH   6  14
ATOM     14  O   UNL     1     -18.863 -56.079  98.633  1.00  0.00    -0.502 OA
ATOM     15  H   UNL     1     -19.043 -55.083  98.587  1.00  0.00     0.293 HD
ENDBRANCH   6  14
TORSDOF 4
ENDMDL
MODEL 8
REMARK VINA RESULT:    -4.635      7.559      9.406
REMARK INTER + INTRA:          -5.359
REMARK INTER:                  -5.311
REMARK INTRA:                  -0.048
REMARK UNBOUND:                -0.047
REMARK SMILES O=C([O-])c1cc(O)c(O)c(O)c1
REMARK SMILES IDX 4 1 5 2 12 3 6 4 10 5 8 6 2 7 1 8 3 9 7 10 11 12 9 14
REMARK H PARENT 7 11 11 13 9 15
REMARK Flexibility Score: inf
ROOT
ATOM      1  C   UNL     1     -20.461 -58.256  99.534  1.00  0.00     0.005 A 
ATOM      2  C   UNL     1     -20.700 -58.168  98.151  1.00  0.00     0.060 A 
ATOM      3  C   UNL     1     -19.135 -58.294  99.995  1.00  0.00     0.060 A 
ATOM      4  C   UNL     1     -19.632 -58.121  97.244  1.00  0.00     0.162 A 
ATOM      5  C   UNL     1     -18.064 -58.248  99.097  1.00  0.00     0.162 A 
ATOM      6  C   UNL     1     -18.309 -58.161  97.715  1.00  0.00     0.200 A 
ENDROOT
BRANCH   1   7
ATOM      7  C   UNL     1     -21.587 -58.305 100.492  1.00  0.00     0.072 C 
ATOM      8  O   UNL     1     -21.610 -59.167 101.410  1.00  0.00    -0.545 OA
ATOM      9  O   UNL     1     -22.638 -57.399 100.392  1.00  0.00    -0.545 OA
ENDBRANCH   1   7
BRANCH   4  10
ATOM     10  O   UNL     1     -19.882 -58.035  95.875  1.00  0.00    -0.504 OA
ATOM     11  H   UNL     1     -19.250 -57.554  95.248  1.00  0.00     0.293 HD
ENDBRANCH   4  10
BRANCH   5  12
ATOM     12  O   UNL     1     -16.762 -58.289  99.595  1.00  0.00    -0.504 OA
ATOM     13  H   UNL     1     -16.047 -58.880  99.190  1.00  0.00     0.293 HD
ENDBRANCH   5  12
BRANCH   6  14
ATOM     14  O   UNL     1     -17.234 -58.114  96.826  1.00  0.00    -0.502 OA
ATOM     15  H   UNL     1     -17.183 -57.435  96.077  1.00  0.00     0.293 HD
ENDBRANCH   6  14
TORSDOF 4
ENDMDL
MODEL 9
REMARK VINA RESULT:    -4.612      7.678      9.710
REMARK INTER + INTRA:          -5.333
REMARK INTER:                  -5.282
REMARK INTRA:                  -0.051
REMARK UNBOUND:                -0.047
REMARK SMILES O=C([O-])c1cc(O)c(O)c(O)c1
REMARK SMILES IDX 4 1 5 2 12 3 6 4 10 5 8 6 2 7 1 8 3 9 7 10 11 12 9 14
REMARK H PARENT 7 11 11 13 9 15
REMARK Flexibility Score: inf
ROOT
ATOM      1  C   UNL     1     -20.476 -58.534  99.490  1.00  0.00     0.005 A 
ATOM      2  C   UNL     1     -19.162 -58.503  99.991  1.00  0.00     0.060 A 
ATOM      3  C   UNL     1     -20.682 -58.379  98.109  1.00  0.00     0.060 A 
ATOM      4  C   UNL     1     -18.074 -58.320  99.126  1.00  0.00     0.162 A 
ATOM      5  C   UNL     1     -19.601 -58.195  97.240  1.00  0.00     0.162 A 
ATOM      6  C   UNL     1     -18.291 -58.166  97.747  1.00  0.00     0.200 A 
ENDROOT
BRANCH   1   7
ATOM      7  C   UNL     1     -21.626 -58.727 100.400  1.00  0.00     0.072 C 
ATOM      8  O   UNL     1     -21.572 -58.330 101.594  1.00  0.00    -0.545 OA
ATOM      9  O   UNL     1     -22.783 -59.352  99.950  1.00  0.00    -0.545 OA
ENDBRANCH   1   7
BRANCH   4  10
ATOM     10  O   UNL     1     -16.776 -58.292  99.636  1.00  0.00    -0.504 OA
ATOM     11  H   UNL     1     -16.365 -59.098 100.091  1.00  0.00     0.293 HD
ENDBRANCH   4  10
BRANCH   5  12
ATOM     12  O   UNL     1     -19.849 -58.045  95.876  1.00  0.00    -0.504 OA
ATOM     13  H   UNL     1     -19.141 -57.714  95.233  1.00  0.00     0.293 HD
ENDBRANCH   5  12
BRANCH   6  14
ATOM     14  O   UNL     1     -17.218 -57.982  96.874  1.00  0.00    -0.502 OA
ATOM     15  H   UNL     1     -16.445 -57.365  97.090  1.00  0.00     0.293 HD
ENDBRANCH   6  14
TORSDOF 4
ENDMDL
