MODEL 1
REMARK VINA RESULT:    -4.550      0.000      0.000
REMARK INTER + INTRA:         -10.992
REMARK INTER:                  -8.274
REMARK INTRA:                  -2.718
REMARK UNBOUND:                -2.718
REMARK SMILES CCCCCCCCCCCCCC[C@@H](C)C(=O)[O-]
REMARK SMILES IDX 9 1 10 2 11 3 12 4 13 5 14 6 15 7 16 8 17 9 18 10 19 11 8 12
REMARK SMILES IDX 7 13 6 14 5 15 4 16 3 17 2 18 1 19
REMARK H PARENT
REMARK Flexibility Score: inf
ROOT
ATOM      1  C   UNL     1     208.977 207.041 156.586  1.00  0.00     0.000 C 
ENDROOT
BRANCH   1   2
ATOM      2  C   UNL     1     208.395 207.147 155.171  1.00  0.00     0.000 C 
BRANCH   2   3
ATOM      3  C   UNL     1     207.196 206.207 154.998  1.00  0.00     0.000 C 
BRANCH   3   4
ATOM      4  C   UNL     1     205.922 206.995 154.668  1.00  0.00     0.000 C 
BRANCH   4   5
ATOM      5  C   UNL     1     205.156 207.364 155.947  1.00  0.00     0.001 C 
BRANCH   5   6
ATOM      6  C   UNL     1     205.354 208.833 156.365  1.00  0.00     0.009 C 
BRANCH   6   7
ATOM      7  C   UNL     1     206.023 209.037 157.745  1.00  0.00     0.032 C 
ATOM      8  C   UNL     1     207.074 210.156 157.730  1.00  0.00     0.014 C 
BRANCH   7   9
ATOM      9  C   UNL     1     204.972 209.337 158.778  1.00  0.00     0.044 C 
ATOM     10  O   UNL     1     204.780 210.518 159.173  1.00  0.00    -0.550 OA
ATOM     11  O   UNL     1     204.195 208.308 159.297  1.00  0.00    -0.550 OA
ENDBRANCH   7   9
ENDBRANCH   6   7
ENDBRANCH   5   6
ENDBRANCH   4   5
ENDBRANCH   3   4
ENDBRANCH   2   3
ENDBRANCH   1   2
BRANCH   1  12
ATOM     12  C   UNL     1     208.417 205.814 157.319  1.00  0.00     0.000 C 
BRANCH  12  13
ATOM     13  C   UNL     1     207.888 206.152 158.723  1.00  0.00    -0.000 C 
BRANCH  13  14
ATOM     14  C   UNL     1     206.463 205.631 158.961  1.00  0.00    -0.000 C 
BRANCH  14  15
ATOM     15  C   UNL     1     206.484 204.172 159.436  1.00  0.00    -0.000 C 
BRANCH  15  16
ATOM     16  C   UNL     1     205.557 203.300 158.576  1.00  0.00    -0.000 C 
BRANCH  16  17
ATOM     17  C   UNL     1     205.409 203.830 157.140  1.00  0.00    -0.000 C 
BRANCH  17  18
ATOM     18  C   UNL     1     206.167 202.975 156.114  1.00  0.00    -0.003 C 
ATOM     19  C   UNL     1     206.591 201.639 156.718  1.00  0.00     0.004 C 
ENDBRANCH  17  18
ENDBRANCH  16  17
ENDBRANCH  15  16
ENDBRANCH  14  15
ENDBRANCH  13  14
ENDBRANCH  12  13
ENDBRANCH   1  12
TORSDOF 14
ENDMDL
MODEL 2
REMARK VINA RESULT:    -4.479      2.903      4.868
REMARK INTER + INTRA:         -10.864
REMARK INTER:                  -7.950
REMARK INTRA:                  -2.914
REMARK UNBOUND:                -2.718
REMARK SMILES CCCCCCCCCCCCCC[C@@H](C)C(=O)[O-]
REMARK SMILES IDX 9 1 10 2 11 3 12 4 13 5 14 6 15 7 16 8 17 9 18 10 19 11 8 12
REMARK SMILES IDX 7 13 6 14 5 15 4 16 3 17 2 18 1 19
REMARK H PARENT
REMARK Flexibility Score: inf
ROOT
ATOM      1  C   UNL     1     206.326 202.025 156.911  1.00  0.00     0.000 C 
ENDROOT
BRANCH   1   2
ATOM      2  C   UNL     1     205.777 203.156 156.033  1.00  0.00     0.000 C 
BRANCH   2   3
ATOM      3  C   UNL     1     206.916 203.929 155.357  1.00  0.00     0.000 C 
BRANCH   3   4
ATOM      4  C   UNL     1     208.247 203.698 156.084  1.00  0.00     0.000 C 
BRANCH   4   5
ATOM      5  C   UNL     1     208.868 205.030 156.530  1.00  0.00     0.001 C 
BRANCH   5   6
ATOM      6  C   UNL     1     208.457 206.216 155.638  1.00  0.00     0.009 C 
BRANCH   6   7
ATOM      7  C   UNL     1     209.241 207.526 155.888  1.00  0.00     0.032 C 
ATOM      8  C   UNL     1     209.266 207.923 157.371  1.00  0.00     0.014 C 
BRANCH   7   9
ATOM      9  C   UNL     1     210.647 207.379 155.374  1.00  0.00     0.044 C 
ATOM     10  O   UNL     1     211.612 207.911 155.986  1.00  0.00    -0.550 OA
ATOM     11  O   UNL     1     210.891 206.643 154.221  1.00  0.00    -0.550 OA
ENDBRANCH   7   9
ENDBRANCH   6   7
ENDBRANCH   5   6
ENDBRANCH   4   5
ENDBRANCH   3   4
ENDBRANCH   2   3
ENDBRANCH   1   2
BRANCH   1  12
ATOM     12  C   UNL     1     205.971 202.256 158.388  1.00  0.00     0.000 C 
BRANCH  12  13
ATOM     13  C   UNL     1     205.545 203.705 158.676  1.00  0.00    -0.000 C 
BRANCH  13  14
ATOM     14  C   UNL     1     206.569 204.463 159.535  1.00  0.00    -0.000 C 
BRANCH  14  15
ATOM     15  C   UNL     1     206.494 205.973 159.273  1.00  0.00    -0.000 C 
BRANCH  15  16
ATOM     16  C   UNL     1     205.619 206.275 158.047  1.00  0.00    -0.000 C 
BRANCH  16  17
ATOM     17  C   UNL     1     205.416 207.782 157.822  1.00  0.00    -0.000 C 
BRANCH  17  18
ATOM     18  C   UNL     1     205.459 208.169 156.337  1.00  0.00    -0.003 C 
ATOM     19  C   UNL     1     204.801 207.098 155.471  1.00  0.00     0.004 C 
ENDBRANCH  17  18
ENDBRANCH  16  17
ENDBRANCH  15  16
ENDBRANCH  14  15
ENDBRANCH  13  14
ENDBRANCH  12  13
ENDBRANCH   1  12
TORSDOF 14
ENDMDL
MODEL 3
REMARK VINA RESULT:    -4.451      1.206      3.540
REMARK INTER + INTRA:         -10.811
REMARK INTER:                  -8.439
REMARK INTRA:                  -2.373
REMARK UNBOUND:                -2.718
REMARK SMILES CCCCCCCCCCCCCC[C@@H](C)C(=O)[O-]
REMARK SMILES IDX 9 1 10 2 11 3 12 4 13 5 14 6 15 7 16 8 17 9 18 10 19 11 8 12
REMARK SMILES IDX 7 13 6 14 5 15 4 16 3 17 2 18 1 19
REMARK H PARENT
REMARK Flexibility Score: inf
ROOT
ATOM      1  C   UNL     1     205.179 203.716 158.560  1.00  0.00     0.000 C 
ENDROOT
BRANCH   1   2
ATOM      2  C   UNL     1     205.125 204.823 157.501  1.00  0.00     0.000 C 
BRANCH   2   3
ATOM      3  C   UNL     1     203.676 205.189 157.159  1.00  0.00     0.000 C 
BRANCH   3   4
ATOM      4  C   UNL     1     203.614 206.472 156.321  1.00  0.00     0.000 C 
BRANCH   4   5
ATOM      5  C   UNL     1     205.023 206.947 155.937  1.00  0.00     0.001 C 
BRANCH   5   6
ATOM      6  C   UNL     1     205.281 208.422 156.301  1.00  0.00     0.009 C 
BRANCH   6   7
ATOM      7  C   UNL     1     206.035 208.645 157.633  1.00  0.00     0.032 C 
ATOM      8  C   UNL     1     207.150 209.693 157.509  1.00  0.00     0.014 C 
BRANCH   7   9
ATOM      9  C   UNL     1     205.061 209.059 158.702  1.00  0.00     0.044 C 
ATOM     10  O   UNL     1     204.392 208.195 159.330  1.00  0.00    -0.550 OA
ATOM     11  O   UNL     1     204.900 210.404 159.011  1.00  0.00    -0.550 OA
ENDBRANCH   7   9
ENDBRANCH   6   7
ENDBRANCH   5   6
ENDBRANCH   4   5
ENDBRANCH   3   4
ENDBRANCH   2   3
ENDBRANCH   1   2
BRANCH   1  12
ATOM     12  C   UNL     1     206.376 203.915 159.502  1.00  0.00     0.000 C 
BRANCH  12  13
ATOM     13  C   UNL     1     206.761 205.394 159.667  1.00  0.00    -0.000 C 
BRANCH  13  14
ATOM     14  C   UNL     1     208.278 205.623 159.587  1.00  0.00    -0.000 C 
BRANCH  14  15
ATOM     15  C   UNL     1     208.646 206.425 158.332  1.00  0.00    -0.000 C 
BRANCH  15  16
ATOM     16  C   UNL     1     208.415 205.595 157.061  1.00  0.00    -0.000 C 
BRANCH  16  17
ATOM     17  C   UNL     1     208.651 206.402 155.774  1.00  0.00    -0.000 C 
BRANCH  17  18
ATOM     18  C   UNL     1     209.796 207.415 155.915  1.00  0.00    -0.003 C 
ATOM     19  C   UNL     1     210.933 207.098 154.947  1.00  0.00     0.004 C 
ENDBRANCH  17  18
ENDBRANCH  16  17
ENDBRANCH  15  16
ENDBRANCH  14  15
ENDBRANCH  13  14
ENDBRANCH  12  13
ENDBRANCH   1  12
TORSDOF 14
ENDMDL
MODEL 4
REMARK VINA RESULT:    -4.448      1.078      2.751
REMARK INTER + INTRA:         -10.807
REMARK INTER:                  -8.154
REMARK INTRA:                  -2.654
REMARK UNBOUND:                -2.718
REMARK SMILES CCCCCCCCCCCCCC[C@@H](C)C(=O)[O-]
REMARK SMILES IDX 9 1 10 2 11 3 12 4 13 5 14 6 15 7 16 8 17 9 18 10 19 11 8 12
REMARK SMILES IDX 7 13 6 14 5 15 4 16 3 17 2 18 1 19
REMARK H PARENT
REMARK Flexibility Score: inf
ROOT
ATOM      1  C   UNL     1     205.131 203.783 158.399  1.00  0.00     0.000 C 
ENDROOT
BRANCH   1   2
ATOM      2  C   UNL     1     204.897 205.230 157.948  1.00  0.00     0.000 C 
BRANCH   2   3
ATOM      3  C   UNL     1     203.664 205.330 157.041  1.00  0.00     0.000 C 
BRANCH   3   4
ATOM      4  C   UNL     1     203.816 206.472 156.028  1.00  0.00     0.000 C 
BRANCH   4   5
ATOM      5  C   UNL     1     205.245 207.034 156.043  1.00  0.00     0.001 C 
BRANCH   5   6
ATOM      6  C   UNL     1     205.299 208.537 156.375  1.00  0.00     0.009 C 
BRANCH   6   7
ATOM      7  C   UNL     1     205.983 208.886 157.718  1.00  0.00     0.032 C 
ATOM      8  C   UNL     1     207.031 209.999 157.573  1.00  0.00     0.014 C 
BRANCH   7   9
ATOM      9  C   UNL     1     204.942 209.292 158.724  1.00  0.00     0.044 C 
ATOM     10  O   UNL     1     204.801 210.502 159.049  1.00  0.00    -0.550 OA
ATOM     11  O   UNL     1     204.118 208.331 159.298  1.00  0.00    -0.550 OA
ENDBRANCH   7   9
ENDBRANCH   6   7
ENDBRANCH   5   6
ENDBRANCH   4   5
ENDBRANCH   3   4
ENDBRANCH   2   3
ENDBRANCH   1   2
BRANCH   1  12
ATOM     12  C   UNL     1     206.263 203.709 159.435  1.00  0.00     0.000 C 
BRANCH  12  13
ATOM     13  C   UNL     1     206.840 205.090 159.784  1.00  0.00    -0.000 C 
BRANCH  13  14
ATOM     14  C   UNL     1     208.281 205.274 159.282  1.00  0.00    -0.000 C 
BRANCH  14  15
ATOM     15  C   UNL     1     208.398 206.517 158.392  1.00  0.00    -0.000 C 
BRANCH  15  16
ATOM     16  C   UNL     1     208.535 206.123 156.913  1.00  0.00    -0.000 C 
BRANCH  16  17
ATOM     17  C   UNL     1     208.652 204.604 156.713  1.00  0.00    -0.000 C 
BRANCH  17  18
ATOM     18  C   UNL     1     207.589 204.050 155.754  1.00  0.00    -0.003 C 
ATOM     19  C   UNL     1     207.471 202.534 155.880  1.00  0.00     0.004 C 
ENDBRANCH  17  18
ENDBRANCH  16  17
ENDBRANCH  15  16
ENDBRANCH  14  15
ENDBRANCH  13  14
ENDBRANCH  12  13
ENDBRANCH   1  12
TORSDOF 14
ENDMDL
MODEL 5
REMARK VINA RESULT:    -4.319      2.045      3.522
REMARK INTER + INTRA:         -10.573
REMARK INTER:                  -8.157
REMARK INTRA:                  -2.415
REMARK UNBOUND:                -2.718
REMARK SMILES CCCCCCCCCCCCCC[C@@H](C)C(=O)[O-]
REMARK SMILES IDX 9 1 10 2 11 3 12 4 13 5 14 6 15 7 16 8 17 9 18 10 19 11 8 12
REMARK SMILES IDX 7 13 6 14 5 15 4 16 3 17 2 18 1 19
REMARK H PARENT
REMARK Flexibility Score: inf
ROOT
ATOM      1  C   UNL     1     208.739 206.439 155.537  1.00  0.00     0.000 C 
ENDROOT
BRANCH   1   2
ATOM      2  C   UNL     1     208.817 207.897 156.007  1.00  0.00     0.000 C 
BRANCH   2   3
ATOM      3  C   UNL     1     207.990 208.109 157.280  1.00  0.00     0.000 C 
BRANCH   3   4
ATOM      4  C   UNL     1     207.077 209.335 157.147  1.00  0.00     0.000 C 
BRANCH   4   5
ATOM      5  C   UNL     1     205.681 208.930 156.650  1.00  0.00     0.001 C 
BRANCH   5   6
ATOM      6  C   UNL     1     205.131 207.677 157.355  1.00  0.00     0.009 C 
BRANCH   6   7
ATOM      7  C   UNL     1     204.753 206.509 156.413  1.00  0.00     0.032 C 
ATOM      8  C   UNL     1     203.456 205.806 156.839  1.00  0.00     0.014 C 
BRANCH   7   9
ATOM      9  C   UNL     1     204.618 207.020 155.004  1.00  0.00     0.044 C 
ATOM     10  O   UNL     1     203.515 207.463 154.585  1.00  0.00    -0.550 OA
ATOM     11  O   UNL     1     205.719 207.015 154.156  1.00  0.00    -0.550 OA
ENDBRANCH   7   9
ENDBRANCH   6   7
ENDBRANCH   5   6
ENDBRANCH   4   5
ENDBRANCH   3   4
ENDBRANCH   2   3
ENDBRANCH   1   2
BRANCH   1  12
ATOM     12  C   UNL     1     208.536 205.489 156.727  1.00  0.00     0.000 C 
BRANCH  12  13
ATOM     13  C   UNL     1     208.248 204.044 156.289  1.00  0.00    -0.000 C 
BRANCH  13  14
ATOM     14  C   UNL     1     207.025 203.938 155.366  1.00  0.00    -0.000 C 
BRANCH  14  15
ATOM     15  C   UNL     1     205.956 203.021 155.974  1.00  0.00    -0.000 C 
BRANCH  15  16
ATOM     16  C   UNL     1     206.326 202.622 157.410  1.00  0.00    -0.000 C 
BRANCH  16  17
ATOM     17  C   UNL     1     205.479 203.351 158.465  1.00  0.00    -0.000 C 
BRANCH  17  18
ATOM     18  C   UNL     1     206.297 203.766 159.697  1.00  0.00    -0.003 C 
ATOM     19  C   UNL     1     206.672 205.244 159.635  1.00  0.00     0.004 C 
ENDBRANCH  17  18
ENDBRANCH  16  17
ENDBRANCH  15  16
ENDBRANCH  14  15
ENDBRANCH  13  14
ENDBRANCH  12  13
ENDBRANCH   1  12
TORSDOF 14
ENDMDL
MODEL 6
REMARK VINA RESULT:    -4.277      0.777      1.541
REMARK INTER + INTRA:         -10.496
REMARK INTER:                  -7.958
REMARK INTRA:                  -2.537
REMARK UNBOUND:                -2.718
REMARK SMILES CCCCCCCCCCCCCC[C@@H](C)C(=O)[O-]
REMARK SMILES IDX 9 1 10 2 11 3 12 4 13 5 14 6 15 7 16 8 17 9 18 10 19 11 8 12
REMARK SMILES IDX 7 13 6 14 5 15 4 16 3 17 2 18 1 19
REMARK H PARENT
REMARK Flexibility Score: inf
ROOT
ATOM      1  C   UNL     1     208.606 206.575 158.050  1.00  0.00     0.000 C 
ENDROOT
BRANCH   1   2
ATOM      2  C   UNL     1     208.613 205.865 156.690  1.00  0.00     0.000 C 
BRANCH   2   3
ATOM      3  C   UNL     1     208.149 206.809 155.574  1.00  0.00     0.000 C 
BRANCH   3   4
ATOM      4  C   UNL     1     206.714 206.486 155.140  1.00  0.00     0.000 C 
BRANCH   4   5
ATOM      5  C   UNL     1     205.763 207.644 155.478  1.00  0.00     0.001 C 
BRANCH   5   6
ATOM      6  C   UNL     1     205.230 207.583 156.921  1.00  0.00     0.009 C 
BRANCH   6   7
ATOM      7  C   UNL     1     205.870 208.598 157.899  1.00  0.00     0.032 C 
ATOM      8  C   UNL     1     206.506 209.792 157.173  1.00  0.00     0.014 C 
BRANCH   7   9
ATOM      9  C   UNL     1     204.833 209.086 158.872  1.00  0.00     0.044 C 
ATOM     10  O   UNL     1     203.946 208.304 159.309  1.00  0.00    -0.550 OA
ATOM     11  O   UNL     1     204.854 210.406 159.306  1.00  0.00    -0.550 OA
ENDBRANCH   7   9
ENDBRANCH   6   7
ENDBRANCH   5   6
ENDBRANCH   4   5
ENDBRANCH   3   4
ENDBRANCH   2   3
ENDBRANCH   1   2
BRANCH   1  12
ATOM     12  C   UNL     1     208.224 205.601 159.175  1.00  0.00     0.000 C 
BRANCH  12  13
ATOM     13  C   UNL     1     206.716 205.306 159.217  1.00  0.00    -0.000 C 
BRANCH  13  14
ATOM     14  C   UNL     1     206.405 203.884 159.709  1.00  0.00    -0.000 C 
BRANCH  14  15
ATOM     15  C   UNL     1     205.922 202.997 158.555  1.00  0.00    -0.000 C 
BRANCH  15  16
ATOM     16  C   UNL     1     205.552 203.843 157.328  1.00  0.00    -0.000 C 
BRANCH  16  17
ATOM     17  C   UNL     1     205.917 203.156 156.002  1.00  0.00    -0.000 C 
BRANCH  17  18
ATOM     18  C   UNL     1     206.888 201.983 156.192  1.00  0.00    -0.003 C 
ATOM     19  C   UNL     1     208.263 202.309 155.614  1.00  0.00     0.004 C 
ENDBRANCH  17  18
ENDBRANCH  16  17
ENDBRANCH  15  16
ENDBRANCH  14  15
ENDBRANCH  13  14
ENDBRANCH  12  13
ENDBRANCH   1  12
TORSDOF 14
ENDMDL
MODEL 7
REMARK VINA RESULT:    -4.206      2.739      5.894
REMARK INTER + INTRA:         -10.366
REMARK INTER:                  -8.214
REMARK INTRA:                  -2.153
REMARK UNBOUND:                -2.718
REMARK SMILES CCCCCCCCCCCCCC[C@@H](C)C(=O)[O-]
REMARK SMILES IDX 9 1 10 2 11 3 12 4 13 5 14 6 15 7 16 8 17 9 18 10 19 11 8 12
REMARK SMILES IDX 7 13 6 14 5 15 4 16 3 17 2 18 1 19
REMARK H PARENT
REMARK Flexibility Score: inf
ROOT
ATOM      1  C   UNL     1     208.769 206.854 158.975  1.00  0.00     0.000 C 
ENDROOT
BRANCH   1   2
ATOM      2  C   UNL     1     208.328 205.500 159.544  1.00  0.00     0.000 C 
BRANCH   2   3
ATOM      3  C   UNL     1     206.802 205.352 159.493  1.00  0.00     0.000 C 
BRANCH   3   4
ATOM      4  C   UNL     1     206.387 203.880 159.609  1.00  0.00     0.000 C 
BRANCH   4   5
ATOM      5  C   UNL     1     205.759 203.380 158.300  1.00  0.00     0.001 C 
BRANCH   5   6
ATOM      6  C   UNL     1     205.635 204.483 157.232  1.00  0.00     0.009 C 
BRANCH   6   7
ATOM      7  C   UNL     1     206.215 204.119 155.845  1.00  0.00     0.032 C 
ATOM      8  C   UNL     1     206.420 205.350 154.951  1.00  0.00     0.014 C 
BRANCH   7   9
ATOM      9  C   UNL     1     207.520 203.390 156.018  1.00  0.00     0.044 C 
ATOM     10  O   UNL     1     207.617 202.169 155.722  1.00  0.00    -0.550 OA
ATOM     11  O   UNL     1     208.634 204.067 156.501  1.00  0.00    -0.550 OA
ENDBRANCH   7   9
ENDBRANCH   6   7
ENDBRANCH   5   6
ENDBRANCH   4   5
ENDBRANCH   3   4
ENDBRANCH   2   3
ENDBRANCH   1   2
BRANCH   1  12
ATOM     12  C   UNL     1     207.889 207.262 157.784  1.00  0.00     0.000 C 
BRANCH  12  13
ATOM     13  C   UNL     1     207.800 208.786 157.607  1.00  0.00    -0.000 C 
BRANCH  13  14
ATOM     14  C   UNL     1     206.356 209.279 157.435  1.00  0.00    -0.000 C 
BRANCH  14  15
ATOM     15  C   UNL     1     205.355 208.146 157.693  1.00  0.00    -0.000 C 
BRANCH  15  16
ATOM     16  C   UNL     1     204.592 208.373 159.007  1.00  0.00    -0.000 C 
BRANCH  16  17
ATOM     17  C   UNL     1     204.721 209.815 159.524  1.00  0.00    -0.000 C 
BRANCH  17  18
ATOM     18  C   UNL     1     203.419 210.615 159.373  1.00  0.00    -0.003 C 
ATOM     19  C   UNL     1     202.283 209.971 160.163  1.00  0.00     0.004 C 
ENDBRANCH  17  18
ENDBRANCH  16  17
ENDBRANCH  15  16
ENDBRANCH  14  15
ENDBRANCH  13  14
ENDBRANCH  12  13
ENDBRANCH   1  12
TORSDOF 14
ENDMDL
MODEL 8
REMARK VINA RESULT:    -4.195      3.087      5.974
REMARK INTER + INTRA:         -10.347
REMARK INTER:                  -7.834
REMARK INTRA:                  -2.513
REMARK UNBOUND:                -2.718
REMARK SMILES CCCCCCCCCCCCCC[C@@H](C)C(=O)[O-]
REMARK SMILES IDX 9 1 10 2 11 3 12 4 13 5 14 6 15 7 16 8 17 9 18 10 19 11 8 12
REMARK SMILES IDX 7 13 6 14 5 15 4 16 3 17 2 18 1 19
REMARK H PARENT
REMARK Flexibility Score: inf
ROOT
ATOM      1  C   UNL     1     206.375 204.116 159.394  1.00  0.00     0.000 C 
ENDROOT
BRANCH   1   2
ATOM      2  C   UNL     1     205.082 204.106 158.569  1.00  0.00     0.000 C 
BRANCH   2   3
ATOM      3  C   UNL     1     204.915 205.418 157.793  1.00  0.00     0.000 C 
BRANCH   3   4
ATOM      4  C   UNL     1     204.822 205.158 156.284  1.00  0.00     0.000 C 
BRANCH   4   5
ATOM      5  C   UNL     1     206.200 205.285 155.618  1.00  0.00     0.001 C 
BRANCH   5   6
ATOM      6  C   UNL     1     206.716 203.952 155.042  1.00  0.00     0.009 C 
BRANCH   6   7
ATOM      7  C   UNL     1     207.389 203.012 156.071  1.00  0.00     0.032 C 
ATOM      8  C   UNL     1     206.617 201.699 156.260  1.00  0.00     0.014 C 
BRANCH   7   9
ATOM      9  C   UNL     1     208.800 202.718 155.639  1.00  0.00     0.044 C 
ATOM     10  O   UNL     1     209.042 201.776 154.838  1.00  0.00    -0.550 OA
ATOM     11  O   UNL     1     209.848 203.495 156.118  1.00  0.00    -0.550 OA
ENDBRANCH   7   9
ENDBRANCH   6   7
ENDBRANCH   5   6
ENDBRANCH   4   5
ENDBRANCH   3   4
ENDBRANCH   2   3
ENDBRANCH   1   2
BRANCH   1  12
ATOM     12  C   UNL     1     206.812 205.553 159.712  1.00  0.00     0.000 C 
BRANCH  12  13
ATOM     13  C   UNL     1     208.291 205.811 159.379  1.00  0.00    -0.000 C 
BRANCH  13  14
ATOM     14  C   UNL     1     208.498 206.292 157.934  1.00  0.00    -0.000 C 
BRANCH  14  15
ATOM     15  C   UNL     1     208.666 207.815 157.882  1.00  0.00    -0.000 C 
BRANCH  15  16
ATOM     16  C   UNL     1     207.647 208.449 156.924  1.00  0.00    -0.000 C 
BRANCH  16  17
ATOM     17  C   UNL     1     206.875 209.613 157.565  1.00  0.00    -0.000 C 
BRANCH  17  18
ATOM     18  C   UNL     1     205.366 209.343 157.654  1.00  0.00    -0.003 C 
ATOM     19  C   UNL     1     204.983 208.815 159.034  1.00  0.00     0.004 C 
ENDBRANCH  17  18
ENDBRANCH  16  17
ENDBRANCH  15  16
ENDBRANCH  14  15
ENDBRANCH  13  14
ENDBRANCH  12  13
ENDBRANCH   1  12
TORSDOF 14
ENDMDL
MODEL 9
REMARK VINA RESULT:    -4.177      1.292      2.904
REMARK INTER + INTRA:         -10.314
REMARK INTER:                  -7.970
REMARK INTRA:                  -2.344
REMARK UNBOUND:                -2.718
REMARK SMILES CCCCCCCCCCCCCC[C@@H](C)C(=O)[O-]
REMARK SMILES IDX 9 1 10 2 11 3 12 4 13 5 14 6 15 7 16 8 17 9 18 10 19 11 8 12
REMARK SMILES IDX 7 13 6 14 5 15 4 16 3 17 2 18 1 19
REMARK H PARENT
REMARK Flexibility Score: inf
ROOT
ATOM      1  C   UNL     1     206.886 205.560 159.332  1.00  0.00     0.000 C 
ENDROOT
BRANCH   1   2
ATOM      2  C   UNL     1     208.416 205.665 159.285  1.00  0.00     0.000 C 
BRANCH   2   3
ATOM      3  C   UNL     1     208.857 206.942 158.559  1.00  0.00     0.000 C 
BRANCH   3   4
ATOM      4  C   UNL     1     208.721 206.787 157.039  1.00  0.00     0.000 C 
BRANCH   4   5
ATOM      5  C   UNL     1     207.879 207.924 156.443  1.00  0.00     0.001 C 
BRANCH   5   6
ATOM      6  C   UNL     1     207.309 208.875 157.512  1.00  0.00     0.009 C 
BRANCH   6   7
ATOM      7  C   UNL     1     205.862 209.359 157.253  1.00  0.00     0.032 C 
ATOM      8  C   UNL     1     205.138 208.511 156.198  1.00  0.00     0.014 C 
BRANCH   7   9
ATOM      9  C   UNL     1     205.086 209.344 158.541  1.00  0.00     0.044 C 
ATOM     10  O   UNL     1     204.728 210.423 159.087  1.00  0.00    -0.550 OA
ATOM     11  O   UNL     1     204.749 208.134 159.135  1.00  0.00    -0.550 OA
ENDBRANCH   7   9
ENDBRANCH   6   7
ENDBRANCH   5   6
ENDBRANCH   4   5
ENDBRANCH   3   4
ENDBRANCH   2   3
ENDBRANCH   1   2
BRANCH   1  12
ATOM     12  C   UNL     1     206.434 204.094 159.258  1.00  0.00     0.000 C 
BRANCH  12  13
ATOM     13  C   UNL     1     205.235 203.890 158.318  1.00  0.00    -0.000 C 
BRANCH  13  14
ATOM     14  C   UNL     1     205.215 204.895 157.157  1.00  0.00    -0.000 C 
BRANCH  14  15
ATOM     15  C   UNL     1     206.131 204.435 156.016  1.00  0.00    -0.000 C 
BRANCH  15  16
ATOM     16  C   UNL     1     205.996 202.923 155.778  1.00  0.00    -0.000 C 
BRANCH  16  17
ATOM     17  C   UNL     1     207.354 202.205 155.740  1.00  0.00    -0.000 C 
BRANCH  17  18
ATOM     18  C   UNL     1     208.528 203.144 156.055  1.00  0.00    -0.003 C 
ATOM     19  C   UNL     1     209.864 202.482 155.730  1.00  0.00     0.004 C 
ENDBRANCH  17  18
ENDBRANCH  16  17
ENDBRANCH  15  16
ENDBRANCH  14  15
ENDBRANCH  13  14
ENDBRANCH  12  13
ENDBRANCH   1  12
TORSDOF 14
ENDMDL
