MODEL 1
REMARK VINA RESULT:    -3.919      0.000      0.000
REMARK INTER + INTRA:          -5.587
REMARK INTER:                  -5.523
REMARK INTRA:                  -0.064
REMARK UNBOUND:                -0.064
REMARK SMILES CCCCCCCCC(=O)[O-]
REMARK SMILES IDX 6 1 7 2 8 3 9 4 10 5 11 6 5 7 4 8 3 9 2 10 1 11
REMARK H PARENT
REMARK Flexibility Score: inf
ROOT
ATOM      1  C   UNL     1      18.985  -5.825  23.663  1.00  0.00     0.000 C 
ENDROOT
BRANCH   1   2
ATOM      2  C   UNL     1      18.210  -7.149  23.742  1.00  0.00     0.006 C 
BRANCH   2   3
ATOM      3  C   UNL     1      19.139  -8.306  24.120  1.00  0.00     0.053 C 
BRANCH   3   4
ATOM      4  C   UNL     1      20.427  -8.211  23.365  1.00  0.00     0.041 C 
ATOM      5  O   UNL     1      21.467  -7.792  23.938  1.00  0.00    -0.550 OA
ATOM      6  O   UNL     1      20.492  -8.632  22.043  1.00  0.00    -0.550 OA
ENDBRANCH   3   4
ENDBRANCH   2   3
ENDBRANCH   1   2
BRANCH   1   7
ATOM      7  C   UNL     1      18.761  -5.086  22.334  1.00  0.00     0.000 C 
BRANCH   7   8
ATOM      8  C   UNL     1      19.944  -5.247  21.362  1.00  0.00    -0.000 C 
BRANCH   8   9
ATOM      9  C   UNL     1      19.495  -5.642  19.947  1.00  0.00    -0.000 C 
BRANCH   9  10
ATOM     10  C   UNL     1      18.121  -6.327  19.934  1.00  0.00    -0.003 C 
ATOM     11  C   UNL     1      18.232  -7.790  20.354  1.00  0.00     0.004 C 
ENDBRANCH   9  10
ENDBRANCH   8   9
ENDBRANCH   7   8
ENDBRANCH   1   7
TORSDOF 7
ENDMDL
MODEL 2
REMARK VINA RESULT:    -3.471      1.031      2.219
REMARK INTER + INTRA:          -4.955
REMARK INTER:                  -5.349
REMARK INTRA:                   0.394
REMARK UNBOUND:                -0.064
REMARK SMILES CCCCCCCCC(=O)[O-]
REMARK SMILES IDX 6 1 7 2 8 3 9 4 10 5 11 6 5 7 4 8 3 9 2 10 1 11
REMARK H PARENT
REMARK Flexibility Score: inf
ROOT
ATOM      1  C   UNL     1      17.702  -8.075  22.585  1.00  0.00     0.000 C 
ENDROOT
BRANCH   1   2
ATOM      2  C   UNL     1      18.325  -8.096  23.989  1.00  0.00     0.006 C 
BRANCH   2   3
ATOM      3  C   UNL     1      19.405  -7.020  24.125  1.00  0.00     0.053 C 
BRANCH   3   4
ATOM      4  C   UNL     1      20.726  -7.540  23.651  1.00  0.00     0.041 C 
ATOM      5  O   UNL     1      20.964  -8.776  23.671  1.00  0.00    -0.550 OA
ATOM      6  O   UNL     1      21.676  -6.664  23.142  1.00  0.00    -0.550 OA
ENDBRANCH   3   4
ENDBRANCH   2   3
ENDBRANCH   1   2
BRANCH   1   7
ATOM      7  C   UNL     1      18.750  -7.888  21.476  1.00  0.00     0.000 C 
BRANCH   7   8
ATOM      8  C   UNL     1      18.160  -7.240  20.210  1.00  0.00    -0.000 C 
BRANCH   8   9
ATOM      9  C   UNL     1      18.860  -5.923  19.841  1.00  0.00    -0.000 C 
BRANCH   9  10
ATOM     10  C   UNL     1      19.588  -5.288  21.035  1.00  0.00    -0.003 C 
ATOM     11  C   UNL     1      18.612  -4.547  21.944  1.00  0.00     0.004 C 
ENDBRANCH   9  10
ENDBRANCH   8   9
ENDBRANCH   7   8
ENDBRANCH   1   7
TORSDOF 7
ENDMDL
MODEL 3
REMARK VINA RESULT:    -3.346     15.217     17.335
REMARK INTER + INTRA:          -4.780
REMARK INTER:                  -4.279
REMARK INTRA:                  -0.500
REMARK UNBOUND:                -0.064
REMARK SMILES CCCCCCCCC(=O)[O-]
REMARK SMILES IDX 6 1 7 2 8 3 9 4 10 5 11 6 5 7 4 8 3 9 2 10 1 11
REMARK H PARENT
REMARK Flexibility Score: inf
ROOT
ATOM      1  C   UNL     1      15.673  -7.078   6.681  1.00  0.00     0.000 C 
ENDROOT
BRANCH   1   2
ATOM      2  C   UNL     1      14.375  -7.878   6.490  1.00  0.00     0.006 C 
BRANCH   2   3
ATOM      3  C   UNL     1      13.834  -7.713   5.068  1.00  0.00     0.053 C 
BRANCH   3   4
ATOM      4  C   UNL     1      12.435  -7.182   5.098  1.00  0.00     0.041 C 
ATOM      5  O   UNL     1      11.728  -7.317   6.132  1.00  0.00    -0.550 OA
ATOM      6  O   UNL     1      11.928  -6.496   4.002  1.00  0.00    -0.550 OA
ENDBRANCH   3   4
ENDBRANCH   2   3
ENDBRANCH   1   2
BRANCH   1   7
ATOM      7  C   UNL     1      16.158  -6.420   5.379  1.00  0.00     0.000 C 
BRANCH   7   8
ATOM      8  C   UNL     1      17.607  -6.803   5.027  1.00  0.00    -0.000 C 
BRANCH   8   9
ATOM      9  C   UNL     1      18.292  -7.606   6.144  1.00  0.00    -0.000 C 
BRANCH   9  10
ATOM     10  C   UNL     1      19.380  -6.800   6.867  1.00  0.00    -0.003 C 
ATOM     11  C   UNL     1      19.001  -6.548   8.324  1.00  0.00     0.004 C 
ENDBRANCH   9  10
ENDBRANCH   8   9
ENDBRANCH   7   8
ENDBRANCH   1   7
TORSDOF 7
ENDMDL
MODEL 4
REMARK VINA RESULT:    -3.247     16.572     17.521
REMARK INTER + INTRA:          -4.640
REMARK INTER:                  -4.208
REMARK INTRA:                  -0.432
REMARK UNBOUND:                -0.064
REMARK SMILES CCCCCCCCC(=O)[O-]
REMARK SMILES IDX 6 1 7 2 8 3 9 4 10 5 11 6 5 7 4 8 3 9 2 10 1 11
REMARK H PARENT
REMARK Flexibility Score: inf
ROOT
ATOM      1  C   UNL     1      18.580  -6.994   5.663  1.00  0.00     0.000 C 
ENDROOT
BRANCH   1   2
ATOM      2  C   UNL     1      19.984  -6.383   5.544  1.00  0.00     0.006 C 
BRANCH   2   3
ATOM      3  C   UNL     1      20.205  -5.787   4.151  1.00  0.00     0.053 C 
BRANCH   3   4
ATOM      4  C   UNL     1      21.392  -4.876   4.153  1.00  0.00     0.041 C 
ATOM      5  O   UNL     1      21.231  -3.627   4.175  1.00  0.00    -0.550 OA
ATOM      6  O   UNL     1      22.676  -5.406   4.181  1.00  0.00    -0.550 OA
ENDBRANCH   3   4
ENDBRANCH   2   3
ENDBRANCH   1   2
BRANCH   1   7
ATOM      7  C   UNL     1      17.619  -6.486   4.576  1.00  0.00     0.000 C 
BRANCH   7   8
ATOM      8  C   UNL     1      16.186  -6.287   5.101  1.00  0.00    -0.000 C 
BRANCH   8   9
ATOM      9  C   UNL     1      16.031  -6.711   6.570  1.00  0.00    -0.000 C 
BRANCH   9  10
ATOM     10  C   UNL     1      14.889  -7.715   6.776  1.00  0.00    -0.003 C 
ATOM     11  C   UNL     1      15.247  -9.083   6.201  1.00  0.00     0.004 C 
ENDBRANCH   9  10
ENDBRANCH   8   9
ENDBRANCH   7   8
ENDBRANCH   1   7
TORSDOF 7
ENDMDL
MODEL 5
REMARK VINA RESULT:    -3.195     16.006     17.289
REMARK INTER + INTRA:          -4.567
REMARK INTER:                  -4.176
REMARK INTRA:                  -0.390
REMARK UNBOUND:                -0.064
REMARK SMILES CCCCCCCCC(=O)[O-]
REMARK SMILES IDX 6 1 7 2 8 3 9 4 10 5 11 6 5 7 4 8 3 9 2 10 1 11
REMARK H PARENT
REMARK Flexibility Score: inf
ROOT
ATOM      1  C   UNL     1      18.075  -7.121   6.468  1.00  0.00     0.000 C 
ENDROOT
BRANCH   1   2
ATOM      2  C   UNL     1      16.674  -6.583   6.796  1.00  0.00     0.006 C 
BRANCH   2   3
ATOM      3  C   UNL     1      15.694  -6.874   5.656  1.00  0.00     0.053 C 
BRANCH   3   4
ATOM      4  C   UNL     1      14.678  -7.886   6.084  1.00  0.00     0.041 C 
ATOM      5  O   UNL     1      13.452  -7.601   6.062  1.00  0.00    -0.550 OA
ATOM      6  O   UNL     1      15.082  -9.161   6.460  1.00  0.00    -0.550 OA
ENDBRANCH   3   4
ENDBRANCH   2   3
ENDBRANCH   1   2
BRANCH   1   7
ATOM      7  C   UNL     1      18.278  -7.360   4.963  1.00  0.00     0.000 C 
BRANCH   7   8
ATOM      8  C   UNL     1      19.223  -6.326   4.323  1.00  0.00    -0.000 C 
BRANCH   8   9
ATOM      9  C   UNL     1      20.336  -5.873   5.280  1.00  0.00    -0.000 C 
BRANCH   9  10
ATOM     10  C   UNL     1      21.533  -5.257   4.543  1.00  0.00    -0.003 C 
ATOM     11  C   UNL     1      21.180  -3.890   3.964  1.00  0.00     0.004 C 
ENDBRANCH   9  10
ENDBRANCH   8   9
ENDBRANCH   7   8
ENDBRANCH   1   7
TORSDOF 7
ENDMDL
MODEL 6
REMARK VINA RESULT:    -3.185     14.853     16.998
REMARK INTER + INTRA:          -4.552
REMARK INTER:                  -3.863
REMARK INTRA:                  -0.689
REMARK UNBOUND:                -0.064
REMARK SMILES CCCCCCCCC(=O)[O-]
REMARK SMILES IDX 6 1 7 2 8 3 9 4 10 5 11 6 5 7 4 8 3 9 2 10 1 11
REMARK H PARENT
REMARK Flexibility Score: inf
ROOT
ATOM      1  C   UNL     1      17.449  -6.376   4.301  1.00  0.00     0.000 C 
ENDROOT
BRANCH   1   2
ATOM      2  C   UNL     1      16.010  -6.272   4.829  1.00  0.00     0.006 C 
BRANCH   2   3
ATOM      3  C   UNL     1      15.897  -6.872   6.233  1.00  0.00     0.053 C 
BRANCH   3   4
ATOM      4  C   UNL     1      14.832  -7.923   6.269  1.00  0.00     0.041 C 
ATOM      5  O   UNL     1      13.626  -7.608   6.092  1.00  0.00    -0.550 OA
ATOM      6  O   UNL     1      15.177  -9.256   6.450  1.00  0.00    -0.550 OA
ENDBRANCH   3   4
ENDBRANCH   2   3
ENDBRANCH   1   2
BRANCH   1   7
ATOM      7  C   UNL     1      17.931  -7.831   4.184  1.00  0.00     0.000 C 
BRANCH   7   8
ATOM      8  C   UNL     1      19.329  -8.041   4.793  1.00  0.00    -0.000 C 
BRANCH   8   9
ATOM      9  C   UNL     1      19.641  -7.036   5.913  1.00  0.00    -0.000 C 
BRANCH   9  10
ATOM     10  C   UNL     1      19.392  -7.616   7.312  1.00  0.00    -0.003 C 
ATOM     11  C   UNL     1      18.972  -6.526   8.293  1.00  0.00     0.004 C 
ENDBRANCH   9  10
ENDBRANCH   8   9
ENDBRANCH   7   8
ENDBRANCH   1   7
TORSDOF 7
ENDMDL
MODEL 7
REMARK VINA RESULT:    -3.170     14.714     16.443
REMARK INTER + INTRA:          -4.531
REMARK INTER:                  -3.872
REMARK INTRA:                  -0.659
REMARK UNBOUND:                -0.064
REMARK SMILES CCCCCCCCC(=O)[O-]
REMARK SMILES IDX 6 1 7 2 8 3 9 4 10 5 11 6 5 7 4 8 3 9 2 10 1 11
REMARK H PARENT
REMARK Flexibility Score: inf
ROOT
ATOM      1  C   UNL     1      18.028  -7.836   4.800  1.00  0.00     0.000 C 
ENDROOT
BRANCH   1   2
ATOM      2  C   UNL     1      19.510  -7.656   5.161  1.00  0.00     0.006 C 
BRANCH   2   3
ATOM      3  C   UNL     1      19.686  -6.572   6.228  1.00  0.00     0.053 C 
BRANCH   3   4
ATOM      4  C   UNL     1      19.389  -7.122   7.587  1.00  0.00     0.041 C 
ATOM      5  O   UNL     1      18.763  -6.426   8.429  1.00  0.00    -0.550 OA
ATOM      6  O   UNL     1      19.760  -8.422   7.908  1.00  0.00    -0.550 OA
ENDBRANCH   3   4
ENDBRANCH   2   3
ENDBRANCH   1   2
BRANCH   1   7
ATOM      7  C   UNL     1      17.357  -6.518   4.381  1.00  0.00     0.000 C 
BRANCH   7   8
ATOM      8  C   UNL     1      16.056  -6.245   5.157  1.00  0.00    -0.000 C 
BRANCH   8   9
ATOM      9  C   UNL     1      15.923  -7.122   6.412  1.00  0.00    -0.000 C 
BRANCH   9  10
ATOM     10  C   UNL     1      14.582  -7.867   6.471  1.00  0.00    -0.003 C 
ATOM     11  C   UNL     1      14.437  -8.834   5.299  1.00  0.00     0.004 C 
ENDBRANCH   9  10
ENDBRANCH   8   9
ENDBRANCH   7   8
ENDBRANCH   1   7
TORSDOF 7
ENDMDL
MODEL 8
REMARK VINA RESULT:    -3.058     16.262     17.663
REMARK INTER + INTRA:          -4.373
REMARK INTER:                  -3.745
REMARK INTRA:                  -0.628
REMARK UNBOUND:                -0.064
REMARK SMILES CCCCCCCCC(=O)[O-]
REMARK SMILES IDX 6 1 7 2 8 3 9 4 10 5 11 6 5 7 4 8 3 9 2 10 1 11
REMARK H PARENT
REMARK Flexibility Score: inf
ROOT
ATOM      1  C   UNL     1      19.502  -6.661   6.242  1.00  0.00     0.000 C 
ENDROOT
BRANCH   1   2
ATOM      2  C   UNL     1      20.144  -6.879   4.863  1.00  0.00     0.006 C 
BRANCH   2   3
ATOM      3  C   UNL     1      20.035  -5.617   4.003  1.00  0.00     0.053 C 
BRANCH   3   4
ATOM      4  C   UNL     1      21.295  -4.815   4.087  1.00  0.00     0.041 C 
ATOM      5  O   UNL     1      22.410  -5.394   4.183  1.00  0.00    -0.550 OA
ATOM      6  O   UNL     1      21.244  -3.429   4.010  1.00  0.00    -0.550 OA
ENDBRANCH   3   4
ENDBRANCH   2   3
ENDBRANCH   1   2
BRANCH   1   7
ATOM      7  C   UNL     1      18.735  -7.897   6.739  1.00  0.00     0.000 C 
BRANCH   7   8
ATOM      8  C   UNL     1      17.434  -8.140   5.952  1.00  0.00    -0.000 C 
BRANCH   8   9
ATOM      9  C   UNL     1      16.435  -6.981   6.091  1.00  0.00    -0.000 C 
BRANCH   9  10
ATOM     10  C   UNL     1      15.634  -6.735   4.805  1.00  0.00    -0.003 C 
ATOM     11  C   UNL     1      16.367  -5.772   3.875  1.00  0.00     0.004 C 
ENDBRANCH   9  10
ENDBRANCH   8   9
ENDBRANCH   7   8
ENDBRANCH   1   7
TORSDOF 7
ENDMDL
