MODEL 1
REMARK VINA RESULT:    -4.053      0.000      0.000
REMARK INTER + INTRA:          -5.996
REMARK INTER:                  -5.712
REMARK INTRA:                  -0.284
REMARK UNBOUND:                -0.284
REMARK SMILES CCCCCCCCC=O
REMARK SMILES IDX 5 1 4 2 3 3 2 4 1 5 6 6 7 7 8 8 9 9 10 10
REMARK H PARENT
REMARK Flexibility Score: inf
ROOT
ATOM      1  C   UNL     1     116.431 116.266 115.986  1.00  0.00     0.000 C 
ENDROOT
BRANCH   1   2
ATOM      2  C   UNL     1     117.484 116.863 116.935  1.00  0.00    -0.000 C 
BRANCH   2   3
ATOM      3  C   UNL     1     117.896 115.889 118.053  1.00  0.00    -0.000 C 
BRANCH   3   4
ATOM      4  C   UNL     1     117.481 114.440 117.753  1.00  0.00    -0.003 C 
ATOM      5  C   UNL     1     118.665 113.475 117.758  1.00  0.00     0.004 C 
ENDBRANCH   3   4
ENDBRANCH   2   3
ENDBRANCH   1   2
BRANCH   1   6
ATOM      6  C   UNL     1     116.380 116.989 114.630  1.00  0.00     0.000 C 
BRANCH   6   7
ATOM      7  C   UNL     1     116.986 116.154 113.488  1.00  0.00     0.008 C 
BRANCH   7   8
ATOM      8  C   UNL     1     116.078 116.016 112.256  1.00  0.00     0.072 C 
BRANCH   8   9
ATOM      9  C   UNL     1     116.549 116.853 111.103  1.00  0.00     0.224 C 
ATOM     10  O   UNL     1     116.799 118.038 111.261  1.00  0.00    -0.303 OA
ENDBRANCH   8   9
ENDBRANCH   7   8
ENDBRANCH   6   7
ENDBRANCH   1   6
TORSDOF 7
ENDMDL
MODEL 2
REMARK VINA RESULT:    -4.030      1.972      2.433
REMARK INTER + INTRA:          -5.963
REMARK INTER:                  -5.652
REMARK INTRA:                  -0.310
REMARK UNBOUND:                -0.284
REMARK SMILES CCCCCCCCC=O
REMARK SMILES IDX 5 1 4 2 3 3 2 4 1 5 6 6 7 7 8 8 9 9 10 10
REMARK H PARENT
REMARK Flexibility Score: inf
ROOT
ATOM      1  C   UNL     1     116.491 116.856 115.830  1.00  0.00     0.000 C 
ENDROOT
BRANCH   1   2
ATOM      2  C   UNL     1     117.170 116.076 116.969  1.00  0.00    -0.000 C 
BRANCH   2   3
ATOM      3  C   UNL     1     116.163 115.531 117.997  1.00  0.00    -0.000 C 
BRANCH   3   4
ATOM      4  C   UNL     1     114.738 116.058 117.761  1.00  0.00    -0.003 C 
ATOM      5  C   UNL     1     113.702 114.938 117.679  1.00  0.00     0.004 C 
ENDBRANCH   3   4
ENDBRANCH   2   3
ENDBRANCH   1   2
BRANCH   1   6
ATOM      6  C   UNL     1     116.659 116.171 114.464  1.00  0.00     0.000 C 
BRANCH   6   7
ATOM      7  C   UNL     1     116.243 117.076 113.290  1.00  0.00     0.008 C 
BRANCH   7   8
ATOM      8  C   UNL     1     117.121 116.929 112.037  1.00  0.00     0.072 C 
BRANCH   8   9
ATOM      9  C   UNL     1     117.438 115.495 111.729  1.00  0.00     0.224 C 
ATOM     10  O   UNL     1     116.578 114.754 111.280  1.00  0.00    -0.303 OA
ENDBRANCH   8   9
ENDBRANCH   7   8
ENDBRANCH   6   7
ENDBRANCH   1   6
TORSDOF 7
ENDMDL
MODEL 3
REMARK VINA RESULT:    -4.023      1.272      2.015
REMARK INTER + INTRA:          -5.953
REMARK INTER:                  -5.648
REMARK INTRA:                  -0.305
REMARK UNBOUND:                -0.284
REMARK SMILES CCCCCCCCC=O
REMARK SMILES IDX 5 1 4 2 3 3 2 4 1 5 6 6 7 7 8 8 9 9 10 10
REMARK H PARENT
REMARK Flexibility Score: inf
ROOT
ATOM      1  C   UNL     1     116.210 116.240 116.201  1.00  0.00     0.000 C 
ENDROOT
BRANCH   1   2
ATOM      2  C   UNL     1     117.329 115.758 117.139  1.00  0.00    -0.000 C 
BRANCH   2   3
ATOM      3  C   UNL     1     117.684 116.793 118.221  1.00  0.00    -0.000 C 
BRANCH   3   4
ATOM      4  C   UNL     1     119.199 117.015 118.349  1.00  0.00    -0.003 C 
ATOM      5  C   UNL     1     119.670 118.288 117.649  1.00  0.00     0.004 C 
ENDBRANCH   3   4
ENDBRANCH   2   3
ENDBRANCH   1   2
BRANCH   1   6
ATOM      6  C   UNL     1     116.754 116.925 114.936  1.00  0.00     0.000 C 
BRANCH   6   7
ATOM      7  C   UNL     1     116.249 116.267 113.639  1.00  0.00     0.008 C 
BRANCH   7   8
ATOM      8  C   UNL     1     117.298 116.192 112.519  1.00  0.00     0.072 C 
BRANCH   8   9
ATOM      9  C   UNL     1     117.407 117.479 111.754  1.00  0.00     0.224 C 
ATOM     10  O   UNL     1     116.415 118.158 111.542  1.00  0.00    -0.303 OA
ENDBRANCH   8   9
ENDBRANCH   7   8
ENDBRANCH   6   7
ENDBRANCH   1   6
TORSDOF 7
ENDMDL
MODEL 4
REMARK VINA RESULT:    -4.015      2.043      3.110
REMARK INTER + INTRA:          -5.942
REMARK INTER:                  -5.640
REMARK INTRA:                  -0.302
REMARK UNBOUND:                -0.284
REMARK SMILES CCCCCCCCC=O
REMARK SMILES IDX 5 1 4 2 3 3 2 4 1 5 6 6 7 7 8 8 9 9 10 10
REMARK H PARENT
REMARK Flexibility Score: inf
ROOT
ATOM      1  C   UNL     1     116.847 116.634 116.048  1.00  0.00     0.000 C 
ENDROOT
BRANCH   1   2
ATOM      2  C   UNL     1     115.975 116.085 117.191  1.00  0.00    -0.000 C 
BRANCH   2   3
ATOM      3  C   UNL     1     115.367 117.198 118.062  1.00  0.00    -0.000 C 
BRANCH   3   4
ATOM      4  C   UNL     1     115.832 118.600 117.634  1.00  0.00    -0.003 C 
ATOM      5  C   UNL     1     114.715 119.639 117.707  1.00  0.00     0.004 C 
ENDBRANCH   3   4
ENDBRANCH   2   3
ENDBRANCH   1   2
BRANCH   1   6
ATOM      6  C   UNL     1     116.293 116.275 114.659  1.00  0.00     0.000 C 
BRANCH   6   7
ATOM      7  C   UNL     1     116.990 117.048 113.524  1.00  0.00     0.008 C 
BRANCH   7   8
ATOM      8  C   UNL     1     116.131 117.229 112.263  1.00  0.00     0.072 C 
BRANCH   8   9
ATOM      9  C   UNL     1     116.550 116.311 111.152  1.00  0.00     0.224 C 
ATOM     10  O   UNL     1     116.662 115.112 111.349  1.00  0.00    -0.303 OA
ENDBRANCH   8   9
ENDBRANCH   7   8
ENDBRANCH   6   7
ENDBRANCH   1   6
TORSDOF 7
ENDMDL
MODEL 5
REMARK VINA RESULT:    -4.014      2.058      2.377
REMARK INTER + INTRA:          -5.940
REMARK INTER:                  -5.659
REMARK INTRA:                  -0.280
REMARK UNBOUND:                -0.284
REMARK SMILES CCCCCCCCC=O
REMARK SMILES IDX 5 1 4 2 3 3 2 4 1 5 6 6 7 7 8 8 9 9 10 10
REMARK H PARENT
REMARK Flexibility Score: inf
ROOT
ATOM      1  C   UNL     1     116.423 116.356 115.533  1.00  0.00     0.000 C 
ENDROOT
BRANCH   1   2
ATOM      2  C   UNL     1     116.296 117.406 116.650  1.00  0.00    -0.000 C 
BRANCH   2   3
ATOM      3  C   UNL     1     115.335 116.968 117.770  1.00  0.00    -0.000 C 
BRANCH   3   4
ATOM      4  C   UNL     1     114.956 115.482 117.672  1.00  0.00    -0.003 C 
ATOM      5  C   UNL     1     113.468 115.236 117.919  1.00  0.00     0.004 C 
ENDBRANCH   3   4
ENDBRANCH   2   3
ENDBRANCH   1   2
BRANCH   1   6
ATOM      6  C   UNL     1     116.718 116.986 114.162  1.00  0.00     0.000 C 
BRANCH   6   7
ATOM      7  C   UNL     1     116.722 115.951 113.021  1.00  0.00     0.008 C 
BRANCH   7   8
ATOM      8  C   UNL     1     115.803 116.307 111.842  1.00  0.00     0.072 C 
BRANCH   8   9
ATOM      9  C   UNL     1     115.557 117.784 111.737  1.00  0.00     0.224 C 
ATOM     10  O   UNL     1     114.418 118.218 111.673  1.00  0.00    -0.303 OA
ENDBRANCH   8   9
ENDBRANCH   7   8
ENDBRANCH   6   7
ENDBRANCH   1   6
TORSDOF 7
ENDMDL
MODEL 6
REMARK VINA RESULT:    -3.992      2.719      5.391
REMARK INTER + INTRA:          -5.910
REMARK INTER:                  -5.671
REMARK INTRA:                  -0.239
REMARK UNBOUND:                -0.284
REMARK SMILES CCCCCCCCC=O
REMARK SMILES IDX 5 1 4 2 3 3 2 4 1 5 6 6 7 7 8 8 9 9 10 10
REMARK H PARENT
REMARK Flexibility Score: inf
ROOT
ATOM      1  C   UNL     1     116.961 116.315 114.853  1.00  0.00     0.000 C 
ENDROOT
BRANCH   1   2
ATOM      2  C   UNL     1     116.239 116.983 113.671  1.00  0.00    -0.000 C 
BRANCH   2   3
ATOM      3  C   UNL     1     117.165 117.213 112.463  1.00  0.00    -0.000 C 
BRANCH   3   4
ATOM      4  C   UNL     1     117.607 115.898 111.803  1.00  0.00    -0.003 C 
ATOM      5  C   UNL     1     116.430 114.995 111.438  1.00  0.00     0.004 C 
ENDBRANCH   3   4
ENDBRANCH   2   3
ENDBRANCH   1   2
BRANCH   1   6
ATOM      6  C   UNL     1     116.158 116.404 116.162  1.00  0.00     0.000 C 
BRANCH   6   7
ATOM      7  C   UNL     1     116.772 117.392 117.170  1.00  0.00     0.008 C 
BRANCH   7   8
ATOM      8  C   UNL     1     118.077 116.902 117.819  1.00  0.00     0.072 C 
BRANCH   8   9
ATOM      9  C   UNL     1     118.978 118.036 118.211  1.00  0.00     0.224 C 
ATOM     10  O   UNL     1     119.789 118.485 117.416  1.00  0.00    -0.303 OA
ENDBRANCH   8   9
ENDBRANCH   7   8
ENDBRANCH   6   7
ENDBRANCH   1   6
TORSDOF 7
ENDMDL
MODEL 7
REMARK VINA RESULT:    -3.975      2.662      5.617
REMARK INTER + INTRA:          -5.885
REMARK INTER:                  -5.597
REMARK INTRA:                  -0.288
REMARK UNBOUND:                -0.284
REMARK SMILES CCCCCCCCC=O
REMARK SMILES IDX 5 1 4 2 3 3 2 4 1 5 6 6 7 7 8 8 9 9 10 10
REMARK H PARENT
REMARK Flexibility Score: inf
ROOT
ATOM      1  C   UNL     1     116.633 116.195 115.484  1.00  0.00     0.000 C 
ENDROOT
BRANCH   1   2
ATOM      2  C   UNL     1     116.483 116.995 114.180  1.00  0.00    -0.000 C 
BRANCH   2   3
ATOM      3  C   UNL     1     116.231 116.095 112.957  1.00  0.00    -0.000 C 
BRANCH   3   4
ATOM      4  C   UNL     1     117.259 116.323 111.837  1.00  0.00    -0.003 C 
ATOM      5  C   UNL     1     117.726 117.775 111.751  1.00  0.00     0.004 C 
ENDBRANCH   3   4
ENDBRANCH   2   3
ENDBRANCH   1   2
BRANCH   1   6
ATOM      6  C   UNL     1     117.388 116.976 116.573  1.00  0.00     0.000 C 
BRANCH   6   7
ATOM      7  C   UNL     1     117.763 116.099 117.782  1.00  0.00     0.008 C 
BRANCH   7   8
ATOM      8  C   UNL     1     116.869 114.863 117.967  1.00  0.00     0.072 C 
BRANCH   8   9
ATOM      9  C   UNL     1     117.666 113.603 118.137  1.00  0.00     0.224 C 
ATOM     10  O   UNL     1     118.718 113.451 117.535  1.00  0.00    -0.303 OA
ENDBRANCH   8   9
ENDBRANCH   7   8
ENDBRANCH   6   7
ENDBRANCH   1   6
TORSDOF 7
ENDMDL
MODEL 8
REMARK VINA RESULT:    -3.948      2.755      5.516
REMARK INTER + INTRA:          -5.847
REMARK INTER:                  -5.609
REMARK INTRA:                  -0.237
REMARK UNBOUND:                -0.284
REMARK SMILES CCCCCCCCC=O
REMARK SMILES IDX 5 1 4 2 3 3 2 4 1 5 6 6 7 7 8 8 9 9 10 10
REMARK H PARENT
REMARK Flexibility Score: inf
ROOT
ATOM      1  C   UNL     1     116.961 116.981 114.797  1.00  0.00     0.000 C 
ENDROOT
BRANCH   1   2
ATOM      2  C   UNL     1     116.191 116.265 113.675  1.00  0.00    -0.000 C 
BRANCH   2   3
ATOM      3  C   UNL     1     116.044 117.129 112.410  1.00  0.00    -0.000 C 
BRANCH   3   4
ATOM      4  C   UNL     1     117.401 117.509 111.796  1.00  0.00    -0.003 C 
ATOM      5  C   UNL     1     118.224 116.290 111.385  1.00  0.00     0.004 C 
ENDBRANCH   3   4
ENDBRANCH   2   3
ENDBRANCH   1   2
BRANCH   1   6
ATOM      6  C   UNL     1     116.827 116.268 116.153  1.00  0.00     0.000 C 
BRANCH   6   7
ATOM      7  C   UNL     1     115.905 117.018 117.131  1.00  0.00     0.008 C 
BRANCH   7   8
ATOM      8  C   UNL     1     116.601 118.136 117.924  1.00  0.00     0.072 C 
BRANCH   8   9
ATOM      9  C   UNL     1     115.654 119.233 118.314  1.00  0.00     0.224 C 
ATOM     10  O   UNL     1     114.871 119.692 117.498  1.00  0.00    -0.303 OA
ENDBRANCH   8   9
ENDBRANCH   7   8
ENDBRANCH   6   7
ENDBRANCH   1   6
TORSDOF 7
ENDMDL
MODEL 9
REMARK VINA RESULT:    -3.940      3.142      5.500
REMARK INTER + INTRA:          -5.836
REMARK INTER:                  -5.536
REMARK INTRA:                  -0.300
REMARK UNBOUND:                -0.284
REMARK SMILES CCCCCCCCC=O
REMARK SMILES IDX 5 1 4 2 3 3 2 4 1 5 6 6 7 7 8 8 9 9 10 10
REMARK H PARENT
REMARK Flexibility Score: inf
ROOT
ATOM      1  C   UNL     1     116.217 116.703 115.415  1.00  0.00     0.000 C 
ENDROOT
BRANCH   1   2
ATOM      2  C   UNL     1     116.938 116.875 114.068  1.00  0.00    -0.000 C 
BRANCH   2   3
ATOM      3  C   UNL     1     115.977 116.814 112.868  1.00  0.00    -0.000 C 
BRANCH   3   4
ATOM      4  C   UNL     1     116.397 115.760 111.831  1.00  0.00    -0.003 C 
ATOM      5  C   UNL     1     117.902 115.495 111.836  1.00  0.00     0.004 C 
ENDBRANCH   3   4
ENDBRANCH   2   3
ENDBRANCH   1   2
BRANCH   1   6
ATOM      6  C   UNL     1     117.021 115.851 116.411  1.00  0.00     0.000 C 
BRANCH   6   7
ATOM      7  C   UNL     1     116.215 115.492 117.673  1.00  0.00     0.008 C 
BRANCH   7   8
ATOM      8  C   UNL     1     114.862 116.213 117.784  1.00  0.00     0.072 C 
BRANCH   8   9
ATOM      9  C   UNL     1     113.722 115.257 117.984  1.00  0.00     0.224 C 
ATOM     10  O   UNL     1     113.932 114.061 118.107  1.00  0.00    -0.303 OA
ENDBRANCH   8   9
ENDBRANCH   7   8
ENDBRANCH   6   7
ENDBRANCH   1   6
TORSDOF 7
ENDMDL
