MODEL 1
REMARK VINA RESULT:    -5.149      0.000      0.000
REMARK INTER + INTRA:          -6.998
REMARK INTER:                  -6.504
REMARK INTRA:                  -0.494
REMARK UNBOUND:                -0.494
REMARK SMILES COc1cc(O)c2c(=O)c(OC)c(-c3ccc(O)c(O)c3)oc2c1
REMARK SMILES IDX 3 1 4 2 5 3 7 4 23 5 24 6 22 7 13 8 10 9 8 10 9 11 2 12 1 13
REMARK SMILES IDX 6 14 14 16 21 17 15 18 19 19 16 20 17 21 20 22 18 24 11 26
REMARK SMILES IDX 12 27
REMARK H PARENT 6 15 20 23 18 25
REMARK Flexibility Score: inf
ROOT
ATOM      1  C   UNL     1      16.354  24.315  47.873  1.00  0.00     0.126 A 
ATOM      2  C   UNL     1      15.260  25.167  47.642  1.00  0.00     0.093 A 
ATOM      3  C   UNL     1      13.954  24.660  47.591  1.00  0.00     0.134 A 
ATOM      4  C   UNL     1      13.727  23.274  47.775  1.00  0.00     0.111 A 
ATOM      5  C   UNL     1      14.832  22.425  48.004  1.00  0.00     0.146 A 
ATOM      6  C   UNL     1      16.128  22.948  48.053  1.00  0.00     0.094 A 
ATOM      7  O   UNL     1      14.659  21.121  48.172  1.00  0.00    -0.452 OA
ATOM      8  C   UNL     1      13.469  20.531  48.140  1.00  0.00     0.180 A 
ATOM      9  C   UNL     1      12.301  21.298  47.946  1.00  0.00     0.210 A 
ATOM     10  C   UNL     1      12.442  22.691  47.748  1.00  0.00     0.239 A 
ATOM     11  O   UNL     1      11.427  23.412  47.553  1.00  0.00    -0.285 OA
ENDROOT
BRANCH   1  12
ATOM     12  O   UNL     1      17.675  24.783  47.931  1.00  0.00    -0.496 OA
ATOM     13  C   UNL     1      18.822  23.946  48.040  1.00  0.00     0.278 C 
ENDBRANCH   1  12
BRANCH   3  14
ATOM     14  O   UNL     1      12.892  25.536  47.361  1.00  0.00    -0.507 OA
ATOM     15  H   UNL     1      11.986  25.403  47.795  1.00  0.00     0.293 HD
ENDBRANCH   3  14
BRANCH   8  16
ATOM     16  C   UNL     1      13.421  19.064  48.328  1.00  0.00     0.025 A 
ATOM     17  C   UNL     1      13.232  18.495  49.601  1.00  0.00     0.062 A 
ATOM     18  C   UNL     1      13.506  18.220  47.210  1.00  0.00     0.016 A 
ATOM     19  C   UNL     1      13.164  17.106  49.759  1.00  0.00     0.158 A 
ATOM     20  C   UNL     1      13.441  16.834  47.363  1.00  0.00     0.051 A 
ATOM     21  C   UNL     1      13.273  16.269  48.635  1.00  0.00     0.157 A 
BRANCH  19  22
ATOM     22  O   UNL     1      12.983  16.578  51.036  1.00  0.00    -0.504 OA
ATOM     23  H   UNL     1      12.840  15.587  51.193  1.00  0.00     0.293 HD
ENDBRANCH  19  22
BRANCH  21  24
ATOM     24  O   UNL     1      13.211  14.885  48.786  1.00  0.00    -0.504 OA
ATOM     25  H   UNL     1      13.482  14.257  48.038  1.00  0.00     0.293 HD
ENDBRANCH  21  24
ENDBRANCH   8  16
BRANCH   9  26
ATOM     26  O   UNL     1      11.055  20.639  47.990  1.00  0.00    -0.490 OA
ATOM     27  C   UNL     1      10.303  20.170  46.875  1.00  0.00     0.278 C 
ENDBRANCH   9  26
TORSDOF 6
ENDMDL
MODEL 2
REMARK VINA RESULT:    -4.737      1.389      6.631
REMARK INTER + INTRA:          -6.477
REMARK INTER:                  -6.129
REMARK INTRA:                  -0.348
REMARK UNBOUND:                -0.494
REMARK SMILES COc1cc(O)c2c(=O)c(OC)c(-c3ccc(O)c(O)c3)oc2c1
REMARK SMILES IDX 3 1 4 2 5 3 7 4 23 5 24 6 22 7 13 8 10 9 8 10 9 11 2 12 1 13
REMARK SMILES IDX 6 14 14 16 21 17 15 18 19 19 16 20 17 21 20 22 18 24 11 26
REMARK SMILES IDX 12 27
REMARK H PARENT 6 15 20 23 18 25
REMARK Flexibility Score: inf
ROOT
ATOM      1  C   UNL     1      12.431  18.235  49.168  1.00  0.00     0.126 A 
ATOM      2  C   UNL     1      11.196  18.656  48.644  1.00  0.00     0.093 A 
ATOM      3  C   UNL     1      11.055  19.933  48.081  1.00  0.00     0.134 A 
ATOM      4  C   UNL     1      12.165  20.812  48.036  1.00  0.00     0.111 A 
ATOM      5  C   UNL     1      13.400  20.380  48.566  1.00  0.00     0.146 A 
ATOM      6  C   UNL     1      13.524  19.104  49.123  1.00  0.00     0.094 A 
ATOM      7  O   UNL     1      14.459  21.179  48.548  1.00  0.00    -0.452 OA
ATOM      8  C   UNL     1      14.439  22.408  48.045  1.00  0.00     0.180 A 
ATOM      9  C   UNL     1      13.260  22.920  47.465  1.00  0.00     0.210 A 
ATOM     10  C   UNL     1      12.103  22.106  47.476  1.00  0.00     0.239 A 
ATOM     11  O   UNL     1      11.022  22.529  46.985  1.00  0.00    -0.285 OA
ENDROOT
BRANCH   1  12
ATOM     12  O   UNL     1      12.613  16.966  49.740  1.00  0.00    -0.496 OA
ATOM     13  C   UNL     1      13.001  16.741  51.091  1.00  0.00     0.278 C 
ENDBRANCH   1  12
BRANCH   3  14
ATOM     14  O   UNL     1       9.814  20.317  47.569  1.00  0.00    -0.507 OA
ATOM     15  H   UNL     1       9.533  20.088  46.623  1.00  0.00     0.293 HD
ENDBRANCH   3  14
BRANCH   8  16
ATOM     16  C   UNL     1      15.690  23.197  48.103  1.00  0.00     0.025 A 
ATOM     17  C   UNL     1      15.817  24.306  48.959  1.00  0.00     0.062 A 
ATOM     18  C   UNL     1      16.794  22.799  47.334  1.00  0.00     0.016 A 
ATOM     19  C   UNL     1      17.015  25.027  49.020  1.00  0.00     0.158 A 
ATOM     20  C   UNL     1      17.991  23.517  47.390  1.00  0.00     0.051 A 
ATOM     21  C   UNL     1      18.108  24.634  48.229  1.00  0.00     0.157 A 
BRANCH  19  22
ATOM     22  O   UNL     1      17.102  26.125  49.875  1.00  0.00    -0.504 OA
ATOM     23  H   UNL     1      17.645  26.948  49.640  1.00  0.00     0.293 HD
ENDBRANCH  19  22
BRANCH  21  24
ATOM     24  O   UNL     1      19.303  25.349  48.281  1.00  0.00    -0.504 OA
ATOM     25  H   UNL     1      20.200  24.896  48.147  1.00  0.00     0.293 HD
ENDBRANCH  21  24
ENDBRANCH   8  16
BRANCH   9  26
ATOM     26  O   UNL     1      13.306  24.202  46.880  1.00  0.00    -0.490 OA
ATOM     27  C   UNL     1      12.685  25.383  47.375  1.00  0.00     0.278 C 
ENDBRANCH   9  26
TORSDOF 6
ENDMDL
MODEL 3
REMARK VINA RESULT:    -4.732      1.844      3.376
REMARK INTER + INTRA:          -6.471
REMARK INTER:                  -5.989
REMARK INTRA:                  -0.483
REMARK UNBOUND:                -0.494
REMARK SMILES COc1cc(O)c2c(=O)c(OC)c(-c3ccc(O)c(O)c3)oc2c1
REMARK SMILES IDX 3 1 4 2 5 3 7 4 23 5 24 6 22 7 13 8 10 9 8 10 9 11 2 12 1 13
REMARK SMILES IDX 6 14 14 16 21 17 15 18 19 19 16 20 17 21 20 22 18 24 11 26
REMARK SMILES IDX 12 27
REMARK H PARENT 6 15 20 23 18 25
REMARK Flexibility Score: inf
ROOT
ATOM      1  C   UNL     1      13.565  25.061  49.235  1.00  0.00     0.126 A 
ATOM      2  C   UNL     1      14.862  25.239  48.724  1.00  0.00     0.093 A 
ATOM      3  C   UNL     1      15.570  24.160  48.174  1.00  0.00     0.134 A 
ATOM      4  C   UNL     1      14.976  22.875  48.130  1.00  0.00     0.111 A 
ATOM      5  C   UNL     1      13.673  22.706  48.648  1.00  0.00     0.146 A 
ATOM      6  C   UNL     1      12.981  23.793  49.191  1.00  0.00     0.094 A 
ATOM      7  O   UNL     1      13.088  21.516  48.631  1.00  0.00    -0.452 OA
ATOM      8  C   UNL     1      13.665  20.424  48.140  1.00  0.00     0.180 A 
ATOM      9  C   UNL     1      14.955  20.496  47.573  1.00  0.00     0.210 A 
ATOM     10  C   UNL     1      15.620  21.745  47.583  1.00  0.00     0.239 A 
ATOM     11  O   UNL     1      16.781  21.851  47.105  1.00  0.00    -0.285 OA
ENDROOT
BRANCH   1  12
ATOM     12  O   UNL     1      12.824  26.115  49.793  1.00  0.00    -0.496 OA
ATOM     13  C   UNL     1      12.007  25.997  50.953  1.00  0.00     0.278 C 
ENDBRANCH   1  12
BRANCH   3  14
ATOM     14  O   UNL     1      16.856  24.374  47.674  1.00  0.00    -0.507 OA
ATOM     15  H   UNL     1      17.677  24.010  48.143  1.00  0.00     0.293 HD
ENDBRANCH   3  14
BRANCH   8  16
ATOM     16  C   UNL     1      12.904  19.157  48.197  1.00  0.00     0.025 A 
ATOM     17  C   UNL     1      12.939  18.333  49.337  1.00  0.00     0.062 A 
ATOM     18  C   UNL     1      12.082  18.794  47.119  1.00  0.00     0.016 A 
ATOM     19  C   UNL     1      12.194  17.149  49.384  1.00  0.00     0.158 A 
ATOM     20  C   UNL     1      11.339  17.613  47.161  1.00  0.00     0.051 A 
ATOM     21  C   UNL     1      11.392  16.784  48.290  1.00  0.00     0.157 A 
BRANCH  19  22
ATOM     22  O   UNL     1      12.259  16.353  50.528  1.00  0.00    -0.504 OA
ATOM     23  H   UNL     1      12.920  16.535  51.273  1.00  0.00     0.293 HD
ENDBRANCH  19  22
BRANCH  21  24
ATOM     24  O   UNL     1      10.651  15.604  48.329  1.00  0.00    -0.504 OA
ATOM     25  H   UNL     1       9.840  15.466  47.736  1.00  0.00     0.293 HD
ENDBRANCH  21  24
ENDBRANCH   8  16
BRANCH   9  26
ATOM     26  O   UNL     1      15.498  19.328  47.000  1.00  0.00    -0.490 OA
ATOM     27  C   UNL     1      16.502  18.493  47.567  1.00  0.00     0.278 C 
ENDBRANCH   9  26
TORSDOF 6
ENDMDL
MODEL 4
REMARK VINA RESULT:    -4.046      1.777      6.826
REMARK INTER + INTRA:          -5.604
REMARK INTER:                  -5.227
REMARK INTRA:                  -0.377
REMARK UNBOUND:                -0.494
REMARK SMILES COc1cc(O)c2c(=O)c(OC)c(-c3ccc(O)c(O)c3)oc2c1
REMARK SMILES IDX 3 1 4 2 5 3 7 4 23 5 24 6 22 7 13 8 10 9 8 10 9 11 2 12 1 13
REMARK SMILES IDX 6 14 14 16 21 17 15 18 19 19 16 20 17 21 20 22 18 24 11 26
REMARK SMILES IDX 12 27
REMARK H PARENT 6 15 20 23 18 25
REMARK Flexibility Score: inf
ROOT
ATOM      1  C   UNL     1      13.096  16.628  50.428  1.00  0.00     0.126 A 
ATOM      2  C   UNL     1      11.988  16.270  49.641  1.00  0.00     0.093 A 
ATOM      3  C   UNL     1      11.404  17.195  48.763  1.00  0.00     0.134 A 
ATOM      4  C   UNL     1      11.933  18.505  48.664  1.00  0.00     0.111 A 
ATOM      5  C   UNL     1      13.045  18.856  49.460  1.00  0.00     0.146 A 
ATOM      6  C   UNL     1      13.615  17.921  50.329  1.00  0.00     0.094 A 
ATOM      7  O   UNL     1      13.562  20.075  49.400  1.00  0.00    -0.452 OA
ATOM      8  C   UNL     1      13.089  21.032  48.609  1.00  0.00     0.180 A 
ATOM      9  C   UNL     1      11.998  20.772  47.753  1.00  0.00     0.210 A 
ATOM     10  C   UNL     1      11.407  19.487  47.797  1.00  0.00     0.239 A 
ATOM     11  O   UNL     1      10.419  19.216  47.064  1.00  0.00    -0.285 OA
ENDROOT
BRANCH   1  12
ATOM     12  O   UNL     1      13.709  15.732  51.318  1.00  0.00    -0.496 OA
ATOM     13  C   UNL     1      14.184  16.083  52.614  1.00  0.00     0.278 C 
ENDBRANCH   1  12
BRANCH   3  14
ATOM     14  O   UNL     1      10.305  16.805  47.996  1.00  0.00    -0.507 OA
ATOM     15  H   UNL     1      10.352  16.752  46.985  1.00  0.00     0.293 HD
ENDBRANCH   3  14
BRANCH   8  16
ATOM     16  C   UNL     1      13.753  22.354  48.652  1.00  0.00     0.025 A 
ATOM     17  C   UNL     1      13.137  23.463  49.259  1.00  0.00     0.062 A 
ATOM     18  C   UNL     1      15.048  22.494  48.129  1.00  0.00     0.016 A 
ATOM     19  C   UNL     1      13.790  24.701  49.312  1.00  0.00     0.158 A 
ATOM     20  C   UNL     1      15.701  23.727  48.178  1.00  0.00     0.051 A 
ATOM     21  C   UNL     1      15.077  24.836  48.766  1.00  0.00     0.157 A 
BRANCH  19  22
ATOM     22  O   UNL     1      13.146  25.780  49.916  1.00  0.00    -0.504 OA
ATOM     23  H   UNL     1      12.921  26.626  49.406  1.00  0.00     0.293 HD
ENDBRANCH  19  22
BRANCH  21  24
ATOM     24  O   UNL     1      15.730  26.066  48.812  1.00  0.00    -0.504 OA
ATOM     25  H   UNL     1      15.488  26.820  48.179  1.00  0.00     0.293 HD
ENDBRANCH  21  24
ENDBRANCH   8  16
BRANCH   9  26
ATOM     26  O   UNL     1      11.575  21.795  46.881  1.00  0.00    -0.490 OA
ATOM     27  C   UNL     1      10.349  22.516  46.950  1.00  0.00     0.278 C 
ENDBRANCH   9  26
TORSDOF 6
ENDMDL
MODEL 5
REMARK VINA RESULT:    -3.990      1.791      4.038
REMARK INTER + INTRA:          -5.534
REMARK INTER:                  -5.226
REMARK INTRA:                  -0.307
REMARK UNBOUND:                -0.494
REMARK SMILES COc1cc(O)c2c(=O)c(OC)c(-c3ccc(O)c(O)c3)oc2c1
REMARK SMILES IDX 3 1 4 2 5 3 7 4 23 5 24 6 22 7 13 8 10 9 8 10 9 11 2 12 1 13
REMARK SMILES IDX 6 14 14 16 21 17 15 18 19 19 16 20 17 21 20 22 18 24 11 26
REMARK SMILES IDX 12 27
REMARK H PARENT 6 15 20 23 18 25
REMARK Flexibility Score: inf
ROOT
ATOM      1  C   UNL     1      10.096  24.091  47.022  1.00  0.00     0.126 A 
ATOM      2  C   UNL     1      11.171  24.992  46.939  1.00  0.00     0.093 A 
ATOM      3  C   UNL     1      12.492  24.549  47.092  1.00  0.00     0.134 A 
ATOM      4  C   UNL     1      12.753  23.178  47.333  1.00  0.00     0.111 A 
ATOM      5  C   UNL     1      11.667  22.280  47.418  1.00  0.00     0.146 A 
ATOM      6  C   UNL     1      10.356  22.739  47.261  1.00  0.00     0.094 A 
ATOM      7  O   UNL     1      11.873  20.990  47.650  1.00  0.00    -0.452 OA
ATOM      8  C   UNL     1      13.080  20.460  47.816  1.00  0.00     0.180 A 
ATOM      9  C   UNL     1      14.231  21.270  47.720  1.00  0.00     0.210 A 
ATOM     10  C   UNL     1      14.055  22.655  47.487  1.00  0.00     0.239 A 
ATOM     11  O   UNL     1      15.054  23.419  47.413  1.00  0.00    -0.285 OA
ENDROOT
BRANCH   1  12
ATOM     12  O   UNL     1       8.760  24.494  46.875  1.00  0.00    -0.496 OA
ATOM     13  C   UNL     1       8.092  25.399  47.748  1.00  0.00     0.278 C 
ENDBRANCH   1  12
BRANCH   3  14
ATOM     14  O   UNL     1      13.535  25.473  47.001  1.00  0.00    -0.507 OA
ATOM     15  H   UNL     1      14.298  25.483  47.668  1.00  0.00     0.293 HD
ENDBRANCH   3  14
BRANCH   8  16
ATOM     16  C   UNL     1      13.164  19.008  48.084  1.00  0.00     0.025 A 
ATOM     17  C   UNL     1      13.262  18.509  49.396  1.00  0.00     0.062 A 
ATOM     18  C   UNL     1      13.085  18.102  47.015  1.00  0.00     0.016 A 
ATOM     19  C   UNL     1      13.317  17.131  49.634  1.00  0.00     0.158 A 
ATOM     20  C   UNL     1      13.141  16.726  47.248  1.00  0.00     0.051 A 
ATOM     21  C   UNL     1      13.260  16.234  48.555  1.00  0.00     0.157 A 
BRANCH  19  22
ATOM     22  O   UNL     1      13.421  16.674  50.947  1.00  0.00    -0.504 OA
ATOM     23  H   UNL     1      12.851  15.914  51.299  1.00  0.00     0.293 HD
ENDBRANCH  19  22
BRANCH  21  24
ATOM     24  O   UNL     1      13.318  14.860  48.784  1.00  0.00    -0.504 OA
ATOM     25  H   UNL     1      14.023  14.451  49.387  1.00  0.00     0.293 HD
ENDBRANCH  21  24
ENDBRANCH   8  16
BRANCH   9  26
ATOM     26  O   UNL     1      15.493  20.652  47.832  1.00  0.00    -0.490 OA
ATOM     27  C   UNL     1      16.546  20.695  46.875  1.00  0.00     0.278 C 
ENDBRANCH   9  26
TORSDOF 6
ENDMDL
MODEL 6
REMARK VINA RESULT:    -3.760      1.770      1.994
REMARK INTER + INTRA:          -5.243
REMARK INTER:                  -5.933
REMARK INTRA:                   0.689
REMARK UNBOUND:                -0.494
REMARK SMILES COc1cc(O)c2c(=O)c(OC)c(-c3ccc(O)c(O)c3)oc2c1
REMARK SMILES IDX 3 1 4 2 5 3 7 4 23 5 24 6 22 7 13 8 10 9 8 10 9 11 2 12 1 13
REMARK SMILES IDX 6 14 14 16 21 17 15 18 19 19 16 20 17 21 20 22 18 24 11 26
REMARK SMILES IDX 12 27
REMARK H PARENT 6 15 20 23 18 25
REMARK Flexibility Score: inf
ROOT
ATOM      1  C   UNL     1      15.918  22.726  47.731  1.00  0.00     0.126 A 
ATOM      2  C   UNL     1      15.180  23.901  47.510  1.00  0.00     0.093 A 
ATOM      3  C   UNL     1      13.786  23.856  47.365  1.00  0.00     0.134 A 
ATOM      4  C   UNL     1      13.108  22.615  47.441  1.00  0.00     0.111 A 
ATOM      5  C   UNL     1      13.858  21.439  47.661  1.00  0.00     0.146 A 
ATOM      6  C   UNL     1      15.247  21.503  47.805  1.00  0.00     0.094 A 
ATOM      7  O   UNL     1      13.259  20.258  47.731  1.00  0.00    -0.452 OA
ATOM      8  C   UNL     1      11.946  20.095  47.603  1.00  0.00     0.180 A 
ATOM      9  C   UNL     1      11.107  21.213  47.410  1.00  0.00     0.210 A 
ATOM     10  C   UNL     1      11.708  22.490  47.316  1.00  0.00     0.239 A 
ATOM     11  O   UNL     1      10.999  23.514  47.125  1.00  0.00    -0.285 OA
ENDROOT
BRANCH   1  12
ATOM     12  O   UNL     1      17.314  22.729  47.881  1.00  0.00    -0.496 OA
ATOM     13  C   UNL     1      18.151  23.844  47.594  1.00  0.00     0.278 C 
ENDBRANCH   1  12
BRANCH   3  14
ATOM     14  O   UNL     1      13.085  25.044  47.148  1.00  0.00    -0.507 OA
ATOM     15  H   UNL     1      12.517  25.468  47.872  1.00  0.00     0.293 HD
ENDBRANCH   3  14
BRANCH   8  16
ATOM     16  C   UNL     1      11.411  18.719  47.688  1.00  0.00     0.025 A 
ATOM     17  C   UNL     1      11.924  17.788  48.610  1.00  0.00     0.062 A 
ATOM     18  C   UNL     1      10.328  18.347  46.875  1.00  0.00     0.016 A 
ATOM     19  C   UNL     1      11.389  16.498  48.693  1.00  0.00     0.158 A 
ATOM     20  C   UNL     1       9.793  17.060  46.954  1.00  0.00     0.051 A 
ATOM     21  C   UNL     1      10.321  16.129  47.859  1.00  0.00     0.157 A 
BRANCH  19  22
ATOM     22  O   UNL     1      11.928  15.600  49.614  1.00  0.00    -0.504 OA
ATOM     23  H   UNL     1      12.921  15.403  49.656  1.00  0.00     0.293 HD
ENDBRANCH  19  22
BRANCH  21  24
ATOM     24  O   UNL     1       9.786  14.844  47.934  1.00  0.00    -0.504 OA
ATOM     25  H   UNL     1      10.003  14.222  48.706  1.00  0.00     0.293 HD
ENDBRANCH  21  24
ENDBRANCH   8  16
BRANCH   9  26
ATOM     26  O   UNL     1       9.715  21.000  47.352  1.00  0.00    -0.490 OA
ATOM     27  C   UNL     1       8.700  21.996  47.427  1.00  0.00     0.278 C 
ENDBRANCH   9  26
TORSDOF 6
ENDMDL
MODEL 7
REMARK VINA RESULT:    -3.627      1.534      1.982
REMARK INTER + INTRA:          -5.075
REMARK INTER:                  -5.981
REMARK INTRA:                   0.907
REMARK UNBOUND:                -0.494
REMARK SMILES COc1cc(O)c2c(=O)c(OC)c(-c3ccc(O)c(O)c3)oc2c1
REMARK SMILES IDX 3 1 4 2 5 3 7 4 23 5 24 6 22 7 13 8 10 9 8 10 9 11 2 12 1 13
REMARK SMILES IDX 6 14 14 16 21 17 15 18 19 19 16 20 17 21 20 22 18 24 11 26
REMARK SMILES IDX 12 27
REMARK H PARENT 6 15 20 23 18 25
REMARK Flexibility Score: inf
ROOT
ATOM      1  C   UNL     1      14.155  24.724  47.745  1.00  0.00     0.126 A 
ATOM      2  C   UNL     1      12.916  25.280  47.387  1.00  0.00     0.093 A 
ATOM      3  C   UNL     1      11.781  24.469  47.241  1.00  0.00     0.134 A 
ATOM      4  C   UNL     1      11.880  23.072  47.455  1.00  0.00     0.111 A 
ATOM      5  C   UNL     1      13.130  22.522  47.813  1.00  0.00     0.146 A 
ATOM      6  C   UNL     1      14.250  23.346  47.955  1.00  0.00     0.094 A 
ATOM      7  O   UNL     1      13.262  21.218  48.014  1.00  0.00    -0.452 OA
ATOM      8  C   UNL     1      12.258  20.355  47.899  1.00  0.00     0.180 A 
ATOM      9  C   UNL     1      10.963  20.810  47.575  1.00  0.00     0.210 A 
ATOM     10  C   UNL     1      10.782  22.193  47.338  1.00  0.00     0.239 A 
ATOM     11  O   UNL     1       9.646  22.642  47.027  1.00  0.00    -0.285 OA
ENDROOT
BRANCH   1  12
ATOM     12  O   UNL     1      15.313  25.501  47.901  1.00  0.00    -0.496 OA
ATOM     13  C   UNL     1      16.405  25.158  48.749  1.00  0.00     0.278 C 
ENDBRANCH   1  12
BRANCH   3  14
ATOM     14  O   UNL     1      10.565  25.056  46.885  1.00  0.00    -0.507 OA
ATOM     15  H   UNL     1       9.688  24.756  47.294  1.00  0.00     0.293 HD
ENDBRANCH   3  14
BRANCH   8  16
ATOM     16  C   UNL     1      12.548  18.924  48.138  1.00  0.00     0.025 A 
ATOM     17  C   UNL     1      11.576  17.932  47.915  1.00  0.00     0.062 A 
ATOM     18  C   UNL     1      13.837  18.537  48.538  1.00  0.00     0.016 A 
ATOM     19  C   UNL     1      11.874  16.581  48.122  1.00  0.00     0.158 A 
ATOM     20  C   UNL     1      14.138  17.190  48.748  1.00  0.00     0.051 A 
ATOM     21  C   UNL     1      13.160  16.206  48.545  1.00  0.00     0.157 A 
BRANCH  19  22
ATOM     22  O   UNL     1      10.883  15.626  47.898  1.00  0.00    -0.504 OA
ATOM     23  H   UNL     1      10.213  15.368  48.613  1.00  0.00     0.293 HD
ENDBRANCH  19  22
BRANCH  21  24
ATOM     24  O   UNL     1      13.463  14.862  48.757  1.00  0.00    -0.504 OA
ATOM     25  H   UNL     1      12.735  14.163  48.857  1.00  0.00     0.293 HD
ENDBRANCH  21  24
ENDBRANCH   8  16
BRANCH   9  26
ATOM     26  O   UNL     1       9.915  19.868  47.534  1.00  0.00    -0.490 OA
ATOM     27  C   UNL     1       8.662  20.020  46.875  1.00  0.00     0.278 C 
ENDBRANCH   9  26
TORSDOF 6
ENDMDL
MODEL 8
REMARK VINA RESULT:    -3.265      2.121      6.863
REMARK INTER + INTRA:          -4.618
REMARK INTER:                  -5.308
REMARK INTRA:                   0.690
REMARK UNBOUND:                -0.494
REMARK SMILES COc1cc(O)c2c(=O)c(OC)c(-c3ccc(O)c(O)c3)oc2c1
REMARK SMILES IDX 3 1 4 2 5 3 7 4 23 5 24 6 22 7 13 8 10 9 8 10 9 11 2 12 1 13
REMARK SMILES IDX 6 14 14 16 21 17 15 18 19 19 16 20 17 21 20 22 18 24 11 26
REMARK SMILES IDX 12 27
REMARK H PARENT 6 15 20 23 18 25
REMARK Flexibility Score: inf
ROOT
ATOM      1  C   UNL     1      13.851  17.605  48.144  1.00  0.00     0.126 A 
ATOM      2  C   UNL     1      15.232  17.858  48.066  1.00  0.00     0.093 A 
ATOM      3  C   UNL     1      15.714  19.164  47.904  1.00  0.00     0.134 A 
ATOM      4  C   UNL     1      14.804  20.247  47.817  1.00  0.00     0.111 A 
ATOM      5  C   UNL     1      13.419  19.983  47.895  1.00  0.00     0.146 A 
ATOM      6  C   UNL     1      12.956  18.674  48.058  1.00  0.00     0.094 A 
ATOM      7  O   UNL     1      12.538  20.970  47.810  1.00  0.00    -0.452 OA
ATOM      8  C   UNL     1      12.879  22.244  47.651  1.00  0.00     0.180 A 
ATOM      9  C   UNL     1      14.240  22.613  47.592  1.00  0.00     0.210 A 
ATOM     10  C   UNL     1      15.212  21.589  47.664  1.00  0.00     0.239 A 
ATOM     11  O   UNL     1      16.439  21.870  47.597  1.00  0.00    -0.285 OA
ENDROOT
BRANCH   1  12
ATOM     12  O   UNL     1      13.329  16.313  48.306  1.00  0.00    -0.496 OA
ATOM     13  C   UNL     1      12.834  15.793  49.536  1.00  0.00     0.278 C 
ENDBRANCH   1  12
BRANCH   3  14
ATOM     14  O   UNL     1      17.092  19.378  47.831  1.00  0.00    -0.507 OA
ATOM     15  H   UNL     1      17.502  19.979  47.126  1.00  0.00     0.293 HD
ENDBRANCH   3  14
BRANCH   8  16
ATOM     16  C   UNL     1      11.792  23.244  47.557  1.00  0.00     0.025 A 
ATOM     17  C   UNL     1      10.472  22.863  47.252  1.00  0.00     0.062 A 
ATOM     18  C   UNL     1      12.066  24.591  47.835  1.00  0.00     0.016 A 
ATOM     19  C   UNL     1       9.451  23.818  47.190  1.00  0.00     0.158 A 
ATOM     20  C   UNL     1      11.050  25.548  47.774  1.00  0.00     0.051 A 
ATOM     21  C   UNL     1       9.740  25.168  47.448  1.00  0.00     0.157 A 
BRANCH  19  22
ATOM     22  O   UNL     1       8.156  23.405  46.878  1.00  0.00    -0.504 OA
ATOM     23  H   UNL     1       7.948  22.873  46.041  1.00  0.00     0.293 HD
ENDBRANCH  19  22
BRANCH  21  24
ATOM     24  O   UNL     1       8.728  26.125  47.385  1.00  0.00    -0.504 OA
ATOM     25  H   UNL     1       7.773  25.906  47.645  1.00  0.00     0.293 HD
ENDBRANCH  21  24
ENDBRANCH   8  16
BRANCH   9  26
ATOM     26  O   UNL     1      14.556  23.984  47.494  1.00  0.00    -0.490 OA
ATOM     27  C   UNL     1      15.323  24.745  48.421  1.00  0.00     0.278 C 
ENDBRANCH   9  26
TORSDOF 6
ENDMDL
MODEL 9
REMARK VINA RESULT:    -3.213      1.903      7.149
REMARK INTER + INTRA:          -4.552
REMARK INTER:                  -4.409
REMARK INTRA:                  -0.143
REMARK UNBOUND:                -0.494
REMARK SMILES COc1cc(O)c2c(=O)c(OC)c(-c3ccc(O)c(O)c3)oc2c1
REMARK SMILES IDX 3 1 4 2 5 3 7 4 23 5 24 6 22 7 13 8 10 9 8 10 9 11 2 12 1 13
REMARK SMILES IDX 6 14 14 16 21 17 15 18 19 19 16 20 17 21 20 22 18 24 11 26
REMARK SMILES IDX 12 27
REMARK H PARENT 6 15 20 23 18 25
REMARK Flexibility Score: inf
ROOT
ATOM      1  C   UNL     1      12.940  16.954  50.139  1.00  0.00     0.126 A 
ATOM      2  C   UNL     1      14.206  16.624  49.624  1.00  0.00     0.093 A 
ATOM      3  C   UNL     1      14.924  17.543  48.845  1.00  0.00     0.134 A 
ATOM      4  C   UNL     1      14.373  18.819  48.571  1.00  0.00     0.111 A 
ATOM      5  C   UNL     1      13.100  19.140  49.091  1.00  0.00     0.146 A 
ATOM      6  C   UNL     1      12.399  18.213  49.867  1.00  0.00     0.094 A 
ATOM      7  O   UNL     1      12.550  20.322  48.849  1.00  0.00    -0.452 OA
ATOM      8  C   UNL     1      13.136  21.266  48.121  1.00  0.00     0.180 A 
ATOM      9  C   UNL     1      14.422  21.053  47.582  1.00  0.00     0.210 A 
ATOM     10  C   UNL     1      15.039  19.800  47.805  1.00  0.00     0.239 A 
ATOM     11  O   UNL     1      16.180  19.558  47.326  1.00  0.00    -0.285 OA
ENDROOT
BRANCH   1  12
ATOM     12  O   UNL     1      12.190  16.063  50.922  1.00  0.00    -0.496 OA
ATOM     13  C   UNL     1      11.800  16.308  52.269  1.00  0.00     0.278 C 
ENDBRANCH   1  12
BRANCH   3  14
ATOM     14  O   UNL     1      16.179  17.182  48.350  1.00  0.00    -0.507 OA
ATOM     15  H   UNL     1      16.282  16.637  47.503  1.00  0.00     0.293 HD
ENDBRANCH   3  14
BRANCH   8  16
ATOM     16  C   UNL     1      12.402  22.535  47.917  1.00  0.00     0.025 A 
ATOM     17  C   UNL     1      12.856  23.742  48.479  1.00  0.00     0.062 A 
ATOM     18  C   UNL     1      11.262  22.551  47.098  1.00  0.00     0.016 A 
ATOM     19  C   UNL     1      12.164  24.938  48.257  1.00  0.00     0.158 A 
ATOM     20  C   UNL     1      10.567  23.741  46.875  1.00  0.00     0.051 A 
ATOM     21  C   UNL     1      11.011  24.938  47.454  1.00  0.00     0.157 A 
BRANCH  19  22
ATOM     22  O   UNL     1      12.639  26.114  48.836  1.00  0.00    -0.504 OA
ATOM     23  H   UNL     1      12.618  27.001  48.347  1.00  0.00     0.293 HD
ENDBRANCH  19  22
BRANCH  21  24
ATOM     24  O   UNL     1      10.314  26.125  47.231  1.00  0.00    -0.504 OA
ATOM     25  H   UNL     1       9.952  26.680  47.998  1.00  0.00     0.293 HD
ENDBRANCH  21  24
ENDBRANCH   8  16
BRANCH   9  26
ATOM     26  O   UNL     1      15.034  22.109  46.877  1.00  0.00    -0.490 OA
ATOM     27  C   UNL     1      16.319  22.667  47.131  1.00  0.00     0.278 C 
ENDBRANCH   9  26
TORSDOF 6
ENDMDL
