MODEL 1
REMARK VINA RESULT:    -3.389      0.000      0.000
REMARK INTER + INTRA:          -4.082
REMARK INTER:                  -3.983
REMARK INTRA:                  -0.099
REMARK UNBOUND:                -0.099
REMARK SMILES O=C([O-])CCC(=O)[O-]
REMARK SMILES IDX 4 1 2 2 1 3 3 4 5 5 6 6 7 7 8 8
REMARK H PARENT
REMARK Flexibility Score: inf
ROOT
ATOM      1  C   UNL     1     130.806 132.971 128.230  1.00  0.00     0.059 C 
ENDROOT
BRANCH   1   2
ATOM      2  C   UNL     1     130.976 133.534 129.605  1.00  0.00     0.042 C 
ATOM      3  O   UNL     1     131.621 132.895 130.477  1.00  0.00    -0.550 OA
ATOM      4  O   UNL     1     130.379 134.743 129.941  1.00  0.00    -0.550 OA
ENDBRANCH   1   2
BRANCH   1   5
ATOM      5  C   UNL     1     129.825 131.797 128.250  1.00  0.00     0.059 C 
BRANCH   5   6
ATOM      6  C   UNL     1     128.595 132.129 127.465  1.00  0.00     0.042 C 
ATOM      7  O   UNL     1     128.323 131.491 126.414  1.00  0.00    -0.550 OA
ATOM      8  O   UNL     1     127.776 133.178 127.865  1.00  0.00    -0.550 OA
ENDBRANCH   5   6
ENDBRANCH   1   5
TORSDOF 3
ENDMDL
MODEL 2
REMARK VINA RESULT:    -3.378      0.096      3.797
REMARK INTER + INTRA:          -4.069
REMARK INTER:                  -3.973
REMARK INTRA:                  -0.096
REMARK UNBOUND:                -0.099
REMARK SMILES O=C([O-])CCC(=O)[O-]
REMARK SMILES IDX 4 1 2 2 1 3 3 4 5 5 6 6 7 7 8 8
REMARK H PARENT
REMARK Flexibility Score: inf
ROOT
ATOM      1  C   UNL     1     129.786 131.798 128.266  1.00  0.00     0.059 C 
ENDROOT
BRANCH   1   2
ATOM      2  C   UNL     1     128.545 132.088 127.484  1.00  0.00     0.042 C 
ATOM      3  O   UNL     1     128.333 131.499 126.391  1.00  0.00    -0.550 OA
ATOM      4  O   UNL     1     127.646 133.046 127.934  1.00  0.00    -0.550 OA
ENDBRANCH   1   2
BRANCH   1   5
ATOM      5  C   UNL     1     130.744 132.989 128.212  1.00  0.00     0.059 C 
BRANCH   5   6
ATOM      6  C   UNL     1     130.934 133.572 129.576  1.00  0.00     0.042 C 
ATOM      7  O   UNL     1     131.645 132.976 130.427  1.00  0.00    -0.550 OA
ATOM      8  O   UNL     1     130.282 134.748 129.927  1.00  0.00    -0.550 OA
ENDBRANCH   5   6
ENDBRANCH   1   5
TORSDOF 3
ENDMDL
MODEL 3
REMARK VINA RESULT:    -3.374      9.594     10.959
REMARK INTER + INTRA:          -4.065
REMARK INTER:                  -3.953
REMARK INTRA:                  -0.113
REMARK UNBOUND:                -0.099
REMARK SMILES O=C([O-])CCC(=O)[O-]
REMARK SMILES IDX 4 1 2 2 1 3 3 4 5 5 6 6 7 7 8 8
REMARK H PARENT
REMARK Flexibility Score: inf
ROOT
ATOM      1  C   UNL     1     125.997 123.982 128.243  1.00  0.00     0.059 C 
ENDROOT
BRANCH   1   2
ATOM      2  C   UNL     1     127.245 123.639 127.492  1.00  0.00     0.042 C 
ATOM      3  O   UNL     1     127.587 124.318 126.488  1.00  0.00    -0.550 OA
ATOM      4  O   UNL     1     128.004 122.539 127.870  1.00  0.00    -0.550 OA
ENDBRANCH   1   2
BRANCH   1   5
ATOM      5  C   UNL     1     125.023 122.803 128.228  1.00  0.00     0.059 C 
BRANCH   5   6
ATOM      6  C   UNL     1     124.895 122.211 129.596  1.00  0.00     0.042 C 
ATOM      7  O   UNL     1     125.485 121.136 129.879  1.00  0.00    -0.550 OA
ATOM      8  O   UNL     1     124.081 122.820 130.544  1.00  0.00    -0.550 OA
ENDBRANCH   5   6
ENDBRANCH   1   5
TORSDOF 3
ENDMDL
MODEL 4
REMARK VINA RESULT:    -3.354      9.493     10.863
REMARK INTER + INTRA:          -4.042
REMARK INTER:                  -3.932
REMARK INTRA:                  -0.110
REMARK UNBOUND:                -0.099
REMARK SMILES O=C([O-])CCC(=O)[O-]
REMARK SMILES IDX 4 1 2 2 1 3 3 4 5 5 6 6 7 7 8 8
REMARK H PARENT
REMARK Flexibility Score: inf
ROOT
ATOM      1  C   UNL     1     126.042 124.055 128.295  1.00  0.00     0.059 C 
ENDROOT
BRANCH   1   2
ATOM      2  C   UNL     1     127.260 123.792 127.468  1.00  0.00     0.042 C 
ATOM      3  O   UNL     1     128.166 123.031 127.898  1.00  0.00    -0.550 OA
ATOM      4  O   UNL     1     127.420 124.429 126.243  1.00  0.00    -0.550 OA
ENDBRANCH   1   2
BRANCH   1   5
ATOM      5  C   UNL     1     125.079 122.869 128.221  1.00  0.00     0.059 C 
BRANCH   5   6
ATOM      6  C   UNL     1     124.984 122.187 129.549  1.00  0.00     0.042 C 
ATOM      7  O   UNL     1     124.201 122.626 130.432  1.00  0.00    -0.550 OA
ATOM      8  O   UNL     1     125.798 121.097 129.831  1.00  0.00    -0.550 OA
ENDBRANCH   5   6
ENDBRANCH   1   5
TORSDOF 3
ENDMDL
MODEL 5
REMARK VINA RESULT:    -3.351      9.628     11.069
REMARK INTER + INTRA:          -4.038
REMARK INTER:                  -3.923
REMARK INTRA:                  -0.114
REMARK UNBOUND:                -0.099
REMARK SMILES O=C([O-])CCC(=O)[O-]
REMARK SMILES IDX 4 1 2 2 1 3 3 4 5 5 6 6 7 7 8 8
REMARK H PARENT
REMARK Flexibility Score: inf
ROOT
ATOM      1  C   UNL     1     125.072 122.768 128.257  1.00  0.00     0.059 C 
ENDROOT
BRANCH   1   2
ATOM      2  C   UNL     1     124.986 122.111 129.598  1.00  0.00     0.042 C 
ATOM      3  O   UNL     1     125.596 121.031 129.815  1.00  0.00    -0.550 OA
ATOM      4  O   UNL     1     124.192 122.665 130.594  1.00  0.00    -0.550 OA
ENDBRANCH   1   2
BRANCH   1   5
ATOM      5  C   UNL     1     126.048 123.945 128.299  1.00  0.00     0.059 C 
BRANCH   5   6
ATOM      6  C   UNL     1     127.284 123.630 127.518  1.00  0.00     0.042 C 
ATOM      7  O   UNL     1     127.547 124.266 126.464  1.00  0.00    -0.550 OA
ATOM      8  O   UNL     1     128.120 122.597 127.925  1.00  0.00    -0.550 OA
ENDBRANCH   5   6
ENDBRANCH   1   5
TORSDOF 3
ENDMDL
MODEL 6
REMARK VINA RESULT:    -3.346      0.184      3.988
REMARK INTER + INTRA:          -4.032
REMARK INTER:                  -3.917
REMARK INTRA:                  -0.115
REMARK UNBOUND:                -0.099
REMARK SMILES O=C([O-])CCC(=O)[O-]
REMARK SMILES IDX 4 1 2 2 1 3 3 4 5 5 6 6 7 7 8 8
REMARK H PARENT
REMARK Flexibility Score: inf
ROOT
ATOM      1  C   UNL     1     129.827 131.820 128.292  1.00  0.00     0.059 C 
ENDROOT
BRANCH   1   2
ATOM      2  C   UNL     1     128.607 132.110 127.477  1.00  0.00     0.042 C 
ATOM      3  O   UNL     1     127.763 132.956 127.878  1.00  0.00    -0.550 OA
ATOM      4  O   UNL     1     128.374 131.412 126.299  1.00  0.00    -0.550 OA
ENDBRANCH   1   2
BRANCH   1   5
ATOM      5  C   UNL     1     130.797 133.002 128.244  1.00  0.00     0.059 C 
BRANCH   5   6
ATOM      6  C   UNL     1     130.876 133.669 129.580  1.00  0.00     0.042 C 
ATOM      7  O   UNL     1     130.182 134.693 129.819  1.00  0.00    -0.550 OA
ATOM      8  O   UNL     1     131.754 133.192 130.545  1.00  0.00    -0.550 OA
ENDBRANCH   5   6
ENDBRANCH   1   5
TORSDOF 3
ENDMDL
MODEL 7
REMARK VINA RESULT:    -3.338      9.648     11.126
REMARK INTER + INTRA:          -4.022
REMARK INTER:                  -3.911
REMARK INTRA:                  -0.111
REMARK UNBOUND:                -0.099
REMARK SMILES O=C([O-])CCC(=O)[O-]
REMARK SMILES IDX 4 1 2 2 1 3 3 4 5 5 6 6 7 7 8 8
REMARK H PARENT
REMARK Flexibility Score: inf
ROOT
ATOM      1  C   UNL     1     124.975 122.698 128.279  1.00  0.00     0.059 C 
ENDROOT
BRANCH   1   2
ATOM      2  C   UNL     1     124.865 122.132 129.659  1.00  0.00     0.042 C 
ATOM      3  O   UNL     1     124.137 122.694 130.519  1.00  0.00    -0.550 OA
ATOM      4  O   UNL     1     125.605 121.010 130.012  1.00  0.00    -0.550 OA
ENDBRANCH   1   2
BRANCH   1   5
ATOM      5  C   UNL     1     125.899 123.917 128.273  1.00  0.00     0.059 C 
BRANCH   5   6
ATOM      6  C   UNL     1     127.170 123.608 127.547  1.00  0.00     0.042 C 
ATOM      7  O   UNL     1     127.942 122.711 127.976  1.00  0.00    -0.550 OA
ATOM      8  O   UNL     1     127.528 124.346 126.425  1.00  0.00    -0.550 OA
ENDBRANCH   5   6
ENDBRANCH   1   5
TORSDOF 3
ENDMDL
MODEL 8
REMARK VINA RESULT:    -3.099     12.214     13.476
REMARK INTER + INTRA:          -3.741
REMARK INTER:                  -3.703
REMARK INTRA:                  -0.039
REMARK UNBOUND:                -0.099
REMARK SMILES O=C([O-])CCC(=O)[O-]
REMARK SMILES IDX 4 1 2 2 1 3 3 4 5 5 6 6 7 7 8 8
REMARK H PARENT
REMARK Flexibility Score: inf
ROOT
ATOM      1  C   UNL     1     125.637 121.262 129.858  1.00  0.00     0.059 C 
ENDROOT
BRANCH   1   2
ATOM      2  C   UNL     1     124.906 122.428 129.273  1.00  0.00     0.042 C 
ATOM      3  O   UNL     1     124.547 123.385 130.009  1.00  0.00    -0.550 OA
ATOM      4  O   UNL     1     124.577 122.437 127.923  1.00  0.00    -0.550 OA
ENDBRANCH   1   2
BRANCH   1   5
ATOM      5  C   UNL     1     124.665 120.333 130.588  1.00  0.00     0.059 C 
BRANCH   5   6
ATOM      6  C   UNL     1     125.187 118.931 130.599  1.00  0.00     0.042 C 
ATOM      7  O   UNL     1     126.267 118.654 130.014  1.00  0.00    -0.550 OA
ATOM      8  O   UNL     1     124.456 117.921 131.211  1.00  0.00    -0.550 OA
ENDBRANCH   5   6
ENDBRANCH   1   5
TORSDOF 3
ENDMDL
MODEL 9
REMARK VINA RESULT:    -3.088      2.480      4.618
REMARK INTER + INTRA:          -3.729
REMARK INTER:                  -3.695
REMARK INTRA:                  -0.034
REMARK UNBOUND:                -0.099
REMARK SMILES O=C([O-])CCC(=O)[O-]
REMARK SMILES IDX 4 1 2 2 1 3 3 4 5 5 6 6 7 7 8 8
REMARK H PARENT
REMARK Flexibility Score: inf
ROOT
ATOM      1  C   UNL     1     130.235 134.607 129.713  1.00  0.00     0.059 C 
ENDROOT
BRANCH   1   2
ATOM      2  C   UNL     1     131.016 133.454 129.168  1.00  0.00     0.042 C 
ATOM      3  O   UNL     1     131.186 133.334 127.926  1.00  0.00    -0.550 OA
ATOM      4  O   UNL     1     131.514 132.482 130.027  1.00  0.00    -0.550 OA
ENDBRANCH   1   2
BRANCH   1   5
ATOM      5  C   UNL     1     131.133 135.508 130.563  1.00  0.00     0.059 C 
BRANCH   5   6
ATOM      6  C   UNL     1     130.591 136.902 130.601  1.00  0.00     0.042 C 
ATOM      7  O   UNL     1     131.225 137.811 131.198  1.00  0.00    -0.550 OA
ATOM      8  O   UNL     1     129.361 137.186 130.020  1.00  0.00    -0.550 OA
ENDBRANCH   5   6
ENDBRANCH   1   5
TORSDOF 3
ENDMDL
