MODEL 1
REMARK VINA RESULT:    -4.817      0.000      0.000
REMARK INTER + INTRA:          -6.565
REMARK INTER:                  -6.225
REMARK INTRA:                  -0.340
REMARK UNBOUND:                -0.340
REMARK SMILES CCO[C@H]1O[C@H](CO)[C@H](O)[C@H](O)[C@@H]1O
REMARK SMILES IDX 4 1 13 2 11 3 9 4 6 5 5 6 3 7 2 8 1 9 14 10 12 12 7 14 8 15
REMARK SMILES IDX 10 17
REMARK H PARENT 14 11 12 13 8 16 10 18
REMARK Flexibility Score: inf
ROOT
ATOM      1  C   UNL     1     147.271 153.414 129.455  1.00  0.00     0.281 C 
ATOM      2  C   UNL     1     148.058 154.559 130.132  1.00  0.00     0.202 C 
ATOM      3  C   UNL     1     148.691 155.475 129.067  1.00  0.00     0.179 C 
ATOM      4  C   UNL     1     149.472 154.649 128.030  1.00  0.00     0.177 C 
ATOM      5  C   UNL     1     148.559 153.524 127.487  1.00  0.00     0.178 C 
ATOM      6  O   UNL     1     148.094 152.697 128.545  1.00  0.00    -0.341 OA
ENDROOT
BRANCH   1   7
ATOM      7  O   UNL     1     146.119 153.915 128.786  1.00  0.00    -0.350 OA
BRANCH   7   8
ATOM      8  C   UNL     1     145.185 154.478 129.690  1.00  0.00     0.160 C 
ATOM      9  C   UNL     1     143.936 154.934 128.944  1.00  0.00     0.035 C 
ENDBRANCH   7   8
ENDBRANCH   1   7
BRANCH   2  10
ATOM     10  O   UNL     1     149.050 154.003 130.959  1.00  0.00    -0.385 OA
ATOM     11  H   UNL     1     149.793 153.711 130.369  1.00  0.00     0.211 HD
ENDBRANCH   2  10
BRANCH   3  12
ATOM     12  O   UNL     1     149.533 156.416 129.683  1.00  0.00    -0.387 OA
ATOM     13  H   UNL     1     150.225 155.902 130.175  1.00  0.00     0.211 HD
ENDBRANCH   3  12
BRANCH   5  14
ATOM     14  C   UNL     1     149.287 152.639 126.463  1.00  0.00     0.191 C 
BRANCH  14  15
ATOM     15  O   UNL     1     150.506 153.215 126.076  1.00  0.00    -0.394 OA
ATOM     16  H   UNL     1     150.299 154.131 125.755  1.00  0.00     0.210 HD
ENDBRANCH  14  15
ENDBRANCH   5  14
BRANCH   4  17
ATOM     17  O   UNL     1     150.625 154.105 128.627  1.00  0.00    -0.387 OA
ATOM     18  H   UNL     1     151.372 154.228 127.986  1.00  0.00     0.211 HD
ENDBRANCH   4  17
TORSDOF 7
ENDMDL
MODEL 2
REMARK VINA RESULT:    -4.807      1.428      1.602
REMARK INTER + INTRA:          -6.552
REMARK INTER:                  -6.131
REMARK INTRA:                  -0.421
REMARK UNBOUND:                -0.340
REMARK SMILES CCO[C@H]1O[C@H](CO)[C@H](O)[C@H](O)[C@@H]1O
REMARK SMILES IDX 4 1 13 2 11 3 9 4 6 5 5 6 3 7 2 8 1 9 14 10 12 12 7 14 8 15
REMARK SMILES IDX 10 17
REMARK H PARENT 14 11 12 13 8 16 10 18
REMARK Flexibility Score: inf
ROOT
ATOM      1  C   UNL     1     148.105 152.061 129.377  1.00  0.00     0.281 C 
ATOM      2  C   UNL     1     148.494 153.130 130.422  1.00  0.00     0.202 C 
ATOM      3  C   UNL     1     148.294 154.543 129.842  1.00  0.00     0.179 C 
ATOM      4  C   UNL     1     148.976 154.671 128.468  1.00  0.00     0.177 C 
ATOM      5  C   UNL     1     148.515 153.504 127.563  1.00  0.00     0.178 C 
ATOM      6  O   UNL     1     148.816 152.251 128.162  1.00  0.00    -0.341 OA
ENDROOT
BRANCH   1   7
ATOM      7  O   UNL     1     146.702 152.074 129.133  1.00  0.00    -0.350 OA
BRANCH   7   8
ATOM      8  C   UNL     1     145.969 151.571 130.235  1.00  0.00     0.160 C 
ATOM      9  C   UNL     1     144.825 152.516 130.585  1.00  0.00     0.035 C 
ENDBRANCH   7   8
ENDBRANCH   1   7
BRANCH   2  10
ATOM     10  O   UNL     1     149.835 152.934 130.797  1.00  0.00    -0.385 OA
ATOM     11  H   UNL     1     150.383 153.564 130.259  1.00  0.00     0.211 HD
ENDBRANCH   2  10
BRANCH   3  12
ATOM     12  O   UNL     1     148.797 155.504 130.734  1.00  0.00    -0.387 OA
ATOM     13  H   UNL     1     148.087 156.190 130.844  1.00  0.00     0.211 HD
ENDBRANCH   3  12
BRANCH   5  14
ATOM     14  C   UNL     1     149.181 153.553 126.180  1.00  0.00     0.191 C 
BRANCH  14  15
ATOM     15  O   UNL     1     150.508 153.099 126.242  1.00  0.00    -0.394 OA
ATOM     16  H   UNL     1     150.779 152.884 125.311  1.00  0.00     0.210 HD
ENDBRANCH  14  15
ENDBRANCH   5  14
BRANCH   4  17
ATOM     17  O   UNL     1     150.374 154.649 128.629  1.00  0.00    -0.387 OA
ATOM     18  H   UNL     1     150.715 153.863 128.129  1.00  0.00     0.211 HD
ENDBRANCH   4  17
TORSDOF 7
ENDMDL
MODEL 3
REMARK VINA RESULT:    -4.716      1.499      1.893
REMARK INTER + INTRA:          -6.435
REMARK INTER:                  -6.029
REMARK INTRA:                  -0.405
REMARK UNBOUND:                -0.340
REMARK SMILES CCO[C@H]1O[C@H](CO)[C@H](O)[C@H](O)[C@@H]1O
REMARK SMILES IDX 4 1 13 2 11 3 9 4 6 5 5 6 3 7 2 8 1 9 14 10 12 12 7 14 8 15
REMARK SMILES IDX 10 17
REMARK H PARENT 14 11 12 13 8 16 10 18
REMARK Flexibility Score: inf
ROOT
ATOM      1  C   UNL     1     148.129 153.645 129.322  1.00  0.00     0.281 C 
ATOM      2  C   UNL     1     148.526 154.949 128.595  1.00  0.00     0.202 C 
ATOM      3  C   UNL     1     148.194 154.846 127.094  1.00  0.00     0.179 C 
ATOM      4  C   UNL     1     148.764 153.548 126.496  1.00  0.00     0.177 C 
ATOM      5  C   UNL     1     148.311 152.349 127.365  1.00  0.00     0.178 C 
ATOM      6  O   UNL     1     148.735 152.515 128.711  1.00  0.00    -0.341 OA
ENDROOT
BRANCH   1   7
ATOM      7  O   UNL     1     146.714 153.489 129.351  1.00  0.00    -0.350 OA
BRANCH   7   8
ATOM      8  C   UNL     1     146.079 154.544 130.049  1.00  0.00     0.160 C 
ATOM      9  C   UNL     1     144.722 154.850 129.425  1.00  0.00     0.035 C 
ENDBRANCH   7   8
ENDBRANCH   1   7
BRANCH   2  10
ATOM     10  O   UNL     1     149.900 155.176 128.784  1.00  0.00    -0.385 OA
ATOM     11  H   UNL     1     150.013 155.538 129.701  1.00  0.00     0.211 HD
ENDBRANCH   2  10
BRANCH   3  12
ATOM     12  O   UNL     1     148.699 155.966 126.413  1.00  0.00    -0.387 OA
ATOM     13  H   UNL     1     149.652 155.772 126.211  1.00  0.00     0.211 HD
ENDBRANCH   3  12
BRANCH   5  14
ATOM     14  C   UNL     1     148.870 151.018 126.840  1.00  0.00     0.191 C 
BRANCH  14  15
ATOM     15  O   UNL     1     149.099 151.078 125.456  1.00  0.00    -0.394 OA
ATOM     16  H   UNL     1     149.987 150.663 125.297  1.00  0.00     0.210 HD
ENDBRANCH  14  15
ENDBRANCH   5  14
BRANCH   4  17
ATOM     17  O   UNL     1     150.168 153.623 126.450  1.00  0.00    -0.387 OA
ATOM     18  H   UNL     1     150.436 153.518 125.500  1.00  0.00     0.211 HD
ENDBRANCH   4  17
TORSDOF 7
ENDMDL
MODEL 4
REMARK VINA RESULT:    -4.705      1.721      3.215
REMARK INTER + INTRA:          -6.420
REMARK INTER:                  -6.047
REMARK INTRA:                  -0.374
REMARK UNBOUND:                -0.340
REMARK SMILES CCO[C@H]1O[C@H](CO)[C@H](O)[C@H](O)[C@@H]1O
REMARK SMILES IDX 4 1 13 2 11 3 9 4 6 5 5 6 3 7 2 8 1 9 14 10 12 12 7 14 8 15
REMARK SMILES IDX 10 17
REMARK H PARENT 14 11 12 13 8 16 10 18
REMARK Flexibility Score: inf
ROOT
ATOM      1  C   UNL     1     146.652 154.396 127.202  1.00  0.00     0.281 C 
ATOM      2  C   UNL     1     147.094 152.968 126.812  1.00  0.00     0.202 C 
ATOM      3  C   UNL     1     148.258 152.505 127.709  1.00  0.00     0.179 C 
ATOM      4  C   UNL     1     149.374 153.563 127.745  1.00  0.00     0.177 C 
ATOM      5  C   UNL     1     148.759 154.937 128.104  1.00  0.00     0.178 C 
ATOM      6  O   UNL     1     147.751 155.297 127.169  1.00  0.00    -0.341 OA
ENDROOT
BRANCH   1   7
ATOM      7  O   UNL     1     146.045 154.408 128.489  1.00  0.00    -0.350 OA
BRANCH   7   8
ATOM      8  C   UNL     1     144.694 153.985 128.440  1.00  0.00     0.160 C 
ATOM      9  C   UNL     1     143.795 155.005 129.131  1.00  0.00     0.035 C 
ENDBRANCH   7   8
ENDBRANCH   1   7
BRANCH   2  10
ATOM     10  O   UNL     1     147.479 152.962 125.460  1.00  0.00    -0.385 OA
ATOM     11  H   UNL     1     148.417 153.284 125.422  1.00  0.00     0.211 HD
ENDBRANCH   2  10
BRANCH   3  12
ATOM     12  O   UNL     1     148.758 151.275 127.250  1.00  0.00    -0.387 OA
ATOM     13  H   UNL     1     149.746 151.316 127.339  1.00  0.00     0.211 HD
ENDBRANCH   3  12
BRANCH   5  14
ATOM     14  C   UNL     1     149.818 156.049 128.130  1.00  0.00     0.191 C 
BRANCH  14  15
ATOM     15  O   UNL     1     151.081 155.536 128.463  1.00  0.00    -0.394 OA
ATOM     16  H   UNL     1     151.349 154.937 127.718  1.00  0.00     0.210 HD
ENDBRANCH  14  15
ENDBRANCH   5  14
BRANCH   4  17
ATOM     17  O   UNL     1     150.015 153.619 126.493  1.00  0.00    -0.387 OA
ATOM     18  H   UNL     1     149.683 154.432 126.031  1.00  0.00     0.211 HD
ENDBRANCH   4  17
TORSDOF 7
ENDMDL
MODEL 5
REMARK VINA RESULT:    -4.679      1.846      3.412
REMARK INTER + INTRA:          -6.386
REMARK INTER:                  -6.051
REMARK INTRA:                  -0.335
REMARK UNBOUND:                -0.340
REMARK SMILES CCO[C@H]1O[C@H](CO)[C@H](O)[C@H](O)[C@@H]1O
REMARK SMILES IDX 4 1 13 2 11 3 9 4 6 5 5 6 3 7 2 8 1 9 14 10 12 12 7 14 8 15
REMARK SMILES IDX 10 17
REMARK H PARENT 14 11 12 13 8 16 10 18
REMARK Flexibility Score: inf
ROOT
ATOM      1  C   UNL     1     146.758 153.675 128.463  1.00  0.00     0.281 C 
ATOM      2  C   UNL     1     146.814 153.351 126.954  1.00  0.00     0.202 C 
ATOM      3  C   UNL     1     148.277 153.260 126.480  1.00  0.00     0.179 C 
ATOM      4  C   UNL     1     149.075 154.498 126.928  1.00  0.00     0.177 C 
ATOM      5  C   UNL     1     148.875 154.705 128.449  1.00  0.00     0.178 C 
ATOM      6  O   UNL     1     147.497 154.852 128.760  1.00  0.00    -0.341 OA
ENDROOT
BRANCH   1   7
ATOM      7  O   UNL     1     147.242 152.583 129.237  1.00  0.00    -0.350 OA
BRANCH   7   8
ATOM      8  C   UNL     1     146.203 151.938 129.950  1.00  0.00     0.160 C 
ATOM      9  C   UNL     1     145.475 152.937 130.842  1.00  0.00     0.035 C 
ENDBRANCH   7   8
ENDBRANCH   1   7
BRANCH   2  10
ATOM     10  O   UNL     1     146.127 154.353 126.246  1.00  0.00    -0.385 OA
ATOM     11  H   UNL     1     145.156 154.173 126.354  1.00  0.00     0.211 HD
ENDBRANCH   2  10
BRANCH   3  12
ATOM     12  O   UNL     1     148.322 153.123 125.083  1.00  0.00    -0.387 OA
ATOM     13  H   UNL     1     147.529 153.601 124.723  1.00  0.00     0.211 HD
ENDBRANCH   3  12
BRANCH   5  14
ATOM     14  C   UNL     1     149.624 155.946 128.960  1.00  0.00     0.191 C 
BRANCH  14  15
ATOM     15  O   UNL     1     150.914 156.018 128.412  1.00  0.00    -0.394 OA
ATOM     16  H   UNL     1     150.806 155.980 127.426  1.00  0.00     0.210 HD
ENDBRANCH  14  15
ENDBRANCH   5  14
BRANCH   4  17
ATOM     17  O   UNL     1     148.638 155.628 126.213  1.00  0.00    -0.387 OA
ATOM     18  H   UNL     1     148.985 156.427 126.687  1.00  0.00     0.211 HD
ENDBRANCH   4  17
TORSDOF 7
ENDMDL
MODEL 6
REMARK VINA RESULT:    -4.671      2.097      3.835
REMARK INTER + INTRA:          -6.377
REMARK INTER:                  -6.017
REMARK INTRA:                  -0.359
REMARK UNBOUND:                -0.340
REMARK SMILES CCO[C@H]1O[C@H](CO)[C@H](O)[C@H](O)[C@@H]1O
REMARK SMILES IDX 4 1 13 2 11 3 9 4 6 5 5 6 3 7 2 8 1 9 14 10 12 12 7 14 8 15
REMARK SMILES IDX 10 17
REMARK H PARENT 14 11 12 13 8 16 10 18
REMARK Flexibility Score: inf
ROOT
ATOM      1  C   UNL     1     148.417 152.097 127.253  1.00  0.00     0.281 C 
ATOM      2  C   UNL     1     149.644 153.016 127.442  1.00  0.00     0.202 C 
ATOM      3  C   UNL     1     149.316 154.148 128.434  1.00  0.00     0.179 C 
ATOM      4  C   UNL     1     148.006 154.854 128.044  1.00  0.00     0.177 C 
ATOM      5  C   UNL     1     146.897 153.792 127.851  1.00  0.00     0.178 C 
ATOM      6  O   UNL     1     147.274 152.845 126.862  1.00  0.00    -0.341 OA
ENDROOT
BRANCH   1   7
ATOM      7  O   UNL     1     148.142 151.365 128.443  1.00  0.00    -0.350 OA
BRANCH   7   8
ATOM      8  C   UNL     1     147.668 150.060 128.163  1.00  0.00     0.160 C 
ATOM      9  C   UNL     1     148.208 149.576 126.822  1.00  0.00     0.035 C 
ENDBRANCH   7   8
ENDBRANCH   1   7
BRANCH   2  10
ATOM     10  O   UNL     1     150.014 153.545 126.192  1.00  0.00    -0.385 OA
ATOM     11  H   UNL     1     149.176 153.795 125.721  1.00  0.00     0.211 HD
ENDBRANCH   2  10
BRANCH   3  12
ATOM     12  O   UNL     1     150.377 155.068 128.480  1.00  0.00    -0.387 OA
ATOM     13  H   UNL     1     150.200 155.745 127.776  1.00  0.00     0.211 HD
ENDBRANCH   3  12
BRANCH   5  14
ATOM     14  C   UNL     1     145.562 154.427 127.431  1.00  0.00     0.191 C 
BRANCH  14  15
ATOM     15  O   UNL     1     145.422 154.430 126.035  1.00  0.00    -0.394 OA
ATOM     16  H   UNL     1     146.029 155.135 125.689  1.00  0.00     0.210 HD
ENDBRANCH  14  15
ENDBRANCH   5  14
BRANCH   4  17
ATOM     17  O   UNL     1     148.197 155.591 126.861  1.00  0.00    -0.387 OA
ATOM     18  H   UNL     1     147.772 156.477 126.995  1.00  0.00     0.211 HD
ENDBRANCH   4  17
TORSDOF 7
ENDMDL
MODEL 7
REMARK VINA RESULT:    -4.654      1.958      3.435
REMARK INTER + INTRA:          -6.354
REMARK INTER:                  -5.958
REMARK INTRA:                  -0.395
REMARK UNBOUND:                -0.340
REMARK SMILES CCO[C@H]1O[C@H](CO)[C@H](O)[C@H](O)[C@@H]1O
REMARK SMILES IDX 4 1 13 2 11 3 9 4 6 5 5 6 3 7 2 8 1 9 14 10 12 12 7 14 8 15
REMARK SMILES IDX 10 17
REMARK H PARENT 14 11 12 13 8 16 10 18
REMARK Flexibility Score: inf
ROOT
ATOM      1  C   UNL     1     147.001 154.576 127.396  1.00  0.00     0.281 C 
ATOM      2  C   UNL     1     148.229 154.548 126.460  1.00  0.00     0.202 C 
ATOM      3  C   UNL     1     149.201 153.431 126.885  1.00  0.00     0.179 C 
ATOM      4  C   UNL     1     149.510 153.520 128.390  1.00  0.00     0.177 C 
ATOM      5  C   UNL     1     148.179 153.584 129.177  1.00  0.00     0.178 C 
ATOM      6  O   UNL     1     147.398 154.693 128.756  1.00  0.00    -0.341 OA
ENDROOT
BRANCH   1   7
ATOM      7  O   UNL     1     146.198 153.413 127.217  1.00  0.00    -0.350 OA
BRANCH   7   8
ATOM      8  C   UNL     1     145.184 153.615 126.250  1.00  0.00     0.160 C 
ATOM      9  C   UNL     1     145.324 152.603 125.118  1.00  0.00     0.035 C 
ENDBRANCH   7   8
ENDBRANCH   1   7
BRANCH   2  10
ATOM     10  O   UNL     1     148.865 155.801 126.505  1.00  0.00    -0.385 OA
ATOM     11  H   UNL     1     149.222 155.915 127.424  1.00  0.00     0.211 HD
ENDBRANCH   2  10
BRANCH   3  12
ATOM     12  O   UNL     1     150.384 153.512 126.133  1.00  0.00    -0.387 OA
ATOM     13  H   UNL     1     150.689 152.580 125.977  1.00  0.00     0.211 HD
ENDBRANCH   3  12
BRANCH   5  14
ATOM     14  C   UNL     1     148.414 153.703 130.691  1.00  0.00     0.191 C 
BRANCH  14  15
ATOM     15  O   UNL     1     149.645 153.138 131.056  1.00  0.00    -0.394 OA
ATOM     16  H   UNL     1     150.299 153.884 131.098  1.00  0.00     0.210 HD
ENDBRANCH  14  15
ENDBRANCH   5  14
BRANCH   4  17
ATOM     17  O   UNL     1     150.293 154.660 128.647  1.00  0.00    -0.387 OA
ATOM     18  H   UNL     1     151.236 154.360 128.712  1.00  0.00     0.211 HD
ENDBRANCH   4  17
TORSDOF 7
ENDMDL
MODEL 8
REMARK VINA RESULT:    -4.603      1.717      3.317
REMARK INTER + INTRA:          -6.288
REMARK INTER:                  -5.907
REMARK INTRA:                  -0.381
REMARK UNBOUND:                -0.340
REMARK SMILES CCO[C@H]1O[C@H](CO)[C@H](O)[C@H](O)[C@@H]1O
REMARK SMILES IDX 4 1 13 2 11 3 9 4 6 5 5 6 3 7 2 8 1 9 14 10 12 12 7 14 8 15
REMARK SMILES IDX 10 17
REMARK H PARENT 14 11 12 13 8 16 10 18
REMARK Flexibility Score: inf
ROOT
ATOM      1  C   UNL     1     148.496 152.497 128.665  1.00  0.00     0.281 C 
ATOM      2  C   UNL     1     147.621 152.701 129.922  1.00  0.00     0.202 C 
ATOM      3  C   UNL     1     146.903 154.063 129.858  1.00  0.00     0.179 C 
ATOM      4  C   UNL     1     147.900 155.193 129.547  1.00  0.00     0.177 C 
ATOM      5  C   UNL     1     148.723 154.811 128.293  1.00  0.00     0.178 C 
ATOM      6  O   UNL     1     149.401 153.579 128.492  1.00  0.00    -0.341 OA
ENDROOT
BRANCH   1   7
ATOM      7  O   UNL     1     147.689 152.342 127.503  1.00  0.00    -0.350 OA
BRANCH   7   8
ATOM      8  C   UNL     1     148.275 151.457 126.566  1.00  0.00     0.160 C 
ATOM      9  C   UNL     1     148.701 152.217 125.315  1.00  0.00     0.035 C 
ENDBRANCH   7   8
ENDBRANCH   1   7
BRANCH   2  10
ATOM     10  O   UNL     1     148.439 152.626 131.064  1.00  0.00    -0.385 OA
ATOM     11  H   UNL     1     148.372 153.501 131.529  1.00  0.00     0.211 HD
ENDBRANCH   2  10
BRANCH   3  12
ATOM     12  O   UNL     1     146.237 154.311 131.070  1.00  0.00    -0.387 OA
ATOM     13  H   UNL     1     145.557 155.010 130.884  1.00  0.00     0.211 HD
ENDBRANCH   3  12
BRANCH   5  14
ATOM     14  C   UNL     1     149.762 155.887 127.941  1.00  0.00     0.191 C 
BRANCH  14  15
ATOM     15  O   UNL     1     151.018 155.571 128.483  1.00  0.00    -0.394 OA
ATOM     16  H   UNL     1     151.470 156.434 128.673  1.00  0.00     0.210 HD
ENDBRANCH  14  15
ENDBRANCH   5  14
BRANCH   4  17
ATOM     17  O   UNL     1     148.747 155.395 130.653  1.00  0.00    -0.387 OA
ATOM     18  H   UNL     1     149.215 156.258 130.509  1.00  0.00     0.211 HD
ENDBRANCH   4  17
TORSDOF 7
ENDMDL
MODEL 9
REMARK VINA RESULT:    -4.560      1.347      4.216
REMARK INTER + INTRA:          -6.233
REMARK INTER:                  -5.867
REMARK INTRA:                  -0.366
REMARK UNBOUND:                -0.340
REMARK SMILES CCO[C@H]1O[C@H](CO)[C@H](O)[C@H](O)[C@@H]1O
REMARK SMILES IDX 4 1 13 2 11 3 9 4 6 5 5 6 3 7 2 8 1 9 14 10 12 12 7 14 8 15
REMARK SMILES IDX 10 17
REMARK H PARENT 14 11 12 13 8 16 10 18
REMARK Flexibility Score: inf
ROOT
ATOM      1  C   UNL     1     148.593 154.058 127.476  1.00  0.00     0.281 C 
ATOM      2  C   UNL     1     149.544 153.948 128.689  1.00  0.00     0.202 C 
ATOM      3  C   UNL     1     148.848 153.213 129.850  1.00  0.00     0.179 C 
ATOM      4  C   UNL     1     147.468 153.829 130.137  1.00  0.00     0.177 C 
ATOM      5  C   UNL     1     146.664 153.908 128.817  1.00  0.00     0.178 C 
ATOM      6  O   UNL     1     147.365 154.671 127.845  1.00  0.00    -0.341 OA
ENDROOT
BRANCH   1   7
ATOM      7  O   UNL     1     148.352 152.779 126.901  1.00  0.00    -0.350 OA
BRANCH   7   8
ATOM      8  C   UNL     1     148.899 152.672 125.600  1.00  0.00     0.160 C 
ATOM      9  C   UNL     1     150.214 151.900 125.640  1.00  0.00     0.035 C 
ENDBRANCH   7   8
ENDBRANCH   1   7
BRANCH   2  10
ATOM     10  O   UNL     1     149.932 155.241 129.083  1.00  0.00    -0.385 OA
ATOM     11  H   UNL     1     150.081 155.214 130.065  1.00  0.00     0.211 HD
ENDBRANCH   2  10
BRANCH   3  12
ATOM     12  O   UNL     1     149.656 153.255 130.998  1.00  0.00    -0.387 OA
ATOM     13  H   UNL     1     150.044 154.168 131.041  1.00  0.00     0.211 HD
ENDBRANCH   3  12
BRANCH   5  14
ATOM     14  C   UNL     1     145.280 154.542 129.026  1.00  0.00     0.191 C 
BRANCH  14  15
ATOM     15  O   UNL     1     144.900 154.489 130.376  1.00  0.00    -0.394 OA
ATOM     16  H   UNL     1     145.730 154.600 130.909  1.00  0.00     0.210 HD
ENDBRANCH  14  15
ENDBRANCH   5  14
BRANCH   4  17
ATOM     17  O   UNL     1     147.627 155.110 130.697  1.00  0.00    -0.387 OA
ATOM     18  H   UNL     1     148.330 155.040 131.393  1.00  0.00     0.211 HD
ENDBRANCH   4  17
TORSDOF 7
ENDMDL
