MODEL 1
REMARK VINA RESULT:    -0.736      0.000      0.000
REMARK INTER + INTRA:          -2.374
REMARK INTER:                  -1.381
REMARK INTRA:                  -0.993
REMARK UNBOUND:                -0.993
REMARK SMILES O=C([O-])CCCCCCCCCCCCCCC(=O)[O-]
REMARK SMILES IDX 10 1 9 2 8 3 7 4 6 5 5 6 4 7 2 8 1 9 3 10 11 11 12 12 13 13
REMARK SMILES IDX 14 14 15 15 16 16 17 17 18 18 19 19 20 20
REMARK H PARENT
REMARK Flexibility Score: inf
ROOT
ATOM      1  C   UNL     1      41.047  37.596  18.201  1.00  0.00     0.000 C 
ENDROOT
BRANCH   1   2
ATOM      2  C   UNL     1      40.526  36.222  18.658  1.00  0.00     0.000 C 
BRANCH   2   3
ATOM      3  C   UNL     1      39.136  35.899  18.086  1.00  0.00     0.000 C 
BRANCH   3   4
ATOM      4  C   UNL     1      38.254  35.125  19.083  1.00  0.00     0.000 C 
BRANCH   4   5
ATOM      5  C   UNL     1      38.513  35.536  20.540  1.00  0.00     0.000 C 
BRANCH   5   6
ATOM      6  C   UNL     1      37.386  36.412  21.116  1.00  0.00     0.006 C 
BRANCH   6   7
ATOM      7  C   UNL     1      36.848  37.414  20.086  1.00  0.00     0.053 C 
BRANCH   7   8
ATOM      8  C   UNL     1      37.306  38.810  20.378  1.00  0.00     0.041 C 
ATOM      9  O   UNL     1      36.893  39.771  19.677  1.00  0.00    -0.550 OA
ATOM     10  O   UNL     1      38.161  39.053  21.446  1.00  0.00    -0.550 OA
ENDBRANCH   7   8
ENDBRANCH   6   7
ENDBRANCH   5   6
ENDBRANCH   4   5
ENDBRANCH   3   4
ENDBRANCH   2   3
ENDBRANCH   1   2
BRANCH   1  11
ATOM     11  C   UNL     1      39.916  38.552  17.787  1.00  0.00     0.000 C 
BRANCH  11  12
ATOM     12  C   UNL     1      40.434  39.949  17.406  1.00  0.00     0.000 C 
BRANCH  12  13
ATOM     13  C   UNL     1      40.798  40.798  18.635  1.00  0.00     0.000 C 
BRANCH  13  14
ATOM     14  C   UNL     1      40.030  42.131  18.683  1.00  0.00     0.000 C 
BRANCH  14  15
ATOM     15  C   UNL     1      40.964  43.346  18.821  1.00  0.00     0.000 C 
BRANCH  15  16
ATOM     16  C   UNL     1      40.903  43.980  20.218  1.00  0.00     0.006 C 
BRANCH  16  17
ATOM     17  C   UNL     1      41.101  45.497  20.140  1.00  0.00     0.053 C 
BRANCH  17  18
ATOM     18  C   UNL     1      41.090  46.098  21.509  1.00  0.00     0.041 C 
ATOM     19  O   UNL     1      41.099  45.358  22.528  1.00  0.00    -0.550 OA
ATOM     20  O   UNL     1      41.118  47.478  21.662  1.00  0.00    -0.550 OA
ENDBRANCH  17  18
ENDBRANCH  16  17
ENDBRANCH  15  16
ENDBRANCH  14  15
ENDBRANCH  13  14
ENDBRANCH  12  13
ENDBRANCH  11  12
ENDBRANCH   1  11
TORSDOF 15
ENDMDL
MODEL 2
REMARK VINA RESULT:     0.424      3.289      4.561
REMARK INTER + INTRA:          -0.197
REMARK INTER:                  -1.898
REMARK INTRA:                   1.701
REMARK UNBOUND:                -0.993
REMARK SMILES O=C([O-])CCCCCCCCCCCCCCC(=O)[O-]
REMARK SMILES IDX 10 1 9 2 8 3 7 4 6 5 5 6 4 7 2 8 1 9 3 10 11 11 12 12 13 13
REMARK SMILES IDX 14 14 15 15 16 16 17 17 18 18 19 19 20 20
REMARK H PARENT
REMARK Flexibility Score: inf
ROOT
ATOM      1  C   UNL     1      40.023  38.989  17.173  1.00  0.00     0.000 C 
ENDROOT
BRANCH   1   2
ATOM      2  C   UNL     1      40.883  37.715  17.252  1.00  0.00     0.000 C 
BRANCH   2   3
ATOM      3  C   UNL     1      40.965  36.976  15.907  1.00  0.00     0.000 C 
BRANCH   3   4
ATOM      4  C   UNL     1      40.625  35.480  16.034  1.00  0.00     0.000 C 
BRANCH   4   5
ATOM      5  C   UNL     1      41.117  34.876  17.358  1.00  0.00     0.000 C 
BRANCH   5   6
ATOM      6  C   UNL     1      40.732  35.733  18.577  1.00  0.00     0.006 C 
BRANCH   6   7
ATOM      7  C   UNL     1      39.956  34.929  19.628  1.00  0.00     0.053 C 
BRANCH   7   8
ATOM      8  C   UNL     1      38.536  35.391  19.744  1.00  0.00     0.041 C 
ATOM      9  O   UNL     1      37.866  35.644  18.709  1.00  0.00    -0.550 OA
ATOM     10  O   UNL     1      37.941  35.507  20.995  1.00  0.00    -0.550 OA
ENDBRANCH   7   8
ENDBRANCH   6   7
ENDBRANCH   5   6
ENDBRANCH   4   5
ENDBRANCH   3   4
ENDBRANCH   2   3
ENDBRANCH   1   2
BRANCH   1  11
ATOM     11  C   UNL     1      40.253  39.781  15.875  1.00  0.00     0.000 C 
BRANCH  11  12
ATOM     12  C   UNL     1      41.123  41.031  16.094  1.00  0.00     0.000 C 
BRANCH  12  13
ATOM     13  C   UNL     1      40.582  41.938  17.211  1.00  0.00     0.000 C 
BRANCH  13  14
ATOM     14  C   UNL     1      40.973  41.446  18.616  1.00  0.00     0.000 C 
BRANCH  14  15
ATOM     15  C   UNL     1      39.775  41.393  19.578  1.00  0.00     0.000 C 
BRANCH  15  16
ATOM     16  C   UNL     1      38.471  40.985  18.876  1.00  0.00     0.006 C 
BRANCH  16  17
ATOM     17  C   UNL     1      38.146  39.512  19.138  1.00  0.00     0.053 C 
BRANCH  17  18
ATOM     18  C   UNL     1      37.421  39.358  20.437  1.00  0.00     0.041 C 
ATOM     19  O   UNL     1      36.236  39.766  20.555  1.00  0.00    -0.550 OA
ATOM     20  O   UNL     1      38.039  38.721  21.506  1.00  0.00    -0.550 OA
ENDBRANCH  17  18
ENDBRANCH  16  17
ENDBRANCH  15  16
ENDBRANCH  14  15
ENDBRANCH  13  14
ENDBRANCH  12  13
ENDBRANCH  11  12
ENDBRANCH   1  11
TORSDOF 15
ENDMDL
MODEL 3
REMARK VINA RESULT:     0.508      4.073      8.617
REMARK INTER + INTRA:          -0.039
REMARK INTER:                   0.551
REMARK INTRA:                  -0.590
REMARK UNBOUND:                -0.993
REMARK SMILES O=C([O-])CCCCCCCCCCCCCCC(=O)[O-]
REMARK SMILES IDX 10 1 9 2 8 3 7 4 6 5 5 6 4 7 2 8 1 9 3 10 11 11 12 12 13 13
REMARK SMILES IDX 14 14 15 15 16 16 17 17 18 18 19 19 20 20
REMARK H PARENT
REMARK Flexibility Score: inf
ROOT
ATOM      1  C   UNL     1      41.107  44.625  22.024  1.00  0.00     0.000 C 
ENDROOT
BRANCH   1   2
ATOM      2  C   UNL     1      40.905  45.529  23.253  1.00  0.00     0.000 C 
BRANCH   2   3
ATOM      3  C   UNL     1      40.463  44.741  24.497  1.00  0.00     0.000 C 
BRANCH   3   4
ATOM      4  C   UNL     1      39.287  45.410  25.231  1.00  0.00     0.000 C 
BRANCH   4   5
ATOM      5  C   UNL     1      38.018  45.480  24.368  1.00  0.00     0.000 C 
BRANCH   5   6
ATOM      6  C   UNL     1      36.827  46.103  25.117  1.00  0.00     0.006 C 
BRANCH   6   7
ATOM      7  C   UNL     1      35.871  46.842  24.171  1.00  0.00     0.053 C 
BRANCH   7   8
ATOM      8  C   UNL     1      34.482  46.287  24.241  1.00  0.00     0.041 C 
ATOM      9  O   UNL     1      33.970  46.000  25.355  1.00  0.00    -0.550 OA
ATOM     10  O   UNL     1      33.738  46.121  23.079  1.00  0.00    -0.550 OA
ENDBRANCH   7   8
ENDBRANCH   6   7
ENDBRANCH   5   6
ENDBRANCH   4   5
ENDBRANCH   3   4
ENDBRANCH   2   3
ENDBRANCH   1   2
BRANCH   1  11
ATOM     11  C   UNL     1      41.044  45.403  20.699  1.00  0.00     0.000 C 
BRANCH  11  12
ATOM     12  C   UNL     1      41.090  44.480  19.470  1.00  0.00     0.000 C 
BRANCH  12  13
ATOM     13  C   UNL     1      41.125  42.991  19.851  1.00  0.00     0.000 C 
BRANCH  13  14
ATOM     14  C   UNL     1      40.619  42.077  18.722  1.00  0.00     0.000 C 
BRANCH  14  15
ATOM     15  C   UNL     1      39.823  40.871  19.249  1.00  0.00     0.000 C 
BRANCH  15  16
ATOM     16  C   UNL     1      39.692  39.750  18.208  1.00  0.00     0.006 C 
BRANCH  16  17
ATOM     17  C   UNL     1      38.806  38.617  18.732  1.00  0.00     0.053 C 
BRANCH  17  18
ATOM     18  C   UNL     1      39.445  37.289  18.473  1.00  0.00     0.041 C 
ATOM     19  O   UNL     1      38.758  36.235  18.517  1.00  0.00    -0.550 OA
ATOM     20  O   UNL     1      40.791  37.220  18.136  1.00  0.00    -0.550 OA
ENDBRANCH  17  18
ENDBRANCH  16  17
ENDBRANCH  15  16
ENDBRANCH  14  15
ENDBRANCH  13  14
ENDBRANCH  12  13
ENDBRANCH  11  12
ENDBRANCH   1  11
TORSDOF 15
ENDMDL
MODEL 4
REMARK VINA RESULT:     0.941      4.014      6.483
REMARK INTER + INTRA:           0.774
REMARK INTER:                   1.276
REMARK INTRA:                  -0.502
REMARK UNBOUND:                -0.993
REMARK SMILES O=C([O-])CCCCCCCCCCCCCCC(=O)[O-]
REMARK SMILES IDX 10 1 9 2 8 3 7 4 6 5 5 6 4 7 2 8 1 9 3 10 11 11 12 12 13 13
REMARK SMILES IDX 14 14 15 15 16 16 17 17 18 18 19 19 20 20
REMARK H PARENT
REMARK Flexibility Score: inf
ROOT
ATOM      1  C   UNL     1      40.427  44.723  20.951  1.00  0.00     0.000 C 
ENDROOT
BRANCH   1   2
ATOM      2  C   UNL     1      41.124  43.396  20.600  1.00  0.00     0.000 C 
BRANCH   2   3
ATOM      3  C   UNL     1      41.001  43.043  19.109  1.00  0.00     0.000 C 
BRANCH   3   4
ATOM      4  C   UNL     1      40.826  41.532  18.874  1.00  0.00     0.000 C 
BRANCH   4   5
ATOM      5  C   UNL     1      39.349  41.112  18.824  1.00  0.00     0.000 C 
BRANCH   5   6
ATOM      6  C   UNL     1      39.171  39.588  18.705  1.00  0.00     0.006 C 
BRANCH   6   7
ATOM      7  C   UNL     1      37.718  39.155  18.941  1.00  0.00     0.053 C 
BRANCH   7   8
ATOM      8  C   UNL     1      37.457  38.848  20.384  1.00  0.00     0.041 C 
ATOM      9  O   UNL     1      36.952  39.722  21.136  1.00  0.00    -0.550 OA
ATOM     10  O   UNL     1      37.740  37.585  20.889  1.00  0.00    -0.550 OA
ENDBRANCH   7   8
ENDBRANCH   6   7
ENDBRANCH   5   6
ENDBRANCH   4   5
ENDBRANCH   3   4
ENDBRANCH   2   3
ENDBRANCH   1   2
BRANCH   1  11
ATOM     11  C   UNL     1      41.042  45.408  22.182  1.00  0.00     0.000 C 
BRANCH  11  12
ATOM     12  C   UNL     1      40.736  44.657  23.490  1.00  0.00     0.000 C 
BRANCH  12  13
ATOM     13  C   UNL     1      39.654  45.353  24.330  1.00  0.00     0.000 C 
BRANCH  13  14
ATOM     14  C   UNL     1      38.565  46.013  23.467  1.00  0.00     0.000 C 
BRANCH  14  15
ATOM     15  C   UNL     1      37.218  46.128  24.199  1.00  0.00     0.000 C 
BRANCH  15  16
ATOM     16  C   UNL     1      36.075  46.560  23.269  1.00  0.00     0.006 C 
BRANCH  16  17
ATOM     17  C   UNL     1      34.936  47.205  24.064  1.00  0.00     0.053 C 
BRANCH  17  18
ATOM     18  C   UNL     1      34.089  46.156  24.712  1.00  0.00     0.041 C 
ATOM     19  O   UNL     1      34.303  45.815  25.904  1.00  0.00    -0.550 OA
ATOM     20  O   UNL     1      33.030  45.590  24.013  1.00  0.00    -0.550 OA
ENDBRANCH  17  18
ENDBRANCH  16  17
ENDBRANCH  15  16
ENDBRANCH  14  15
ENDBRANCH  13  14
ENDBRANCH  12  13
ENDBRANCH  11  12
ENDBRANCH   1  11
TORSDOF 15
ENDMDL
MODEL 5
REMARK VINA RESULT:     0.987      3.401      8.595
REMARK INTER + INTRA:           0.859
REMARK INTER:                   0.947
REMARK INTRA:                  -0.088
REMARK UNBOUND:                -0.993
REMARK SMILES O=C([O-])CCCCCCCCCCCCCCC(=O)[O-]
REMARK SMILES IDX 10 1 9 2 8 3 7 4 6 5 5 6 4 7 2 8 1 9 3 10 11 11 12 12 13 13
REMARK SMILES IDX 14 14 15 15 16 16 17 17 18 18 19 19 20 20
REMARK H PARENT
REMARK Flexibility Score: inf
ROOT
ATOM      1  C   UNL     1      40.992  43.219  20.241  1.00  0.00     0.000 C 
ENDROOT
BRANCH   1   2
ATOM      2  C   UNL     1      41.107  44.730  20.511  1.00  0.00     0.000 C 
BRANCH   2   3
ATOM      3  C   UNL     1      41.125  45.061  22.012  1.00  0.00     0.000 C 
BRANCH   3   4
ATOM      4  C   UNL     1      40.142  46.188  22.379  1.00  0.00     0.000 C 
BRANCH   4   5
ATOM      5  C   UNL     1      39.017  45.707  23.307  1.00  0.00     0.000 C 
BRANCH   5   6
ATOM      6  C   UNL     1      37.709  46.492  23.106  1.00  0.00     0.006 C 
BRANCH   6   7
ATOM      7  C   UNL     1      36.713  46.262  24.251  1.00  0.00     0.053 C 
BRANCH   7   8
ATOM      8  C   UNL     1      35.394  46.916  23.979  1.00  0.00     0.041 C 
ATOM      9  O   UNL     1      35.231  47.609  22.941  1.00  0.00    -0.550 OA
ATOM     10  O   UNL     1      34.331  46.731  24.856  1.00  0.00    -0.550 OA
ENDBRANCH   7   8
ENDBRANCH   6   7
ENDBRANCH   5   6
ENDBRANCH   4   5
ENDBRANCH   3   4
ENDBRANCH   2   3
ENDBRANCH   1   2
BRANCH   1  11
ATOM     11  C   UNL     1      41.122  42.871  18.749  1.00  0.00     0.000 C 
BRANCH  11  12
ATOM     12  C   UNL     1      41.102  41.355  18.493  1.00  0.00     0.000 C 
BRANCH  12  13
ATOM     13  C   UNL     1      40.162  40.964  17.340  1.00  0.00     0.000 C 
BRANCH  13  14
ATOM     14  C   UNL     1      40.838  40.041  16.311  1.00  0.00     0.000 C 
BRANCH  14  15
ATOM     15  C   UNL     1      40.651  38.551  16.642  1.00  0.00     0.000 C 
BRANCH  15  16
ATOM     16  C   UNL     1      40.355  38.309  18.129  1.00  0.00     0.006 C 
BRANCH  16  17
ATOM     17  C   UNL     1      40.484  36.825  18.479  1.00  0.00     0.053 C 
BRANCH  17  18
ATOM     18  C   UNL     1      39.213  36.099  18.166  1.00  0.00     0.041 C 
ATOM     19  O   UNL     1      38.399  35.821  19.084  1.00  0.00    -0.550 OA
ATOM     20  O   UNL     1      38.906  35.773  16.851  1.00  0.00    -0.550 OA
ENDBRANCH  17  18
ENDBRANCH  16  17
ENDBRANCH  15  16
ENDBRANCH  14  15
ENDBRANCH  13  14
ENDBRANCH  12  13
ENDBRANCH  11  12
ENDBRANCH   1  11
TORSDOF 15
ENDMDL
MODEL 6
REMARK VINA RESULT:     1.112      1.960      8.021
REMARK INTER + INTRA:           1.093
REMARK INTER:                   1.757
REMARK INTRA:                  -0.663
REMARK UNBOUND:                -0.993
REMARK SMILES O=C([O-])CCCCCCCCCCCCCCC(=O)[O-]
REMARK SMILES IDX 10 1 9 2 8 3 7 4 6 5 5 6 4 7 2 8 1 9 3 10 11 11 12 12 13 13
REMARK SMILES IDX 14 14 15 15 16 16 17 17 18 18 19 19 20 20
REMARK H PARENT
REMARK Flexibility Score: inf
ROOT
ATOM      1  C   UNL     1      40.071  40.830  19.286  1.00  0.00     0.000 C 
ENDROOT
BRANCH   1   2
ATOM      2  C   UNL     1      41.110  41.960  19.185  1.00  0.00     0.000 C 
BRANCH   2   3
ATOM      3  C   UNL     1      40.470  43.324  18.879  1.00  0.00     0.000 C 
BRANCH   3   4
ATOM      4  C   UNL     1      41.125  44.472  19.669  1.00  0.00     0.000 C 
BRANCH   4   5
ATOM      5  C   UNL     1      41.125  44.219  21.184  1.00  0.00     0.000 C 
BRANCH   5   6
ATOM      6  C   UNL     1      40.786  45.483  21.994  1.00  0.00     0.006 C 
BRANCH   6   7
ATOM      7  C   UNL     1      41.036  45.291  23.496  1.00  0.00     0.053 C 
BRANCH   7   8
ATOM      8  C   UNL     1      39.775  44.955  24.230  1.00  0.00     0.041 C 
ATOM      9  O   UNL     1      38.862  45.814  24.349  1.00  0.00    -0.550 OA
ATOM     10  O   UNL     1      39.592  43.680  24.753  1.00  0.00    -0.550 OA
ENDBRANCH   7   8
ENDBRANCH   6   7
ENDBRANCH   5   6
ENDBRANCH   4   5
ENDBRANCH   3   4
ENDBRANCH   2   3
ENDBRANCH   1   2
BRANCH   1  11
ATOM     11  C   UNL     1      39.703  40.238  17.915  1.00  0.00     0.000 C 
BRANCH  11  12
ATOM     12  C   UNL     1      40.169  38.780  17.758  1.00  0.00     0.000 C 
BRANCH  12  13
ATOM     13  C   UNL     1      40.083  38.287  16.305  1.00  0.00     0.000 C 
BRANCH  13  14
ATOM     14  C   UNL     1      40.605  36.850  16.134  1.00  0.00     0.000 C 
BRANCH  14  15
ATOM     15  C   UNL     1      40.812  36.133  17.479  1.00  0.00     0.000 C 
BRANCH  15  16
ATOM     16  C   UNL     1      39.567  35.354  17.930  1.00  0.00     0.006 C 
BRANCH  16  17
ATOM     17  C   UNL     1      39.581  35.130  19.444  1.00  0.00     0.053 C 
BRANCH  17  18
ATOM     18  C   UNL     1      38.337  35.681  20.067  1.00  0.00     0.041 C 
ATOM     19  O   UNL     1      38.062  35.424  21.269  1.00  0.00    -0.550 OA
ATOM     20  O   UNL     1      37.505  36.518  19.335  1.00  0.00    -0.550 OA
ENDBRANCH  17  18
ENDBRANCH  16  17
ENDBRANCH  15  16
ENDBRANCH  14  15
ENDBRANCH  13  14
ENDBRANCH  12  13
ENDBRANCH  11  12
ENDBRANCH   1  11
TORSDOF 15
ENDMDL
