MODEL 1
REMARK VINA RESULT:    -3.311      0.000      0.000
REMARK INTER + INTRA:          -6.461
REMARK INTER:                  -5.054
REMARK INTRA:                  -1.407
REMARK UNBOUND:                -1.407
REMARK SMILES CCCCCCCCCCC(=O)[O-]
REMARK SMILES IDX 7 1 8 2 9 3 10 4 11 5 12 6 13 7 6 8 5 9 4 10 3 11 2 12 1 13
REMARK H PARENT
REMARK Flexibility Score: inf
ROOT
ATOM      1  C   UNL     1     128.044 144.709 118.646  1.00  0.00     0.000 C 
ENDROOT
BRANCH   1   2
ATOM      2  C   UNL     1     127.183 145.859 119.196  1.00  0.00     0.000 C 
BRANCH   2   3
ATOM      3  C   UNL     1     126.875 145.702 120.694  1.00  0.00     0.006 C 
BRANCH   3   4
ATOM      4  C   UNL     1     127.445 146.853 121.535  1.00  0.00     0.053 C 
BRANCH   4   5
ATOM      5  C   UNL     1     127.906 146.348 122.866  1.00  0.00     0.041 C 
ATOM      6  O   UNL     1     128.740 147.008 123.539  1.00  0.00    -0.550 OA
ATOM      7  O   UNL     1     127.451 145.125 123.341  1.00  0.00    -0.550 OA
ENDBRANCH   4   5
ENDBRANCH   3   4
ENDBRANCH   2   3
ENDBRANCH   1   2
BRANCH   1   8
ATOM      8  C   UNL     1     128.447 143.701 119.734  1.00  0.00     0.000 C 
BRANCH   8   9
ATOM      9  C   UNL     1     129.849 143.116 119.509  1.00  0.00    -0.000 C 
BRANCH   9  10
ATOM     10  C   UNL     1     130.929 144.190 119.707  1.00  0.00    -0.000 C 
BRANCH  10  11
ATOM     11  C   UNL     1     130.826 144.891 121.072  1.00  0.00    -0.000 C 
BRANCH  11  12
ATOM     12  C   UNL     1     131.120 146.395 120.988  1.00  0.00    -0.003 C 
ATOM     13  C   UNL     1     130.955 146.907 119.559  1.00  0.00     0.004 C 
ENDBRANCH  11  12
ENDBRANCH  10  11
ENDBRANCH   9  10
ENDBRANCH   8   9
ENDBRANCH   1   8
TORSDOF 9
ENDMDL
MODEL 2
REMARK VINA RESULT:    -3.232      2.879      4.646
REMARK INTER + INTRA:          -6.339
REMARK INTER:                  -5.318
REMARK INTRA:                  -1.021
REMARK UNBOUND:                -1.407
REMARK SMILES CCCCCCCCCCC(=O)[O-]
REMARK SMILES IDX 7 1 8 2 9 3 10 4 11 5 12 6 13 7 6 8 5 9 4 10 3 11 2 12 1 13
REMARK H PARENT
REMARK Flexibility Score: inf
ROOT
ATOM      1  C   UNL     1     130.553 144.756 119.901  1.00  0.00     0.000 C 
ENDROOT
BRANCH   1   2
ATOM      2  C   UNL     1     130.433 146.244 119.530  1.00  0.00     0.000 C 
BRANCH   2   3
ATOM      3  C   UNL     1     131.445 147.124 120.282  1.00  0.00     0.006 C 
BRANCH   3   4
ATOM      4  C   UNL     1     132.389 146.305 121.173  1.00  0.00     0.053 C 
BRANCH   4   5
ATOM      5  C   UNL     1     133.804 146.461 120.715  1.00  0.00     0.041 C 
ATOM      6  O   UNL     1     134.690 146.855 121.518  1.00  0.00    -0.550 OA
ATOM      7  O   UNL     1     134.137 146.219 119.388  1.00  0.00    -0.550 OA
ENDBRANCH   4   5
ENDBRANCH   3   4
ENDBRANCH   2   3
ENDBRANCH   1   2
BRANCH   1   8
ATOM      8  C   UNL     1     129.383 143.917 119.362  1.00  0.00     0.000 C 
BRANCH   8   9
ATOM      9  C   UNL     1     128.132 144.761 119.075  1.00  0.00    -0.000 C 
BRANCH   9  10
ATOM     10  C   UNL     1     127.215 144.817 120.305  1.00  0.00    -0.000 C 
BRANCH  10  11
ATOM     11  C   UNL     1     126.879 146.256 120.729  1.00  0.00    -0.000 C 
BRANCH  11  12
ATOM     12  C   UNL     1     127.021 146.476 122.241  1.00  0.00    -0.003 C 
ATOM     13  C   UNL     1     128.483 146.385 122.674  1.00  0.00     0.004 C 
ENDBRANCH  11  12
ENDBRANCH  10  11
ENDBRANCH   9  10
ENDBRANCH   8   9
ENDBRANCH   1   8
TORSDOF 9
ENDMDL
MODEL 3
REMARK VINA RESULT:    -3.174      2.887      5.102
REMARK INTER + INTRA:          -6.250
REMARK INTER:                  -5.127
REMARK INTRA:                  -1.123
REMARK UNBOUND:                -1.407
REMARK SMILES CCCCCCCCCCC(=O)[O-]
REMARK SMILES IDX 7 1 8 2 9 3 10 4 11 5 12 6 13 7 6 8 5 9 4 10 3 11 2 12 1 13
REMARK H PARENT
REMARK Flexibility Score: inf
ROOT
ATOM      1  C   UNL     1     130.174 145.269 122.040  1.00  0.00     0.000 C 
ENDROOT
BRANCH   1   2
ATOM      2  C   UNL     1     130.753 146.466 121.267  1.00  0.00     0.000 C 
BRANCH   2   3
ATOM      3  C   UNL     1     131.292 146.070 119.883  1.00  0.00     0.006 C 
BRANCH   3   4
ATOM      4  C   UNL     1     132.632 145.327 119.964  1.00  0.00     0.053 C 
BRANCH   4   5
ATOM      5  C   UNL     1     133.771 146.297 119.916  1.00  0.00     0.041 C 
ATOM      6  O   UNL     1     134.281 146.620 118.812  1.00  0.00    -0.550 OA
ATOM      7  O   UNL     1     134.301 146.806 121.095  1.00  0.00    -0.550 OA
ENDBRANCH   4   5
ENDBRANCH   3   4
ENDBRANCH   2   3
ENDBRANCH   1   2
BRANCH   1   8
ATOM      8  C   UNL     1     128.931 145.644 122.865  1.00  0.00     0.000 C 
BRANCH   8   9
ATOM      9  C   UNL     1     127.815 146.257 122.007  1.00  0.00    -0.000 C 
BRANCH   9  10
ATOM     10  C   UNL     1     127.258 145.227 121.014  1.00  0.00    -0.000 C 
BRANCH  10  11
ATOM     11  C   UNL     1     127.194 145.764 119.575  1.00  0.00    -0.000 C 
BRANCH  11  12
ATOM     12  C   UNL     1     127.946 144.871 118.578  1.00  0.00    -0.003 C 
ATOM     13  C   UNL     1     128.506 143.629 119.267  1.00  0.00     0.004 C 
ENDBRANCH  11  12
ENDBRANCH  10  11
ENDBRANCH   9  10
ENDBRANCH   8   9
ENDBRANCH   1   8
TORSDOF 9
ENDMDL
MODEL 4
REMARK VINA RESULT:    -3.171      1.911      3.844
REMARK INTER + INTRA:          -6.246
REMARK INTER:                  -5.029
REMARK INTRA:                  -1.216
REMARK UNBOUND:                -1.407
REMARK SMILES CCCCCCCCCCC(=O)[O-]
REMARK SMILES IDX 7 1 8 2 9 3 10 4 11 5 12 6 13 7 6 8 5 9 4 10 3 11 2 12 1 13
REMARK H PARENT
REMARK Flexibility Score: inf
ROOT
ATOM      1  C   UNL     1     126.962 146.092 122.022  1.00  0.00     0.000 C 
ENDROOT
BRANCH   1   2
ATOM      2  C   UNL     1     127.557 147.040 123.078  1.00  0.00     0.000 C 
BRANCH   2   3
ATOM      3  C   UNL     1     128.913 146.551 123.613  1.00  0.00     0.006 C 
BRANCH   3   4
ATOM      4  C   UNL     1     129.470 145.367 122.812  1.00  0.00     0.053 C 
BRANCH   4   5
ATOM      5  C   UNL     1     130.689 145.779 122.049  1.00  0.00     0.041 C 
ATOM      6  O   UNL     1     130.777 146.941 121.574  1.00  0.00    -0.550 OA
ATOM      7  O   UNL     1     131.709 144.864 121.821  1.00  0.00    -0.550 OA
ENDBRANCH   4   5
ENDBRANCH   3   4
ENDBRANCH   2   3
ENDBRANCH   1   2
BRANCH   1   8
ATOM      8  C   UNL     1     126.877 146.739 120.630  1.00  0.00     0.000 C 
BRANCH   8   9
ATOM      9  C   UNL     1     126.959 145.710 119.493  1.00  0.00    -0.000 C 
BRANCH   9  10
ATOM     10  C   UNL     1     128.418 145.326 119.206  1.00  0.00    -0.000 C 
BRANCH  10  11
ATOM     11  C   UNL     1     128.691 143.829 119.429  1.00  0.00    -0.000 C 
BRANCH  11  12
ATOM     12  C   UNL     1     127.472 143.082 119.986  1.00  0.00    -0.003 C 
ATOM     13  C   UNL     1     127.802 142.407 121.316  1.00  0.00     0.004 C 
ENDBRANCH  11  12
ENDBRANCH  10  11
ENDBRANCH   9  10
ENDBRANCH   8   9
ENDBRANCH   1   8
TORSDOF 9
ENDMDL
MODEL 5
REMARK VINA RESULT:    -3.165      2.538      4.523
REMARK INTER + INTRA:          -6.237
REMARK INTER:                  -4.931
REMARK INTRA:                  -1.306
REMARK UNBOUND:                -1.407
REMARK SMILES CCCCCCCCCCC(=O)[O-]
REMARK SMILES IDX 7 1 8 2 9 3 10 4 11 5 12 6 13 7 6 8 5 9 4 10 3 11 2 12 1 13
REMARK H PARENT
REMARK Flexibility Score: inf
ROOT
ATOM      1  C   UNL     1     128.261 146.375 122.383  1.00  0.00     0.000 C 
ENDROOT
BRANCH   1   2
ATOM      2  C   UNL     1     129.477 145.442 122.517  1.00  0.00     0.000 C 
BRANCH   2   3
ATOM      3  C   UNL     1     130.798 146.135 122.146  1.00  0.00     0.006 C 
BRANCH   3   4
ATOM      4  C   UNL     1     130.941 146.357 120.635  1.00  0.00     0.053 C 
BRANCH   4   5
ATOM      5  C   UNL     1     132.260 145.839 120.154  1.00  0.00     0.041 C 
ATOM      6  O   UNL     1     132.346 144.681 119.669  1.00  0.00    -0.550 OA
ATOM      7  O   UNL     1     133.403 146.616 120.288  1.00  0.00    -0.550 OA
ENDBRANCH   4   5
ENDBRANCH   3   4
ENDBRANCH   2   3
ENDBRANCH   1   2
BRANCH   1   8
ATOM      8  C   UNL     1     127.147 145.772 121.512  1.00  0.00     0.000 C 
BRANCH   8   9
ATOM      9  C   UNL     1     127.023 146.465 120.147  1.00  0.00    -0.000 C 
BRANCH   9  10
ATOM     10  C   UNL     1     127.271 145.471 119.004  1.00  0.00    -0.000 C 
BRANCH  10  11
ATOM     11  C   UNL     1     127.588 144.053 119.508  1.00  0.00    -0.000 C 
BRANCH  11  12
ATOM     12  C   UNL     1     129.018 143.610 119.168  1.00  0.00    -0.003 C 
ATOM     13  C   UNL     1     129.515 142.556 120.154  1.00  0.00     0.004 C 
ENDBRANCH  11  12
ENDBRANCH  10  11
ENDBRANCH   9  10
ENDBRANCH   8   9
ENDBRANCH   1   8
TORSDOF 9
ENDMDL
MODEL 6
REMARK VINA RESULT:    -3.162      2.189      3.604
REMARK INTER + INTRA:          -6.233
REMARK INTER:                  -5.400
REMARK INTRA:                  -0.833
REMARK UNBOUND:                -1.407
REMARK SMILES CCCCCCCCCCC(=O)[O-]
REMARK SMILES IDX 7 1 8 2 9 3 10 4 11 5 12 6 13 7 6 8 5 9 4 10 3 11 2 12 1 13
REMARK H PARENT
REMARK Flexibility Score: inf
ROOT
ATOM      1  C   UNL     1     130.872 144.841 120.296  1.00  0.00     0.000 C 
ENDROOT
BRANCH   1   2
ATOM      2  C   UNL     1     130.116 143.723 119.557  1.00  0.00     0.000 C 
BRANCH   2   3
ATOM      3  C   UNL     1     128.728 144.170 119.072  1.00  0.00     0.006 C 
BRANCH   3   4
ATOM      4  C   UNL     1     127.588 143.505 119.855  1.00  0.00     0.053 C 
BRANCH   4   5
ATOM      5  C   UNL     1     127.429 144.150 121.195  1.00  0.00     0.041 C 
ATOM      6  O   UNL     1     127.203 145.385 121.280  1.00  0.00    -0.550 OA
ATOM      7  O   UNL     1     127.578 143.397 122.352  1.00  0.00    -0.550 OA
ENDBRANCH   4   5
ENDBRANCH   3   4
ENDBRANCH   2   3
ENDBRANCH   1   2
BRANCH   1   8
ATOM      8  C   UNL     1     130.553 146.238 119.740  1.00  0.00     0.000 C 
BRANCH   8   9
ATOM      9  C   UNL     1     131.810 147.094 119.530  1.00  0.00    -0.000 C 
BRANCH   9  10
ATOM     10  C   UNL     1     133.078 146.295 119.865  1.00  0.00    -0.000 C 
BRANCH  10  11
ATOM     11  C   UNL     1     134.226 146.564 118.879  1.00  0.00    -0.000 C 
BRANCH  11  12
ATOM     12  C   UNL     1     135.015 145.295 118.529  1.00  0.00    -0.003 C 
ATOM     13  C   UNL     1     134.175 144.043 118.772  1.00  0.00     0.004 C 
ENDBRANCH  11  12
ENDBRANCH  10  11
ENDBRANCH   9  10
ENDBRANCH   8   9
ENDBRANCH   1   8
TORSDOF 9
ENDMDL
MODEL 7
REMARK VINA RESULT:    -3.116      1.495      2.610
REMARK INTER + INTRA:          -6.163
REMARK INTER:                  -5.187
REMARK INTRA:                  -0.975
REMARK UNBOUND:                -1.407
REMARK SMILES CCCCCCCCCCC(=O)[O-]
REMARK SMILES IDX 7 1 8 2 9 3 10 4 11 5 12 6 13 7 6 8 5 9 4 10 3 11 2 12 1 13
REMARK H PARENT
REMARK Flexibility Score: inf
ROOT
ATOM      1  C   UNL     1     127.229 144.944 121.043  1.00  0.00     0.000 C 
ENDROOT
BRANCH   1   2
ATOM      2  C   UNL     1     127.222 146.076 122.085  1.00  0.00     0.000 C 
BRANCH   2   3
ATOM      3  C   UNL     1     128.633 146.432 122.580  1.00  0.00     0.006 C 
BRANCH   3   4
ATOM      4  C   UNL     1     128.664 146.767 124.077  1.00  0.00     0.053 C 
BRANCH   4   5
ATOM      5  C   UNL     1     130.062 146.679 124.602  1.00  0.00     0.041 C 
ATOM      6  O   UNL     1     130.267 146.423 125.817  1.00  0.00    -0.550 OA
ATOM      7  O   UNL     1     131.139 146.927 123.760  1.00  0.00    -0.550 OA
ENDBRANCH   4   5
ENDBRANCH   3   4
ENDBRANCH   2   3
ENDBRANCH   1   2
BRANCH   1   8
ATOM      8  C   UNL     1     127.304 145.471 119.600  1.00  0.00     0.000 C 
BRANCH   8   9
ATOM      9  C   UNL     1     128.041 144.509 118.657  1.00  0.00    -0.000 C 
BRANCH   9  10
ATOM     10  C   UNL     1     128.803 143.439 119.451  1.00  0.00    -0.000 C 
BRANCH  10  11
ATOM     11  C   UNL     1     130.329 143.585 119.330  1.00  0.00    -0.000 C 
BRANCH  11  12
ATOM     12  C   UNL     1     130.930 144.457 120.441  1.00  0.00    -0.003 C 
ATOM     13  C   UNL     1     131.196 145.875 119.942  1.00  0.00     0.004 C 
ENDBRANCH  11  12
ENDBRANCH  10  11
ENDBRANCH   9  10
ENDBRANCH   8   9
ENDBRANCH   1   8
TORSDOF 9
ENDMDL
MODEL 8
REMARK VINA RESULT:    -3.106      1.058      3.245
REMARK INTER + INTRA:          -6.147
REMARK INTER:                  -4.817
REMARK INTRA:                  -1.330
REMARK UNBOUND:                -1.407
REMARK SMILES CCCCCCCCCCC(=O)[O-]
REMARK SMILES IDX 7 1 8 2 9 3 10 4 11 5 12 6 13 7 6 8 5 9 4 10 3 11 2 12 1 13
REMARK H PARENT
REMARK Flexibility Score: inf
ROOT
ATOM      1  C   UNL     1     131.322 144.274 119.917  1.00  0.00     0.000 C 
ENDROOT
BRANCH   1   2
ATOM      2  C   UNL     1     130.972 145.761 119.738  1.00  0.00     0.000 C 
BRANCH   2   3
ATOM      3  C   UNL     1     130.388 146.388 121.015  1.00  0.00     0.006 C 
BRANCH   3   4
ATOM      4  C   UNL     1     130.780 145.617 122.282  1.00  0.00     0.053 C 
BRANCH   4   5
ATOM      5  C   UNL     1     129.693 145.707 123.306  1.00  0.00     0.041 C 
ATOM      6  O   UNL     1     128.999 144.694 123.584  1.00  0.00    -0.550 OA
ATOM      7  O   UNL     1     129.413 146.922 123.918  1.00  0.00    -0.550 OA
ENDBRANCH   4   5
ENDBRANCH   3   4
ENDBRANCH   2   3
ENDBRANCH   1   2
BRANCH   1   8
ATOM      8  C   UNL     1     130.217 143.341 119.395  1.00  0.00     0.000 C 
BRANCH   8   9
ATOM      9  C   UNL     1     129.267 142.870 120.506  1.00  0.00    -0.000 C 
BRANCH   9  10
ATOM     10  C   UNL     1     127.832 143.347 120.238  1.00  0.00    -0.000 C 
BRANCH  10  11
ATOM     11  C   UNL     1     127.714 144.176 118.949  1.00  0.00    -0.000 C 
BRANCH  11  12
ATOM     12  C   UNL     1     127.261 145.619 119.214  1.00  0.00    -0.003 C 
ATOM     13  C   UNL     1     126.980 145.842 120.698  1.00  0.00     0.004 C 
ENDBRANCH  11  12
ENDBRANCH  10  11
ENDBRANCH   9  10
ENDBRANCH   8   9
ENDBRANCH   1   8
TORSDOF 9
ENDMDL
MODEL 9
REMARK VINA RESULT:    -3.097      2.346      3.996
REMARK INTER + INTRA:          -6.133
REMARK INTER:                  -5.447
REMARK INTRA:                  -0.686
REMARK UNBOUND:                -1.407
REMARK SMILES CCCCCCCCCCC(=O)[O-]
REMARK SMILES IDX 7 1 8 2 9 3 10 4 11 5 12 6 13 7 6 8 5 9 4 10 3 11 2 12 1 13
REMARK H PARENT
REMARK Flexibility Score: inf
ROOT
ATOM      1  C   UNL     1     128.304 143.778 118.883  1.00  0.00     0.000 C 
ENDROOT
BRANCH   1   2
ATOM      2  C   UNL     1     127.644 145.167 118.933  1.00  0.00     0.000 C 
BRANCH   2   3
ATOM      3  C   UNL     1     128.113 146.001 120.135  1.00  0.00     0.006 C 
BRANCH   3   4
ATOM      4  C   UNL     1     126.962 146.372 121.080  1.00  0.00     0.053 C 
BRANCH   4   5
ATOM      5  C   UNL     1     127.385 146.212 122.506  1.00  0.00     0.041 C 
ATOM      6  O   UNL     1     128.033 147.125 123.080  1.00  0.00    -0.550 OA
ATOM      7  O   UNL     1     127.105 145.034 123.186  1.00  0.00    -0.550 OA
ENDBRANCH   4   5
ENDBRANCH   3   4
ENDBRANCH   2   3
ENDBRANCH   1   2
BRANCH   1   8
ATOM      8  C   UNL     1     129.094 143.454 120.161  1.00  0.00     0.000 C 
BRANCH   8   9
ATOM      9  C   UNL     1     128.297 142.588 121.147  1.00  0.00    -0.000 C 
BRANCH   9  10
ATOM     10  C   UNL     1     127.041 142.011 120.478  1.00  0.00    -0.000 C 
BRANCH  10  11
ATOM     11  C   UNL     1     126.876 140.502 120.728  1.00  0.00    -0.000 C 
BRANCH  11  12
ATOM     12  C   UNL     1     127.944 139.664 120.012  1.00  0.00    -0.003 C 
ATOM     13  C   UNL     1     127.311 138.495 119.260  1.00  0.00     0.004 C 
ENDBRANCH  11  12
ENDBRANCH  10  11
ENDBRANCH   9  10
ENDBRANCH   8   9
ENDBRANCH   1   8
TORSDOF 9
ENDMDL
