MODEL 1
REMARK VINA RESULT:    -1.836      0.000      0.000
REMARK INTER + INTRA:          -2.191
REMARK INTER:                  -1.944
REMARK INTRA:                  -0.248
REMARK UNBOUND:                -0.248
REMARK SMILES CC(C)[C@H]1CC[C@@H](C)[C@@H]2C=C[C@H](C)C[C@@H]21
REMARK SMILES IDX 8 1 7 2 6 3 5 4 4 5 15 6 9 7 10 8 11 9 12 10 14 11 13 12
REMARK SMILES IDX 2 13 1 14 3 15
REMARK H PARENT
REMARK Flexibility Score: inf
ROOT
ATOM      1  C   UNL     1     140.098 135.896 124.164  1.00  0.00     0.008 C 
ATOM      2  C   UNL     1     138.586 135.673 123.973  1.00  0.00    -0.007 C 
ATOM      3  C   UNL     1     138.256 135.009 122.633  1.00  0.00     0.004 C 
ATOM      4  C   UNL     1     138.548 135.942 121.464  1.00  0.00     0.004 C 
ATOM      5  C   UNL     1     137.757 137.277 121.526  1.00  0.00    -0.005 C 
ATOM      6  C   UNL     1     137.893 137.981 122.931  1.00  0.00    -0.000 C 
ATOM      7  C   UNL     1     137.787 136.983 124.143  1.00  0.00     0.018 C 
ATOM      8  C   UNL     1     136.337 136.699 124.476  1.00  0.00    -0.027 C 
ATOM      9  C   UNL     1     135.495 137.726 124.616  1.00  0.00    -0.028 C 
ATOM     10  C   UNL     1     136.019 139.120 124.396  1.00  0.00     0.008 C 
ATOM     11  C   UNL     1     136.845 139.150 123.089  1.00  0.00     0.012 C 
ATOM     12  C   UNL     1     134.875 140.139 124.357  1.00  0.00     0.012 C 
ENDROOT
BRANCH   5  13
ATOM     13  C   UNL     1     138.195 138.135 120.267  1.00  0.00    -0.014 C 
ATOM     14  C   UNL     1     137.085 138.777 119.418  1.00  0.00     0.007 C 
ATOM     15  C   UNL     1     139.108 137.310 119.344  1.00  0.00     0.007 C 
ENDBRANCH   5  13
TORSDOF 1
ENDMDL
MODEL 2
REMARK VINA RESULT:    -1.426     14.090     16.269
REMARK INTER + INTRA:          -1.757
REMARK INTER:                  -1.953
REMARK INTRA:                   0.196
REMARK UNBOUND:                -0.248
REMARK SMILES CC(C)[C@H]1CC[C@@H](C)[C@@H]2C=C[C@H](C)C[C@@H]21
REMARK SMILES IDX 8 1 7 2 6 3 5 4 4 5 15 6 9 7 10 8 11 9 12 10 14 11 13 12
REMARK SMILES IDX 2 13 1 14 3 15
REMARK H PARENT
REMARK Flexibility Score: inf
ROOT
ATOM      1  C   UNL     1     134.875 153.499 120.870  1.00  0.00     0.008 C 
ATOM      2  C   UNL     1     136.161 152.766 121.296  1.00  0.00    -0.007 C 
ATOM      3  C   UNL     1     135.883 151.353 121.817  1.00  0.00     0.004 C 
ATOM      4  C   UNL     1     135.133 151.386 123.142  1.00  0.00     0.004 C 
ATOM      5  C   UNL     1     135.889 152.152 124.262  1.00  0.00    -0.005 C 
ATOM      6  C   UNL     1     136.369 153.577 123.784  1.00  0.00    -0.000 C 
ATOM      7  C   UNL     1     136.969 153.578 122.330  1.00  0.00     0.018 C 
ATOM      8  C   UNL     1     138.421 153.145 122.350  1.00  0.00    -0.027 C 
ATOM      9  C   UNL     1     139.253 153.722 123.221  1.00  0.00    -0.028 C 
ATOM     10  C   UNL     1     138.700 154.749 124.172  1.00  0.00     0.008 C 
ATOM     11  C   UNL     1     137.397 154.204 124.804  1.00  0.00     0.012 C 
ATOM     12  C   UNL     1     139.729 155.117 125.246  1.00  0.00     0.012 C 
ENDROOT
BRANCH   5  13
ATOM     13  C   UNL     1     134.967 152.119 125.551  1.00  0.00    -0.014 C 
ATOM     14  C   UNL     1     134.890 153.394 126.407  1.00  0.00     0.007 C 
ATOM     15  C   UNL     1     135.351 150.938 126.459  1.00  0.00     0.007 C 
ENDBRANCH   5  13
TORSDOF 1
ENDMDL
MODEL 3
REMARK VINA RESULT:    -1.083      1.425      3.861
REMARK INTER + INTRA:          -1.394
REMARK INTER:                  -1.482
REMARK INTRA:                   0.087
REMARK UNBOUND:                -0.248
REMARK SMILES CC(C)[C@H]1CC[C@@H](C)[C@@H]2C=C[C@H](C)C[C@@H]21
REMARK SMILES IDX 8 1 7 2 6 3 5 4 4 5 15 6 9 7 10 8 11 9 12 10 14 11 13 12
REMARK SMILES IDX 2 13 1 14 3 15
REMARK H PARENT
REMARK Flexibility Score: inf
ROOT
ATOM      1  C   UNL     1     137.389 134.877 121.187  1.00  0.00     0.008 C 
ATOM      2  C   UNL     1     137.865 136.329 121.378  1.00  0.00    -0.007 C 
ATOM      3  C   UNL     1     139.330 136.412 121.815  1.00  0.00     0.004 C 
ATOM      4  C   UNL     1     139.520 135.871 123.227  1.00  0.00     0.004 C 
ATOM      5  C   UNL     1     138.676 136.619 124.295  1.00  0.00    -0.005 C 
ATOM      6  C   UNL     1     137.160 136.737 123.874  1.00  0.00    -0.000 C 
ATOM      7  C   UNL     1     136.960 137.106 122.358  1.00  0.00     0.018 C 
ATOM      8  C   UNL     1     137.088 138.602 122.151  1.00  0.00    -0.027 C 
ATOM      9  C   UNL     1     136.399 139.423 122.947  1.00  0.00    -0.028 C 
ATOM     10  C   UNL     1     135.558 138.825 124.043  1.00  0.00     0.008 C 
ATOM     11  C   UNL     1     136.390 137.760 124.796  1.00  0.00     0.012 C 
ATOM     12  C   UNL     1     135.044 139.908 124.997  1.00  0.00     0.012 C 
ENDROOT
BRANCH   5  13
ATOM     13  C   UNL     1     138.964 135.919 125.687  1.00  0.00    -0.014 C 
ATOM     14  C   UNL     1     140.092 134.875 125.743  1.00  0.00     0.007 C 
ATOM     15  C   UNL     1     137.679 135.286 126.249  1.00  0.00     0.007 C 
ENDBRANCH   5  13
TORSDOF 1
ENDMDL
MODEL 4
REMARK VINA RESULT:    -0.833     13.580     15.910
REMARK INTER + INTRA:          -1.130
REMARK INTER:                  -0.861
REMARK INTRA:                  -0.268
REMARK UNBOUND:                -0.248
REMARK SMILES CC(C)[C@H]1CC[C@@H](C)[C@@H]2C=C[C@H](C)C[C@@H]21
REMARK SMILES IDX 8 1 7 2 6 3 5 4 4 5 15 6 9 7 10 8 11 9 12 10 14 11 13 12
REMARK SMILES IDX 2 13 1 14 3 15
REMARK H PARENT
REMARK Flexibility Score: inf
ROOT
ATOM      1  C   UNL     1     135.396 150.574 123.493  1.00  0.00     0.008 C 
ATOM      2  C   UNL     1     135.364 152.113 123.541  1.00  0.00    -0.007 C 
ATOM      3  C   UNL     1     134.878 152.730 122.226  1.00  0.00     0.004 C 
ATOM      4  C   UNL     1     135.885 152.510 121.104  1.00  0.00     0.004 C 
ATOM      5  C   UNL     1     137.287 153.107 121.405  1.00  0.00    -0.005 C 
ATOM      6  C   UNL     1     137.827 152.664 122.819  1.00  0.00    -0.000 C 
ATOM      7  C   UNL     1     136.731 152.704 123.947  1.00  0.00     0.018 C 
ATOM      8  C   UNL     1     136.578 154.108 124.494  1.00  0.00    -0.027 C 
ATOM      9  C   UNL     1     137.674 154.781 124.856  1.00  0.00    -0.028 C 
ATOM     10  C   UNL     1     139.016 154.126 124.664  1.00  0.00     0.008 C 
ATOM     11  C   UNL     1     139.084 153.518 123.244  1.00  0.00     0.012 C 
ATOM     12  C   UNL     1     140.154 155.124 124.899  1.00  0.00     0.012 C 
ENDROOT
BRANCH   5  13
ATOM     13  C   UNL     1     138.212 152.766 120.163  1.00  0.00    -0.014 C 
ATOM     14  C   UNL     1     138.750 153.941 119.330  1.00  0.00     0.007 C 
ATOM     15  C   UNL     1     137.506 151.776 119.221  1.00  0.00     0.007 C 
ENDBRANCH   5  13
TORSDOF 1
ENDMDL
MODEL 5
REMARK VINA RESULT:    -0.451     12.841     15.698
REMARK INTER + INTRA:          -0.725
REMARK INTER:                  -0.448
REMARK INTRA:                  -0.277
REMARK UNBOUND:                -0.248
REMARK SMILES CC(C)[C@H]1CC[C@@H](C)[C@@H]2C=C[C@H](C)C[C@@H]21
REMARK SMILES IDX 8 1 7 2 6 3 5 4 4 5 15 6 9 7 10 8 11 9 12 10 14 11 13 12
REMARK SMILES IDX 2 13 1 14 3 15
REMARK H PARENT
REMARK Flexibility Score: inf
ROOT
ATOM      1  C   UNL     1     135.166 153.028 121.097  1.00  0.00     0.008 C 
ATOM      2  C   UNL     1     134.876 152.894 122.603  1.00  0.00    -0.007 C 
ATOM      3  C   UNL     1     135.059 154.217 123.354  1.00  0.00     0.004 C 
ATOM      4  C   UNL     1     136.524 154.636 123.390  1.00  0.00     0.004 C 
ATOM      5  C   UNL     1     137.451 153.589 124.065  1.00  0.00    -0.005 C 
ATOM      6  C   UNL     1     137.234 152.141 123.476  1.00  0.00    -0.000 C 
ATOM      7  C   UNL     1     135.720 151.777 123.253  1.00  0.00     0.018 C 
ATOM      8  C   UNL     1     135.090 151.298 124.545  1.00  0.00    -0.027 C 
ATOM      9  C   UNL     1     135.716 150.359 125.257  1.00  0.00    -0.028 C 
ATOM     10  C   UNL     1     137.043 149.848 124.764  1.00  0.00     0.008 C 
ATOM     11  C   UNL     1     137.935 151.049 124.374  1.00  0.00     0.012 C 
ATOM     12  C   UNL     1     137.722 148.968 125.819  1.00  0.00     0.012 C 
ENDROOT
BRANCH   5  13
ATOM     13  C   UNL     1     138.927 154.161 123.992  1.00  0.00    -0.014 C 
ATOM     14  C   UNL     1     139.492 154.842 125.250  1.00  0.00     0.007 C 
ATOM     15  C   UNL     1     139.074 155.124 122.802  1.00  0.00     0.007 C 
ENDBRANCH   5  13
TORSDOF 1
ENDMDL
MODEL 6
REMARK VINA RESULT:     0.628     13.878     16.187
REMARK INTER + INTRA:           0.417
REMARK INTER:                   0.688
REMARK INTRA:                  -0.271
REMARK UNBOUND:                -0.248
REMARK SMILES CC(C)[C@H]1CC[C@@H](C)[C@@H]2C=C[C@H](C)C[C@@H]21
REMARK SMILES IDX 8 1 7 2 6 3 5 4 4 5 15 6 9 7 10 8 11 9 12 10 14 11 13 12
REMARK SMILES IDX 2 13 1 14 3 15
REMARK H PARENT
REMARK Flexibility Score: inf
ROOT
ATOM      1  C   UNL     1     154.656 136.942 120.834  1.00  0.00     0.008 C 
ATOM      2  C   UNL     1     155.125 137.282 122.261  1.00  0.00    -0.007 C 
ATOM      3  C   UNL     1     155.060 136.075 123.202  1.00  0.00     0.004 C 
ATOM      4  C   UNL     1     153.619 135.662 123.476  1.00  0.00     0.004 C 
ATOM      5  C   UNL     1     152.762 136.790 124.111  1.00  0.00    -0.005 C 
ATOM      6  C   UNL     1     152.877 138.144 123.309  1.00  0.00    -0.000 C 
ATOM      7  C   UNL     1     154.346 138.476 122.853  1.00  0.00     0.018 C 
ATOM      8  C   UNL     1     155.120 139.129 123.979  1.00  0.00    -0.027 C 
ATOM      9  C   UNL     1     154.568 140.157 124.629  1.00  0.00    -0.028 C 
ATOM     10  C   UNL     1     153.181 140.593 124.239  1.00  0.00     0.008 C 
ATOM     11  C   UNL     1     152.271 139.347 124.130  1.00  0.00     0.012 C 
ATOM     12  C   UNL     1     152.620 141.608 125.241  1.00  0.00     0.012 C 
ENDROOT
BRANCH   5  13
ATOM     13  C   UNL     1     151.299 136.211 124.300  1.00  0.00    -0.014 C 
ATOM     14  C   UNL     1     150.806 135.968 125.737  1.00  0.00     0.007 C 
ATOM     15  C   UNL     1     151.125 134.912 123.493  1.00  0.00     0.007 C 
ENDBRANCH   5  13
TORSDOF 1
ENDMDL
