MODEL 1
REMARK VINA RESULT:    -3.445      0.000      0.000
REMARK INTER + INTRA:          -8.233
REMARK INTER:                  -6.264
REMARK INTRA:                  -1.969
REMARK UNBOUND:                -1.969
REMARK SMILES CCCCCCCCCCCCCCCC(=O)[O-]
REMARK SMILES IDX 9 1 10 2 11 3 12 4 13 5 14 6 15 7 16 8 17 9 18 10 8 11 7 12
REMARK SMILES IDX 6 13 5 14 4 15 3 16 2 17 1 18
REMARK H PARENT
REMARK Flexibility Score: inf
ROOT
ATOM      1  C   UNL     1     -19.368  43.078  -9.443  1.00  0.00     0.000 C 
ENDROOT
BRANCH   1   2
ATOM      2  C   UNL     1     -19.409  44.513  -8.905  1.00  0.00     0.000 C 
BRANCH   2   3
ATOM      3  C   UNL     1     -18.757  44.603  -7.520  1.00  0.00     0.000 C 
BRANCH   3   4
ATOM      4  C   UNL     1     -17.966  43.328  -7.202  1.00  0.00     0.000 C 
BRANCH   4   5
ATOM      5  C   UNL     1     -16.652  43.662  -6.481  1.00  0.00     0.000 C 
BRANCH   5   6
ATOM      6  C   UNL     1     -16.653  43.243  -4.999  1.00  0.00     0.006 C 
BRANCH   6   7
ATOM      7  C   UNL     1     -17.771  42.252  -4.631  1.00  0.00     0.053 C 
BRANCH   7   8
ATOM      8  C   UNL     1     -18.749  42.826  -3.650  1.00  0.00     0.041 C 
ATOM      9  O   UNL     1     -19.596  42.080  -3.092  1.00  0.00    -0.550 OA
ATOM     10  O   UNL     1     -18.704  44.176  -3.327  1.00  0.00    -0.550 OA
ENDBRANCH   7   8
ENDBRANCH   6   7
ENDBRANCH   5   6
ENDBRANCH   4   5
ENDBRANCH   3   4
ENDBRANCH   2   3
ENDBRANCH   1   2
BRANCH   1  11
ATOM     11  C   UNL     1     -18.772  43.039 -10.858  1.00  0.00     0.000 C 
BRANCH  11  12
ATOM     12  C   UNL     1     -17.664  44.085 -11.066  1.00  0.00    -0.000 C 
BRANCH  12  13
ATOM     13  C   UNL     1     -16.259  43.517 -10.803  1.00  0.00    -0.000 C 
BRANCH  13  14
ATOM     14  C   UNL     1     -15.335  44.538 -10.120  1.00  0.00    -0.000 C 
BRANCH  14  15
ATOM     15  C   UNL     1     -16.042  45.876  -9.837  1.00  0.00    -0.000 C 
BRANCH  15  16
ATOM     16  C   UNL     1     -15.671  46.448  -8.453  1.00  0.00    -0.000 C 
BRANCH  16  17
ATOM     17  C   UNL     1     -14.770  47.693  -8.523  1.00  0.00    -0.003 C 
ATOM     18  C   UNL     1     -14.701  48.458  -7.204  1.00  0.00     0.004 C 
ENDBRANCH  16  17
ENDBRANCH  15  16
ENDBRANCH  14  15
ENDBRANCH  13  14
ENDBRANCH  12  13
ENDBRANCH  11  12
ENDBRANCH   1  11
TORSDOF 14
ENDMDL
MODEL 2
REMARK VINA RESULT:    -3.354      2.797      5.889
REMARK INTER + INTRA:          -8.068
REMARK INTER:                  -6.418
REMARK INTRA:                  -1.650
REMARK UNBOUND:                -1.969
REMARK SMILES CCCCCCCCCCCCCCCC(=O)[O-]
REMARK SMILES IDX 9 1 10 2 11 3 12 4 13 5 14 6 15 7 16 8 17 9 18 10 8 11 7 12
REMARK SMILES IDX 6 13 5 14 4 15 3 16 2 17 1 18
REMARK H PARENT
REMARK Flexibility Score: inf
ROOT
ATOM      1  C   UNL     1     -19.128  42.939  -9.555  1.00  0.00     0.000 C 
ENDROOT
BRANCH   1   2
ATOM      2  C   UNL     1     -18.484  42.982 -10.946  1.00  0.00     0.000 C 
BRANCH   2   3
ATOM      3  C   UNL     1     -16.955  43.016 -10.844  1.00  0.00     0.000 C 
BRANCH   3   4
ATOM      4  C   UNL     1     -16.416  44.425 -11.121  1.00  0.00     0.000 C 
BRANCH   4   5
ATOM      5  C   UNL     1     -15.451  44.873 -10.015  1.00  0.00     0.000 C 
BRANCH   5   6
ATOM      6  C   UNL     1     -15.737  46.298  -9.504  1.00  0.00     0.006 C 
BRANCH   6   7
ATOM      7  C   UNL     1     -14.480  47.174  -9.363  1.00  0.00     0.053 C 
BRANCH   7   8
ATOM      8  C   UNL     1     -14.759  48.474  -8.671  1.00  0.00     0.041 C 
ATOM      9  O   UNL     1     -15.011  49.509  -9.345  1.00  0.00    -0.550 OA
ATOM     10  O   UNL     1     -14.775  48.539  -7.284  1.00  0.00    -0.550 OA
ENDBRANCH   7   8
ENDBRANCH   6   7
ENDBRANCH   5   6
ENDBRANCH   4   5
ENDBRANCH   3   4
ENDBRANCH   2   3
ENDBRANCH   1   2
BRANCH   1  11
ATOM     11  C   UNL     1     -19.465  44.354  -9.062  1.00  0.00     0.000 C 
BRANCH  11  12
ATOM     12  C   UNL     1     -18.690  44.741  -7.792  1.00  0.00    -0.000 C 
BRANCH  12  13
ATOM     13  C   UNL     1     -18.007  43.534  -7.125  1.00  0.00    -0.000 C 
BRANCH  13  14
ATOM     14  C   UNL     1     -16.569  43.847  -6.683  1.00  0.00    -0.000 C 
BRANCH  14  15
ATOM     15  C   UNL     1     -16.279  43.377  -5.246  1.00  0.00    -0.000 C 
BRANCH  15  16
ATOM     16  C   UNL     1     -17.441  42.548  -4.660  1.00  0.00    -0.000 C 
BRANCH  16  17
ATOM     17  C   UNL     1     -18.262  43.304  -3.600  1.00  0.00    -0.003 C 
ATOM     18  C   UNL     1     -19.418  42.479  -3.038  1.00  0.00     0.004 C 
ENDBRANCH  16  17
ENDBRANCH  15  16
ENDBRANCH  14  15
ENDBRANCH  13  14
ENDBRANCH  12  13
ENDBRANCH  11  12
ENDBRANCH   1  11
TORSDOF 14
ENDMDL
MODEL 3
REMARK VINA RESULT:    -3.198      3.347      6.071
REMARK INTER + INTRA:          -7.785
REMARK INTER:                  -6.075
REMARK INTRA:                  -1.709
REMARK UNBOUND:                -1.969
REMARK SMILES CCCCCCCCCCCCCCCC(=O)[O-]
REMARK SMILES IDX 9 1 10 2 11 3 12 4 13 5 14 6 15 7 16 8 17 9 18 10 8 11 7 12
REMARK SMILES IDX 6 13 5 14 4 15 3 16 2 17 1 18
REMARK H PARENT
REMARK Flexibility Score: inf
ROOT
ATOM      1  C   UNL     1     -18.192  43.961 -10.602  1.00  0.00     0.000 C 
ENDROOT
BRANCH   1   2
ATOM      2  C   UNL     1     -18.379  45.478 -10.721  1.00  0.00     0.000 C 
BRANCH   2   3
ATOM      3  C   UNL     1     -17.027  46.194 -10.832  1.00  0.00     0.000 C 
BRANCH   3   4
ATOM      4  C   UNL     1     -15.868  45.193 -10.763  1.00  0.00     0.000 C 
BRANCH   4   5
ATOM      5  C   UNL     1     -14.918  45.529  -9.604  1.00  0.00     0.000 C 
BRANCH   5   6
ATOM      6  C   UNL     1     -15.442  46.664  -8.704  1.00  0.00     0.006 C 
BRANCH   6   7
ATOM      7  C   UNL     1     -14.412  47.776  -8.440  1.00  0.00     0.053 C 
BRANCH   7   8
ATOM      8  C   UNL     1     -14.807  49.084  -9.057  1.00  0.00     0.041 C 
ATOM      9  O   UNL     1     -14.939  50.109  -8.337  1.00  0.00    -0.550 OA
ATOM     10  O   UNL     1     -14.995  49.181 -10.430  1.00  0.00    -0.550 OA
ENDBRANCH   7   8
ENDBRANCH   6   7
ENDBRANCH   5   6
ENDBRANCH   4   5
ENDBRANCH   3   4
ENDBRANCH   2   3
ENDBRANCH   1   2
BRANCH   1  11
ATOM     11  C   UNL     1     -18.894  43.418  -9.349  1.00  0.00     0.000 C 
BRANCH  11  12
ATOM     12  C   UNL     1     -19.009  44.465  -8.230  1.00  0.00    -0.000 C 
BRANCH  12  13
ATOM     13  C   UNL     1     -18.428  43.969  -6.894  1.00  0.00    -0.000 C 
BRANCH  13  14
ATOM     14  C   UNL     1     -16.905  43.768  -6.959  1.00  0.00    -0.000 C 
BRANCH  14  15
ATOM     15  C   UNL     1     -16.313  43.315  -5.612  1.00  0.00    -0.000 C 
BRANCH  15  16
ATOM     16  C   UNL     1     -17.256  42.358  -4.854  1.00  0.00    -0.000 C 
BRANCH  16  17
ATOM     17  C   UNL     1     -17.827  42.956  -3.557  1.00  0.00    -0.003 C 
ATOM     18  C   UNL     1     -19.228  42.447  -3.227  1.00  0.00     0.004 C 
ENDBRANCH  16  17
ENDBRANCH  15  16
ENDBRANCH  14  15
ENDBRANCH  13  14
ENDBRANCH  12  13
ENDBRANCH  11  12
ENDBRANCH   1  11
TORSDOF 14
ENDMDL
MODEL 4
REMARK VINA RESULT:    -3.139      1.043      1.746
REMARK INTER + INTRA:          -7.677
REMARK INTER:                  -6.422
REMARK INTRA:                  -1.256
REMARK UNBOUND:                -1.969
REMARK SMILES CCCCCCCCCCCCCCCC(=O)[O-]
REMARK SMILES IDX 9 1 10 2 11 3 12 4 13 5 14 6 15 7 16 8 17 9 18 10 8 11 7 12
REMARK SMILES IDX 6 13 5 14 4 15 3 16 2 17 1 18
REMARK H PARENT
REMARK Flexibility Score: inf
ROOT
ATOM      1  C   UNL     1     -19.194  45.040 -10.115  1.00  0.00     0.000 C 
ENDROOT
BRANCH   1   2
ATOM      2  C   UNL     1     -19.512  43.943  -9.092  1.00  0.00     0.000 C 
BRANCH   2   3
ATOM      3  C   UNL     1     -18.230  43.402  -8.448  1.00  0.00     0.000 C 
BRANCH   3   4
ATOM      4  C   UNL     1     -18.100  43.879  -6.996  1.00  0.00     0.000 C 
BRANCH   4   5
ATOM      5  C   UNL     1     -16.685  43.626  -6.457  1.00  0.00     0.000 C 
BRANCH   5   6
ATOM      6  C   UNL     1     -16.674  43.091  -5.013  1.00  0.00     0.006 C 
BRANCH   6   7
ATOM      7  C   UNL     1     -17.884  42.206  -4.667  1.00  0.00     0.053 C 
BRANCH   7   8
ATOM      8  C   UNL     1     -18.777  42.827  -3.637  1.00  0.00     0.041 C 
ATOM      9  O   UNL     1     -19.574  42.111  -2.975  1.00  0.00    -0.550 OA
ATOM     10  O   UNL     1     -18.706  44.191  -3.382  1.00  0.00    -0.550 OA
ENDBRANCH   7   8
ENDBRANCH   6   7
ENDBRANCH   5   6
ENDBRANCH   4   5
ENDBRANCH   3   4
ENDBRANCH   2   3
ENDBRANCH   1   2
BRANCH   1  11
ATOM     11  C   UNL     1     -17.851  44.772 -10.809  1.00  0.00     0.000 C 
BRANCH  11  12
ATOM     12  C   UNL     1     -16.879  45.959 -10.702  1.00  0.00    -0.000 C 
BRANCH  12  13
ATOM     13  C   UNL     1     -15.642  45.633  -9.847  1.00  0.00    -0.000 C 
BRANCH  13  14
ATOM     14  C   UNL     1     -15.605  46.442  -8.540  1.00  0.00    -0.000 C 
BRANCH  14  15
ATOM     15  C   UNL     1     -14.438  47.445  -8.500  1.00  0.00    -0.000 C 
BRANCH  15  16
ATOM     16  C   UNL     1     -14.799  48.725  -7.717  1.00  0.00    -0.000 C 
BRANCH  16  17
ATOM     17  C   UNL     1     -14.672  50.012  -8.551  1.00  0.00    -0.003 C 
ATOM     18  C   UNL     1     -15.061  51.269  -7.777  1.00  0.00     0.004 C 
ENDBRANCH  16  17
ENDBRANCH  15  16
ENDBRANCH  14  15
ENDBRANCH  13  14
ENDBRANCH  12  13
ENDBRANCH  11  12
ENDBRANCH   1  11
TORSDOF 14
ENDMDL
MODEL 5
REMARK VINA RESULT:    -3.046      2.830      6.190
REMARK INTER + INTRA:          -7.508
REMARK INTER:                  -5.727
REMARK INTRA:                  -1.781
REMARK UNBOUND:                -1.969
REMARK SMILES CCCCCCCCCCCCCCCC(=O)[O-]
REMARK SMILES IDX 9 1 10 2 11 3 12 4 13 5 14 6 15 7 16 8 17 9 18 10 8 11 7 12
REMARK SMILES IDX 6 13 5 14 4 15 3 16 2 17 1 18
REMARK H PARENT
REMARK Flexibility Score: inf
ROOT
ATOM      1  C   UNL     1     -19.127  44.639  -7.312  1.00  0.00     0.000 C 
ENDROOT
BRANCH   1   2
ATOM      2  C   UNL     1     -20.139  44.581  -8.462  1.00  0.00     0.000 C 
BRANCH   2   3
ATOM      3  C   UNL     1     -19.584  43.778  -9.645  1.00  0.00     0.000 C 
BRANCH   3   4
ATOM      4  C   UNL     1     -19.231  44.699 -10.818  1.00  0.00     0.000 C 
BRANCH   4   5
ATOM      5  C   UNL     1     -17.710  44.836 -10.973  1.00  0.00     0.000 C 
BRANCH   5   6
ATOM      6  C   UNL     1     -17.174  46.198 -10.491  1.00  0.00     0.006 C 
BRANCH   6   7
ATOM      7  C   UNL     1     -15.645  46.243 -10.325  1.00  0.00     0.053 C 
BRANCH   7   8
ATOM      8  C   UNL     1     -15.187  47.426  -9.528  1.00  0.00     0.041 C 
ATOM      9  O   UNL     1     -14.793  48.470 -10.112  1.00  0.00    -0.550 OA
ATOM     10  O   UNL     1     -15.227  47.391  -8.140  1.00  0.00    -0.550 OA
ENDBRANCH   7   8
ENDBRANCH   6   7
ENDBRANCH   5   6
ENDBRANCH   4   5
ENDBRANCH   3   4
ENDBRANCH   2   3
ENDBRANCH   1   2
BRANCH   1  11
ATOM     11  C   UNL     1     -18.042  43.564  -7.480  1.00  0.00     0.000 C 
BRANCH  11  12
ATOM     12  C   UNL     1     -16.619  44.130  -7.346  1.00  0.00    -0.000 C 
BRANCH  12  13
ATOM     13  C   UNL     1     -15.850  43.520  -6.162  1.00  0.00    -0.000 C 
BRANCH  13  14
ATOM     14  C   UNL     1     -16.758  42.687  -5.242  1.00  0.00    -0.000 C 
BRANCH  14  15
ATOM     15  C   UNL     1     -16.904  43.306  -3.840  1.00  0.00    -0.000 C 
BRANCH  15  16
ATOM     16  C   UNL     1     -18.331  43.834  -3.584  1.00  0.00    -0.000 C 
BRANCH  16  17
ATOM     17  C   UNL     1     -19.419  42.755  -3.721  1.00  0.00    -0.003 C 
ATOM     18  C   UNL     1     -19.713  42.029  -2.411  1.00  0.00     0.004 C 
ENDBRANCH  16  17
ENDBRANCH  15  16
ENDBRANCH  14  15
ENDBRANCH  13  14
ENDBRANCH  12  13
ENDBRANCH  11  12
ENDBRANCH   1  11
TORSDOF 14
ENDMDL
MODEL 6
REMARK VINA RESULT:    -2.997      1.287      2.439
REMARK INTER + INTRA:          -7.419
REMARK INTER:                  -5.588
REMARK INTRA:                  -1.831
REMARK UNBOUND:                -1.969
REMARK SMILES CCCCCCCCCCCCCCCC(=O)[O-]
REMARK SMILES IDX 9 1 10 2 11 3 12 4 13 5 14 6 15 7 16 8 17 9 18 10 8 11 7 12
REMARK SMILES IDX 6 13 5 14 4 15 3 16 2 17 1 18
REMARK H PARENT
REMARK Flexibility Score: inf
ROOT
ATOM      1  C   UNL     1     -18.779  45.591 -10.643  1.00  0.00     0.000 C 
ENDROOT
BRANCH   1   2
ATOM      2  C   UNL     1     -18.910  44.072 -10.796  1.00  0.00     0.000 C 
BRANCH   2   3
ATOM      3  C   UNL     1     -19.297  43.415  -9.466  1.00  0.00     0.000 C 
BRANCH   3   4
ATOM      4  C   UNL     1     -19.762  44.464  -8.449  1.00  0.00     0.000 C 
BRANCH   4   5
ATOM      5  C   UNL     1     -18.709  44.671  -7.351  1.00  0.00     0.000 C 
BRANCH   5   6
ATOM      6  C   UNL     1     -17.802  43.443  -7.145  1.00  0.00     0.006 C 
BRANCH   6   7
ATOM      7  C   UNL     1     -16.785  43.604  -6.003  1.00  0.00     0.053 C 
BRANCH   7   8
ATOM      8  C   UNL     1     -17.166  42.829  -4.778  1.00  0.00     0.041 C 
ATOM      9  O   UNL     1     -16.790  43.217  -3.640  1.00  0.00    -0.550 OA
ATOM     10  O   UNL     1     -17.963  41.697  -4.888  1.00  0.00    -0.550 OA
ENDBRANCH   7   8
ENDBRANCH   6   7
ENDBRANCH   5   6
ENDBRANCH   4   5
ENDBRANCH   3   4
ENDBRANCH   2   3
ENDBRANCH   1   2
BRANCH   1  11
ATOM     11  C   UNL     1     -17.318  46.036 -10.801  1.00  0.00     0.000 C 
BRANCH  11  12
ATOM     12  C   UNL     1     -16.322  44.875 -10.641  1.00  0.00    -0.000 C 
BRANCH  12  13
ATOM     13  C   UNL     1     -15.315  45.113  -9.503  1.00  0.00    -0.000 C 
BRANCH  13  14
ATOM     14  C   UNL     1     -15.634  46.382  -8.696  1.00  0.00    -0.000 C 
BRANCH  14  15
ATOM     15  C   UNL     1     -14.676  46.582  -7.508  1.00  0.00    -0.000 C 
BRANCH  15  16
ATOM     16  C   UNL     1     -14.528  48.069  -7.124  1.00  0.00    -0.000 C 
BRANCH  16  17
ATOM     17  C   UNL     1     -14.502  49.017  -8.336  1.00  0.00    -0.003 C 
ATOM     18  C   UNL     1     -14.918  50.445  -7.989  1.00  0.00     0.004 C 
ENDBRANCH  16  17
ENDBRANCH  15  16
ENDBRANCH  14  15
ENDBRANCH  13  14
ENDBRANCH  12  13
ENDBRANCH  11  12
ENDBRANCH   1  11
TORSDOF 14
ENDMDL
MODEL 7
REMARK VINA RESULT:    -2.972      2.743      6.074
REMARK INTER + INTRA:          -7.373
REMARK INTER:                  -5.766
REMARK INTRA:                  -1.607
REMARK UNBOUND:                -1.969
REMARK SMILES CCCCCCCCCCCCCCCC(=O)[O-]
REMARK SMILES IDX 9 1 10 2 11 3 12 4 13 5 14 6 15 7 16 8 17 9 18 10 8 11 7 12
REMARK SMILES IDX 6 13 5 14 4 15 3 16 2 17 1 18
REMARK H PARENT
REMARK Flexibility Score: inf
ROOT
ATOM      1  C   UNL     1     -14.639  45.566  -9.075  1.00  0.00     0.000 C 
ENDROOT
BRANCH   1   2
ATOM      2  C   UNL     1     -15.333  46.933  -9.039  1.00  0.00     0.000 C 
BRANCH   2   3
ATOM      3  C   UNL     1     -15.823  47.339 -10.434  1.00  0.00     0.000 C 
BRANCH   3   4
ATOM      4  C   UNL     1     -16.551  46.177 -11.122  1.00  0.00     0.000 C 
BRANCH   4   5
ATOM      5  C   UNL     1     -18.061  46.233 -10.848  1.00  0.00     0.000 C 
BRANCH   5   6
ATOM      6  C   UNL     1     -18.672  44.852 -10.547  1.00  0.00     0.006 C 
BRANCH   6   7
ATOM      7  C   UNL     1     -17.795  43.670 -10.996  1.00  0.00     0.053 C 
BRANCH   7   8
ATOM      8  C   UNL     1     -18.270  42.359 -10.448  1.00  0.00     0.041 C 
ATOM      9  O   UNL     1     -19.095  42.332  -9.497  1.00  0.00    -0.550 OA
ATOM     10  O   UNL     1     -17.828  41.166 -11.007  1.00  0.00    -0.550 OA
ENDBRANCH   7   8
ENDBRANCH   6   7
ENDBRANCH   5   6
ENDBRANCH   4   5
ENDBRANCH   3   4
ENDBRANCH   2   3
ENDBRANCH   1   2
BRANCH   1  11
ATOM     11  C   UNL     1     -15.129  44.671  -7.927  1.00  0.00     0.000 C 
BRANCH  11  12
ATOM     12  C   UNL     1     -16.648  44.761  -7.710  1.00  0.00    -0.000 C 
BRANCH  12  13
ATOM     13  C   UNL     1     -17.174  43.672  -6.758  1.00  0.00    -0.000 C 
BRANCH  13  14
ATOM     14  C   UNL     1     -16.085  43.154  -5.805  1.00  0.00    -0.000 C 
BRANCH  14  15
ATOM     15  C   UNL     1     -16.444  43.374  -4.324  1.00  0.00    -0.000 C 
BRANCH  15  16
ATOM     16  C   UNL     1     -17.969  43.459  -4.103  1.00  0.00    -0.000 C 
BRANCH  16  17
ATOM     17  C   UNL     1     -18.613  42.111  -3.737  1.00  0.00    -0.003 C 
ATOM     18  C   UNL     1     -19.826  42.255  -2.821  1.00  0.00     0.004 C 
ENDBRANCH  16  17
ENDBRANCH  15  16
ENDBRANCH  14  15
ENDBRANCH  13  14
ENDBRANCH  12  13
ENDBRANCH  11  12
ENDBRANCH   1  11
TORSDOF 14
ENDMDL
MODEL 8
REMARK VINA RESULT:    -2.677      1.419      2.857
REMARK INTER + INTRA:          -6.837
REMARK INTER:                  -5.641
REMARK INTRA:                  -1.196
REMARK UNBOUND:                -1.969
REMARK SMILES CCCCCCCCCCCCCCCC(=O)[O-]
REMARK SMILES IDX 9 1 10 2 11 3 12 4 13 5 14 6 15 7 16 8 17 9 18 10 8 11 7 12
REMARK SMILES IDX 6 13 5 14 4 15 3 16 2 17 1 18
REMARK H PARENT
REMARK Flexibility Score: inf
ROOT
ATOM      1  C   UNL     1     -15.915  45.291  -9.421  1.00  0.00     0.000 C 
ENDROOT
BRANCH   1   2
ATOM      2  C   UNL     1     -17.132  44.360  -9.353  1.00  0.00     0.000 C 
BRANCH   2   3
ATOM      3  C   UNL     1     -18.365  45.101  -8.823  1.00  0.00     0.000 C 
BRANCH   3   4
ATOM      4  C   UNL     1     -18.699  44.661  -7.393  1.00  0.00     0.000 C 
BRANCH   4   5
ATOM      5  C   UNL     1     -17.962  43.364  -7.029  1.00  0.00     0.000 C 
BRANCH   5   6
ATOM      6  C   UNL     1     -17.314  43.408  -5.633  1.00  0.00     0.006 C 
BRANCH   6   7
ATOM      7  C   UNL     1     -17.825  42.321  -4.673  1.00  0.00     0.053 C 
BRANCH   7   8
ATOM      8  C   UNL     1     -18.789  42.855  -3.658  1.00  0.00     0.041 C 
ATOM      9  O   UNL     1     -19.667  42.102  -3.160  1.00  0.00    -0.550 OA
ATOM     10  O   UNL     1     -18.699  44.176  -3.236  1.00  0.00    -0.550 OA
ENDBRANCH   7   8
ENDBRANCH   6   7
ENDBRANCH   5   6
ENDBRANCH   4   5
ENDBRANCH   3   4
ENDBRANCH   2   3
ENDBRANCH   1   2
BRANCH   1  11
ATOM     11  C   UNL     1     -15.595  45.672 -10.873  1.00  0.00     0.000 C 
BRANCH  11  12
ATOM     12  C   UNL     1     -14.823  46.997 -10.984  1.00  0.00    -0.000 C 
BRANCH  12  13
ATOM     13  C   UNL     1     -15.749  48.225 -10.947  1.00  0.00    -0.000 C 
BRANCH  13  14
ATOM     14  C   UNL     1     -14.973  49.537 -10.746  1.00  0.00    -0.000 C 
BRANCH  14  15
ATOM     15  C   UNL     1     -14.078  49.506  -9.493  1.00  0.00    -0.000 C 
BRANCH  15  16
ATOM     16  C   UNL     1     -14.836  49.955  -8.226  1.00  0.00    -0.000 C 
BRANCH  16  17
ATOM     17  C   UNL     1     -14.464  49.149  -6.970  1.00  0.00    -0.003 C 
ATOM     18  C   UNL     1     -14.251  47.663  -7.251  1.00  0.00     0.004 C 
ENDBRANCH  16  17
ENDBRANCH  15  16
ENDBRANCH  14  15
ENDBRANCH  13  14
ENDBRANCH  12  13
ENDBRANCH  11  12
ENDBRANCH   1  11
TORSDOF 14
ENDMDL
