MODEL 1
REMARK VINA RESULT:    -3.187      0.000      0.000
REMARK INTER + INTRA:          -3.589
REMARK INTER:                  -3.560
REMARK INTRA:                  -0.029
REMARK UNBOUND:                -0.029
REMARK SMILES CCCC(=O)[O-]
REMARK SMILES IDX 3 1 4 2 5 3 6 4 2 5 1 6
REMARK H PARENT
REMARK Flexibility Score: inf
ROOT
ATOM      1  C   UNL     1      50.507  57.157  92.488  1.00  0.00     0.052 C 
ENDROOT
BRANCH   1   2
ATOM      2  C   UNL     1      51.753  57.177  91.657  1.00  0.00     0.041 C 
ATOM      3  O   UNL     1      52.618  58.075  91.833  1.00  0.00    -0.550 OA
ATOM      4  O   UNL     1      51.943  56.222  90.666  1.00  0.00    -0.550 OA
ENDBRANCH   1   2
BRANCH   1   5
ATOM      5  C   UNL     1      50.301  58.482  93.232  1.00  0.00     0.003 C 
ATOM      6  C   UNL     1      50.014  58.275  94.719  1.00  0.00     0.004 C 
ENDBRANCH   1   5
TORSDOF 2
ENDMDL
MODEL 2
REMARK VINA RESULT:    -3.139      2.455      3.510
REMARK INTER + INTRA:          -3.535
REMARK INTER:                  -3.500
REMARK INTRA:                  -0.035
REMARK UNBOUND:                -0.029
REMARK SMILES CCCC(=O)[O-]
REMARK SMILES IDX 3 1 4 2 5 3 6 4 2 5 1 6
REMARK H PARENT
REMARK Flexibility Score: inf
ROOT
ATOM      1  C   UNL     1      50.106  57.640  93.148  1.00  0.00     0.052 C 
ENDROOT
BRANCH   1   2
ATOM      2  C   UNL     1      50.457  58.015  94.556  1.00  0.00     0.041 C 
ATOM      3  O   UNL     1      49.753  58.847  95.185  1.00  0.00    -0.550 OA
ATOM      4  O   UNL     1      51.583  57.468  95.160  1.00  0.00    -0.550 OA
ENDBRANCH   1   2
BRANCH   1   5
ATOM      5  C   UNL     1      51.058  56.575  92.590  1.00  0.00     0.003 C 
ATOM      6  C   UNL     1      51.900  57.100  91.428  1.00  0.00     0.004 C 
ENDBRANCH   1   5
TORSDOF 2
ENDMDL
MODEL 3
REMARK VINA RESULT:    -3.120      2.830      3.650
REMARK INTER + INTRA:          -3.514
REMARK INTER:                  -3.475
REMARK INTRA:                  -0.038
REMARK UNBOUND:                -0.029
REMARK SMILES CCCC(=O)[O-]
REMARK SMILES IDX 3 1 4 2 5 3 6 4 2 5 1 6
REMARK H PARENT
REMARK Flexibility Score: inf
ROOT
ATOM      1  C   UNL     1      53.114  57.607  93.867  1.00  0.00     0.052 C 
ENDROOT
BRANCH   1   2
ATOM      2  C   UNL     1      52.095  57.311  94.924  1.00  0.00     0.041 C 
ATOM      3  O   UNL     1      52.328  56.440  95.803  1.00  0.00    -0.550 OA
ATOM      4  O   UNL     1      50.873  57.973  94.918  1.00  0.00    -0.550 OA
ENDBRANCH   1   2
BRANCH   1   5
ATOM      5  C   UNL     1      52.472  58.226  92.619  1.00  0.00     0.003 C 
ATOM      6  C   UNL     1      51.930  57.169  91.658  1.00  0.00     0.004 C 
ENDBRANCH   1   5
TORSDOF 2
ENDMDL
MODEL 4
REMARK VINA RESULT:    -3.118      1.377      1.837
REMARK INTER + INTRA:          -3.512
REMARK INTER:                  -3.460
REMARK INTRA:                  -0.052
REMARK UNBOUND:                -0.029
REMARK SMILES CCCC(=O)[O-]
REMARK SMILES IDX 3 1 4 2 5 3 6 4 2 5 1 6
REMARK H PARENT
REMARK Flexibility Score: inf
ROOT
ATOM      1  C   UNL     1      51.529  56.924  92.655  1.00  0.00     0.052 C 
ENDROOT
BRANCH   1   2
ATOM      2  C   UNL     1      52.685  57.873  92.740  1.00  0.00     0.041 C 
ATOM      3  O   UNL     1      52.904  58.689  91.807  1.00  0.00    -0.550 OA
ATOM      4  O   UNL     1      53.539  57.832  93.835  1.00  0.00    -0.550 OA
ENDBRANCH   1   2
BRANCH   1   5
ATOM      5  C   UNL     1      50.197  57.626  92.949  1.00  0.00     0.003 C 
ATOM      6  C   UNL     1      50.110  58.128  94.389  1.00  0.00     0.004 C 
ENDBRANCH   1   5
TORSDOF 2
ENDMDL
MODEL 5
REMARK VINA RESULT:    -3.113      2.036      2.486
REMARK INTER + INTRA:          -3.506
REMARK INTER:                  -3.483
REMARK INTRA:                  -0.023
REMARK UNBOUND:                -0.029
REMARK SMILES CCCC(=O)[O-]
REMARK SMILES IDX 3 1 4 2 5 3 6 4 2 5 1 6
REMARK H PARENT
REMARK Flexibility Score: inf
ROOT
ATOM      1  C   UNL     1      53.103  58.011  93.690  1.00  0.00     0.052 C 
ENDROOT
BRANCH   1   2
ATOM      2  C   UNL     1      52.779  58.091  92.230  1.00  0.00     0.041 C 
ATOM      3  O   UNL     1      51.991  57.259  91.709  1.00  0.00    -0.550 OA
ATOM      4  O   UNL     1      53.373  59.066  91.438  1.00  0.00    -0.550 OA
ENDBRANCH   1   2
BRANCH   1   5
ATOM      5  C   UNL     1      51.903  57.524  94.512  1.00  0.00     0.003 C 
ATOM      6  C   UNL     1      52.315  56.567  95.630  1.00  0.00     0.004 C 
ENDBRANCH   1   5
TORSDOF 2
ENDMDL
MODEL 6
REMARK VINA RESULT:    -3.104      2.126      2.319
REMARK INTER + INTRA:          -3.496
REMARK INTER:                  -3.463
REMARK INTRA:                  -0.033
REMARK UNBOUND:                -0.029
REMARK SMILES CCCC(=O)[O-]
REMARK SMILES IDX 3 1 4 2 5 3 6 4 2 5 1 6
REMARK H PARENT
REMARK Flexibility Score: inf
ROOT
ATOM      1  C   UNL     1      52.293  58.373  93.000  1.00  0.00     0.052 C 
ENDROOT
BRANCH   1   2
ATOM      2  C   UNL     1      51.456  57.419  92.204  1.00  0.00     0.041 C 
ATOM      3  O   UNL     1      51.925  56.872  91.172  1.00  0.00    -0.550 OA
ATOM      4  O   UNL     1      50.145  57.160  92.585  1.00  0.00    -0.550 OA
ENDBRANCH   1   2
BRANCH   1   5
ATOM      5  C   UNL     1      53.176  57.640  94.017  1.00  0.00     0.003 C 
ATOM      6  C   UNL     1      52.384  57.153  95.230  1.00  0.00     0.004 C 
ENDBRANCH   1   5
TORSDOF 2
ENDMDL
MODEL 7
REMARK VINA RESULT:    -3.079      2.427      3.168
REMARK INTER + INTRA:          -3.468
REMARK INTER:                  -3.396
REMARK INTRA:                  -0.072
REMARK UNBOUND:                -0.029
REMARK SMILES CCCC(=O)[O-]
REMARK SMILES IDX 3 1 4 2 5 3 6 4 2 5 1 6
REMARK H PARENT
REMARK Flexibility Score: inf
ROOT
ATOM      1  C   UNL     1      51.053  57.727  94.809  1.00  0.00     0.052 C 
ENDROOT
BRANCH   1   2
ATOM      2  C   UNL     1      50.357  58.018  93.514  1.00  0.00     0.041 C 
ATOM      3  O   UNL     1      50.059  57.078  92.731  1.00  0.00    -0.550 OA
ATOM      4  O   UNL     1      50.070  59.329  93.158  1.00  0.00    -0.550 OA
ENDBRANCH   1   2
BRANCH   1   5
ATOM      5  C   UNL     1      52.447  57.130  94.582  1.00  0.00     0.003 C 
ATOM      6  C   UNL     1      53.376  58.089  93.839  1.00  0.00     0.004 C 
ENDBRANCH   1   5
TORSDOF 2
ENDMDL
MODEL 8
REMARK VINA RESULT:    -3.065      2.380      2.931
REMARK INTER + INTRA:          -3.452
REMARK INTER:                  -3.380
REMARK INTRA:                  -0.072
REMARK UNBOUND:                -0.029
REMARK SMILES CCCC(=O)[O-]
REMARK SMILES IDX 3 1 4 2 5 3 6 4 2 5 1 6
REMARK H PARENT
REMARK Flexibility Score: inf
ROOT
ATOM      1  C   UNL     1      52.177  56.151  93.234  1.00  0.00     0.052 C 
ENDROOT
BRANCH   1   2
ATOM      2  C   UNL     1      52.732  57.055  94.292  1.00  0.00     0.041 C 
ATOM      3  O   UNL     1      53.560  57.953  93.987  1.00  0.00    -0.550 OA
ATOM      4  O   UNL     1      52.358  56.883  95.619  1.00  0.00    -0.550 OA
ENDBRANCH   1   2
BRANCH   1   5
ATOM      5  C   UNL     1      51.353  56.927  92.200  1.00  0.00     0.003 C 
ATOM      6  C   UNL     1      50.150  57.632  92.826  1.00  0.00     0.004 C 
ENDBRANCH   1   5
TORSDOF 2
ENDMDL
MODEL 9
REMARK VINA RESULT:    -3.024     10.471     11.030
REMARK INTER + INTRA:          -3.406
REMARK INTER:                  -3.362
REMARK INTRA:                  -0.044
REMARK UNBOUND:                -0.029
REMARK SMILES CCCC(=O)[O-]
REMARK SMILES IDX 3 1 4 2 5 3 6 4 2 5 1 6
REMARK H PARENT
REMARK Flexibility Score: inf
ROOT
ATOM      1  C   UNL     1      56.475  49.805  94.853  1.00  0.00     0.052 C 
ENDROOT
BRANCH   1   2
ATOM      2  C   UNL     1      57.549  49.307  95.772  1.00  0.00     0.041 C 
ATOM      3  O   UNL     1      57.258  48.912  96.931  1.00  0.00    -0.550 OA
ATOM      4  O   UNL     1      58.875  49.311  95.357  1.00  0.00    -0.550 OA
ENDBRANCH   1   2
BRANCH   1   5
ATOM      5  C   UNL     1      55.790  48.654  94.106  1.00  0.00     0.003 C 
ATOM      6  C   UNL     1      56.510  48.295  92.807  1.00  0.00     0.004 C 
ENDBRANCH   1   5
TORSDOF 2
ENDMDL
