MODEL 1
REMARK VINA RESULT:    -3.620      0.000      0.000
REMARK INTER + INTRA:          -4.984
REMARK INTER:                  -4.678
REMARK INTRA:                  -0.305
REMARK UNBOUND:                -0.305
REMARK SMILES C=CC(=O)CCCCC
REMARK SMILES IDX 6 1 7 2 8 3 9 4 5 5 3 6 4 7 2 8 1 9
REMARK H PARENT
REMARK Flexibility Score: inf
ROOT
ATOM      1  C   UNL     1     198.077 206.898 215.981  1.00  0.00     0.008 C 
ENDROOT
BRANCH   1   2
ATOM      2  C   UNL     1     198.405 205.543 216.621  1.00  0.00     0.000 C 
BRANCH   2   3
ATOM      3  C   UNL     1     199.202 204.658 215.655  1.00  0.00    -0.003 C 
ATOM      4  C   UNL     1     198.276 203.770 214.829  1.00  0.00     0.004 C 
ENDBRANCH   2   3
ENDBRANCH   1   2
BRANCH   1   5
ATOM      5  C   UNL     1     197.614 207.907 217.037  1.00  0.00     0.080 C 
BRANCH   5   6
ATOM      6  C   UNL     1     198.728 208.845 217.392  1.00  0.00     0.155 C 
ATOM      7  O   UNL     1     198.912 209.879 216.694  1.00  0.00    -0.295 OA
BRANCH   6   8
ATOM      8  C   UNL     1     199.570 208.578 218.576  1.00  0.00     0.039 C 
ATOM      9  C   UNL     1     200.651 207.802 218.523  1.00  0.00     0.012 C 
ENDBRANCH   6   8
ENDBRANCH   5   6
ENDBRANCH   1   5
TORSDOF 5
ENDMDL
MODEL 2
REMARK VINA RESULT:    -3.549     13.622     15.202
REMARK INTER + INTRA:          -4.891
REMARK INTER:                  -4.321
REMARK INTRA:                  -0.570
REMARK UNBOUND:                -0.305
REMARK SMILES C=CC(=O)CCCCC
REMARK SMILES IDX 6 1 7 2 8 3 9 4 5 5 3 6 4 7 2 8 1 9
REMARK H PARENT
REMARK Flexibility Score: inf
ROOT
ATOM      1  C   UNL     1     214.610 204.929 216.402  1.00  0.00     0.008 C 
ENDROOT
BRANCH   1   2
ATOM      2  C   UNL     1     213.822 205.181 215.111  1.00  0.00     0.000 C 
BRANCH   2   3
ATOM      3  C   UNL     1     212.981 206.458 215.220  1.00  0.00    -0.003 C 
ATOM      4  C   UNL     1     213.218 207.161 216.554  1.00  0.00     0.004 C 
ENDBRANCH   2   3
ENDBRANCH   1   2
BRANCH   1   5
ATOM      5  C   UNL     1     214.608 203.441 216.766  1.00  0.00     0.080 C 
BRANCH   5   6
ATOM      6  C   UNL     1     213.274 203.035 217.319  1.00  0.00     0.155 C 
ATOM      7  O   UNL     1     212.659 202.065 216.801  1.00  0.00    -0.295 OA
BRANCH   6   8
ATOM      8  C   UNL     1     212.714 203.743 218.488  1.00  0.00     0.039 C 
ATOM      9  C   UNL     1     211.605 204.476 218.414  1.00  0.00     0.012 C 
ENDBRANCH   6   8
ENDBRANCH   5   6
ENDBRANCH   1   5
TORSDOF 5
ENDMDL
MODEL 3
REMARK VINA RESULT:    -3.532      2.701      4.682
REMARK INTER + INTRA:          -4.869
REMARK INTER:                  -4.492
REMARK INTRA:                  -0.377
REMARK UNBOUND:                -0.305
REMARK SMILES C=CC(=O)CCCCC
REMARK SMILES IDX 6 1 7 2 8 3 9 4 5 5 3 6 4 7 2 8 1 9
REMARK H PARENT
REMARK Flexibility Score: inf
ROOT
ATOM      1  C   UNL     1     198.011 210.277 215.797  1.00  0.00     0.008 C 
ENDROOT
BRANCH   1   2
ATOM      2  C   UNL     1     197.588 211.743 215.957  1.00  0.00     0.000 C 
BRANCH   2   3
ATOM      3  C   UNL     1     198.806 212.643 216.198  1.00  0.00    -0.003 C 
ATOM      4  C   UNL     1     200.089 211.821 216.286  1.00  0.00     0.004 C 
ENDBRANCH   2   3
ENDBRANCH   1   2
BRANCH   1   5
ATOM      5  C   UNL     1     197.278 209.381 216.802  1.00  0.00     0.080 C 
BRANCH   5   6
ATOM      6  C   UNL     1     198.190 208.303 217.307  1.00  0.00     0.155 C 
ATOM      7  O   UNL     1     198.004 207.112 216.939  1.00  0.00    -0.295 OA
BRANCH   6   8
ATOM      8  C   UNL     1     199.320 208.647 218.193  1.00  0.00     0.039 C 
ATOM      9  C   UNL     1     200.441 207.929 218.232  1.00  0.00     0.012 C 
ENDBRANCH   6   8
ENDBRANCH   5   6
ENDBRANCH   1   5
TORSDOF 5
ENDMDL
MODEL 4
REMARK VINA RESULT:    -3.526      1.868      2.823
REMARK INTER + INTRA:          -4.862
REMARK INTER:                  -4.523
REMARK INTRA:                  -0.339
REMARK UNBOUND:                -0.305
REMARK SMILES C=CC(=O)CCCCC
REMARK SMILES IDX 6 1 7 2 8 3 9 4 5 5 3 6 4 7 2 8 1 9
REMARK H PARENT
REMARK Flexibility Score: inf
ROOT
ATOM      1  C   UNL     1     199.293 208.663 218.093  1.00  0.00     0.008 C 
ENDROOT
BRANCH   1   2
ATOM      2  C   UNL     1     200.134 207.421 217.772  1.00  0.00     0.000 C 
BRANCH   2   3
ATOM      3  C   UNL     1     199.667 206.764 216.468  1.00  0.00    -0.003 C 
ATOM      4  C   UNL     1     199.305 205.298 216.688  1.00  0.00     0.004 C 
ENDBRANCH   2   3
ENDBRANCH   1   2
BRANCH   1   5
ATOM      5  C   UNL     1     198.179 208.854 217.060  1.00  0.00     0.080 C 
BRANCH   5   6
ATOM      6  C   UNL     1     198.313 210.185 216.382  1.00  0.00     0.155 C 
ATOM      7  O   UNL     1     197.277 210.860 216.133  1.00  0.00    -0.295 OA
BRANCH   6   8
ATOM      8  C   UNL     1     199.651 210.714 216.051  1.00  0.00     0.039 C 
ATOM      9  C   UNL     1     199.963 212.002 216.184  1.00  0.00     0.012 C 
ENDBRANCH   6   8
ENDBRANCH   5   6
ENDBRANCH   1   5
TORSDOF 5
ENDMDL
MODEL 5
REMARK VINA RESULT:    -3.524     14.463     15.596
REMARK INTER + INTRA:          -4.859
REMARK INTER:                  -4.502
REMARK INTRA:                  -0.357
REMARK UNBOUND:                -0.305
REMARK SMILES C=CC(=O)CCCCC
REMARK SMILES IDX 6 1 7 2 8 3 9 4 5 5 3 6 4 7 2 8 1 9
REMARK H PARENT
REMARK Flexibility Score: inf
ROOT
ATOM      1  C   UNL     1     214.292 202.091 215.786  1.00  0.00     0.008 C 
ENDROOT
BRANCH   1   2
ATOM      2  C   UNL     1     214.751 200.637 215.942  1.00  0.00     0.000 C 
BRANCH   2   3
ATOM      3  C   UNL     1     213.550 199.688 216.027  1.00  0.00    -0.003 C 
ATOM      4  C   UNL     1     212.260 200.455 216.302  1.00  0.00     0.004 C 
ENDBRANCH   2   3
ENDBRANCH   1   2
BRANCH   1   5
ATOM      5  C   UNL     1     214.960 202.994 216.829  1.00  0.00     0.080 C 
BRANCH   5   6
ATOM      6  C   UNL     1     213.999 204.038 217.314  1.00  0.00     0.155 C 
ATOM      7  O   UNL     1     214.141 205.232 216.936  1.00  0.00    -0.295 OA
BRANCH   6   8
ATOM      8  C   UNL     1     212.874 203.656 218.191  1.00  0.00     0.039 C 
ATOM      9  C   UNL     1     211.785 204.410 218.324  1.00  0.00     0.012 C 
ENDBRANCH   6   8
ENDBRANCH   5   6
ENDBRANCH   1   5
TORSDOF 5
ENDMDL
MODEL 6
REMARK VINA RESULT:    -3.519     14.818     16.301
REMARK INTER + INTRA:          -4.852
REMARK INTER:                  -4.424
REMARK INTRA:                  -0.429
REMARK UNBOUND:                -0.305
REMARK SMILES C=CC(=O)CCCCC
REMARK SMILES IDX 6 1 7 2 8 3 9 4 5 5 3 6 4 7 2 8 1 9
REMARK H PARENT
REMARK Flexibility Score: inf
ROOT
ATOM      1  C   UNL     1     214.926 203.055 216.782  1.00  0.00     0.008 C 
ENDROOT
BRANCH   1   2
ATOM      2  C   UNL     1     214.050 204.173 217.363  1.00  0.00     0.000 C 
BRANCH   2   3
ATOM      3  C   UNL     1     212.969 203.600 218.287  1.00  0.00    -0.003 C 
ATOM      4  C   UNL     1     211.692 204.432 218.222  1.00  0.00     0.004 C 
ENDBRANCH   2   3
ENDBRANCH   1   2
BRANCH   1   5
ATOM      5  C   UNL     1     214.278 202.441 215.537  1.00  0.00     0.080 C 
BRANCH   5   6
ATOM      6  C   UNL     1     214.483 200.955 215.515  1.00  0.00     0.155 C 
ATOM      7  O   UNL     1     215.561 200.487 215.059  1.00  0.00    -0.295 OA
BRANCH   6   8
ATOM      8  C   UNL     1     213.448 200.058 216.065  1.00  0.00     0.039 C 
ATOM      9  C   UNL     1     212.205 200.469 216.311  1.00  0.00     0.012 C 
ENDBRANCH   6   8
ENDBRANCH   5   6
ENDBRANCH   1   5
TORSDOF 5
ENDMDL
MODEL 7
REMARK VINA RESULT:    -3.514     14.255     15.526
REMARK INTER + INTRA:          -4.846
REMARK INTER:                  -4.508
REMARK INTRA:                  -0.338
REMARK UNBOUND:                -0.305
REMARK SMILES C=CC(=O)CCCCC
REMARK SMILES IDX 6 1 7 2 8 3 9 4 5 5 3 6 4 7 2 8 1 9
REMARK H PARENT
REMARK Flexibility Score: inf
ROOT
ATOM      1  C   UNL     1     213.030 203.680 218.001  1.00  0.00     0.008 C 
ENDROOT
BRANCH   1   2
ATOM      2  C   UNL     1     212.137 204.873 217.639  1.00  0.00     0.000 C 
BRANCH   2   3
ATOM      3  C   UNL     1     212.662 205.593 216.391  1.00  0.00    -0.003 C 
ATOM      4  C   UNL     1     213.024 207.042 216.703  1.00  0.00     0.004 C 
ENDBRANCH   2   3
ENDBRANCH   1   2
BRANCH   1   5
ATOM      5  C   UNL     1     214.155 203.505 216.975  1.00  0.00     0.080 C 
BRANCH   5   6
ATOM      6  C   UNL     1     214.035 202.179 216.284  1.00  0.00     0.155 C 
ATOM      7  O   UNL     1     215.074 201.501 216.063  1.00  0.00    -0.295 OA
BRANCH   6   8
ATOM      8  C   UNL     1     212.704 201.661 215.907  1.00  0.00     0.039 C 
ATOM      9  C   UNL     1     212.294 200.438 216.239  1.00  0.00     0.012 C 
ENDBRANCH   6   8
ENDBRANCH   5   6
ENDBRANCH   1   5
TORSDOF 5
ENDMDL
MODEL 8
REMARK VINA RESULT:    -3.488      2.534      3.515
REMARK INTER + INTRA:          -4.812
REMARK INTER:                  -4.230
REMARK INTRA:                  -0.582
REMARK UNBOUND:                -0.305
REMARK SMILES C=CC(=O)CCCCC
REMARK SMILES IDX 6 1 7 2 8 3 9 4 5 5 3 6 4 7 2 8 1 9
REMARK H PARENT
REMARK Flexibility Score: inf
ROOT
ATOM      1  C   UNL     1     198.081 208.339 217.132  1.00  0.00     0.008 C 
ENDROOT
BRANCH   1   2
ATOM      2  C   UNL     1     199.093 208.623 218.249  1.00  0.00     0.000 C 
BRANCH   2   3
ATOM      3  C   UNL     1     200.426 207.916 217.976  1.00  0.00    -0.003 C 
ATOM      4  C   UNL     1     200.731 207.873 216.481  1.00  0.00     0.004 C 
ENDBRANCH   2   3
ENDBRANCH   1   2
BRANCH   1   5
ATOM      5  C   UNL     1     197.328 209.613 216.736  1.00  0.00     0.080 C 
BRANCH   5   6
ATOM      6  C   UNL     1     198.082 210.363 215.679  1.00  0.00     0.155 C 
ATOM      7  O   UNL     1     198.129 209.902 214.507  1.00  0.00    -0.295 OA
BRANCH   6   8
ATOM      8  C   UNL     1     198.725 211.652 216.005  1.00  0.00     0.039 C 
ATOM      9  C   UNL     1     200.031 211.758 216.245  1.00  0.00     0.012 C 
ENDBRANCH   6   8
ENDBRANCH   5   6
ENDBRANCH   1   5
TORSDOF 5
ENDMDL
MODEL 9
REMARK VINA RESULT:    -3.476     13.592     14.997
REMARK INTER + INTRA:          -4.797
REMARK INTER:                  -4.377
REMARK INTRA:                  -0.421
REMARK UNBOUND:                -0.305
REMARK SMILES C=CC(=O)CCCCC
REMARK SMILES IDX 6 1 7 2 8 3 9 4 5 5 3 6 4 7 2 8 1 9
REMARK H PARENT
REMARK Flexibility Score: inf
ROOT
ATOM      1  C   UNL     1     213.040 203.730 218.154  1.00  0.00     0.008 C 
ENDROOT
BRANCH   1   2
ATOM      2  C   UNL     1     213.452 202.777 217.026  1.00  0.00     0.000 C 
BRANCH   2   3
ATOM      3  C   UNL     1     214.941 202.930 216.695  1.00  0.00    -0.003 C 
ATOM      4  C   UNL     1     215.671 203.709 217.785  1.00  0.00     0.004 C 
ENDBRANCH   2   3
ENDBRANCH   1   2
BRANCH   1   5
ATOM      5  C   UNL     1     211.952 204.701 217.683  1.00  0.00     0.080 C 
BRANCH   5   6
ATOM      6  C   UNL     1     212.440 205.517 216.523  1.00  0.00     0.155 C 
ATOM      7  O   UNL     1     211.958 205.311 215.377  1.00  0.00    -0.295 OA
BRANCH   6   8
ATOM      8  C   UNL     1     213.445 206.578 216.737  1.00  0.00     0.039 C 
ATOM      9  C   UNL     1     213.762 207.462 215.793  1.00  0.00     0.012 C 
ENDBRANCH   6   8
ENDBRANCH   5   6
ENDBRANCH   1   5
TORSDOF 5
ENDMDL
