MODEL 1
REMARK VINA RESULT:    -3.943      0.000      0.000
REMARK INTER + INTRA:          -6.213
REMARK INTER:                  -6.017
REMARK INTRA:                  -0.195
REMARK UNBOUND:                -0.195
REMARK SMILES CC1=CCC[C@H](C)C(=O)C[C@H](C(C)C)C(=O)C1
REMARK SMILES IDX 8 1 9 2 6 3 7 4 5 5 4 6 3 7 2 8 1 9 10 11 11 12 15 13 16 14
REMARK SMILES IDX 17 15 12 17 13 18 14 19
REMARK H PARENT
REMARK Flexibility Score: 70.00
ROOT
ATOM      1  C   UNL     1      18.931  26.961  28.004  1.00  0.00     0.136 C 
ATOM      2  O   UNL     1      19.411  26.229  27.151  1.00  0.00    -0.299 OA
ENDROOT
BRANCH   1   3
ATOM      3  C   UNL     1      19.757  27.367  29.204  1.00  0.00     0.053 C 
ATOM      4  C   UNL     1      20.966  26.433  29.325  1.00  0.00     0.016 C 
BRANCH   3   5
ATOM      5  C   UNL     1      20.223  28.840  29.137  1.00  0.00     0.015 C 
BRANCH   5   6
ATOM      6  C   UNL     1      19.671  29.719  30.277  1.00  0.00     0.028 C 
BRANCH   6   7
ATOM      7  C   UNL     1      18.650  30.713  29.770  1.00  0.00    -0.028 C 
ATOM      8  C   UNL     1      17.308  30.646  29.939  1.00  0.00    -0.070 CG0
ATOM      9  C   UNL     1      16.470  31.768  29.379  1.00  0.00     0.039 C 
ATOM     10  G   UNL     1      16.598  29.477  30.590  1.00  0.00     0.000 G0
ENDBRANCH   6   7
ENDBRANCH   5   6
ENDBRANCH   3   5
ENDBRANCH   1   3
BRANCH   1  11
ATOM     11  C   UNL     1      17.501  27.427  27.860  1.00  0.00     0.087 C 
BRANCH  11  12
ATOM     12  C   UNL     1      16.699  27.249  29.169  1.00  0.00     0.066 C 
BRANCH  12  13
ATOM     13  C   UNL     1      16.005  28.542  29.557  1.00  0.00     0.140 C 
ATOM     14  O   UNL     1      14.974  28.874  28.989  1.00  0.00    -0.299 OA
BRANCH  13  15
ATOM     15  C   UNL     1      16.587  29.456  30.600  1.00  0.00     0.106 CG0
ATOM     16  G   UNL     1      17.313  30.607  29.936  1.00  0.00     0.000 G0
ENDBRANCH  13  15
ENDBRANCH  12  13
BRANCH  12  17
ATOM     17  C   UNL     1      15.727  26.032  29.109  1.00  0.00    -0.006 C 
ATOM     18  C   UNL     1      15.894  25.028  30.263  1.00  0.00     0.008 C 
ATOM     19  C   UNL     1      15.835  25.304  27.760  1.00  0.00     0.008 C 
ENDBRANCH  12  17
ENDBRANCH  11  12
ENDBRANCH   1  11
TORSDOF 1
ENDMDL
MODEL 2
REMARK VINA RESULT:    -3.922      2.174      4.680
REMARK INTER + INTRA:          -6.181
REMARK INTER:                  -5.672
REMARK INTRA:                  -0.509
REMARK UNBOUND:                -0.195
REMARK SMILES CC1=CCC[C@H](C)C(=O)C[C@H](C(C)C)C(=O)C1
REMARK SMILES IDX 8 1 9 2 6 3 7 4 5 5 4 6 3 7 2 8 1 9 10 11 11 12 15 13 16 14
REMARK SMILES IDX 17 15 12 17 13 18 14 19
REMARK H PARENT
REMARK Flexibility Score: 70.00
ROOT
ATOM      1  C   UNL     1      19.119  31.584  31.221  1.00  0.00     0.136 C 
ATOM      2  O   UNL     1      19.686  31.882  32.262  1.00  0.00    -0.299 OA
ENDROOT
BRANCH   1   3
ATOM      3  C   UNL     1      19.822  31.773  29.895  1.00  0.00     0.053 C 
ATOM      4  C   UNL     1      20.251  33.238  29.753  1.00  0.00     0.016 C 
BRANCH   3   5
ATOM      5  C   UNL     1      21.045  30.840  29.731  1.00  0.00     0.015 C 
BRANCH   5   6
ATOM      6  C   UNL     1      20.772  29.380  30.143  1.00  0.00     0.028 C 
BRANCH   6   7
ATOM      7  C   UNL     1      20.176  28.582  29.005  1.00  0.00    -0.028 C 
ATOM      8  C   UNL     1      18.898  28.143  28.913  1.00  0.00    -0.070 CG0
ATOM      9  C   UNL     1      18.499  27.390  27.669  1.00  0.00     0.039 C 
ATOM     10  G   UNL     1      17.872  28.299  30.016  1.00  0.00     0.000 G0
ENDBRANCH   6   7
ENDBRANCH   5   6
ENDBRANCH   3   5
ENDBRANCH   1   3
BRANCH   1  11
ATOM     11  C   UNL     1      17.704  31.057  31.273  1.00  0.00     0.087 C 
BRANCH  11  12
ATOM     12  C   UNL     1      17.122  30.819  29.861  1.00  0.00     0.066 C 
BRANCH  12  13
ATOM     13  C   UNL     1      16.843  29.345  29.634  1.00  0.00     0.140 C 
ATOM     14  O   UNL     1      15.767  28.992  29.171  1.00  0.00    -0.299 OA
BRANCH  13  15
ATOM     15  C   UNL     1      17.851  28.294  30.011  1.00  0.00     0.106 CG0
ATOM     16  G   UNL     1      18.880  28.141  28.910  1.00  0.00     0.000 G0
ENDBRANCH  13  15
ENDBRANCH  12  13
BRANCH  12  17
ATOM     17  C   UNL     1      15.886  31.723  29.569  1.00  0.00    -0.006 C 
ATOM     18  C   UNL     1      16.234  33.105  28.988  1.00  0.00     0.008 C 
ATOM     19  C   UNL     1      15.011  31.886  30.822  1.00  0.00     0.008 C 
ENDBRANCH  12  17
ENDBRANCH  11  12
ENDBRANCH   1  11
TORSDOF 1
ENDMDL
MODEL 3
REMARK VINA RESULT:    -3.713      1.787      4.174
REMARK INTER + INTRA:          -5.862
REMARK INTER:                  -5.828
REMARK INTRA:                  -0.034
REMARK UNBOUND:                -0.195
REMARK SMILES CC1=CCC[C@H](C)C(=O)C[C@H](C(C)C)C(=O)C1
REMARK SMILES IDX 8 1 9 2 6 3 7 4 5 5 4 6 3 7 2 8 1 9 10 11 11 12 15 13 16 14
REMARK SMILES IDX 17 15 12 17 13 18 14 19
REMARK H PARENT
REMARK Flexibility Score: 70.00
ROOT
ATOM      1  C   UNL     1      19.360  29.069  29.181  1.00  0.00     0.136 C 
ATOM      2  O   UNL     1      19.891  30.170  29.131  1.00  0.00    -0.299 OA
ENDROOT
BRANCH   1   3
ATOM      3  C   UNL     1      19.854  27.950  28.291  1.00  0.00     0.053 C 
ATOM      4  C   UNL     1      20.582  26.907  29.147  1.00  0.00     0.016 C 
BRANCH   3   5
ATOM      5  C   UNL     1      18.715  27.282  27.487  1.00  0.00     0.015 C 
BRANCH   5   6
ATOM      6  C   UNL     1      18.361  25.863  27.974  1.00  0.00     0.028 C 
BRANCH   6   7
ATOM      7  C   UNL     1      16.885  25.572  27.820  1.00  0.00    -0.028 C 
ATOM      8  C   UNL     1      15.886  26.048  28.599  1.00  0.00    -0.070 CG0
ATOM      9  C   UNL     1      14.472  25.660  28.247  1.00  0.00     0.039 C 
ATOM     10  G   UNL     1      16.111  26.882  29.843  1.00  0.00     0.000 G0
ENDBRANCH   6   7
ENDBRANCH   5   6
ENDBRANCH   3   5
ENDBRANCH   1   3
BRANCH   1  11
ATOM     11  C   UNL     1      18.194  28.851  30.116  1.00  0.00     0.087 C 
BRANCH  11  12
ATOM     12  C   UNL     1      16.871  29.393  29.528  1.00  0.00     0.066 C 
BRANCH  12  13
ATOM     13  C   UNL     1      15.782  28.338  29.588  1.00  0.00     0.140 C 
ATOM     14  O   UNL     1      14.611  28.662  29.451  1.00  0.00    -0.299 OA
BRANCH  13  15
ATOM     15  C   UNL     1      16.109  26.895  29.863  1.00  0.00     0.106 CG0
ATOM     16  G   UNL     1      15.897  26.067  28.613  1.00  0.00     0.000 G0
ENDBRANCH  13  15
ENDBRANCH  12  13
BRANCH  12  17
ATOM     17  C   UNL     1      16.444  30.745  30.175  1.00  0.00    -0.006 C 
ATOM     18  C   UNL     1      16.702  31.980  29.294  1.00  0.00     0.008 C 
ATOM     19  C   UNL     1      17.104  30.934  31.550  1.00  0.00     0.008 C 
ENDBRANCH  12  17
ENDBRANCH  11  12
ENDBRANCH   1  11
TORSDOF 1
ENDMDL
MODEL 4
REMARK VINA RESULT:    -3.711      3.842      6.379
REMARK INTER + INTRA:          -5.860
REMARK INTER:                  -5.533
REMARK INTRA:                  -0.326
REMARK UNBOUND:                -0.195
REMARK SMILES CC1=CCC[C@H](C)C(=O)C[C@H](C(C)C)C(=O)C1
REMARK SMILES IDX 8 1 9 2 6 3 7 4 5 5 4 6 3 7 2 8 1 9 10 11 11 12 15 13 16 14
REMARK SMILES IDX 17 15 12 17 13 18 14 19
REMARK H PARENT
REMARK Flexibility Score: 70.00
ROOT
ATOM      1  C   UNL     1      23.806  29.910  31.217  1.00  0.00     0.136 C 
ATOM      2  O   UNL     1      24.541  29.485  32.096  1.00  0.00    -0.299 OA
ENDROOT
BRANCH   1   3
ATOM      3  C   UNL     1      24.332  30.084  29.809  1.00  0.00     0.053 C 
ATOM      4  C   UNL     1      25.564  30.996  29.838  1.00  0.00     0.016 C 
BRANCH   3   5
ATOM      5  C   UNL     1      24.679  28.738  29.132  1.00  0.00     0.015 C 
BRANCH   5   6
ATOM      6  C   UNL     1      23.696  28.332  28.016  1.00  0.00     0.028 C 
BRANCH   6   7
ATOM      7  C   UNL     1      22.758  27.237  28.471  1.00  0.00    -0.028 C 
ATOM      8  C   UNL     1      21.430  27.362  28.709  1.00  0.00    -0.070 CG0
ATOM      9  C   UNL     1      20.669  26.128  29.123  1.00  0.00     0.039 C 
ATOM     10  G   UNL     1      20.685  28.680  28.655  1.00  0.00     0.000 G0
ENDBRANCH   6   7
ENDBRANCH   5   6
ENDBRANCH   3   5
ENDBRANCH   1   3
BRANCH   1  11
ATOM     11  C   UNL     1      22.383  30.286  31.558  1.00  0.00     0.087 C 
BRANCH  11  12
ATOM     12  C   UNL     1      21.530  30.535  30.294  1.00  0.00     0.066 C 
BRANCH  12  13
ATOM     13  C   UNL     1      20.643  29.340  29.999  1.00  0.00     0.140 C 
ATOM     14  O   UNL     1      19.923  28.883  30.877  1.00  0.00    -0.299 OA
BRANCH  13  15
ATOM     15  C   UNL     1      20.661  28.669  28.652  1.00  0.00     0.106 CG0
ATOM     16  G   UNL     1      21.430  27.366  28.732  1.00  0.00     0.000 G0
ENDBRANCH  13  15
ENDBRANCH  12  13
BRANCH  12  17
ATOM     17  C   UNL     1      20.739  31.876  30.366  1.00  0.00    -0.006 C 
ATOM     18  C   UNL     1      21.338  33.013  29.520  1.00  0.00     0.008 C 
ATOM     19  C   UNL     1      20.567  32.340  31.821  1.00  0.00     0.008 C 
ENDBRANCH  12  17
ENDBRANCH  11  12
ENDBRANCH   1  11
TORSDOF 1
ENDMDL
MODEL 5
REMARK VINA RESULT:    -3.703      2.337      4.187
REMARK INTER + INTRA:          -5.847
REMARK INTER:                  -5.523
REMARK INTRA:                  -0.324
REMARK UNBOUND:                -0.195
REMARK SMILES CC1=CCC[C@H](C)C(=O)C[C@H](C(C)C)C(=O)C1
REMARK SMILES IDX 8 1 9 2 6 3 7 4 5 5 4 6 3 7 2 8 1 9 10 11 11 12 15 13 16 14
REMARK SMILES IDX 17 15 12 17 13 18 14 19
REMARK H PARENT
REMARK Flexibility Score: 70.00
ROOT
ATOM      1  C   UNL     1      18.750  28.476  28.001  1.00  0.00     0.136 C 
ATOM      2  O   UNL     1      18.461  28.147  26.860  1.00  0.00    -0.299 OA
ENDROOT
BRANCH   1   3
ATOM      3  C   UNL     1      19.125  27.423  29.021  1.00  0.00     0.053 C 
ATOM      4  C   UNL     1      18.234  26.192  28.827  1.00  0.00     0.016 C 
BRANCH   3   5
ATOM      5  C   UNL     1      20.617  27.021  28.941  1.00  0.00     0.015 C 
BRANCH   5   6
ATOM      6  C   UNL     1      21.574  28.218  28.776  1.00  0.00     0.028 C 
BRANCH   6   7
ATOM      7  C   UNL     1      22.069  28.725  30.112  1.00  0.00    -0.028 C 
ATOM      8  C   UNL     1      21.701  29.876  30.723  1.00  0.00    -0.070 CG0
ATOM      9  C   UNL     1      22.292  30.175  32.078  1.00  0.00     0.039 C 
ATOM     10  G   UNL     1      20.791  30.910  30.094  1.00  0.00     0.000 G0
ENDBRANCH   6   7
ENDBRANCH   5   6
ENDBRANCH   3   5
ENDBRANCH   1   3
BRANCH   1  11
ATOM     11  C   UNL     1      18.699  29.936  28.387  1.00  0.00     0.087 C 
BRANCH  11  12
ATOM     12  C   UNL     1      18.292  30.131  29.865  1.00  0.00     0.066 C 
BRANCH  12  13
ATOM     13  C   UNL     1      19.389  30.839  30.637  1.00  0.00     0.140 C 
ATOM     14  O   UNL     1      19.133  31.379  31.705  1.00  0.00    -0.299 OA
BRANCH  13  15
ATOM     15  C   UNL     1      20.789  30.935  30.093  1.00  0.00     0.106 CG0
ATOM     16  G   UNL     1      21.667  29.877  30.728  1.00  0.00     0.000 G0
ENDBRANCH  13  15
ENDBRANCH  12  13
BRANCH  12  17
ATOM     17  C   UNL     1      16.903  30.823  30.012  1.00  0.00    -0.006 C 
ATOM     18  C   UNL     1      15.703  29.901  29.732  1.00  0.00     0.008 C 
ATOM     19  C   UNL     1      16.815  32.081  29.133  1.00  0.00     0.008 C 
ENDBRANCH  12  17
ENDBRANCH  11  12
ENDBRANCH   1  11
TORSDOF 1
ENDMDL
MODEL 6
REMARK VINA RESULT:    -3.622      3.904      5.581
REMARK INTER + INTRA:          -5.722
REMARK INTER:                  -5.822
REMARK INTRA:                   0.100
REMARK UNBOUND:                -0.195
REMARK SMILES CC1=CCC[C@H](C)C(=O)C[C@H](C(C)C)C(=O)C1
REMARK SMILES IDX 8 1 9 2 6 3 7 4 5 5 4 6 3 7 2 8 1 9 10 11 11 12 15 13 16 14
REMARK SMILES IDX 17 15 12 17 13 18 14 19
REMARK H PARENT
REMARK Flexibility Score: 70.00
ROOT
ATOM      1  C   UNL     1      22.604  27.155  28.386  1.00  0.00     0.136 C 
ATOM      2  O   UNL     1      22.078  26.088  28.667  1.00  0.00    -0.299 OA
ENDROOT
BRANCH   1   3
ATOM      3  C   UNL     1      24.037  27.188  27.901  1.00  0.00     0.053 C 
ATOM      4  C   UNL     1      24.136  28.103  26.676  1.00  0.00     0.016 C 
BRANCH   3   5
ATOM      5  C   UNL     1      25.026  27.651  28.996  1.00  0.00     0.015 C 
BRANCH   5   6
ATOM      6  C   UNL     1      25.136  29.184  29.124  1.00  0.00     0.028 C 
BRANCH   6   7
ATOM      7  C   UNL     1      25.035  29.631  30.565  1.00  0.00    -0.028 C 
ATOM      8  C   UNL     1      23.934  30.126  31.179  1.00  0.00    -0.070 CG0
ATOM      9  C   UNL     1      24.041  30.480  32.641  1.00  0.00     0.039 C 
ATOM     10  G   UNL     1      22.629  30.413  30.466  1.00  0.00     0.000 G0
ENDBRANCH   6   7
ENDBRANCH   5   6
ENDBRANCH   3   5
ENDBRANCH   1   3
BRANCH   1  11
ATOM     11  C   UNL     1      21.820  28.435  28.557  1.00  0.00     0.087 C 
BRANCH  11  12
ATOM     12  C   UNL     1      20.997  28.440  29.864  1.00  0.00     0.066 C 
BRANCH  12  13
ATOM     13  C   UNL     1      21.559  29.447  30.851  1.00  0.00     0.140 C 
ATOM     14  O   UNL     1      21.112  29.500  31.989  1.00  0.00    -0.299 OA
BRANCH  13  15
ATOM     15  C   UNL     1      22.631  30.422  30.445  1.00  0.00     0.106 CG0
ATOM     16  G   UNL     1      23.920  30.110  31.176  1.00  0.00     0.000 G0
ENDBRANCH  13  15
ENDBRANCH  12  13
BRANCH  12  17
ATOM     17  C   UNL     1      19.472  28.631  29.605  1.00  0.00    -0.006 C 
ATOM     18  C   UNL     1      18.844  27.557  28.699  1.00  0.00     0.008 C 
ATOM     19  C   UNL     1      19.177  30.030  29.042  1.00  0.00     0.008 C 
ENDBRANCH  12  17
ENDBRANCH  11  12
ENDBRANCH   1  11
TORSDOF 1
ENDMDL
MODEL 7
REMARK VINA RESULT:    -3.556      1.942      4.310
REMARK INTER + INTRA:          -5.622
REMARK INTER:                  -5.673
REMARK INTRA:                   0.051
REMARK UNBOUND:                -0.195
REMARK SMILES CC1=CCC[C@H](C)C(=O)C[C@H](C(C)C)C(=O)C1
REMARK SMILES IDX 8 1 9 2 6 3 7 4 5 5 4 6 3 7 2 8 1 9 10 11 11 12 15 13 16 14
REMARK SMILES IDX 17 15 12 17 13 18 14 19
REMARK H PARENT
REMARK Flexibility Score: 70.00
ROOT
ATOM      1  C   UNL     1      18.428  27.158  28.129  1.00  0.00     0.136 C 
ATOM      2  O   UNL     1      18.632  27.014  26.933  1.00  0.00    -0.299 OA
ENDROOT
BRANCH   1   3
ATOM      3  C   UNL     1      17.058  27.574  28.618  1.00  0.00     0.053 C 
ATOM      4  C   UNL     1      16.267  26.328  29.031  1.00  0.00     0.016 C 
BRANCH   3   5
ATOM      5  C   UNL     1      17.123  28.579  29.791  1.00  0.00     0.015 C 
BRANCH   5   6
ATOM      6  C   UNL     1      17.485  30.014  29.360  1.00  0.00     0.028 C 
BRANCH   6   7
ATOM      7  C   UNL     1      18.335  30.711  30.399  1.00  0.00    -0.028 C 
ATOM      8  C   UNL     1      19.677  30.886  30.355  1.00  0.00    -0.070 CG0
ATOM      9  C   UNL     1      20.327  31.645  31.485  1.00  0.00     0.039 C 
ATOM     10  G   UNL     1      20.568  30.301  29.278  1.00  0.00     0.000 G0
ENDBRANCH   6   7
ENDBRANCH   5   6
ENDBRANCH   3   5
ENDBRANCH   1   3
BRANCH   1  11
ATOM     11  C   UNL     1      19.561  26.945  29.106  1.00  0.00     0.087 C 
BRANCH  11  12
ATOM     12  C   UNL     1      20.823  27.745  28.712  1.00  0.00     0.066 C 
BRANCH  12  13
ATOM     13  C   UNL     1      21.028  28.922  29.647  1.00  0.00     0.140 C 
ATOM     14  O   UNL     1      21.529  28.745  30.749  1.00  0.00    -0.299 OA
BRANCH  13  15
ATOM     15  C   UNL     1      20.582  30.308  29.266  1.00  0.00     0.106 CG0
ATOM     16  G   UNL     1      19.684  30.879  30.344  1.00  0.00     0.000 G0
ENDBRANCH  13  15
ENDBRANCH  12  13
BRANCH  12  17
ATOM     17  C   UNL     1      22.085  26.839  28.589  1.00  0.00    -0.006 C 
ATOM     18  C   UNL     1      23.270  27.499  27.862  1.00  0.00     0.008 C 
ATOM     19  C   UNL     1      21.742  25.498  27.923  1.00  0.00     0.008 C 
ENDBRANCH  12  17
ENDBRANCH  11  12
ENDBRANCH   1  11
TORSDOF 1
ENDMDL
MODEL 8
REMARK VINA RESULT:    -3.553      2.392      5.179
REMARK INTER + INTRA:          -5.618
REMARK INTER:                  -5.794
REMARK INTRA:                   0.176
REMARK UNBOUND:                -0.195
REMARK SMILES CC1=CCC[C@H](C)C(=O)C[C@H](C(C)C)C(=O)C1
REMARK SMILES IDX 8 1 9 2 6 3 7 4 5 5 4 6 3 7 2 8 1 9 10 11 11 12 15 13 16 14
REMARK SMILES IDX 17 15 12 17 13 18 14 19
REMARK H PARENT
REMARK Flexibility Score: 70.00
ROOT
ATOM      1  C   UNL     1      17.172  27.475  28.629  1.00  0.00     0.136 C 
ATOM      2  O   UNL     1      16.077  27.777  29.079  1.00  0.00    -0.299 OA
ENDROOT
BRANCH   1   3
ATOM      3  C   UNL     1      17.512  26.022  28.376  1.00  0.00     0.053 C 
ATOM      4  C   UNL     1      16.389  25.376  27.557  1.00  0.00     0.016 C 
BRANCH   3   5
ATOM      5  C   UNL     1      18.869  25.843  27.657  1.00  0.00     0.015 C 
BRANCH   5   6
ATOM      6  C   UNL     1      20.017  25.421  28.596  1.00  0.00     0.028 C 
BRANCH   6   7
ATOM      7  C   UNL     1      21.347  25.970  28.131  1.00  0.00    -0.028 C 
ATOM      8  C   UNL     1      22.018  27.016  28.669  1.00  0.00    -0.070 CG0
ATOM      9  C   UNL     1      23.354  27.379  28.072  1.00  0.00     0.039 C 
ATOM     10  G   UNL     1      21.471  27.885  29.783  1.00  0.00     0.000 G0
ENDBRANCH   6   7
ENDBRANCH   5   6
ENDBRANCH   3   5
ENDBRANCH   1   3
BRANCH   1  11
ATOM     11  C   UNL     1      18.187  28.560  28.358  1.00  0.00     0.087 C 
BRANCH  11  12
ATOM     12  C   UNL     1      19.043  28.877  29.605  1.00  0.00     0.066 C 
BRANCH  12  13
ATOM     13  C   UNL     1      20.518  28.922  29.249  1.00  0.00     0.140 C 
ATOM     14  O   UNL     1      20.933  29.775  28.477  1.00  0.00    -0.299 OA
BRANCH  13  15
ATOM     15  C   UNL     1      21.482  27.903  29.793  1.00  0.00     0.106 CG0
ATOM     16  G   UNL     1      22.000  27.027  28.670  1.00  0.00     0.000 G0
ENDBRANCH  13  15
ENDBRANCH  12  13
BRANCH  12  17
ATOM     17  C   UNL     1      18.559  30.159  30.347  1.00  0.00    -0.006 C 
ATOM     18  C   UNL     1      17.850  31.185  29.446  1.00  0.00     0.008 C 
ATOM     19  C   UNL     1      19.716  30.834  31.101  1.00  0.00     0.008 C 
ENDBRANCH  12  17
ENDBRANCH  11  12
ENDBRANCH   1  11
TORSDOF 1
ENDMDL
MODEL 9
REMARK VINA RESULT:    -3.448      1.999      4.839
REMARK INTER + INTRA:          -5.458
REMARK INTER:                  -5.392
REMARK INTRA:                  -0.066
REMARK UNBOUND:                -0.195
REMARK SMILES CC1=CCC[C@H](C)C(=O)C[C@H](C(C)C)C(=O)C1
REMARK SMILES IDX 8 1 9 2 6 3 7 4 5 5 4 6 3 7 2 8 1 9 10 11 11 12 15 13 16 14
REMARK SMILES IDX 17 15 12 17 13 18 14 19
REMARK H PARENT
REMARK Flexibility Score: 70.00
ROOT
ATOM      1  C   UNL     1      15.912  28.948  29.378  1.00  0.00     0.136 C 
ATOM      2  O   UNL     1      14.708  28.964  29.165  1.00  0.00    -0.299 OA
ENDROOT
BRANCH   1   3
ATOM      3  C   UNL     1      16.555  27.724  29.991  1.00  0.00     0.053 C 
ATOM      4  C   UNL     1      15.563  27.059  30.953  1.00  0.00     0.016 C 
BRANCH   3   5
ATOM      5  C   UNL     1      17.033  26.706  28.930  1.00  0.00     0.015 C 
BRANCH   5   6
ATOM      6  C   UNL     1      18.069  27.279  27.943  1.00  0.00     0.028 C 
BRANCH   6   7
ATOM      7  C   UNL     1      19.445  27.365  28.566  1.00  0.00    -0.028 C 
ATOM      8  C   UNL     1      20.083  28.495  28.953  1.00  0.00    -0.070 CG0
ATOM      9  C   UNL     1      21.443  28.353  29.589  1.00  0.00     0.039 C 
ATOM     10  G   UNL     1      19.545  29.891  28.718  1.00  0.00     0.000 G0
ENDBRANCH   6   7
ENDBRANCH   5   6
ENDBRANCH   3   5
ENDBRANCH   1   3
BRANCH   1  11
ATOM     11  C   UNL     1      16.739  30.169  29.050  1.00  0.00     0.087 C 
BRANCH  11  12
ATOM     12  C   UNL     1      17.565  30.652  30.263  1.00  0.00     0.066 C 
BRANCH  12  13
ATOM     13  C   UNL     1      19.051  30.507  29.996  1.00  0.00     0.140 C 
ATOM     14  O   UNL     1      19.862  30.918  30.815  1.00  0.00    -0.299 OA
BRANCH  13  15
ATOM     15  C   UNL     1      19.558  29.907  28.712  1.00  0.00     0.106 CG0
ATOM     16  G   UNL     1      20.075  28.506  28.962  1.00  0.00     0.000 G0
ENDBRANCH  13  15
ENDBRANCH  12  13
BRANCH  12  17
ATOM     17  C   UNL     1      17.167  32.088  30.719  1.00  0.00    -0.006 C 
ATOM     18  C   UNL     1      16.337  32.136  32.014  1.00  0.00     0.008 C 
ATOM     19  C   UNL     1      16.433  32.841  29.597  1.00  0.00     0.008 C 
ENDBRANCH  12  17
ENDBRANCH  11  12
ENDBRANCH   1  11
TORSDOF 1
ENDMDL
