MODEL 1
REMARK VINA RESULT:    -4.703      0.000      0.000
REMARK INTER + INTRA:          -6.419
REMARK INTER:                  -6.352
REMARK INTRA:                  -0.067
REMARK UNBOUND:                -0.067
REMARK SMILES [NH3+]CCCC[C@H]([NH3+])C(=O)[O-]
REMARK SMILES IDX 4 1 3 2 2 3 1 4 5 8 6 9 7 10 8 14 9 15 10 16
REMARK H PARENT 1 5 1 6 1 7 7 11 7 12 7 13
REMARK Flexibility Score: inf
ROOT
ATOM      1  C   UNL     1      13.875  35.239  12.864  1.00  0.00     0.012 C 
ENDROOT
BRANCH   1   2
ATOM      2  C   UNL     1      13.105  36.500  13.275  1.00  0.00     0.061 C 
BRANCH   2   3
ATOM      3  C   UNL     1      12.781  37.371  12.053  1.00  0.00     0.258 C 
BRANCH   3   4
ATOM      4  N   UNL     1      13.834  37.267  11.043  1.00  0.00    -0.358 N 
ATOM      5  H   UNL     1      13.404  37.006  10.126  1.00  0.00     0.344 HD
ATOM      6  H   UNL     1      14.322  38.186  10.938  1.00  0.00     0.344 HD
ATOM      7  H   UNL     1      14.523  36.529  11.317  1.00  0.00     0.344 HD
ENDBRANCH   3   4
ENDBRANCH   2   3
ENDBRANCH   1   2
BRANCH   1   8
ATOM      8  C   UNL     1      13.612  34.089  13.848  1.00  0.00     0.072 C 
BRANCH   8   9
ATOM      9  C   UNL     1      13.333  32.747  13.135  1.00  0.00     0.227 C 
BRANCH   9  10
ATOM     10  N   UNL     1      12.469  31.871  13.938  1.00  0.00    -0.350 N 
ATOM     11  H   UNL     1      11.479  31.919  13.605  1.00  0.00     0.345 HD
ATOM     12  H   UNL     1      12.505  32.159  14.944  1.00  0.00     0.345 HD
ATOM     13  H   UNL     1      12.806  30.883  13.882  1.00  0.00     0.345 HD
ENDBRANCH   9  10
BRANCH   9  14
ATOM     14  C   UNL     1      14.635  32.055  12.830  1.00  0.00     0.099 C 
ATOM     15  O   UNL     1      14.663  31.056  12.062  1.00  0.00    -0.544 OA
ATOM     16  O   UNL     1      15.813  32.502  13.415  1.00  0.00    -0.544 OA
ENDBRANCH   9  14
ENDBRANCH   8   9
ENDBRANCH   1   8
TORSDOF 7
ENDMDL
MODEL 2
REMARK VINA RESULT:    -4.615     13.703     14.773
REMARK INTER + INTRA:          -6.301
REMARK INTER:                  -6.236
REMARK INTRA:                  -0.065
REMARK UNBOUND:                -0.067
REMARK SMILES [NH3+]CCCC[C@H]([NH3+])C(=O)[O-]
REMARK SMILES IDX 4 1 3 2 2 3 1 4 5 8 6 9 7 10 8 14 9 15 10 16
REMARK H PARENT 1 5 1 6 1 7 7 11 7 12 7 13
REMARK Flexibility Score: inf
ROOT
ATOM      1  C   UNL     1       4.508  46.399  10.454  1.00  0.00     0.012 C 
ENDROOT
BRANCH   1   2
ATOM      2  C   UNL     1       4.983  47.071   9.160  1.00  0.00     0.061 C 
BRANCH   2   3
ATOM      3  C   UNL     1       6.337  47.765   9.364  1.00  0.00     0.258 C 
BRANCH   3   4
ATOM      4  N   UNL     1       6.507  48.868   8.418  1.00  0.00    -0.358 N 
ATOM      5  H   UNL     1       5.941  49.686   8.740  1.00  0.00     0.344 HD
ATOM      6  H   UNL     1       7.513  49.149   8.373  1.00  0.00     0.344 HD
ATOM      7  H   UNL     1       6.176  48.580   7.468  1.00  0.00     0.344 HD
ENDBRANCH   3   4
ENDBRANCH   2   3
ENDBRANCH   1   2
BRANCH   1   8
ATOM      8  C   UNL     1       4.124  44.932  10.203  1.00  0.00     0.072 C 
BRANCH   8   9
ATOM      9  C   UNL     1       3.611  44.225  11.477  1.00  0.00     0.227 C 
BRANCH   9  10
ATOM     10  N   UNL     1       4.529  44.406  12.610  1.00  0.00    -0.350 N 
ATOM     11  H   UNL     1       4.211  45.191  13.223  1.00  0.00     0.345 HD
ATOM     12  H   UNL     1       5.493  44.616  12.258  1.00  0.00     0.345 HD
ATOM     13  H   UNL     1       4.586  43.527  13.172  1.00  0.00     0.345 HD
ENDBRANCH   9  10
BRANCH   9  14
ATOM     14  C   UNL     1       3.415  42.758  11.197  1.00  0.00     0.099 C 
ATOM     15  O   UNL     1       2.772  42.382  10.179  1.00  0.00    -0.544 OA
ATOM     16  O   UNL     1       3.924  41.809  12.074  1.00  0.00    -0.544 OA
ENDBRANCH   9  14
ENDBRANCH   8   9
ENDBRANCH   1   8
TORSDOF 7
ENDMDL
MODEL 3
REMARK VINA RESULT:    -4.573     14.280     15.349
REMARK INTER + INTRA:          -6.244
REMARK INTER:                  -6.146
REMARK INTRA:                  -0.098
REMARK UNBOUND:                -0.067
REMARK SMILES [NH3+]CCCC[C@H]([NH3+])C(=O)[O-]
REMARK SMILES IDX 4 1 3 2 2 3 1 4 5 8 6 9 7 10 8 14 9 15 10 16
REMARK H PARENT 1 5 1 6 1 7 7 11 7 12 7 13
REMARK Flexibility Score: inf
ROOT
ATOM      1  C   UNL     1       4.497  45.781   9.503  1.00  0.00     0.012 C 
ENDROOT
BRANCH   1   2
ATOM      2  C   UNL     1       4.682  47.273   9.201  1.00  0.00     0.061 C 
BRANCH   2   3
ATOM      3  C   UNL     1       6.164  47.670   9.270  1.00  0.00     0.258 C 
BRANCH   3   4
ATOM      4  N   UNL     1       6.446  48.793   8.377  1.00  0.00    -0.358 N 
ATOM      5  H   UNL     1       6.262  48.500   7.390  1.00  0.00     0.344 HD
ATOM      6  H   UNL     1       5.827  49.602   8.611  1.00  0.00     0.344 HD
ATOM      7  H   UNL     1       7.450  49.077   8.463  1.00  0.00     0.344 HD
ENDBRANCH   3   4
ENDBRANCH   2   3
ENDBRANCH   1   2
BRANCH   1   8
ATOM      8  C   UNL     1       4.130  45.560  10.979  1.00  0.00     0.072 C 
BRANCH   8   9
ATOM      9  C   UNL     1       3.951  44.066  11.330  1.00  0.00     0.227 C 
BRANCH   9  10
ATOM     10  N   UNL     1       4.520  43.190  10.297  1.00  0.00    -0.350 N 
ATOM     11  H   UNL     1       5.544  43.368  10.181  1.00  0.00     0.345 HD
ATOM     12  H   UNL     1       4.039  43.358   9.382  1.00  0.00     0.345 HD
ATOM     13  H   UNL     1       4.369  42.188  10.551  1.00  0.00     0.345 HD
ENDBRANCH   9  10
BRANCH   9  14
ATOM     14  C   UNL     1       2.489  43.763  11.521  1.00  0.00     0.099 C 
ATOM     15  O   UNL     1       2.127  42.707  12.106  1.00  0.00    -0.544 OA
ATOM     16  O   UNL     1       1.527  44.638  11.031  1.00  0.00    -0.544 OA
ENDBRANCH   9  14
ENDBRANCH   8   9
ENDBRANCH   1   8
TORSDOF 7
ENDMDL
MODEL 4
REMARK VINA RESULT:    -4.570     12.754     14.407
REMARK INTER + INTRA:          -6.241
REMARK INTER:                  -6.166
REMARK INTRA:                  -0.074
REMARK UNBOUND:                -0.067
REMARK SMILES [NH3+]CCCC[C@H]([NH3+])C(=O)[O-]
REMARK SMILES IDX 4 1 3 2 2 3 1 4 5 8 6 9 7 10 8 14 9 15 10 16
REMARK H PARENT 1 5 1 6 1 7 7 11 7 12 7 13
REMARK Flexibility Score: inf
ROOT
ATOM      1  C   UNL     1       3.693  41.486  12.152  1.00  0.00     0.012 C 
ENDROOT
BRANCH   1   2
ATOM      2  C   UNL     1       2.962  40.227  12.636  1.00  0.00     0.061 C 
BRANCH   2   3
ATOM      3  C   UNL     1       3.950  39.085  12.909  1.00  0.00     0.258 C 
BRANCH   3   4
ATOM      4  N   UNL     1       4.857  39.430  14.004  1.00  0.00    -0.358 N 
ATOM      5  H   UNL     1       5.763  39.767  13.604  1.00  0.00     0.344 HD
ATOM      6  H   UNL     1       4.442  40.191  14.588  1.00  0.00     0.344 HD
ATOM      7  H   UNL     1       5.041  38.588  14.597  1.00  0.00     0.344 HD
ENDBRANCH   3   4
ENDBRANCH   2   3
ENDBRANCH   1   2
BRANCH   1   8
ATOM      8  C   UNL     1       2.704  42.506  11.567  1.00  0.00     0.072 C 
BRANCH   8   9
ATOM      9  C   UNL     1       3.088  42.958  10.142  1.00  0.00     0.227 C 
BRANCH   9  10
ATOM     10  N   UNL     1       4.543  43.092   9.985  1.00  0.00    -0.350 N 
ATOM     11  H   UNL     1       4.995  43.326  10.898  1.00  0.00     0.345 HD
ATOM     12  H   UNL     1       4.759  43.848   9.293  1.00  0.00     0.345 HD
ATOM     13  H   UNL     1       4.949  42.203   9.614  1.00  0.00     0.345 HD
ENDBRANCH   9  10
BRANCH   9  14
ATOM     14  C   UNL     1       2.409  44.265   9.824  1.00  0.00     0.099 C 
ATOM     15  O   UNL     1       3.090  45.276   9.504  1.00  0.00    -0.544 OA
ATOM     16  O   UNL     1       1.026  44.367   9.904  1.00  0.00    -0.544 OA
ENDBRANCH   9  14
ENDBRANCH   8   9
ENDBRANCH   1   8
TORSDOF 7
ENDMDL
MODEL 5
REMARK VINA RESULT:    -4.374      1.815      1.997
REMARK INTER + INTRA:          -5.976
REMARK INTER:                  -5.866
REMARK INTRA:                  -0.110
REMARK UNBOUND:                -0.067
REMARK SMILES [NH3+]CCCC[C@H]([NH3+])C(=O)[O-]
REMARK SMILES IDX 4 1 3 2 2 3 1 4 5 8 6 9 7 10 8 14 9 15 10 16
REMARK H PARENT 1 5 1 6 1 7 7 11 7 12 7 13
REMARK Flexibility Score: inf
ROOT
ATOM      1  C   UNL     1      13.527  34.464  14.077  1.00  0.00     0.012 C 
ENDROOT
BRANCH   1   2
ATOM      2  C   UNL     1      13.060  35.834  13.570  1.00  0.00     0.061 C 
BRANCH   2   3
ATOM      3  C   UNL     1      13.676  36.156  12.202  1.00  0.00     0.258 C 
BRANCH   3   4
ATOM      4  N   UNL     1      13.050  37.338  11.611  1.00  0.00    -0.358 N 
ATOM      5  H   UNL     1      12.309  37.033  10.938  1.00  0.00     0.344 HD
ATOM      6  H   UNL     1      12.608  37.921  12.358  1.00  0.00     0.344 HD
ATOM      7  H   UNL     1      13.763  37.904  11.095  1.00  0.00     0.344 HD
ENDBRANCH   3   4
ENDBRANCH   2   3
ENDBRANCH   1   2
BRANCH   1   8
ATOM      8  C   UNL     1      14.965  34.170  13.622  1.00  0.00     0.072 C 
BRANCH   8   9
ATOM      9  C   UNL     1      15.292  32.661  13.620  1.00  0.00     0.227 C 
BRANCH   9  10
ATOM     10  N   UNL     1      16.545  32.375  12.909  1.00  0.00    -0.350 N 
ATOM     11  H   UNL     1      16.555  32.838  11.971  1.00  0.00     0.345 HD
ATOM     12  H   UNL     1      16.655  31.341  12.780  1.00  0.00     0.345 HD
ATOM     13  H   UNL     1      17.362  32.708  13.469  1.00  0.00     0.345 HD
ENDBRANCH   9  10
BRANCH   9  14
ATOM     14  C   UNL     1      14.154  31.897  12.995  1.00  0.00     0.099 C 
ATOM     15  O   UNL     1      13.937  31.977  11.756  1.00  0.00    -0.544 OA
ATOM     16  O   UNL     1      13.324  31.115  13.787  1.00  0.00    -0.544 OA
ENDBRANCH   9  14
ENDBRANCH   8   9
ENDBRANCH   1   8
TORSDOF 7
ENDMDL
MODEL 6
REMARK VINA RESULT:    -4.342      3.073      4.647
REMARK INTER + INTRA:          -5.932
REMARK INTER:                  -5.725
REMARK INTRA:                  -0.208
REMARK UNBOUND:                -0.067
REMARK SMILES [NH3+]CCCC[C@H]([NH3+])C(=O)[O-]
REMARK SMILES IDX 4 1 3 2 2 3 1 4 5 8 6 9 7 10 8 14 9 15 10 16
REMARK H PARENT 1 5 1 6 1 7 7 11 7 12 7 13
REMARK Flexibility Score: inf
ROOT
ATOM      1  C   UNL     1      13.111  32.275  13.201  1.00  0.00     0.012 C 
ENDROOT
BRANCH   1   2
ATOM      2  C   UNL     1      14.242  31.905  12.234  1.00  0.00     0.061 C 
BRANCH   2   3
ATOM      3  C   UNL     1      15.306  31.047  12.933  1.00  0.00     0.258 C 
BRANCH   3   4
ATOM      4  N   UNL     1      16.618  31.691  12.876  1.00  0.00    -0.358 N 
ATOM      5  H   UNL     1      17.359  30.955  12.832  1.00  0.00     0.344 HD
ATOM      6  H   UNL     1      16.686  32.291  12.022  1.00  0.00     0.344 HD
ATOM      7  H   UNL     1      16.770  32.274  13.731  1.00  0.00     0.344 HD
ENDBRANCH   3   4
ENDBRANCH   2   3
ENDBRANCH   1   2
BRANCH   1   8
ATOM      8  C   UNL     1      13.451  33.553  13.983  1.00  0.00     0.072 C 
BRANCH   8   9
ATOM      9  C   UNL     1      14.372  34.508  13.192  1.00  0.00     0.227 C 
BRANCH   9  10
ATOM     10  N   UNL     1      15.613  34.799  13.923  1.00  0.00    -0.350 N 
ATOM     11  H   UNL     1      15.403  35.191  14.870  1.00  0.00     0.345 HD
ATOM     12  H   UNL     1      16.188  35.490  13.387  1.00  0.00     0.345 HD
ATOM     13  H   UNL     1      16.183  33.929  14.026  1.00  0.00     0.345 HD
ENDBRANCH   9  10
BRANCH   9  14
ATOM     14  C   UNL     1      13.635  35.786  12.889  1.00  0.00     0.099 C 
ATOM     15  O   UNL     1      12.822  36.267  13.723  1.00  0.00    -0.544 OA
ATOM     16  O   UNL     1      13.834  36.431  11.675  1.00  0.00    -0.544 OA
ENDBRANCH   9  14
ENDBRANCH   8   9
ENDBRANCH   1   8
TORSDOF 7
ENDMDL
MODEL 7
REMARK VINA RESULT:    -4.341     14.391     15.352
REMARK INTER + INTRA:          -5.931
REMARK INTER:                  -5.526
REMARK INTRA:                  -0.405
REMARK UNBOUND:                -0.067
REMARK SMILES [NH3+]CCCC[C@H]([NH3+])C(=O)[O-]
REMARK SMILES IDX 4 1 3 2 2 3 1 4 5 8 6 9 7 10 8 14 9 15 10 16
REMARK H PARENT 1 5 1 6 1 7 7 11 7 12 7 13
REMARK Flexibility Score: inf
ROOT
ATOM      1  C   UNL     1       3.724  45.927  11.018  1.00  0.00     0.012 C 
ENDROOT
BRANCH   1   2
ATOM      2  C   UNL     1       4.851  46.501  10.151  1.00  0.00     0.061 C 
BRANCH   2   3
ATOM      3  C   UNL     1       4.302  47.057   8.830  1.00  0.00     0.258 C 
BRANCH   3   4
ATOM      4  N   UNL     1       3.019  46.441   8.496  1.00  0.00    -0.358 N 
ATOM      5  H   UNL     1       3.113  45.401   8.553  1.00  0.00     0.344 HD
ATOM      6  H   UNL     1       2.285  46.751   9.174  1.00  0.00     0.344 HD
ATOM      7  H   UNL     1       2.736  46.703   7.524  1.00  0.00     0.344 HD
ENDBRANCH   3   4
ENDBRANCH   2   3
ENDBRANCH   1   2
BRANCH   1   8
ATOM      8  C   UNL     1       4.190  44.668  11.765  1.00  0.00     0.072 C 
BRANCH   8   9
ATOM      9  C   UNL     1       3.690  43.365  11.104  1.00  0.00     0.227 C 
BRANCH   9  10
ATOM     10  N   UNL     1       4.507  42.994   9.941  1.00  0.00    -0.350 N 
ATOM     11  H   UNL     1       5.116  42.172  10.161  1.00  0.00     0.345 HD
ATOM     12  H   UNL     1       5.112  43.800   9.657  1.00  0.00     0.345 HD
ATOM     13  H   UNL     1       3.893  42.762   9.127  1.00  0.00     0.345 HD
ENDBRANCH   9  10
BRANCH   9  14
ATOM     14  C   UNL     1       2.249  43.524  10.696  1.00  0.00     0.099 C 
ATOM     15  O   UNL     1       1.337  43.538  11.567  1.00  0.00    -0.544 OA
ATOM     16  O   UNL     1       1.915  43.636   9.353  1.00  0.00    -0.544 OA
ENDBRANCH   9  14
ENDBRANCH   8   9
ENDBRANCH   1   8
TORSDOF 7
ENDMDL
MODEL 8
REMARK VINA RESULT:    -4.255     14.467     16.009
REMARK INTER + INTRA:          -5.815
REMARK INTER:                  -5.394
REMARK INTRA:                  -0.421
REMARK UNBOUND:                -0.067
REMARK SMILES [NH3+]CCCC[C@H]([NH3+])C(=O)[O-]
REMARK SMILES IDX 4 1 3 2 2 3 1 4 5 8 6 9 7 10 8 14 9 15 10 16
REMARK H PARENT 1 5 1 6 1 7 7 11 7 12 7 13
REMARK Flexibility Score: inf
ROOT
ATOM      1  C   UNL     1       1.594  44.041  10.386  1.00  0.00     0.012 C 
ENDROOT
BRANCH   1   2
ATOM      2  C   UNL     1       0.559  45.050   9.875  1.00  0.00     0.061 C 
BRANCH   2   3
ATOM      3  C   UNL     1       0.454  45.006   8.344  1.00  0.00     0.258 C 
BRANCH   3   4
ATOM      4  N   UNL     1       0.985  46.232   7.748  1.00  0.00    -0.358 N 
ATOM      5  H   UNL     1       0.190  46.814   7.398  1.00  0.00     0.344 HD
ATOM      6  H   UNL     1       1.516  46.778   8.464  1.00  0.00     0.344 HD
ATOM      7  H   UNL     1       1.613  45.998   6.944  1.00  0.00     0.344 HD
ENDBRANCH   3   4
ENDBRANCH   2   3
ENDBRANCH   1   2
BRANCH   1   8
ATOM      8  C   UNL     1       2.411  43.455   9.224  1.00  0.00     0.072 C 
BRANCH   8   9
ATOM      9  C   UNL     1       3.922  43.753   9.349  1.00  0.00     0.227 C 
BRANCH   9  10
ATOM     10  N   UNL     1       4.559  42.921  10.379  1.00  0.00    -0.350 N 
ATOM     11  H   UNL     1       4.049  42.016  10.494  1.00  0.00     0.345 HD
ATOM     12  H   UNL     1       4.565  43.429  11.294  1.00  0.00     0.345 HD
ATOM     13  H   UNL     1       5.554  42.729  10.122  1.00  0.00     0.345 HD
ENDBRANCH   9  10
BRANCH   9  14
ATOM     14  C   UNL     1       4.126  45.212   9.660  1.00  0.00     0.099 C 
ATOM     15  O   UNL     1       3.921  46.088   8.777  1.00  0.00    -0.544 OA
ATOM     16  O   UNL     1       4.563  45.600  10.921  1.00  0.00    -0.544 OA
ENDBRANCH   9  14
ENDBRANCH   8   9
ENDBRANCH   1   8
TORSDOF 7
ENDMDL
MODEL 9
REMARK VINA RESULT:    -4.163     14.651     16.505
REMARK INTER + INTRA:          -5.690
REMARK INTER:                  -5.178
REMARK INTRA:                  -0.512
REMARK UNBOUND:                -0.067
REMARK SMILES [NH3+]CCCC[C@H]([NH3+])C(=O)[O-]
REMARK SMILES IDX 4 1 3 2 2 3 1 4 5 8 6 9 7 10 8 14 9 15 10 16
REMARK H PARENT 1 5 1 6 1 7 7 11 7 12 7 13
REMARK Flexibility Score: inf
ROOT
ATOM      1  C   UNL     1       1.476  44.520   9.023  1.00  0.00     0.012 C 
ENDROOT
BRANCH   1   2
ATOM      2  C   UNL     1       2.204  43.282   9.563  1.00  0.00     0.061 C 
BRANCH   2   3
ATOM      3  C   UNL     1       3.661  43.245   9.082  1.00  0.00     0.258 C 
BRANCH   3   4
ATOM      4  N   UNL     1       4.584  43.181  10.215  1.00  0.00    -0.358 N 
ATOM      5  H   UNL     1       5.562  43.092   9.855  1.00  0.00     0.344 HD
ATOM      6  H   UNL     1       4.512  44.053  10.787  1.00  0.00     0.344 HD
ATOM      7  H   UNL     1       4.365  42.348  10.810  1.00  0.00     0.344 HD
ENDBRANCH   3   4
ENDBRANCH   2   3
ENDBRANCH   1   2
BRANCH   1   8
ATOM      8  C   UNL     1       1.596  45.699  10.001  1.00  0.00     0.072 C 
BRANCH   8   9
ATOM      9  C   UNL     1       2.369  46.894   9.402  1.00  0.00     0.227 C 
BRANCH   9  10
ATOM     10  N   UNL     1       2.204  46.975   7.944  1.00  0.00    -0.350 N 
ATOM     11  H   UNL     1       3.113  47.202   7.479  1.00  0.00     0.345 HD
ATOM     12  H   UNL     1       1.504  47.715   7.704  1.00  0.00     0.345 HD
ATOM     13  H   UNL     1       1.841  46.068   7.571  1.00  0.00     0.345 HD
ENDBRANCH   9  10
BRANCH   9  14
ATOM     14  C   UNL     1       3.829  46.780   9.753  1.00  0.00     0.099 C 
ATOM     15  O   UNL     1       4.183  46.274  10.852  1.00  0.00    -0.544 OA
ATOM     16  O   UNL     1       4.795  47.254   8.874  1.00  0.00    -0.544 OA
ENDBRANCH   9  14
ENDBRANCH   8   9
ENDBRANCH   1   8
TORSDOF 7
ENDMDL
