MODEL 1
REMARK VINA RESULT:    -4.144      0.000      0.000
REMARK INTER + INTRA:          -4.565
REMARK INTER:                  -4.386
REMARK INTRA:                  -0.179
REMARK UNBOUND:                -0.179
REMARK SMILES CC1=CCC(C(C)C)=CC1
REMARK SMILES IDX 1 1 2 2 3 3 4 4 5 5 9 6 10 7 6 8 7 9 8 10
REMARK H PARENT
REMARK Flexibility Score: inf
ROOT
ATOM      1  C   UNL     1      13.863  64.651  15.764  1.00  0.00     0.039 C 
ATOM      2  C   UNL     1      15.329  64.966  15.855  1.00  0.00    -0.073 C 
ATOM      3  C   UNL     1      16.102  64.893  14.754  1.00  0.00    -0.023 C 
ATOM      4  C   UNL     1      17.567  65.243  14.820  1.00  0.00     0.058 C 
ATOM      5  C   UNL     1      18.162  64.879  16.170  1.00  0.00    -0.068 C 
ATOM      6  C   UNL     1      17.380  64.952  17.270  1.00  0.00    -0.023 C 
ATOM      7  C   UNL     1      15.942  65.396  17.171  1.00  0.00     0.057 C 
ENDROOT
BRANCH   5   8
ATOM      8  C   UNL     1      19.605  64.413  16.288  1.00  0.00     0.009 C 
ATOM      9  C   UNL     1      19.961  63.416  15.180  1.00  0.00     0.012 C 
ATOM     10  C   UNL     1      19.870  63.814  17.673  1.00  0.00     0.012 C 
ENDBRANCH   5   8
TORSDOF 1
ENDMDL
MODEL 2
REMARK VINA RESULT:    -4.107      3.189      6.822
REMARK INTER + INTRA:          -4.527
REMARK INTER:                  -4.352
REMARK INTRA:                  -0.175
REMARK UNBOUND:                -0.179
REMARK SMILES CC1=CCC(C(C)C)=CC1
REMARK SMILES IDX 1 1 2 2 3 3 4 4 5 5 9 6 10 7 6 8 7 9 8 10
REMARK H PARENT
REMARK Flexibility Score: inf
ROOT
ATOM      1  C   UNL     1      24.989  60.886  16.051  1.00  0.00     0.039 C 
ATOM      2  C   UNL     1      23.983  61.941  15.686  1.00  0.00    -0.073 C 
ATOM      3  C   UNL     1      23.263  62.546  16.650  1.00  0.00    -0.023 C 
ATOM      4  C   UNL     1      22.278  63.634  16.304  1.00  0.00     0.058 C 
ATOM      5  C   UNL     1      21.643  63.392  14.944  1.00  0.00    -0.068 C 
ATOM      6  C   UNL     1      22.370  62.781  13.982  1.00  0.00    -0.023 C 
ATOM      7  C   UNL     1      23.793  62.352  14.241  1.00  0.00     0.057 C 
ENDROOT
BRANCH   5   8
ATOM      8  C   UNL     1      20.205  63.802  14.669  1.00  0.00     0.009 C 
ATOM      9  C   UNL     1      19.489  64.219  15.959  1.00  0.00     0.012 C 
ATOM     10  C   UNL     1      19.446  62.677  13.959  1.00  0.00     0.012 C 
ENDBRANCH   5   8
TORSDOF 1
ENDMDL
MODEL 3
REMARK VINA RESULT:    -4.075      3.550      5.268
REMARK INTER + INTRA:          -4.492
REMARK INTER:                  -4.343
REMARK INTRA:                  -0.149
REMARK UNBOUND:                -0.179
REMARK SMILES CC1=CCC(C(C)C)=CC1
REMARK SMILES IDX 1 1 2 2 3 3 4 4 5 5 9 6 10 7 6 8 7 9 8 10
REMARK H PARENT
REMARK Flexibility Score: inf
ROOT
ATOM      1  C   UNL     1      19.190  62.853  13.883  1.00  0.00     0.039 C 
ATOM      2  C   UNL     1      20.411  63.123  14.716  1.00  0.00    -0.073 C 
ATOM      3  C   UNL     1      21.634  62.849  14.225  1.00  0.00    -0.023 C 
ATOM      4  C   UNL     1      22.872  63.151  15.032  1.00  0.00     0.058 C 
ATOM      5  C   UNL     1      22.615  62.981  16.520  1.00  0.00    -0.068 C 
ATOM      6  C   UNL     1      21.384  63.254  17.007  1.00  0.00    -0.023 C 
ATOM      7  C   UNL     1      20.280  63.731  16.097  1.00  0.00     0.057 C 
ENDROOT
BRANCH   5   8
ATOM      8  C   UNL     1      23.711  62.486  17.451  1.00  0.00     0.009 C 
ATOM      9  C   UNL     1      24.761  63.575  17.704  1.00  0.00     0.012 C 
ATOM     10  C   UNL     1      24.360  61.214  16.897  1.00  0.00     0.012 C 
ENDBRANCH   5   8
TORSDOF 1
ENDMDL
MODEL 4
REMARK VINA RESULT:    -4.064      1.364      4.780
REMARK INTER + INTRA:          -4.480
REMARK INTER:                  -4.338
REMARK INTRA:                  -0.142
REMARK UNBOUND:                -0.179
REMARK SMILES CC1=CCC(C(C)C)=CC1
REMARK SMILES IDX 1 1 2 2 3 3 4 4 5 5 9 6 10 7 6 8 7 9 8 10
REMARK H PARENT
REMARK Flexibility Score: inf
ROOT
ATOM      1  C   UNL     1      22.608  62.987  14.167  1.00  0.00     0.039 C 
ATOM      2  C   UNL     1      21.193  63.193  14.630  1.00  0.00    -0.073 C 
ATOM      3  C   UNL     1      20.180  63.132  13.745  1.00  0.00    -0.023 C 
ATOM      4  C   UNL     1      18.752  63.297  14.200  1.00  0.00     0.058 C 
ATOM      5  C   UNL     1      18.654  64.256  15.375  1.00  0.00    -0.068 C 
ATOM      6  C   UNL     1      19.676  64.315  16.258  1.00  0.00    -0.023 C 
ATOM      7  C   UNL     1      20.893  63.439  16.094  1.00  0.00     0.057 C 
ENDROOT
BRANCH   5   8
ATOM      8  C   UNL     1      17.442  65.158  15.549  1.00  0.00     0.009 C 
ATOM      9  C   UNL     1      17.010  65.234  17.018  1.00  0.00     0.012 C 
ATOM     10  C   UNL     1      16.286  64.691  14.659  1.00  0.00     0.012 C 
ENDBRANCH   5   8
TORSDOF 1
ENDMDL
MODEL 5
REMARK VINA RESULT:    -4.016      2.290      4.209
REMARK INTER + INTRA:          -4.430
REMARK INTER:                  -4.291
REMARK INTRA:                  -0.139
REMARK UNBOUND:                -0.179
REMARK SMILES CC1=CCC(C(C)C)=CC1
REMARK SMILES IDX 1 1 2 2 3 3 4 4 5 5 9 6 10 7 6 8 7 9 8 10
REMARK H PARENT
REMARK Flexibility Score: inf
ROOT
ATOM      1  C   UNL     1      17.627  64.923  14.996  1.00  0.00     0.039 C 
ATOM      2  C   UNL     1      18.893  64.135  15.182  1.00  0.00    -0.073 C 
ATOM      3  C   UNL     1      19.648  64.325  16.280  1.00  0.00    -0.023 C 
ATOM      4  C   UNL     1      20.900  63.514  16.501  1.00  0.00     0.058 C 
ATOM      5  C   UNL     1      21.578  63.175  15.184  1.00  0.00    -0.068 C 
ATOM      6  C   UNL     1      20.814  62.988  14.084  1.00  0.00    -0.023 C 
ATOM      7  C   UNL     1      19.311  63.102  14.157  1.00  0.00     0.057 C 
ENDROOT
BRANCH   5   8
ATOM      8  C   UNL     1      23.092  63.072  15.087  1.00  0.00     0.009 C 
ATOM      9  C   UNL     1      23.519  62.307  13.828  1.00  0.00     0.012 C 
ATOM     10  C   UNL     1      23.673  62.423  16.347  1.00  0.00     0.012 C 
ENDBRANCH   5   8
TORSDOF 1
ENDMDL
MODEL 6
REMARK VINA RESULT:    -3.838      3.938      5.629
REMARK INTER + INTRA:          -4.241
REMARK INTER:                  -4.099
REMARK INTRA:                  -0.142
REMARK UNBOUND:                -0.179
REMARK SMILES CC1=CCC(C(C)C)=CC1
REMARK SMILES IDX 1 1 2 2 3 3 4 4 5 5 9 6 10 7 6 8 7 9 8 10
REMARK H PARENT
REMARK Flexibility Score: inf
ROOT
ATOM      1  C   UNL     1      21.757  63.922  20.312  1.00  0.00     0.039 C 
ATOM      2  C   UNL     1      21.693  63.453  18.885  1.00  0.00    -0.073 C 
ATOM      3  C   UNL     1      22.829  63.268  18.187  1.00  0.00    -0.023 C 
ATOM      4  C   UNL     1      22.783  62.760  16.768  1.00  0.00     0.058 C 
ATOM      5  C   UNL     1      21.539  63.249  16.046  1.00  0.00    -0.068 C 
ATOM      6  C   UNL     1      20.403  63.435  16.753  1.00  0.00    -0.023 C 
ATOM      7  C   UNL     1      20.358  63.154  18.235  1.00  0.00     0.057 C 
ENDROOT
BRANCH   5   8
ATOM      8  C   UNL     1      21.568  63.552  14.555  1.00  0.00     0.009 C 
ATOM      9  C   UNL     1      20.244  63.169  13.883  1.00  0.00     0.012 C 
ATOM     10  C   UNL     1      22.750  62.849  13.882  1.00  0.00     0.012 C 
ENDBRANCH   5   8
TORSDOF 1
ENDMDL
MODEL 7
REMARK VINA RESULT:    -3.834      4.330      7.714
REMARK INTER + INTRA:          -4.237
REMARK INTER:                  -4.059
REMARK INTRA:                  -0.178
REMARK UNBOUND:                -0.179
REMARK SMILES CC1=CCC(C(C)C)=CC1
REMARK SMILES IDX 1 1 2 2 3 3 4 4 5 5 9 6 10 7 6 8 7 9 8 10
REMARK H PARENT
REMARK Flexibility Score: inf
ROOT
ATOM      1  C   UNL     1      24.902  59.885  13.077  1.00  0.00     0.039 C 
ATOM      2  C   UNL     1      24.539  60.998  14.020  1.00  0.00    -0.073 C 
ATOM      3  C   UNL     1      24.756  60.858  15.341  1.00  0.00    -0.023 C 
ATOM      4  C   UNL     1      24.434  61.980  16.296  1.00  0.00     0.058 C 
ATOM      5  C   UNL     1      23.233  62.780  15.822  1.00  0.00    -0.068 C 
ATOM      6  C   UNL     1      23.019  62.915  14.494  1.00  0.00    -0.023 C 
ATOM      7  C   UNL     1      23.958  62.293  13.491  1.00  0.00     0.057 C 
ENDROOT
BRANCH   5   8
ATOM      8  C   UNL     1      22.265  63.401  16.818  1.00  0.00     0.009 C 
ATOM      9  C   UNL     1      22.319  62.680  18.170  1.00  0.00     0.012 C 
ATOM     10  C   UNL     1      20.840  63.410  16.256  1.00  0.00     0.012 C 
ENDBRANCH   5   8
TORSDOF 1
ENDMDL
MODEL 8
REMARK VINA RESULT:    -3.817      3.580      5.446
REMARK INTER + INTRA:          -4.219
REMARK INTER:                  -4.074
REMARK INTRA:                  -0.145
REMARK UNBOUND:                -0.179
REMARK SMILES CC1=CCC(C(C)C)=CC1
REMARK SMILES IDX 1 1 2 2 3 3 4 4 5 5 9 6 10 7 6 8 7 9 8 10
REMARK H PARENT
REMARK Flexibility Score: inf
ROOT
ATOM      1  C   UNL     1      22.143  63.114  19.748  1.00  0.00     0.039 C 
ATOM      2  C   UNL     1      21.743  63.484  18.347  1.00  0.00    -0.073 C 
ATOM      3  C   UNL     1      20.460  63.356  17.958  1.00  0.00    -0.023 C 
ATOM      4  C   UNL     1      20.035  63.761  16.569  1.00  0.00     0.058 C 
ATOM      5  C   UNL     1      21.144  63.517  15.559  1.00  0.00    -0.068 C 
ATOM      6  C   UNL     1      22.429  63.644  15.957  1.00  0.00    -0.023 C 
ATOM      7  C   UNL     1      22.767  64.031  17.375  1.00  0.00     0.057 C 
ENDROOT
BRANCH   5   8
ATOM      8  C   UNL     1      20.824  63.110  14.129  1.00  0.00     0.009 C 
ATOM      9  C   UNL     1      20.945  64.302  13.171  1.00  0.00     0.012 C 
ATOM     10  C   UNL     1      19.432  62.476  14.044  1.00  0.00     0.012 C 
ENDBRANCH   5   8
TORSDOF 1
ENDMDL
MODEL 9
REMARK VINA RESULT:    -3.681      2.459      5.747
REMARK INTER + INTRA:          -4.075
REMARK INTER:                  -3.937
REMARK INTRA:                  -0.138
REMARK UNBOUND:                -0.179
REMARK SMILES CC1=CCC(C(C)C)=CC1
REMARK SMILES IDX 1 1 2 2 3 3 4 4 5 5 9 6 10 7 6 8 7 9 8 10
REMARK H PARENT
REMARK Flexibility Score: inf
ROOT
ATOM      1  C   UNL     1      23.842  63.849  18.761  1.00  0.00     0.039 C 
ATOM      2  C   UNL     1      22.822  63.486  17.720  1.00  0.00    -0.073 C 
ATOM      3  C   UNL     1      23.162  63.485  16.417  1.00  0.00    -0.023 C 
ATOM      4  C   UNL     1      22.161  63.085  15.362  1.00  0.00     0.058 C 
ATOM      5  C   UNL     1      20.749  63.483  15.761  1.00  0.00    -0.068 C 
ATOM      6  C   UNL     1      20.415  63.485  17.071  1.00  0.00    -0.023 C 
ATOM      7  C   UNL     1      21.418  63.089  18.126  1.00  0.00     0.057 C 
ENDROOT
BRANCH   5   8
ATOM      8  C   UNL     1      19.729  63.901  14.713  1.00  0.00     0.009 C 
ATOM      9  C   UNL     1      18.530  64.609  15.355  1.00  0.00     0.012 C 
ATOM     10  C   UNL     1      19.277  62.695  13.885  1.00  0.00     0.012 C 
ENDBRANCH   5   8
TORSDOF 1
ENDMDL
