MODEL 1
REMARK VINA RESULT:    -3.662      0.000      0.000
REMARK INTER + INTRA:          -3.769
REMARK INTER:                  -3.769
REMARK INTRA:                   0.000
REMARK UNBOUND:                 0.000
REMARK SMILES Cc1cccc(O)c1C
REMARK SMILES IDX 1 1 2 2 8 3 6 4 5 5 4 6 3 7 9 8 7 9
REMARK H PARENT 7 10
REMARK Flexibility Score: inf
ROOT
ATOM      1  C   UNL     1     -98.387 -16.672 -79.656  1.00  0.00     0.045 C 
ATOM      2  C   UNL     1     -96.882 -16.618 -79.600  1.00  0.00    -0.045 A 
ATOM      3  C   UNL     1     -96.198 -15.459 -79.149  1.00  0.00    -0.006 A 
ATOM      4  C   UNL     1     -94.785 -15.453 -79.136  1.00  0.00     0.118 A 
ATOM      5  C   UNL     1     -94.075 -16.597 -79.524  1.00  0.00     0.046 A 
ATOM      6  C   UNL     1     -94.752 -17.742 -79.934  1.00  0.00     0.004 A 
ATOM      7  C   UNL     1     -96.146 -17.756 -79.973  1.00  0.00     0.004 A 
ATOM      8  C   UNL     1     -96.963 -14.223 -78.742  1.00  0.00     0.048 C 
ENDROOT
BRANCH   4   9
ATOM      9  O   UNL     1     -94.088 -14.312 -78.738  1.00  0.00    -0.508 OA
ATOM     10  H   UNL     1     -93.379 -13.890 -79.325  1.00  0.00     0.293 HD
ENDBRANCH   4   9
TORSDOF 1
ENDMDL
MODEL 2
REMARK VINA RESULT:    -3.419     15.497     15.828
REMARK INTER + INTRA:          -3.519
REMARK INTER:                  -3.519
REMARK INTRA:                   0.000
REMARK UNBOUND:                 0.000
REMARK SMILES Cc1cccc(O)c1C
REMARK SMILES IDX 1 1 2 2 8 3 6 4 5 5 4 6 3 7 9 8 7 9
REMARK H PARENT 7 10
REMARK Flexibility Score: inf
ROOT
ATOM      1  C   UNL     1    -103.073  -8.259 -68.096  1.00  0.00     0.045 C 
ATOM      2  C   UNL     1    -101.688  -7.989 -67.567  1.00  0.00    -0.045 A 
ATOM      3  C   UNL     1    -101.166  -8.702 -66.457  1.00  0.00    -0.006 A 
ATOM      4  C   UNL     1     -99.870  -8.395 -65.987  1.00  0.00     0.118 A 
ATOM      5  C   UNL     1     -99.097  -7.427 -66.641  1.00  0.00     0.046 A 
ATOM      6  C   UNL     1     -99.602  -6.753 -67.750  1.00  0.00     0.004 A 
ATOM      7  C   UNL     1    -100.888  -7.030 -68.212  1.00  0.00     0.004 A 
ATOM      8  C   UNL     1    -102.003  -9.738 -65.744  1.00  0.00     0.048 C 
ENDROOT
BRANCH   4   9
ATOM      9  O   UNL     1     -99.350  -9.052 -64.870  1.00  0.00    -0.508 OA
ATOM     10  H   UNL     1     -98.352  -9.166 -64.738  1.00  0.00     0.293 HD
ENDBRANCH   4   9
TORSDOF 1
ENDMDL
MODEL 3
REMARK VINA RESULT:    -3.383     14.725     15.172
REMARK INTER + INTRA:          -3.482
REMARK INTER:                  -3.482
REMARK INTRA:                   0.000
REMARK UNBOUND:                 0.000
REMARK SMILES Cc1cccc(O)c1C
REMARK SMILES IDX 1 1 2 2 8 3 6 4 5 5 4 6 3 7 9 8 7 9
REMARK H PARENT 7 10
REMARK Flexibility Score: inf
ROOT
ATOM      1  C   UNL     1     -93.948 -18.542 -64.705  1.00  0.00     0.045 C 
ATOM      2  C   UNL     1     -95.410 -18.176 -64.715  1.00  0.00    -0.045 A 
ATOM      3  C   UNL     1     -95.856 -16.894 -64.301  1.00  0.00    -0.006 A 
ATOM      4  C   UNL     1     -97.239 -16.609 -64.309  1.00  0.00     0.118 A 
ATOM      5  C   UNL     1     -98.152 -17.571 -64.762  1.00  0.00     0.046 A 
ATOM      6  C   UNL     1     -97.705 -18.816 -65.198  1.00  0.00     0.004 A 
ATOM      7  C   UNL     1     -96.344 -19.119 -65.175  1.00  0.00     0.004 A 
ATOM      8  C   UNL     1     -94.874 -15.861 -63.802  1.00  0.00     0.048 C 
ENDROOT
BRANCH   4   9
ATOM      9  O   UNL     1     -97.708 -15.371 -63.866  1.00  0.00    -0.508 OA
ATOM     10  H   UNL     1     -98.089 -14.686 -64.508  1.00  0.00     0.293 HD
ENDBRANCH   4   9
TORSDOF 1
ENDMDL
MODEL 4
REMARK VINA RESULT:    -3.372     14.965     15.399
REMARK INTER + INTRA:          -3.470
REMARK INTER:                  -3.470
REMARK INTRA:                   0.000
REMARK UNBOUND:                 0.000
REMARK SMILES Cc1cccc(O)c1C
REMARK SMILES IDX 1 1 2 2 8 3 6 4 5 5 4 6 3 7 9 8 7 9
REMARK H PARENT 7 10
REMARK Flexibility Score: inf
ROOT
ATOM      1  C   UNL     1     -94.949 -19.973 -63.920  1.00  0.00     0.045 C 
ATOM      2  C   UNL     1     -95.095 -18.474 -63.971  1.00  0.00    -0.045 A 
ATOM      3  C   UNL     1     -96.131 -17.855 -64.717  1.00  0.00    -0.006 A 
ATOM      4  C   UNL     1     -96.211 -16.445 -64.749  1.00  0.00     0.118 A 
ATOM      5  C   UNL     1     -95.300 -15.674 -64.015  1.00  0.00     0.046 A 
ATOM      6  C   UNL     1     -94.306 -16.288 -63.258  1.00  0.00     0.004 A 
ATOM      7  C   UNL     1     -94.201 -17.678 -63.234  1.00  0.00     0.004 A 
ATOM      8  C   UNL     1     -97.105 -18.686 -65.518  1.00  0.00     0.048 C 
ENDROOT
BRANCH   4   9
ATOM      9  O   UNL     1     -97.194 -15.811 -65.510  1.00  0.00    -0.508 OA
ATOM     10  H   UNL     1     -97.892 -15.214 -65.085  1.00  0.00     0.293 HD
ENDBRANCH   4   9
TORSDOF 1
ENDMDL
MODEL 5
REMARK VINA RESULT:    -3.363     15.255     15.680
REMARK INTER + INTRA:          -3.461
REMARK INTER:                  -3.461
REMARK INTRA:                   0.000
REMARK UNBOUND:                 0.000
REMARK SMILES Cc1cccc(O)c1C
REMARK SMILES IDX 1 1 2 2 8 3 6 4 5 5 4 6 3 7 9 8 7 9
REMARK H PARENT 7 10
REMARK Flexibility Score: inf
ROOT
ATOM      1  C   UNL     1     -95.735 -19.695 -65.118  1.00  0.00     0.045 C 
ATOM      2  C   UNL     1     -95.470 -18.296 -64.627  1.00  0.00    -0.045 A 
ATOM      3  C   UNL     1     -94.377 -18.004 -63.771  1.00  0.00    -0.006 A 
ATOM      4  C   UNL     1     -94.186 -16.679 -63.322  1.00  0.00     0.118 A 
ATOM      5  C   UNL     1     -95.046 -15.660 -63.755  1.00  0.00     0.046 A 
ATOM      6  C   UNL     1     -96.098 -15.947 -64.621  1.00  0.00     0.004 A 
ATOM      7  C   UNL     1     -96.311 -17.254 -65.056  1.00  0.00     0.004 A 
ATOM      8  C   UNL     1     -93.457 -19.103 -63.295  1.00  0.00     0.048 C 
ENDROOT
BRANCH   4   9
ATOM      9  O   UNL     1     -93.144 -16.373 -62.445  1.00  0.00    -0.508 OA
ATOM     10  H   UNL     1     -93.315 -15.938 -61.547  1.00  0.00     0.293 HD
ENDBRANCH   4   9
TORSDOF 1
ENDMDL
MODEL 6
REMARK VINA RESULT:    -3.350     16.030     17.890
REMARK INTER + INTRA:          -3.448
REMARK INTER:                  -3.448
REMARK INTRA:                   0.000
REMARK UNBOUND:                 0.000
REMARK SMILES Cc1cccc(O)c1C
REMARK SMILES IDX 1 1 2 2 8 3 6 4 5 5 4 6 3 7 9 8 7 9
REMARK H PARENT 7 10
REMARK Flexibility Score: inf
ROOT
ATOM      1  C   UNL     1     -98.925  -7.140 -67.153  1.00  0.00     0.045 C 
ATOM      2  C   UNL     1    -100.019  -6.603 -66.266  1.00  0.00    -0.045 A 
ATOM      3  C   UNL     1    -100.903  -7.469 -65.572  1.00  0.00    -0.006 A 
ATOM      4  C   UNL     1    -101.925  -6.914 -64.770  1.00  0.00     0.118 A 
ATOM      5  C   UNL     1    -102.032  -5.524 -64.633  1.00  0.00     0.046 A 
ATOM      6  C   UNL     1    -101.142  -4.680 -65.291  1.00  0.00     0.004 A 
ATOM      7  C   UNL     1    -100.141  -5.213 -66.103  1.00  0.00     0.004 A 
ATOM      8  C   UNL     1    -100.795  -8.967 -65.728  1.00  0.00     0.048 C 
ENDROOT
BRANCH   4   9
ATOM      9  O   UNL     1    -102.834  -7.743 -64.110  1.00  0.00    -0.508 OA
ATOM     10  H   UNL     1    -103.120  -8.633 -64.498  1.00  0.00     0.293 HD
ENDBRANCH   4   9
TORSDOF 1
ENDMDL
MODEL 7
REMARK VINA RESULT:    -3.345     15.339     15.767
REMARK INTER + INTRA:          -3.443
REMARK INTER:                  -3.443
REMARK INTRA:                   0.000
REMARK UNBOUND:                 0.000
REMARK SMILES Cc1cccc(O)c1C
REMARK SMILES IDX 1 1 2 2 8 3 6 4 5 5 4 6 3 7 9 8 7 9
REMARK H PARENT 7 10
REMARK Flexibility Score: inf
ROOT
ATOM      1  C   UNL     1     -96.900 -19.414 -62.599  1.00  0.00     0.045 C 
ATOM      2  C   UNL     1     -96.312 -18.137 -63.141  1.00  0.00    -0.045 A 
ATOM      3  C   UNL     1     -96.976 -17.380 -64.140  1.00  0.00    -0.006 A 
ATOM      4  C   UNL     1     -96.370 -16.201 -64.629  1.00  0.00     0.118 A 
ATOM      5  C   UNL     1     -95.149 -15.767 -64.098  1.00  0.00     0.046 A 
ATOM      6  C   UNL     1     -94.518 -16.497 -63.094  1.00  0.00     0.004 A 
ATOM      7  C   UNL     1     -95.092 -17.674 -62.617  1.00  0.00     0.004 A 
ATOM      8  C   UNL     1     -98.286 -17.854 -64.721  1.00  0.00     0.048 C 
ENDROOT
BRANCH   4   9
ATOM      9  O   UNL     1     -96.982 -15.461 -65.642  1.00  0.00    -0.508 OA
ATOM     10  H   UNL     1     -97.987 -15.455 -65.764  1.00  0.00     0.293 HD
ENDBRANCH   4   9
TORSDOF 1
ENDMDL
MODEL 8
REMARK VINA RESULT:    -3.323     15.834     16.104
REMARK INTER + INTRA:          -3.420
REMARK INTER:                  -3.420
REMARK INTRA:                   0.000
REMARK UNBOUND:                 0.000
REMARK SMILES Cc1cccc(O)c1C
REMARK SMILES IDX 1 1 2 2 8 3 6 4 5 5 4 6 3 7 9 8 7 9
REMARK H PARENT 7 10
REMARK Flexibility Score: inf
ROOT
ATOM      1  C   UNL     1    -101.469  -6.340 -68.551  1.00  0.00     0.045 C 
ATOM      2  C   UNL     1    -101.495  -7.445 -67.527  1.00  0.00    -0.045 A 
ATOM      3  C   UNL     1    -100.377  -7.709 -66.693  1.00  0.00    -0.006 A 
ATOM      4  C   UNL     1    -100.445  -8.770 -65.763  1.00  0.00     0.118 A 
ATOM      5  C   UNL     1    -101.621  -9.522 -65.641  1.00  0.00     0.046 A 
ATOM      6  C   UNL     1    -102.726  -9.237 -66.439  1.00  0.00     0.004 A 
ATOM      7  C   UNL     1    -102.666  -8.207 -67.376  1.00  0.00     0.004 A 
ATOM      8  C   UNL     1     -99.106  -6.907 -66.832  1.00  0.00     0.048 C 
ENDROOT
BRANCH   4   9
ATOM      9  O   UNL     1     -99.346  -9.078 -64.961  1.00  0.00    -0.508 OA
ATOM     10  H   UNL     1     -98.787  -8.355 -64.524  1.00  0.00     0.293 HD
ENDBRANCH   4   9
TORSDOF 1
ENDMDL
MODEL 9
REMARK VINA RESULT:    -3.210      2.253      3.123
REMARK INTER + INTRA:          -3.303
REMARK INTER:                  -3.303
REMARK INTRA:                   0.000
REMARK UNBOUND:                 0.000
REMARK SMILES Cc1cccc(O)c1C
REMARK SMILES IDX 1 1 2 2 8 3 6 4 5 5 4 6 3 7 9 8 7 9
REMARK H PARENT 7 10
REMARK Flexibility Score: inf
ROOT
ATOM      1  C   UNL     1     -97.224 -14.066 -78.966  1.00  0.00     0.045 C 
ATOM      2  C   UNL     1     -96.858 -15.482 -79.328  1.00  0.00    -0.045 A 
ATOM      3  C   UNL     1     -97.833 -16.512 -79.373  1.00  0.00    -0.006 A 
ATOM      4  C   UNL     1     -97.434 -17.827 -79.697  1.00  0.00     0.118 A 
ATOM      5  C   UNL     1     -96.095 -18.096 -80.012  1.00  0.00     0.046 A 
ATOM      6  C   UNL     1     -95.149 -17.075 -79.999  1.00  0.00     0.004 A 
ATOM      7  C   UNL     1     -95.524 -15.776 -79.659  1.00  0.00     0.004 A 
ATOM      8  C   UNL     1     -99.274 -16.224 -79.022  1.00  0.00     0.048 C 
ENDROOT
BRANCH   4   9
ATOM      9  O   UNL     1     -98.365 -18.866 -79.707  1.00  0.00    -0.508 OA
ATOM     10  H   UNL     1     -99.206 -18.822 -80.270  1.00  0.00     0.293 HD
ENDBRANCH   4   9
TORSDOF 1
ENDMDL
