MODEL 1
REMARK VINA RESULT:    -3.756      0.000      0.000
REMARK INTER + INTRA:          -4.816
REMARK INTER:                  -4.634
REMARK INTRA:                  -0.182
REMARK UNBOUND:                -0.182
REMARK SMILES C=CC(=C)CCC=C(C)C
REMARK SMILES IDX 5 1 6 2 7 3 9 4 8 5 10 6 3 7 4 8 2 9 1 10
REMARK H PARENT
REMARK Flexibility Score: inf
ROOT
ATOM      1  C   UNL     1     134.876 136.944 161.823  1.00  0.00     0.039 C 
ENDROOT
BRANCH   1   2
ATOM      2  C   UNL     1     134.909 138.453 162.096  1.00  0.00     0.032 C 
BRANCH   2   3
ATOM      3  C   UNL     1     135.608 138.752 163.400  1.00  0.00    -0.028 C 
ATOM      4  C   UNL     1     136.416 140.116 165.277  1.00  0.00     0.039 C 
ATOM      5  C   UNL     1     135.666 139.973 163.977  1.00  0.00    -0.080 C 
ATOM      6  C   UNL     1     134.992 141.181 163.372  1.00  0.00     0.039 C 
ENDBRANCH   2   3
ENDBRANCH   1   2
BRANCH   1   7
ATOM      7  C   UNL     1     136.256 136.432 161.470  1.00  0.00    -0.055 C 
ATOM      8  C   UNL     1     137.094 137.231 160.799  1.00  0.00     0.012 C 
BRANCH   7   9
ATOM      9  C   UNL     1     136.733 135.086 161.882  1.00  0.00    -0.005 C 
ATOM     10  C   UNL     1     137.832 134.875 162.609  1.00  0.00     0.009 C 
ENDBRANCH   7   9
ENDBRANCH   1   7
TORSDOF 4
ENDMDL
MODEL 2
REMARK VINA RESULT:    -3.032      0.910      4.600
REMARK INTER + INTRA:          -3.922
REMARK INTER:                  -3.493
REMARK INTRA:                  -0.429
REMARK UNBOUND:                -0.182
REMARK SMILES C=CC(=C)CCC=C(C)C
REMARK SMILES IDX 5 1 6 2 7 3 9 4 8 5 10 6 3 7 4 8 2 9 1 10
REMARK H PARENT
REMARK Flexibility Score: inf
ROOT
ATOM      1  C   UNL     1     134.941 138.387 162.896  1.00  0.00     0.039 C 
ENDROOT
BRANCH   1   2
ATOM      2  C   UNL     1     135.603 137.886 161.606  1.00  0.00     0.032 C 
BRANCH   2   3
ATOM      3  C   UNL     1     136.811 137.036 161.913  1.00  0.00    -0.028 C 
ATOM      4  C   UNL     1     138.113 134.976 162.225  1.00  0.00     0.039 C 
ATOM      5  C   UNL     1     136.829 135.685 161.878  1.00  0.00    -0.080 C 
ATOM      6  C   UNL     1     135.615 134.875 161.487  1.00  0.00     0.039 C 
ENDBRANCH   2   3
ENDBRANCH   1   2
BRANCH   1   7
ATOM      7  C   UNL     1     135.410 139.786 163.232  1.00  0.00    -0.055 C 
ATOM      8  C   UNL     1     135.253 140.759 162.328  1.00  0.00     0.012 C 
BRANCH   7   9
ATOM      9  C   UNL     1     135.999 140.130 164.552  1.00  0.00    -0.005 C 
ATOM     10  C   UNL     1     136.736 139.291 165.281  1.00  0.00     0.009 C 
ENDBRANCH   7   9
ENDBRANCH   1   7
TORSDOF 4
ENDMDL
MODEL 3
REMARK VINA RESULT:    -2.068      0.730      4.838
REMARK INTER + INTRA:          -2.733
REMARK INTER:                  -2.350
REMARK INTRA:                  -0.384
REMARK UNBOUND:                -0.182
REMARK SMILES C=CC(=C)CCC=C(C)C
REMARK SMILES IDX 5 1 6 2 7 3 9 4 8 5 10 6 3 7 4 8 2 9 1 10
REMARK H PARENT
REMARK Flexibility Score: inf
ROOT
ATOM      1  C   UNL     1     135.151 138.619 164.094  1.00  0.00     0.039 C 
ENDROOT
BRANCH   1   2
ATOM      2  C   UNL     1     134.878 138.256 162.629  1.00  0.00     0.032 C 
BRANCH   2   3
ATOM      3  C   UNL     1     135.198 136.805 162.362  1.00  0.00    -0.028 C 
ATOM      4  C   UNL     1     136.496 134.882 161.554  1.00  0.00     0.039 C 
ATOM      5  C   UNL     1     136.328 136.366 161.764  1.00  0.00    -0.080 C 
ATOM      6  C   UNL     1     137.423 137.308 161.323  1.00  0.00     0.039 C 
ENDBRANCH   2   3
ENDBRANCH   1   2
BRANCH   1   7
ATOM      7  C   UNL     1     135.706 140.022 164.205  1.00  0.00    -0.055 C 
ATOM      8  C   UNL     1     136.555 140.309 165.199  1.00  0.00     0.012 C 
BRANCH   7   9
ATOM      9  C   UNL     1     135.377 141.086 163.222  1.00  0.00    -0.005 C 
ATOM     10  C   UNL     1     136.205 141.493 162.258  1.00  0.00     0.009 C 
ENDBRANCH   7   9
ENDBRANCH   1   7
TORSDOF 4
ENDMDL
