MODEL 1
REMARK VINA RESULT:    -1.629      0.000      0.000
REMARK INTER + INTRA:          -4.141
REMARK INTER:                  -2.581
REMARK INTRA:                  -1.560
REMARK UNBOUND:                -1.560
REMARK SMILES CCCCCCCCCCCC(=O)[O-]
REMARK SMILES IDX 7 1 8 2 9 3 10 4 11 5 12 6 13 7 14 8 6 9 5 10 4 11 3 12 2 13
REMARK SMILES IDX 1 14
REMARK H PARENT
REMARK Flexibility Score: inf
ROOT
ATOM      1  C   UNL     1      22.808  25.185  14.768  1.00  0.00     0.000 C 
ENDROOT
BRANCH   1   2
ATOM      2  C   UNL     1      23.386  24.932  13.365  1.00  0.00     0.000 C 
BRANCH   2   3
ATOM      3  C   UNL     1      23.079  26.077  12.385  1.00  0.00     0.000 C 
BRANCH   3   4
ATOM      4  C   UNL     1      21.580  26.414  12.321  1.00  0.00     0.006 C 
BRANCH   4   5
ATOM      5  C   UNL     1      21.319  27.920  12.466  1.00  0.00     0.053 C 
BRANCH   5   6
ATOM      6  C   UNL     1      20.969  28.293  13.874  1.00  0.00     0.041 C 
ATOM      7  O   UNL     1      21.493  29.304  14.410  1.00  0.00    -0.550 OA
ATOM      8  O   UNL     1      20.041  27.540  14.584  1.00  0.00    -0.550 OA
ENDBRANCH   5   6
ENDBRANCH   4   5
ENDBRANCH   3   4
ENDBRANCH   2   3
ENDBRANCH   1   2
BRANCH   1   9
ATOM      9  C   UNL     1      23.599  26.239  15.562  1.00  0.00     0.000 C 
BRANCH   9  10
ATOM     10  C   UNL     1      25.131  26.107  15.478  1.00  0.00    -0.000 C 
BRANCH  10  11
ATOM     11  C   UNL     1      25.836  27.448  15.226  1.00  0.00    -0.000 C 
BRANCH  11  12
ATOM     12  C   UNL     1      24.899  28.435  14.513  1.00  0.00    -0.000 C 
BRANCH  12  13
ATOM     13  C   UNL     1      25.395  28.810  13.108  1.00  0.00    -0.003 C 
ATOM     14  C   UNL     1      24.494  29.834  12.418  1.00  0.00     0.004 C 
ENDBRANCH  12  13
ENDBRANCH  11  12
ENDBRANCH  10  11
ENDBRANCH   9  10
ENDBRANCH   1   9
TORSDOF 10
ENDMDL
MODEL 2
REMARK VINA RESULT:    -1.587      2.556      4.888
REMARK INTER + INTRA:          -4.075
REMARK INTER:                  -2.674
REMARK INTRA:                  -1.401
REMARK UNBOUND:                -1.560
REMARK SMILES CCCCCCCCCCCC(=O)[O-]
REMARK SMILES IDX 7 1 8 2 9 3 10 4 11 5 12 6 13 7 14 8 6 9 5 10 4 11 3 12 2 13
REMARK SMILES IDX 1 14
REMARK H PARENT
REMARK Flexibility Score: inf
ROOT
ATOM      1  C   UNL     1      22.943  25.248  14.775  1.00  0.00     0.000 C 
ENDROOT
BRANCH   1   2
ATOM      2  C   UNL     1      23.718  25.891  15.937  1.00  0.00     0.000 C 
BRANCH   2   3
ATOM      3  C   UNL     1      25.137  26.324  15.533  1.00  0.00     0.000 C 
BRANCH   3   4
ATOM      4  C   UNL     1      25.398  27.817  15.799  1.00  0.00     0.006 C 
BRANCH   4   5
ATOM      5  C   UNL     1      24.425  28.720  15.029  1.00  0.00     0.053 C 
BRANCH   5   6
ATOM      6  C   UNL     1      24.595  28.588  13.547  1.00  0.00     0.041 C 
ATOM      7  O   UNL     1      23.612  28.285  12.821  1.00  0.00    -0.550 OA
ATOM      8  O   UNL     1      25.833  28.830  12.963  1.00  0.00    -0.550 OA
ENDBRANCH   5   6
ENDBRANCH   4   5
ENDBRANCH   3   4
ENDBRANCH   2   3
ENDBRANCH   1   2
BRANCH   1   9
ATOM      9  C   UNL     1      23.863  24.591  13.731  1.00  0.00     0.000 C 
BRANCH   9  10
ATOM     10  C   UNL     1      24.203  23.113  13.997  1.00  0.00    -0.000 C 
BRANCH  10  11
ATOM     11  C   UNL     1      25.711  22.862  14.150  1.00  0.00    -0.000 C 
BRANCH  11  12
ATOM     12  C   UNL     1      26.014  22.119  15.459  1.00  0.00    -0.000 C 
BRANCH  12  13
ATOM     13  C   UNL     1      25.059  22.512  16.597  1.00  0.00    -0.003 C 
ATOM     14  C   UNL     1      25.770  23.235  17.740  1.00  0.00     0.004 C 
ENDBRANCH  12  13
ENDBRANCH  11  12
ENDBRANCH  10  11
ENDBRANCH   9  10
ENDBRANCH   1   9
TORSDOF 10
ENDMDL
MODEL 3
REMARK VINA RESULT:    -1.538      2.731      4.141
REMARK INTER + INTRA:          -3.997
REMARK INTER:                  -2.423
REMARK INTRA:                  -1.574
REMARK UNBOUND:                -1.560
REMARK SMILES CCCCCCCCCCCC(=O)[O-]
REMARK SMILES IDX 7 1 8 2 9 3 10 4 11 5 12 6 13 7 14 8 6 9 5 10 4 11 3 12 2 13
REMARK SMILES IDX 1 14
REMARK H PARENT
REMARK Flexibility Score: inf
ROOT
ATOM      1  C   UNL     1      23.993  28.226  11.878  1.00  0.00     0.000 C 
ENDROOT
BRANCH   1   2
ATOM      2  C   UNL     1      22.530  28.219  12.354  1.00  0.00     0.000 C 
BRANCH   2   3
ATOM      3  C   UNL     1      22.043  26.814  12.744  1.00  0.00     0.000 C 
BRANCH   3   4
ATOM      4  C   UNL     1      23.117  25.734  12.523  1.00  0.00     0.006 C 
BRANCH   4   5
ATOM      5  C   UNL     1      23.531  25.054  13.835  1.00  0.00     0.053 C 
BRANCH   5   6
ATOM      6  C   UNL     1      23.854  23.605  13.636  1.00  0.00     0.041 C 
ATOM      7  O   UNL     1      23.550  23.031  12.557  1.00  0.00    -0.550 OA
ATOM      8  O   UNL     1      24.518  22.896  14.629  1.00  0.00    -0.550 OA
ENDBRANCH   5   6
ENDBRANCH   4   5
ENDBRANCH   3   4
ENDBRANCH   2   3
ENDBRANCH   1   2
BRANCH   1   9
ATOM      9  C   UNL     1      24.926  29.010  12.818  1.00  0.00     0.000 C 
BRANCH   9  10
ATOM     10  C   UNL     1      25.282  28.292  14.134  1.00  0.00    -0.000 C 
BRANCH  10  11
ATOM     11  C   UNL     1      24.615  28.927  15.363  1.00  0.00    -0.000 C 
BRANCH  11  12
ATOM     12  C   UNL     1      24.022  27.850  16.283  1.00  0.00    -0.000 C 
BRANCH  12  13
ATOM     13  C   UNL     1      22.487  27.815  16.239  1.00  0.00    -0.003 C 
ATOM     14  C   UNL     1      21.875  29.166  15.870  1.00  0.00     0.004 C 
ENDBRANCH  12  13
ENDBRANCH  11  12
ENDBRANCH  10  11
ENDBRANCH   9  10
ENDBRANCH   1   9
TORSDOF 10
ENDMDL
MODEL 4
REMARK VINA RESULT:    -1.533      3.240      4.727
REMARK INTER + INTRA:          -3.989
REMARK INTER:                  -2.429
REMARK INTRA:                  -1.560
REMARK UNBOUND:                -1.560
REMARK SMILES CCCCCCCCCCCC(=O)[O-]
REMARK SMILES IDX 7 1 8 2 9 3 10 4 11 5 12 6 13 7 14 8 6 9 5 10 4 11 3 12 2 13
REMARK SMILES IDX 1 14
REMARK H PARENT
REMARK Flexibility Score: inf
ROOT
ATOM      1  C   UNL     1      22.902  26.853  13.075  1.00  0.00     0.000 C 
ENDROOT
BRANCH   1   2
ATOM      2  C   UNL     1      23.579  25.621  13.698  1.00  0.00     0.000 C 
BRANCH   2   3
ATOM      3  C   UNL     1      23.272  25.472  15.197  1.00  0.00     0.000 C 
BRANCH   3   4
ATOM      4  C   UNL     1      24.389  26.042  16.088  1.00  0.00     0.006 C 
BRANCH   4   5
ATOM      5  C   UNL     1      25.783  25.606  15.617  1.00  0.00     0.053 C 
BRANCH   5   6
ATOM      6  C   UNL     1      26.023  24.147  15.858  1.00  0.00     0.041 C 
ATOM      7  O   UNL     1      26.106  23.705  17.034  1.00  0.00    -0.550 OA
ATOM      8  O   UNL     1      26.125  23.271  14.785  1.00  0.00    -0.550 OA
ENDBRANCH   5   6
ENDBRANCH   4   5
ENDBRANCH   3   4
ENDBRANCH   2   3
ENDBRANCH   1   2
BRANCH   1   9
ATOM      9  C   UNL     1      23.897  27.795  12.375  1.00  0.00     0.000 C 
BRANCH   9  10
ATOM     10  C   UNL     1      24.631  28.780  13.304  1.00  0.00    -0.000 C 
BRANCH  10  11
ATOM     11  C   UNL     1      23.675  29.626  14.158  1.00  0.00    -0.000 C 
BRANCH  11  12
ATOM     12  C   UNL     1      24.101  29.615  15.633  1.00  0.00    -0.000 C 
BRANCH  12  13
ATOM     13  C   UNL     1      22.904  29.555  16.594  1.00  0.00    -0.003 C 
ATOM     14  C   UNL     1      21.727  28.766  16.022  1.00  0.00     0.004 C 
ENDBRANCH  12  13
ENDBRANCH  11  12
ENDBRANCH  10  11
ENDBRANCH   9  10
ENDBRANCH   1   9
TORSDOF 10
ENDMDL
MODEL 5
REMARK VINA RESULT:    -1.524      2.210      3.920
REMARK INTER + INTRA:          -3.975
REMARK INTER:                  -2.666
REMARK INTRA:                  -1.309
REMARK UNBOUND:                -1.560
REMARK SMILES CCCCCCCCCCCC(=O)[O-]
REMARK SMILES IDX 7 1 8 2 9 3 10 4 11 5 12 6 13 7 14 8 6 9 5 10 4 11 3 12 2 13
REMARK SMILES IDX 1 14
REMARK H PARENT
REMARK Flexibility Score: inf
ROOT
ATOM      1  C   UNL     1      23.314  25.453  15.572  1.00  0.00     0.000 C 
ENDROOT
BRANCH   1   2
ATOM      2  C   UNL     1      24.607  24.727  15.162  1.00  0.00     0.000 C 
BRANCH   2   3
ATOM      3  C   UNL     1      25.868  25.416  15.708  1.00  0.00     0.000 C 
BRANCH   3   4
ATOM      4  C   UNL     1      25.772  26.951  15.660  1.00  0.00     0.006 C 
BRANCH   4   5
ATOM      5  C   UNL     1      26.125  27.595  17.007  1.00  0.00     0.053 C 
BRANCH   5   6
ATOM      6  C   UNL     1      24.986  28.397  17.558  1.00  0.00     0.041 C 
ATOM      7  O   UNL     1      24.983  29.651  17.447  1.00  0.00    -0.550 OA
ATOM      8  O   UNL     1      23.915  27.757  18.169  1.00  0.00    -0.550 OA
ENDBRANCH   5   6
ENDBRANCH   4   5
ENDBRANCH   3   4
ENDBRANCH   2   3
ENDBRANCH   1   2
BRANCH   1   9
ATOM      9  C   UNL     1      22.473  25.909  14.366  1.00  0.00     0.000 C 
BRANCH   9  10
ATOM     10  C   UNL     1      23.162  25.762  12.996  1.00  0.00    -0.000 C 
BRANCH  10  11
ATOM     11  C   UNL     1      23.307  27.097  12.251  1.00  0.00    -0.000 C 
BRANCH  11  12
ATOM     12  C   UNL     1      22.844  28.269  13.130  1.00  0.00    -0.000 C 
BRANCH  12  13
ATOM     13  C   UNL     1      23.980  29.251  13.453  1.00  0.00    -0.003 C 
ATOM     14  C   UNL     1      25.242  28.985  12.632  1.00  0.00     0.004 C 
ENDBRANCH  12  13
ENDBRANCH  11  12
ENDBRANCH  10  11
ENDBRANCH   9  10
ENDBRANCH   1   9
TORSDOF 10
ENDMDL
MODEL 6
REMARK VINA RESULT:    -1.470      2.987      4.307
REMARK INTER + INTRA:          -3.889
REMARK INTER:                  -2.234
REMARK INTRA:                  -1.654
REMARK UNBOUND:                -1.560
REMARK SMILES CCCCCCCCCCCC(=O)[O-]
REMARK SMILES IDX 7 1 8 2 9 3 10 4 11 5 12 6 13 7 14 8 6 9 5 10 4 11 3 12 2 13
REMARK SMILES IDX 1 14
REMARK H PARENT
REMARK Flexibility Score: inf
ROOT
ATOM      1  C   UNL     1      21.797  28.208  14.393  1.00  0.00     0.000 C 
ENDROOT
BRANCH   1   2
ATOM      2  C   UNL     1      22.040  26.700  14.568  1.00  0.00     0.000 C 
BRANCH   2   3
ATOM      3  C   UNL     1      22.302  25.985  13.232  1.00  0.00     0.000 C 
BRANCH   3   4
ATOM      4  C   UNL     1      23.489  25.009  13.306  1.00  0.00     0.006 C 
BRANCH   4   5
ATOM      5  C   UNL     1      23.718  24.485  14.730  1.00  0.00     0.053 C 
BRANCH   5   6
ATOM      6  C   UNL     1      24.860  23.518  14.792  1.00  0.00     0.041 C 
ATOM      7  O   UNL     1      26.010  23.915  15.117  1.00  0.00    -0.550 OA
ATOM      8  O   UNL     1      24.648  22.172  14.520  1.00  0.00    -0.550 OA
ENDBRANCH   5   6
ENDBRANCH   4   5
ENDBRANCH   3   4
ENDBRANCH   2   3
ENDBRANCH   1   2
BRANCH   1   9
ATOM      9  C   UNL     1      22.895  28.901  13.566  1.00  0.00     0.000 C 
BRANCH   9  10
ATOM     10  C   UNL     1      24.172  29.264  14.348  1.00  0.00    -0.000 C 
BRANCH  10  11
ATOM     11  C   UNL     1      25.358  28.344  14.022  1.00  0.00    -0.000 C 
BRANCH  11  12
ATOM     12  C   UNL     1      25.727  27.475  15.233  1.00  0.00    -0.000 C 
BRANCH  12  13
ATOM     13  C   UNL     1      25.175  28.036  16.553  1.00  0.00    -0.003 C 
ATOM     14  C   UNL     1      24.454  26.979  17.388  1.00  0.00     0.004 C 
ENDBRANCH  12  13
ENDBRANCH  11  12
ENDBRANCH  10  11
ENDBRANCH   9  10
ENDBRANCH   1   9
TORSDOF 10
ENDMDL
MODEL 7
REMARK VINA RESULT:    -1.448      2.865      4.257
REMARK INTER + INTRA:          -3.854
REMARK INTER:                  -2.483
REMARK INTRA:                  -1.371
REMARK UNBOUND:                -1.560
REMARK SMILES CCCCCCCCCCCC(=O)[O-]
REMARK SMILES IDX 7 1 8 2 9 3 10 4 11 5 12 6 13 7 14 8 6 9 5 10 4 11 3 12 2 13
REMARK SMILES IDX 1 14
REMARK H PARENT
REMARK Flexibility Score: inf
ROOT
ATOM      1  C   UNL     1      25.808  24.936  17.434  1.00  0.00     0.000 C 
ENDROOT
BRANCH   1   2
ATOM      2  C   UNL     1      25.995  25.338  15.961  1.00  0.00     0.000 C 
BRANCH   2   3
ATOM      3  C   UNL     1      24.665  25.400  15.193  1.00  0.00     0.000 C 
BRANCH   3   4
ATOM      4  C   UNL     1      24.127  26.835  15.057  1.00  0.00     0.006 C 
BRANCH   4   5
ATOM      5  C   UNL     1      25.247  27.849  14.789  1.00  0.00     0.053 C 
BRANCH   5   6
ATOM      6  C   UNL     1      24.827  28.897  13.804  1.00  0.00     0.041 C 
ATOM      7  O   UNL     1      23.938  29.733  14.111  1.00  0.00    -0.550 OA
ATOM      8  O   UNL     1      25.440  28.968  12.559  1.00  0.00    -0.550 OA
ENDBRANCH   5   6
ENDBRANCH   4   5
ENDBRANCH   3   4
ENDBRANCH   2   3
ENDBRANCH   1   2
BRANCH   1   9
ATOM      9  C   UNL     1      25.805  26.143  18.389  1.00  0.00     0.000 C 
BRANCH   9  10
ATOM     10  C   UNL     1      24.523  26.311  19.227  1.00  0.00    -0.000 C 
BRANCH  10  11
ATOM     11  C   UNL     1      24.124  27.782  19.424  1.00  0.00    -0.000 C 
BRANCH  11  12
ATOM     12  C   UNL     1      23.084  28.212  18.380  1.00  0.00    -0.000 C 
BRANCH  12  13
ATOM     13  C   UNL     1      23.491  29.492  17.633  1.00  0.00    -0.003 C 
ATOM     14  C   UNL     1      24.939  29.899  17.904  1.00  0.00     0.004 C 
ENDBRANCH  12  13
ENDBRANCH  11  12
ENDBRANCH  10  11
ENDBRANCH   9  10
ENDBRANCH   1   9
TORSDOF 10
ENDMDL
MODEL 8
REMARK VINA RESULT:    -1.437      2.090      3.910
REMARK INTER + INTRA:          -3.837
REMARK INTER:                  -2.353
REMARK INTRA:                  -1.484
REMARK UNBOUND:                -1.560
REMARK SMILES CCCCCCCCCCCC(=O)[O-]
REMARK SMILES IDX 7 1 8 2 9 3 10 4 11 5 12 6 13 7 14 8 6 9 5 10 4 11 3 12 2 13
REMARK SMILES IDX 1 14
REMARK H PARENT
REMARK Flexibility Score: inf
ROOT
ATOM      1  C   UNL     1      21.426  26.178  15.636  1.00  0.00     0.000 C 
ENDROOT
BRANCH   1   2
ATOM      2  C   UNL     1      21.296  27.581  15.020  1.00  0.00     0.000 C 
BRANCH   2   3
ATOM      3  C   UNL     1      22.067  28.648  15.814  1.00  0.00     0.000 C 
BRANCH   3   4
ATOM      4  C   UNL     1      22.756  29.680  14.904  1.00  0.00     0.006 C 
BRANCH   4   5
ATOM      5  C   UNL     1      24.253  29.387  14.729  1.00  0.00     0.053 C 
BRANCH   5   6
ATOM      6  C   UNL     1      24.604  29.110  13.299  1.00  0.00     0.041 C 
ATOM      7  O   UNL     1      25.783  28.803  12.985  1.00  0.00    -0.550 OA
ATOM      8  O   UNL     1      23.621  29.162  12.318  1.00  0.00    -0.550 OA
ENDBRANCH   5   6
ENDBRANCH   4   5
ENDBRANCH   3   4
ENDBRANCH   2   3
ENDBRANCH   1   2
BRANCH   1   9
ATOM      9  C   UNL     1      22.137  25.178  14.707  1.00  0.00     0.000 C 
BRANCH   9  10
ATOM     10  C   UNL     1      23.525  25.623  14.207  1.00  0.00    -0.000 C 
BRANCH  10  11
ATOM     11  C   UNL     1      24.678  25.014  15.019  1.00  0.00    -0.000 C 
BRANCH  11  12
ATOM     12  C   UNL     1      25.545  26.114  15.649  1.00  0.00    -0.000 C 
BRANCH  12  13
ATOM     13  C   UNL     1      25.602  26.016  17.181  1.00  0.00    -0.003 C 
ATOM     14  C   UNL     1      24.411  26.689  17.861  1.00  0.00     0.004 C 
ENDBRANCH  12  13
ENDBRANCH  11  12
ENDBRANCH  10  11
ENDBRANCH   9  10
ENDBRANCH   1   9
TORSDOF 10
ENDMDL
MODEL 9
REMARK VINA RESULT:    -1.403      1.529      3.153
REMARK INTER + INTRA:          -3.783
REMARK INTER:                  -2.197
REMARK INTRA:                  -1.586
REMARK UNBOUND:                -1.560
REMARK SMILES CCCCCCCCCCCC(=O)[O-]
REMARK SMILES IDX 7 1 8 2 9 3 10 4 11 5 12 6 13 7 14 8 6 9 5 10 4 11 3 12 2 13
REMARK SMILES IDX 1 14
REMARK H PARENT
REMARK Flexibility Score: inf
ROOT
ATOM      1  C   UNL     1      23.508  27.147  11.875  1.00  0.00     0.000 C 
ENDROOT
BRANCH   1   2
ATOM      2  C   UNL     1      22.085  26.923  12.415  1.00  0.00     0.000 C 
BRANCH   2   3
ATOM      3  C   UNL     1      21.235  28.205  12.387  1.00  0.00     0.000 C 
BRANCH   3   4
ATOM      4  C   UNL     1      20.739  28.615  13.784  1.00  0.00     0.006 C 
BRANCH   4   5
ATOM      5  C   UNL     1      20.861  27.471  14.800  1.00  0.00     0.053 C 
BRANCH   5   6
ATOM      6  C   UNL     1      19.542  26.811  15.059  1.00  0.00     0.041 C 
ATOM      7  O   UNL     1      19.484  25.570  15.264  1.00  0.00    -0.550 OA
ATOM      8  O   UNL     1      18.379  27.571  15.103  1.00  0.00    -0.550 OA
ENDBRANCH   5   6
ENDBRANCH   4   5
ENDBRANCH   3   4
ENDBRANCH   2   3
ENDBRANCH   1   2
BRANCH   1   9
ATOM      9  C   UNL     1      23.947  28.621  11.933  1.00  0.00     0.000 C 
BRANCH   9  10
ATOM     10  C   UNL     1      24.913  28.971  13.081  1.00  0.00    -0.000 C 
BRANCH  10  11
ATOM     11  C   UNL     1      24.189  29.427  14.356  1.00  0.00    -0.000 C 
BRANCH  11  12
ATOM     12  C   UNL     1      24.642  28.602  15.569  1.00  0.00    -0.000 C 
BRANCH  12  13
ATOM     13  C   UNL     1      25.276  27.260  15.168  1.00  0.00    -0.003 C 
ATOM     14  C   UNL     1      24.332  26.076  15.373  1.00  0.00     0.004 C 
ENDBRANCH  12  13
ENDBRANCH  11  12
ENDBRANCH  10  11
ENDBRANCH   9  10
ENDBRANCH   1   9
TORSDOF 10
ENDMDL
