MODEL 1
REMARK VINA RESULT:    -3.645      0.000      0.000
REMARK INTER + INTRA:          -4.215
REMARK INTER:                  -4.177
REMARK INTRA:                  -0.038
REMARK UNBOUND:                -0.038
REMARK SMILES CC(C)[C@H]([NH3+])C(=O)[O-]
REMARK SMILES IDX 4 1 5 2 6 6 7 7 8 8 2 9 1 10 3 11
REMARK H PARENT 5 3 5 4 5 5
REMARK Flexibility Score: inf
ROOT
ATOM      1  C   UNL     1     176.455 174.214 169.740  1.00  0.00     0.230 C 
ENDROOT
BRANCH   1   2
ATOM      2  N   UNL     1     175.716 175.468 169.946  1.00  0.00    -0.350 N 
ATOM      3  H   UNL     1     175.434 175.901 169.038  1.00  0.00     0.345 HD
ATOM      4  H   UNL     1     174.862 175.291 170.523  1.00  0.00     0.345 HD
ATOM      5  H   UNL     1     176.321 176.148 170.463  1.00  0.00     0.345 HD
ENDBRANCH   1   2
BRANCH   1   6
ATOM      6  C   UNL     1     177.885 174.356 170.204  1.00  0.00     0.099 C 
ATOM      7  O   UNL     1     178.332 175.488 170.526  1.00  0.00    -0.544 OA
ATOM      8  O   UNL     1     178.710 173.242 170.310  1.00  0.00    -0.544 OA
ENDBRANCH   1   6
BRANCH   1   9
ATOM      9  C   UNL     1     176.348 173.718 168.266  1.00  0.00     0.047 C 
ATOM     10  C   UNL     1     177.370 174.426 167.363  1.00  0.00     0.014 C 
ATOM     11  C   UNL     1     174.935 173.854 167.670  1.00  0.00     0.014 C 
ENDBRANCH   1   9
TORSDOF 3
ENDMDL
MODEL 2
REMARK VINA RESULT:    -3.411     12.331     13.092
REMARK INTER + INTRA:          -3.948
REMARK INTER:                  -4.015
REMARK INTRA:                   0.067
REMARK UNBOUND:                -0.038
REMARK SMILES CC(C)[C@H]([NH3+])C(=O)[O-]
REMARK SMILES IDX 4 1 5 2 6 6 7 7 8 8 2 9 1 10 3 11
REMARK H PARENT 5 3 5 4 5 5
REMARK Flexibility Score: inf
ROOT
ATOM      1  C   UNL     1     172.633 163.024 167.001  1.00  0.00     0.230 C 
ENDROOT
BRANCH   1   2
ATOM      2  N   UNL     1     173.151 164.075 166.112  1.00  0.00    -0.350 N 
ATOM      3  H   UNL     1     173.364 163.700 165.160  1.00  0.00     0.345 HD
ATOM      4  H   UNL     1     172.454 164.849 166.028  1.00  0.00     0.345 HD
ATOM      5  H   UNL     1     174.030 164.472 166.516  1.00  0.00     0.345 HD
ENDBRANCH   1   2
BRANCH   1   6
ATOM      6  C   UNL     1     173.761 162.375 167.769  1.00  0.00     0.099 C 
ATOM      7  O   UNL     1     174.875 162.188 167.214  1.00  0.00    -0.544 OA
ATOM      8  O   UNL     1     173.593 162.007 169.099  1.00  0.00    -0.544 OA
ENDBRANCH   1   6
BRANCH   1   9
ATOM      9  C   UNL     1     171.762 161.991 166.225  1.00  0.00     0.047 C 
ATOM     10  C   UNL     1     171.259 160.875 167.155  1.00  0.00     0.014 C 
ATOM     11  C   UNL     1     172.469 161.380 165.003  1.00  0.00     0.014 C 
ENDBRANCH   1   9
TORSDOF 3
ENDMDL
MODEL 3
REMARK VINA RESULT:    -3.355     12.276     13.326
REMARK INTER + INTRA:          -3.884
REMARK INTER:                  -3.824
REMARK INTRA:                  -0.060
REMARK UNBOUND:                -0.038
REMARK SMILES CC(C)[C@H]([NH3+])C(=O)[O-]
REMARK SMILES IDX 4 1 5 2 6 6 7 7 8 8 2 9 1 10 3 11
REMARK H PARENT 5 3 5 4 5 5
REMARK Flexibility Score: inf
ROOT
ATOM      1  C   UNL     1     164.936 177.483 167.763  1.00  0.00     0.230 C 
ENDROOT
BRANCH   1   2
ATOM      2  N   UNL     1     166.015 178.451 167.514  1.00  0.00    -0.350 N 
ATOM      3  H   UNL     1     166.893 178.181 168.011  1.00  0.00     0.345 HD
ATOM      4  H   UNL     1     166.207 178.519 166.489  1.00  0.00     0.345 HD
ATOM      5  H   UNL     1     165.720 179.397 167.852  1.00  0.00     0.345 HD
ENDBRANCH   1   2
BRANCH   1   6
ATOM      6  C   UNL     1     164.870 176.463 166.651  1.00  0.00     0.099 C 
ATOM      7  O   UNL     1     163.810 176.323 165.987  1.00  0.00    -0.544 OA
ATOM      8  O   UNL     1     165.982 175.692 166.329  1.00  0.00    -0.544 OA
ENDBRANCH   1   6
BRANCH   1   9
ATOM      9  C   UNL     1     163.571 178.193 168.008  1.00  0.00     0.047 C 
ATOM     10  C   UNL     1     163.594 179.641 167.495  1.00  0.00     0.014 C 
ATOM     11  C   UNL     1     163.114 178.162 169.477  1.00  0.00     0.014 C 
ENDBRANCH   1   9
TORSDOF 3
ENDMDL
MODEL 4
REMARK VINA RESULT:    -3.331     12.256     12.848
REMARK INTER + INTRA:          -3.856
REMARK INTER:                  -3.798
REMARK INTRA:                  -0.058
REMARK UNBOUND:                -0.038
REMARK SMILES CC(C)[C@H]([NH3+])C(=O)[O-]
REMARK SMILES IDX 4 1 5 2 6 6 7 7 8 8 2 9 1 10 3 11
REMARK H PARENT 5 3 5 4 5 5
REMARK Flexibility Score: inf
ROOT
ATOM      1  C   UNL     1     175.236 162.291 169.171  1.00  0.00     0.230 C 
ENDROOT
BRANCH   1   2
ATOM      2  N   UNL     1     175.407 161.277 170.222  1.00  0.00    -0.350 N 
ATOM      3  H   UNL     1     175.870 161.678 171.069  1.00  0.00     0.345 HD
ATOM      4  H   UNL     1     174.479 160.881 170.493  1.00  0.00     0.345 HD
ATOM      5  H   UNL     1     176.001 160.495 169.859  1.00  0.00     0.345 HD
ENDBRANCH   1   2
BRANCH   1   6
ATOM      6  C   UNL     1     173.897 162.130 168.490  1.00  0.00     0.099 C 
ATOM      7  O   UNL     1     173.745 162.518 167.302  1.00  0.00    -0.544 OA
ATOM      8  O   UNL     1     172.833 161.528 169.151  1.00  0.00    -0.544 OA
ENDBRANCH   1   6
BRANCH   1   9
ATOM      9  C   UNL     1     176.427 162.286 168.166  1.00  0.00     0.047 C 
ATOM     10  C   UNL     1     177.015 160.876 168.005  1.00  0.00     0.014 C 
ATOM     11  C   UNL     1     177.542 163.285 168.524  1.00  0.00     0.014 C 
ENDBRANCH   1   9
TORSDOF 3
ENDMDL
MODEL 5
REMARK VINA RESULT:    -3.275     12.501     13.097
REMARK INTER + INTRA:          -3.792
REMARK INTER:                  -3.745
REMARK INTRA:                  -0.047
REMARK UNBOUND:                -0.038
REMARK SMILES CC(C)[C@H]([NH3+])C(=O)[O-]
REMARK SMILES IDX 4 1 5 2 6 6 7 7 8 8 2 9 1 10 3 11
REMARK H PARENT 5 3 5 4 5 5
REMARK Flexibility Score: inf
ROOT
ATOM      1  C   UNL     1     172.410 162.715 166.560  1.00  0.00     0.230 C 
ENDROOT
BRANCH   1   2
ATOM      2  N   UNL     1     172.643 164.164 166.640  1.00  0.00    -0.350 N 
ATOM      3  H   UNL     1     173.404 164.393 167.318  1.00  0.00     0.345 HD
ATOM      4  H   UNL     1     172.897 164.540 165.699  1.00  0.00     0.345 HD
ATOM      5  H   UNL     1     171.766 164.641 166.954  1.00  0.00     0.345 HD
ENDBRANCH   1   2
BRANCH   1   6
ATOM      6  C   UNL     1     172.847 162.034 167.835  1.00  0.00     0.099 C 
ATOM      7  O   UNL     1     172.041 161.300 168.465  1.00  0.00    -0.544 OA
ATOM      8  O   UNL     1     174.145 162.184 168.311  1.00  0.00    -0.544 OA
ENDBRANCH   1   6
BRANCH   1   9
ATOM      9  C   UNL     1     173.070 162.095 165.291  1.00  0.00     0.047 C 
ATOM     10  C   UNL     1     173.347 163.167 164.226  1.00  0.00     0.014 C 
ATOM     11  C   UNL     1     172.263 160.938 164.677  1.00  0.00     0.014 C 
ENDBRANCH   1   9
TORSDOF 3
ENDMDL
MODEL 6
REMARK VINA RESULT:    -3.273      2.280      2.623
REMARK INTER + INTRA:          -3.789
REMARK INTER:                  -3.757
REMARK INTRA:                  -0.032
REMARK UNBOUND:                -0.038
REMARK SMILES CC(C)[C@H]([NH3+])C(=O)[O-]
REMARK SMILES IDX 4 1 5 2 6 6 7 7 8 8 2 9 1 10 3 11
REMARK H PARENT 5 3 5 4 5 5
REMARK Flexibility Score: inf
ROOT
ATOM      1  C   UNL     1     176.629 175.650 169.284  1.00  0.00     0.230 C 
ENDROOT
BRANCH   1   2
ATOM      2  N   UNL     1     175.733 176.328 170.233  1.00  0.00    -0.350 N 
ATOM      3  H   UNL     1     174.870 175.766 170.413  1.00  0.00     0.345 HD
ATOM      4  H   UNL     1     176.229 176.496 171.137  1.00  0.00     0.345 HD
ATOM      5  H   UNL     1     175.448 177.256 169.842  1.00  0.00     0.345 HD
ENDBRANCH   1   2
BRANCH   1   6
ATOM      6  C   UNL     1     176.746 176.444 168.004  1.00  0.00     0.099 C 
ATOM      7  O   UNL     1     175.925 177.367 167.758  1.00  0.00    -0.544 OA
ATOM      8  O   UNL     1     177.773 176.188 167.102  1.00  0.00    -0.544 OA
ENDBRANCH   1   6
BRANCH   1   9
ATOM      9  C   UNL     1     176.196 174.173 169.038  1.00  0.00     0.047 C 
ATOM     10  C   UNL     1     177.417 173.256 168.864  1.00  0.00     0.014 C 
ATOM     11  C   UNL     1     175.234 174.001 167.850  1.00  0.00     0.014 C 
ENDBRANCH   1   9
TORSDOF 3
ENDMDL
MODEL 7
REMARK VINA RESULT:    -3.265      1.586      2.080
REMARK INTER + INTRA:          -3.780
REMARK INTER:                  -3.822
REMARK INTRA:                   0.041
REMARK UNBOUND:                -0.038
REMARK SMILES CC(C)[C@H]([NH3+])C(=O)[O-]
REMARK SMILES IDX 4 1 5 2 6 6 7 7 8 8 2 9 1 10 3 11
REMARK H PARENT 5 3 5 4 5 5
REMARK Flexibility Score: inf
ROOT
ATOM      1  C   UNL     1     176.443 173.576 168.418  1.00  0.00     0.230 C 
ENDROOT
BRANCH   1   2
ATOM      2  N   UNL     1     175.041 173.680 167.987  1.00  0.00    -0.350 N 
ATOM      3  H   UNL     1     174.470 172.882 168.347  1.00  0.00     0.345 HD
ATOM      4  H   UNL     1     174.628 174.579 168.323  1.00  0.00     0.345 HD
ATOM      5  H   UNL     1     174.996 173.673 166.941  1.00  0.00     0.345 HD
ENDBRANCH   1   2
BRANCH   1   6
ATOM      6  C   UNL     1     176.615 174.137 169.810  1.00  0.00     0.099 C 
ATOM      7  O   UNL     1     175.868 175.070 170.208  1.00  0.00    -0.544 OA
ATOM      8  O   UNL     1     177.572 173.615 170.672  1.00  0.00    -0.544 OA
ENDBRANCH   1   6
BRANCH   1   9
ATOM      9  C   UNL     1     177.413 174.225 167.384  1.00  0.00     0.047 C 
ATOM     10  C   UNL     1     178.815 173.599 167.465  1.00  0.00     0.014 C 
ATOM     11  C   UNL     1     177.511 175.755 167.505  1.00  0.00     0.014 C 
ENDBRANCH   1   9
TORSDOF 3
ENDMDL
MODEL 8
REMARK VINA RESULT:    -3.248      2.641      3.318
REMARK INTER + INTRA:          -3.761
REMARK INTER:                  -3.717
REMARK INTRA:                  -0.044
REMARK UNBOUND:                -0.038
REMARK SMILES CC(C)[C@H]([NH3+])C(=O)[O-]
REMARK SMILES IDX 4 1 5 2 6 6 7 7 8 8 2 9 1 10 3 11
REMARK H PARENT 5 3 5 4 5 5
REMARK Flexibility Score: inf
ROOT
ATOM      1  C   UNL     1     176.093 174.612 169.630  1.00  0.00     0.230 C 
ENDROOT
BRANCH   1   2
ATOM      2  N   UNL     1     176.845 173.623 170.416  1.00  0.00    -0.350 N 
ATOM      3  H   UNL     1     176.728 172.659 170.030  1.00  0.00     0.345 HD
ATOM      4  H   UNL     1     177.860 173.869 170.426  1.00  0.00     0.345 HD
ATOM      5  H   UNL     1     176.500 173.627 171.404  1.00  0.00     0.345 HD
ENDBRANCH   1   2
BRANCH   1   6
ATOM      6  C   UNL     1     175.910 174.134 168.209  1.00  0.00     0.099 C 
ATOM      7  O   UNL     1     176.902 174.059 167.437  1.00  0.00    -0.544 OA
ATOM      8  O   UNL     1     174.657 173.745 167.748  1.00  0.00    -0.544 OA
ENDBRANCH   1   6
BRANCH   1   9
ATOM      9  C   UNL     1     176.745 176.026 169.709  1.00  0.00     0.047 C 
ATOM     10  C   UNL     1     178.209 175.940 170.167  1.00  0.00     0.014 C 
ATOM     11  C   UNL     1     175.971 177.014 170.600  1.00  0.00     0.014 C 
ENDBRANCH   1   9
TORSDOF 3
ENDMDL
MODEL 9
REMARK VINA RESULT:    -3.225      1.961      2.128
REMARK INTER + INTRA:          -3.734
REMARK INTER:                  -3.700
REMARK INTRA:                  -0.035
REMARK UNBOUND:                -0.038
REMARK SMILES CC(C)[C@H]([NH3+])C(=O)[O-]
REMARK SMILES IDX 4 1 5 2 6 6 7 7 8 8 2 9 1 10 3 11
REMARK H PARENT 5 3 5 4 5 5
REMARK Flexibility Score: inf
ROOT
ATOM      1  C   UNL     1     177.148 174.399 169.573  1.00  0.00     0.230 C 
ENDROOT
BRANCH   1   2
ATOM      2  N   UNL     1     176.895 173.552 170.748  1.00  0.00    -0.350 N 
ATOM      3  H   UNL     1     177.675 172.876 170.908  1.00  0.00     0.345 HD
ATOM      4  H   UNL     1     176.774 174.146 171.599  1.00  0.00     0.345 HD
ATOM      5  H   UNL     1     176.012 173.009 170.603  1.00  0.00     0.345 HD
ENDBRANCH   1   2
BRANCH   1   6
ATOM      6  C   UNL     1     176.517 175.759 169.752  1.00  0.00     0.099 C 
ATOM      7  O   UNL     1     175.641 175.935 170.640  1.00  0.00    -0.544 OA
ATOM      8  O   UNL     1     176.913 176.834 168.964  1.00  0.00    -0.544 OA
ENDBRANCH   1   6
BRANCH   1   9
ATOM      9  C   UNL     1     176.706 173.699 168.252  1.00  0.00     0.047 C 
ATOM     10  C   UNL     1     177.623 174.086 167.081  1.00  0.00     0.014 C 
ATOM     11  C   UNL     1     175.236 173.959 167.879  1.00  0.00     0.014 C 
ENDBRANCH   1   9
TORSDOF 3
ENDMDL
