MODEL 1
REMARK VINA RESULT:    -3.428      0.000      0.000
REMARK INTER + INTRA:          -4.202
REMARK INTER:                  -4.030
REMARK INTRA:                  -0.172
REMARK UNBOUND:                -0.172
REMARK SMILES O=C([O-])CCC(=O)[O-]
REMARK SMILES IDX 4 1 2 2 1 3 3 4 5 5 6 6 7 7 8 8
REMARK H PARENT
REMARK Flexibility Score: inf
ROOT
ATOM      1  C   UNL     1     -10.669   0.183   5.516  1.00  0.00     0.059 C 
ENDROOT
BRANCH   1   2
ATOM      2  C   UNL     1      -9.819  -1.051   5.546  1.00  0.00     0.042 C 
ATOM      3  O   UNL     1      -9.703  -1.765   4.516  1.00  0.00    -0.550 OA
ATOM      4  O   UNL     1      -9.191  -1.432   6.724  1.00  0.00    -0.550 OA
ENDBRANCH   1   2
BRANCH   1   5
ATOM      5  C   UNL     1     -10.010   1.302   4.702  1.00  0.00     0.059 C 
BRANCH   5   6
ATOM      6  C   UNL     1      -8.661   1.661   5.247  1.00  0.00     0.042 C 
ATOM      7  O   UNL     1      -8.561   2.214   6.374  1.00  0.00    -0.550 OA
ATOM      8  O   UNL     1      -7.514   1.348   4.529  1.00  0.00    -0.550 OA
ENDBRANCH   5   6
ENDBRANCH   1   5
TORSDOF 3
ENDMDL
MODEL 2
REMARK VINA RESULT:    -3.408      0.080      3.431
REMARK INTER + INTRA:          -4.178
REMARK INTER:                  -4.012
REMARK INTRA:                  -0.166
REMARK UNBOUND:                -0.172
REMARK SMILES O=C([O-])CCC(=O)[O-]
REMARK SMILES IDX 4 1 2 2 1 3 3 4 5 5 6 6 7 7 8 8
REMARK H PARENT
REMARK Flexibility Score: inf
ROOT
ATOM      1  C   UNL     1      -9.984   1.319   4.727  1.00  0.00     0.059 C 
ENDROOT
BRANCH   1   2
ATOM      2  C   UNL     1      -8.649   1.658   5.316  1.00  0.00     0.042 C 
ATOM      3  O   UNL     1      -8.576   2.187   6.457  1.00  0.00    -0.550 OA
ATOM      4  O   UNL     1      -7.489   1.428   4.587  1.00  0.00    -0.550 OA
ENDBRANCH   1   2
BRANCH   1   5
ATOM      5  C   UNL     1     -10.659   0.171   5.484  1.00  0.00     0.059 C 
BRANCH   5   6
ATOM      6  C   UNL     1      -9.813  -1.066   5.482  1.00  0.00     0.042 C 
ATOM      7  O   UNL     1      -9.671  -1.732   4.423  1.00  0.00    -0.550 OA
ATOM      8  O   UNL     1      -9.151  -1.459   6.638  1.00  0.00    -0.550 OA
ENDBRANCH   5   6
ENDBRANCH   1   5
TORSDOF 3
ENDMDL
MODEL 3
REMARK VINA RESULT:    -3.401      1.305      2.571
REMARK INTER + INTRA:          -4.169
REMARK INTER:                  -4.001
REMARK INTRA:                  -0.169
REMARK UNBOUND:                -0.172
REMARK SMILES O=C([O-])CCC(=O)[O-]
REMARK SMILES IDX 4 1 2 2 1 3 3 4 5 5 6 6 7 7 8 8
REMARK H PARENT
REMARK Flexibility Score: inf
ROOT
ATOM      1  C   UNL     1     -10.136   0.579   4.449  1.00  0.00     0.059 C 
ENDROOT
BRANCH   1   2
ATOM      2  C   UNL     1      -9.190  -0.388   3.805  1.00  0.00     0.042 C 
ATOM      3  O   UNL     1      -9.585  -1.538   3.476  1.00  0.00    -0.550 OA
ATOM      4  O   UNL     1      -7.862  -0.033   3.607  1.00  0.00    -0.550 OA
ENDBRANCH   1   2
BRANCH   1   5
ATOM      5  C   UNL     1     -10.641   0.060   5.799  1.00  0.00     0.059 C 
BRANCH   5   6
ATOM      6  C   UNL     1      -9.508  -0.254   6.729  1.00  0.00     0.042 C 
ATOM      7  O   UNL     1      -9.283  -1.445   7.071  1.00  0.00    -0.550 OA
ATOM      8  O   UNL     1      -8.679   0.763   7.184  1.00  0.00    -0.550 OA
ENDBRANCH   5   6
ENDBRANCH   1   5
TORSDOF 3
ENDMDL
MODEL 4
REMARK VINA RESULT:    -3.366      1.328      2.553
REMARK INTER + INTRA:          -4.129
REMARK INTER:                  -3.963
REMARK INTRA:                  -0.166
REMARK UNBOUND:                -0.172
REMARK SMILES O=C([O-])CCC(=O)[O-]
REMARK SMILES IDX 4 1 2 2 1 3 3 4 5 5 6 6 7 7 8 8
REMARK H PARENT
REMARK Flexibility Score: inf
ROOT
ATOM      1  C   UNL     1     -10.577   0.234   5.734  1.00  0.00     0.059 C 
ENDROOT
BRANCH   1   2
ATOM      2  C   UNL     1      -9.489  -0.146   6.691  1.00  0.00     0.042 C 
ATOM      3  O   UNL     1      -8.728   0.738   7.168  1.00  0.00    -0.550 OA
ATOM      4  O   UNL     1      -9.290  -1.479   7.023  1.00  0.00    -0.550 OA
ENDBRANCH   1   2
BRANCH   1   5
ATOM      5  C   UNL     1     -10.010   0.671   4.379  1.00  0.00     0.059 C 
BRANCH   5   6
ATOM      6  C   UNL     1      -9.130  -0.385   3.782  1.00  0.00     0.042 C 
ATOM      7  O   UNL     1      -7.918  -0.139   3.548  1.00  0.00    -0.550 OA
ATOM      8  O   UNL     1      -9.639  -1.651   3.523  1.00  0.00    -0.550 OA
ENDBRANCH   5   6
ENDBRANCH   1   5
TORSDOF 3
ENDMDL
MODEL 5
REMARK VINA RESULT:    -3.264      1.836      3.299
REMARK INTER + INTRA:          -4.009
REMARK INTER:                  -3.845
REMARK INTRA:                  -0.164
REMARK UNBOUND:                -0.172
REMARK SMILES O=C([O-])CCC(=O)[O-]
REMARK SMILES IDX 4 1 2 2 1 3 3 4 5 5 6 6 7 7 8 8
REMARK H PARENT
REMARK Flexibility Score: inf
ROOT
ATOM      1  C   UNL     1     -10.784   1.095   4.584  1.00  0.00     0.059 C 
ENDROOT
BRANCH   1   2
ATOM      2  C   UNL     1     -11.542   1.203   5.872  1.00  0.00     0.042 C 
ATOM      3  O   UNL     1     -12.626   0.579   6.022  1.00  0.00    -0.550 OA
ATOM      4  O   UNL     1     -11.072   2.023   6.889  1.00  0.00    -0.550 OA
ENDBRANCH   1   2
BRANCH   1   5
ATOM      5  C   UNL     1      -9.406   0.458   4.793  1.00  0.00     0.059 C 
BRANCH   5   6
ATOM      6  C   UNL     1      -9.518  -0.988   5.170  1.00  0.00     0.042 C 
ATOM      7  O   UNL     1      -9.848  -1.843   4.307  1.00  0.00    -0.550 OA
ATOM      8  O   UNL     1      -9.218  -1.395   6.464  1.00  0.00    -0.550 OA
ENDBRANCH   5   6
ENDBRANCH   1   5
TORSDOF 3
ENDMDL
MODEL 6
REMARK VINA RESULT:    -3.225     11.764     12.860
REMARK INTER + INTRA:          -3.962
REMARK INTER:                  -3.848
REMARK INTRA:                  -0.114
REMARK UNBOUND:                -0.172
REMARK SMILES O=C([O-])CCC(=O)[O-]
REMARK SMILES IDX 4 1 2 2 1 3 3 4 5 5 6 6 7 7 8 8
REMARK H PARENT
REMARK Flexibility Score: inf
ROOT
ATOM      1  C   UNL     1       0.328  -8.693   6.835  1.00  0.00     0.059 C 
ENDROOT
BRANCH   1   2
ATOM      2  C   UNL     1       0.677  -8.997   8.260  1.00  0.00     0.042 C 
ATOM      3  O   UNL     1       0.469  -8.142   9.161  1.00  0.00    -0.550 OA
ATOM      4  O   UNL     1       1.269 -10.210   8.587  1.00  0.00    -0.550 OA
ENDBRANCH   1   2
BRANCH   1   5
ATOM      5  C   UNL     1      -1.026  -9.292   6.446  1.00  0.00     0.059 C 
BRANCH   5   6
ATOM      6  C   UNL     1      -2.121  -8.270   6.508  1.00  0.00     0.042 C 
ATOM      7  O   UNL     1      -2.832  -8.167   7.543  1.00  0.00    -0.550 OA
ATOM      8  O   UNL     1      -2.329  -7.407   5.440  1.00  0.00    -0.550 OA
ENDBRANCH   5   6
ENDBRANCH   1   5
TORSDOF 3
ENDMDL
MODEL 7
REMARK VINA RESULT:    -3.207     11.733     12.827
REMARK INTER + INTRA:          -3.942
REMARK INTER:                  -3.820
REMARK INTRA:                  -0.122
REMARK UNBOUND:                -0.172
REMARK SMILES O=C([O-])CCC(=O)[O-]
REMARK SMILES IDX 4 1 2 2 1 3 3 4 5 5 6 6 7 7 8 8
REMARK H PARENT
REMARK Flexibility Score: inf
ROOT
ATOM      1  C   UNL     1      -1.096  -9.278   6.393  1.00  0.00     0.059 C 
ENDROOT
BRANCH   1   2
ATOM      2  C   UNL     1      -2.204  -8.301   6.641  1.00  0.00     0.042 C 
ATOM      3  O   UNL     1      -2.876  -8.363   7.704  1.00  0.00    -0.550 OA
ATOM      4  O   UNL     1      -2.520  -7.350   5.680  1.00  0.00    -0.550 OA
ENDBRANCH   1   2
BRANCH   1   5
ATOM      5  C   UNL     1       0.273  -8.677   6.730  1.00  0.00     0.059 C 
BRANCH   5   6
ATOM      6  C   UNL     1       0.686  -8.998   8.134  1.00  0.00     0.042 C 
ATOM      7  O   UNL     1       0.455  -8.180   9.064  1.00  0.00    -0.550 OA
ATOM      8  O   UNL     1       1.289 -10.216   8.422  1.00  0.00    -0.550 OA
ENDBRANCH   5   6
ENDBRANCH   1   5
TORSDOF 3
ENDMDL
MODEL 8
REMARK VINA RESULT:    -3.201     11.748     12.839
REMARK INTER + INTRA:          -3.934
REMARK INTER:                  -3.817
REMARK INTRA:                  -0.118
REMARK UNBOUND:                -0.172
REMARK SMILES O=C([O-])CCC(=O)[O-]
REMARK SMILES IDX 4 1 2 2 1 3 3 4 5 5 6 6 7 7 8 8
REMARK H PARENT
REMARK Flexibility Score: inf
ROOT
ATOM      1  C   UNL     1       0.241  -8.718   6.675  1.00  0.00     0.059 C 
ENDROOT
BRANCH   1   2
ATOM      2  C   UNL     1       0.738  -9.079   8.042  1.00  0.00     0.042 C 
ATOM      3  O   UNL     1       1.330 -10.175   8.232  1.00  0.00    -0.550 OA
ATOM      4  O   UNL     1       0.511  -8.224   9.112  1.00  0.00    -0.550 OA
ENDBRANCH   1   2
BRANCH   1   5
ATOM      5  C   UNL     1      -1.140  -9.321   6.399  1.00  0.00     0.059 C 
BRANCH   5   6
ATOM      6  C   UNL     1      -2.235  -8.326   6.633  1.00  0.00     0.042 C 
ATOM      7  O   UNL     1      -2.862  -8.320   7.725  1.00  0.00    -0.550 OA
ATOM      8  O   UNL     1      -2.535  -7.379   5.661  1.00  0.00    -0.550 OA
ENDBRANCH   5   6
ENDBRANCH   1   5
TORSDOF 3
ENDMDL
MODEL 9
REMARK VINA RESULT:    -3.105      2.391      3.107
REMARK INTER + INTRA:          -3.821
REMARK INTER:                  -3.791
REMARK INTRA:                  -0.030
REMARK UNBOUND:                -0.172
REMARK SMILES O=C([O-])CCC(=O)[O-]
REMARK SMILES IDX 4 1 2 2 1 3 3 4 5 5 6 6 7 7 8 8
REMARK H PARENT
REMARK Flexibility Score: inf
ROOT
ATOM      1  C   UNL     1     -10.221   0.506   4.711  1.00  0.00     0.059 C 
ENDROOT
BRANCH   1   2
ATOM      2  C   UNL     1      -9.247  -0.587   4.392  1.00  0.00     0.042 C 
ATOM      3  O   UNL     1      -8.637  -0.590   3.290  1.00  0.00    -0.550 OA
ATOM      4  O   UNL     1      -9.045  -1.622   5.295  1.00  0.00    -0.550 OA
ENDBRANCH   1   2
BRANCH   1   5
ATOM      5  C   UNL     1     -11.114   0.138   5.900  1.00  0.00     0.059 C 
BRANCH   5   6
ATOM      6  C   UNL     1     -12.246   1.106   6.062  1.00  0.00     0.042 C 
ATOM      7  O   UNL     1     -13.436   0.694   6.047  1.00  0.00    -0.550 OA
ATOM      8  O   UNL     1     -11.985   2.454   6.269  1.00  0.00    -0.550 OA
ENDBRANCH   5   6
ENDBRANCH   1   5
TORSDOF 3
ENDMDL
