MODEL 1
REMARK VINA RESULT:    -3.163      0.000      0.000
REMARK INTER + INTRA:          -6.432
REMARK INTER:                  -5.104
REMARK INTRA:                  -1.328
REMARK UNBOUND:                -1.328
REMARK SMILES CCCCCCCCCCCCO
REMARK SMILES IDX 7 1 6 2 5 3 4 4 3 5 2 6 1 7 8 8 9 9 10 10 11 11 12 12 13 13
REMARK H PARENT 13 14
REMARK Flexibility Score: inf
ROOT
ATOM      1  C   UNL     1     139.784 138.555 142.120  1.00  0.00     0.000 C 
ENDROOT
BRANCH   1   2
ATOM      2  C   UNL     1     141.126 138.815 142.827  1.00  0.00    -0.000 C 
BRANCH   2   3
ATOM      3  C   UNL     1     142.227 139.266 141.853  1.00  0.00    -0.000 C 
BRANCH   3   4
ATOM      4  C   UNL     1     143.048 140.448 142.398  1.00  0.00    -0.000 C 
BRANCH   4   5
ATOM      5  C   UNL     1     142.242 141.759 142.460  1.00  0.00    -0.000 C 
BRANCH   5   6
ATOM      6  C   UNL     1     141.994 142.434 141.099  1.00  0.00    -0.003 C 
ATOM      7  C   UNL     1     141.399 143.836 141.227  1.00  0.00     0.004 C 
ENDBRANCH   5   6
ENDBRANCH   4   5
ENDBRANCH   3   4
ENDBRANCH   2   3
ENDBRANCH   1   2
BRANCH   1   8
ATOM      8  C   UNL     1     139.229 139.809 141.425  1.00  0.00     0.000 C 
BRANCH   8   9
ATOM      9  C   UNL     1     138.646 140.827 142.418  1.00  0.00     0.000 C 
BRANCH   9  10
ATOM     10  C   UNL     1     138.029 142.021 141.679  1.00  0.00     0.002 C 
BRANCH  10  11
ATOM     11  C   UNL     1     138.107 141.829 140.160  1.00  0.00     0.028 C 
BRANCH  11  12
ATOM     12  C   UNL     1     136.738 142.031 139.505  1.00  0.00     0.156 C 
BRANCH  12  13
ATOM     13  O   UNL     1     135.738 141.416 140.271  1.00  0.00    -0.396 OA
ATOM     14  H   UNL     1     135.136 140.951 139.632  1.00  0.00     0.210 HD
ENDBRANCH  12  13
ENDBRANCH  11  12
ENDBRANCH  10  11
ENDBRANCH   9  10
ENDBRANCH   8   9
ENDBRANCH   1   8
TORSDOF 11
ENDMDL
MODEL 2
REMARK VINA RESULT:    -3.014      1.015      2.942
REMARK INTER + INTRA:          -6.191
REMARK INTER:                  -4.809
REMARK INTRA:                  -1.383
REMARK UNBOUND:                -1.328
REMARK SMILES CCCCCCCCCCCCO
REMARK SMILES IDX 7 1 6 2 5 3 4 4 3 5 2 6 1 7 8 8 9 9 10 10 11 11 12 12 13 13
REMARK H PARENT 13 14
REMARK Flexibility Score: inf
ROOT
ATOM      1  C   UNL     1     140.691 143.084 142.090  1.00  0.00     0.000 C 
ENDROOT
BRANCH   1   2
ATOM      2  C   UNL     1     142.113 142.665 142.501  1.00  0.00    -0.000 C 
BRANCH   2   3
ATOM      3  C   UNL     1     142.484 141.262 141.992  1.00  0.00    -0.000 C 
BRANCH   3   4
ATOM      4  C   UNL     1     142.549 140.223 143.125  1.00  0.00    -0.000 C 
BRANCH   4   5
ATOM      5  C   UNL     1     141.581 139.044 142.912  1.00  0.00    -0.000 C 
BRANCH   5   6
ATOM      6  C   UNL     1     141.070 138.876 141.470  1.00  0.00    -0.003 C 
ATOM      7  C   UNL     1     139.758 138.096 141.388  1.00  0.00     0.004 C 
ENDBRANCH   5   6
ENDBRANCH   4   5
ENDBRANCH   3   4
ENDBRANCH   2   3
ENDBRANCH   1   2
BRANCH   1   8
ATOM      8  C   UNL     1     139.606 142.407 142.942  1.00  0.00     0.000 C 
BRANCH   8   9
ATOM      9  C   UNL     1     138.538 141.701 142.091  1.00  0.00     0.000 C 
BRANCH   9  10
ATOM     10  C   UNL     1     138.897 141.759 140.602  1.00  0.00     0.002 C 
BRANCH  10  11
ATOM     11  C   UNL     1     137.778 141.162 139.741  1.00  0.00     0.028 C 
BRANCH  11  12
ATOM     12  C   UNL     1     136.529 142.048 139.765  1.00  0.00     0.156 C 
BRANCH  12  13
ATOM     13  O   UNL     1     135.409 141.298 140.149  1.00  0.00    -0.396 OA
ATOM     14  H   UNL     1     135.749 140.416 140.454  1.00  0.00     0.210 HD
ENDBRANCH  12  13
ENDBRANCH  11  12
ENDBRANCH  10  11
ENDBRANCH   9  10
ENDBRANCH   8   9
ENDBRANCH   1   8
TORSDOF 11
ENDMDL
MODEL 3
REMARK VINA RESULT:    -2.941      3.574      5.939
REMARK INTER + INTRA:          -6.074
REMARK INTER:                  -4.693
REMARK INTRA:                  -1.381
REMARK UNBOUND:                -1.328
REMARK SMILES CCCCCCCCCCCCO
REMARK SMILES IDX 7 1 6 2 5 3 4 4 3 5 2 6 1 7 8 8 9 9 10 10 11 11 12 12 13 13
REMARK H PARENT 13 14
REMARK Flexibility Score: inf
ROOT
ATOM      1  C   UNL     1     142.116 141.991 141.810  1.00  0.00     0.000 C 
ENDROOT
BRANCH   1   2
ATOM      2  C   UNL     1     140.913 142.617 142.538  1.00  0.00    -0.000 C 
BRANCH   2   3
ATOM      3  C   UNL     1     139.567 142.175 141.939  1.00  0.00    -0.000 C 
BRANCH   3   4
ATOM      4  C   UNL     1     139.726 141.506 140.563  1.00  0.00    -0.000 C 
BRANCH   4   5
ATOM      5  C   UNL     1     139.022 140.139 140.477  1.00  0.00    -0.000 C 
BRANCH   5   6
ATOM      6  C   UNL     1     139.919 138.926 140.780  1.00  0.00    -0.003 C 
ATOM      7  C   UNL     1     139.789 138.431 142.220  1.00  0.00     0.004 C 
ENDBRANCH   5   6
ENDBRANCH   4   5
ENDBRANCH   3   4
ENDBRANCH   2   3
ENDBRANCH   1   2
BRANCH   1   8
ATOM      8  C   UNL     1     142.766 140.854 142.613  1.00  0.00     0.000 C 
BRANCH   8   9
ATOM      9  C   UNL     1     143.427 139.796 141.715  1.00  0.00     0.000 C 
BRANCH   9  10
ATOM     10  C   UNL     1     143.370 140.215 140.241  1.00  0.00     0.002 C 
BRANCH  10  11
ATOM     11  C   UNL     1     144.349 139.393 139.396  1.00  0.00     0.028 C 
BRANCH  11  12
ATOM     12  C   UNL     1     145.801 139.756 139.721  1.00  0.00     0.156 C 
BRANCH  12  13
ATOM     13  O   UNL     1     146.478 138.642 140.233  1.00  0.00    -0.396 OA
ATOM     14  H   UNL     1     147.352 138.971 140.570  1.00  0.00     0.210 HD
ENDBRANCH  12  13
ENDBRANCH  11  12
ENDBRANCH  10  11
ENDBRANCH   9  10
ENDBRANCH   8   9
ENDBRANCH   1   8
TORSDOF 11
ENDMDL
MODEL 4
REMARK VINA RESULT:    -2.903      2.487      4.034
REMARK INTER + INTRA:          -6.013
REMARK INTER:                  -4.796
REMARK INTRA:                  -1.218
REMARK UNBOUND:                -1.328
REMARK SMILES CCCCCCCCCCCCO
REMARK SMILES IDX 7 1 6 2 5 3 4 4 3 5 2 6 1 7 8 8 9 9 10 10 11 11 12 12 13 13
REMARK H PARENT 13 14
REMARK Flexibility Score: inf
ROOT
ATOM      1  C   UNL     1     138.884 140.803 141.929  1.00  0.00     0.000 C 
ENDROOT
BRANCH   1   2
ATOM      2  C   UNL     1     139.023 142.274 142.358  1.00  0.00    -0.000 C 
BRANCH   2   3
ATOM      3  C   UNL     1     140.406 142.585 142.956  1.00  0.00    -0.000 C 
BRANCH   3   4
ATOM      4  C   UNL     1     141.427 143.013 141.888  1.00  0.00    -0.000 C 
BRANCH   4   5
ATOM      5  C   UNL     1     142.282 141.840 141.374  1.00  0.00    -0.000 C 
BRANCH   5   6
ATOM      6  C   UNL     1     142.702 140.823 142.450  1.00  0.00    -0.003 C 
ATOM      7  C   UNL     1     143.530 139.667 141.889  1.00  0.00     0.004 C 
ENDBRANCH   5   6
ENDBRANCH   4   5
ENDBRANCH   3   4
ENDBRANCH   2   3
ENDBRANCH   1   2
BRANCH   1   8
ATOM      8  C   UNL     1     139.157 139.823 143.081  1.00  0.00     0.000 C 
BRANCH   8   9
ATOM      9  C   UNL     1     139.772 138.499 142.601  1.00  0.00     0.000 C 
BRANCH   9  10
ATOM     10  C   UNL     1     139.989 138.513 141.084  1.00  0.00     0.002 C 
BRANCH  10  11
ATOM     11  C   UNL     1     139.896 137.099 140.500  1.00  0.00     0.028 C 
BRANCH  11  12
ATOM     12  C   UNL     1     139.577 137.139 139.003  1.00  0.00     0.156 C 
BRANCH  12  13
ATOM     13  O   UNL     1     140.587 136.496 138.274  1.00  0.00    -0.396 OA
ATOM     14  H   UNL     1     141.096 137.208 137.804  1.00  0.00     0.210 HD
ENDBRANCH  12  13
ENDBRANCH  11  12
ENDBRANCH  10  11
ENDBRANCH   9  10
ENDBRANCH   8   9
ENDBRANCH   1   8
TORSDOF 11
ENDMDL
MODEL 5
REMARK VINA RESULT:    -2.874      2.783      3.771
REMARK INTER + INTRA:          -5.966
REMARK INTER:                  -4.450
REMARK INTRA:                  -1.516
REMARK UNBOUND:                -1.328
REMARK SMILES CCCCCCCCCCCCO
REMARK SMILES IDX 7 1 6 2 5 3 4 4 3 5 2 6 1 7 8 8 9 9 10 10 11 11 12 12 13 13
REMARK H PARENT 13 14
REMARK Flexibility Score: inf
ROOT
ATOM      1  C   UNL     1     140.193 138.614 142.403  1.00  0.00     0.000 C 
ENDROOT
BRANCH   1   2
ATOM      2  C   UNL     1     140.276 138.277 140.904  1.00  0.00    -0.000 C 
BRANCH   2   3
ATOM      3  C   UNL     1     139.854 139.455 140.011  1.00  0.00    -0.000 C 
BRANCH   3   4
ATOM      4  C   UNL     1     141.039 140.068 139.244  1.00  0.00    -0.000 C 
BRANCH   4   5
ATOM      5  C   UNL     1     142.377 139.371 139.556  1.00  0.00    -0.000 C 
BRANCH   5   6
ATOM      6  C   UNL     1     143.422 140.257 140.258  1.00  0.00    -0.003 C 
ATOM      7  C   UNL     1     143.612 139.902 141.732  1.00  0.00     0.004 C 
ENDBRANCH   5   6
ENDBRANCH   4   5
ENDBRANCH   3   4
ENDBRANCH   2   3
ENDBRANCH   1   2
BRANCH   1   8
ATOM      8  C   UNL     1     139.450 139.933 142.671  1.00  0.00     0.000 C 
BRANCH   8   9
ATOM      9  C   UNL     1     140.389 141.061 143.125  1.00  0.00     0.000 C 
BRANCH   9  10
ATOM     10  C   UNL     1     140.235 142.296 142.229  1.00  0.00     0.002 C 
BRANCH  10  11
ATOM     11  C   UNL     1     141.565 143.044 142.087  1.00  0.00     0.028 C 
BRANCH  11  12
ATOM     12  C   UNL     1     141.626 143.820 140.769  1.00  0.00     0.156 C 
BRANCH  12  13
ATOM     13  O   UNL     1     142.487 144.919 140.891  1.00  0.00    -0.396 OA
ATOM     14  H   UNL     1     142.798 145.139 139.974  1.00  0.00     0.210 HD
ENDBRANCH  12  13
ENDBRANCH  11  12
ENDBRANCH  10  11
ENDBRANCH   9  10
ENDBRANCH   8   9
ENDBRANCH   1   8
TORSDOF 11
ENDMDL
MODEL 6
REMARK VINA RESULT:    -2.868      2.552      4.575
REMARK INTER + INTRA:          -5.956
REMARK INTER:                  -4.513
REMARK INTRA:                  -1.442
REMARK UNBOUND:                -1.328
REMARK SMILES CCCCCCCCCCCCO
REMARK SMILES IDX 7 1 6 2 5 3 4 4 3 5 2 6 1 7 8 8 9 9 10 10 11 11 12 12 13 13
REMARK H PARENT 13 14
REMARK Flexibility Score: inf
ROOT
ATOM      1  C   UNL     1     139.163 141.608 142.983  1.00  0.00     0.000 C 
ENDROOT
BRANCH   1   2
ATOM      2  C   UNL     1     138.097 141.855 141.900  1.00  0.00    -0.000 C 
BRANCH   2   3
ATOM      3  C   UNL     1     138.478 141.233 140.547  1.00  0.00    -0.000 C 
BRANCH   3   4
ATOM      4  C   UNL     1     139.141 139.853 140.699  1.00  0.00    -0.000 C 
BRANCH   4   5
ATOM      5  C   UNL     1     140.533 139.783 140.043  1.00  0.00    -0.000 C 
BRANCH   5   6
ATOM      6  C   UNL     1     141.639 139.183 140.929  1.00  0.00    -0.003 C 
ATOM      7  C   UNL     1     141.132 138.741 142.301  1.00  0.00     0.004 C 
ENDBRANCH   5   6
ENDBRANCH   4   5
ENDBRANCH   3   4
ENDBRANCH   2   3
ENDBRANCH   1   2
BRANCH   1   8
ATOM      8  C   UNL     1     140.143 142.783 143.125  1.00  0.00     0.000 C 
BRANCH   8   9
ATOM      9  C   UNL     1     141.549 142.448 142.602  1.00  0.00     0.000 C 
BRANCH   9  10
ATOM     10  C   UNL     1     142.078 143.567 141.697  1.00  0.00     0.002 C 
BRANCH  10  11
ATOM     11  C   UNL     1     141.416 143.518 140.315  1.00  0.00     0.028 C 
BRANCH  11  12
ATOM     12  C   UNL     1     141.785 144.746 139.480  1.00  0.00     0.156 C 
BRANCH  12  13
ATOM     13  O   UNL     1     142.995 144.530 138.807  1.00  0.00    -0.396 OA
ATOM     14  H   UNL     1     143.274 145.408 138.434  1.00  0.00     0.210 HD
ENDBRANCH  12  13
ENDBRANCH  11  12
ENDBRANCH  10  11
ENDBRANCH   9  10
ENDBRANCH   8   9
ENDBRANCH   1   8
TORSDOF 11
ENDMDL
MODEL 7
REMARK VINA RESULT:    -2.857      1.631      3.215
REMARK INTER + INTRA:          -5.939
REMARK INTER:                  -4.348
REMARK INTRA:                  -1.591
REMARK UNBOUND:                -1.328
REMARK SMILES CCCCCCCCCCCCO
REMARK SMILES IDX 7 1 6 2 5 3 4 4 3 5 2 6 1 7 8 8 9 9 10 10 11 11 12 12 13 13
REMARK H PARENT 13 14
REMARK Flexibility Score: inf
ROOT
ATOM      1  C   UNL     1     142.155 139.600 139.565  1.00  0.00     0.000 C 
ENDROOT
BRANCH   1   2
ATOM      2  C   UNL     1     143.147 139.797 140.724  1.00  0.00    -0.000 C 
BRANCH   2   3
ATOM      3  C   UNL     1     142.765 140.979 141.632  1.00  0.00    -0.000 C 
BRANCH   3   4
ATOM      4  C   UNL     1     142.422 140.534 143.065  1.00  0.00    -0.000 C 
BRANCH   4   5
ATOM      5  C   UNL     1     141.811 139.121 143.122  1.00  0.00    -0.000 C 
BRANCH   5   6
ATOM      6  C   UNL     1     140.279 139.071 142.987  1.00  0.00    -0.003 C 
ATOM      7  C   UNL     1     139.800 138.004 142.003  1.00  0.00     0.004 C 
ENDBRANCH   5   6
ENDBRANCH   4   5
ENDBRANCH   3   4
ENDBRANCH   2   3
ENDBRANCH   1   2
BRANCH   1   8
ATOM      8  C   UNL     1     141.161 140.765 139.433  1.00  0.00     0.000 C 
BRANCH   8   9
ATOM      9  C   UNL     1     139.745 140.298 139.063  1.00  0.00     0.000 C 
BRANCH   9  10
ATOM     10  C   UNL     1     138.697 140.955 139.969  1.00  0.00     0.002 C 
BRANCH  10  11
ATOM     11  C   UNL     1     139.335 142.021 140.867  1.00  0.00     0.028 C 
BRANCH  11  12
ATOM     12  C   UNL     1     138.601 142.127 142.207  1.00  0.00     0.156 C 
BRANCH  12  13
ATOM     13  O   UNL     1     137.250 142.434 141.998  1.00  0.00    -0.396 OA
ATOM     14  H   UNL     1     136.923 141.812 141.296  1.00  0.00     0.210 HD
ENDBRANCH  12  13
ENDBRANCH  11  12
ENDBRANCH  10  11
ENDBRANCH   9  10
ENDBRANCH   8   9
ENDBRANCH   1   8
TORSDOF 11
ENDMDL
MODEL 8
REMARK VINA RESULT:    -2.845      3.291      5.005
REMARK INTER + INTRA:          -5.919
REMARK INTER:                  -4.630
REMARK INTRA:                  -1.289
REMARK UNBOUND:                -1.328
REMARK SMILES CCCCCCCCCCCCO
REMARK SMILES IDX 7 1 6 2 5 3 4 4 3 5 2 6 1 7 8 8 9 9 10 10 11 11 12 12 13 13
REMARK H PARENT 13 14
REMARK Flexibility Score: inf
ROOT
ATOM      1  C   UNL     1     140.463 138.711 141.953  1.00  0.00     0.000 C 
ENDROOT
BRANCH   1   2
ATOM      2  C   UNL     1     140.148 139.732 143.060  1.00  0.00    -0.000 C 
BRANCH   2   3
ATOM      3  C   UNL     1     139.011 140.691 142.671  1.00  0.00    -0.000 C 
BRANCH   3   4
ATOM      4  C   UNL     1     139.464 142.161 142.642  1.00  0.00    -0.000 C 
BRANCH   4   5
ATOM      5  C   UNL     1     140.957 142.334 142.977  1.00  0.00    -0.000 C 
BRANCH   5   6
ATOM      6  C   UNL     1     141.725 143.291 142.048  1.00  0.00    -0.003 C 
ATOM      7  C   UNL     1     141.876 142.751 140.626  1.00  0.00     0.004 C 
ENDBRANCH   5   6
ENDBRANCH   4   5
ENDBRANCH   3   4
ENDBRANCH   2   3
ENDBRANCH   1   2
BRANCH   1   8
ATOM      8  C   UNL     1     141.719 139.081 141.148  1.00  0.00     0.000 C 
BRANCH   8   9
ATOM      9  C   UNL     1     142.916 139.434 142.045  1.00  0.00     0.000 C 
BRANCH   9  10
ATOM     10  C   UNL     1     144.152 139.772 141.203  1.00  0.00     0.002 C 
BRANCH  10  11
ATOM     11  C   UNL     1     143.850 139.644 139.706  1.00  0.00     0.028 C 
BRANCH  11  12
ATOM     12  C   UNL     1     145.121 139.338 138.909  1.00  0.00     0.156 C 
BRANCH  12  13
ATOM     13  O   UNL     1     145.674 140.522 138.403  1.00  0.00    -0.396 OA
ATOM     14  H   UNL     1     146.135 140.967 139.162  1.00  0.00     0.210 HD
ENDBRANCH  12  13
ENDBRANCH  11  12
ENDBRANCH  10  11
ENDBRANCH   9  10
ENDBRANCH   8   9
ENDBRANCH   1   8
TORSDOF 11
ENDMDL
MODEL 9
REMARK VINA RESULT:    -2.837      2.477      3.774
REMARK INTER + INTRA:          -5.906
REMARK INTER:                  -4.335
REMARK INTRA:                  -1.570
REMARK UNBOUND:                -1.328
REMARK SMILES CCCCCCCCCCCCO
REMARK SMILES IDX 7 1 6 2 5 3 4 4 3 5 2 6 1 7 8 8 9 9 10 10 11 11 12 12 13 13
REMARK H PARENT 13 14
REMARK Flexibility Score: inf
ROOT
ATOM      1  C   UNL     1     143.398 139.585 139.868  1.00  0.00     0.000 C 
ENDROOT
BRANCH   1   2
ATOM      2  C   UNL     1     143.837 139.901 141.309  1.00  0.00    -0.000 C 
BRANCH   2   3
ATOM      3  C   UNL     1     142.754 139.555 142.344  1.00  0.00    -0.000 C 
BRANCH   3   4
ATOM      4  C   UNL     1     142.269 140.788 143.125  1.00  0.00    -0.000 C 
BRANCH   4   5
ATOM      5  C   UNL     1     140.745 140.992 143.035  1.00  0.00    -0.000 C 
BRANCH   5   6
ATOM      6  C   UNL     1     140.300 142.219 142.220  1.00  0.00    -0.003 C 
ATOM      7  C   UNL     1     138.893 142.074 141.640  1.00  0.00     0.004 C 
ENDBRANCH   5   6
ENDBRANCH   4   5
ENDBRANCH   3   4
ENDBRANCH   2   3
ENDBRANCH   1   2
BRANCH   1   8
ATOM      8  C   UNL     1     142.668 140.761 139.202  1.00  0.00     0.000 C 
BRANCH   8   9
ATOM      9  C   UNL     1     141.156 140.520 139.064  1.00  0.00     0.000 C 
BRANCH   9  10
ATOM     10  C   UNL     1     140.828 139.025 139.164  1.00  0.00     0.002 C 
BRANCH  10  11
ATOM     11  C   UNL     1     139.686 138.777 140.156  1.00  0.00     0.028 C 
BRANCH  11  12
ATOM     12  C   UNL     1     139.897 137.471 140.927  1.00  0.00     0.156 C 
BRANCH  12  13
ATOM     13  O   UNL     1     139.632 137.664 142.289  1.00  0.00    -0.396 OA
ATOM     14  H   UNL     1     140.474 137.999 142.698  1.00  0.00     0.210 HD
ENDBRANCH  12  13
ENDBRANCH  11  12
ENDBRANCH  10  11
ENDBRANCH   9  10
ENDBRANCH   8   9
ENDBRANCH   1   8
TORSDOF 11
ENDMDL
