MODEL 1
REMARK VINA RESULT:    -4.340      0.000      0.000
REMARK INTER + INTRA:          -5.709
REMARK INTER:                  -5.355
REMARK INTRA:                  -0.354
REMARK UNBOUND:                -0.354
REMARK SMILES C=CCc1ccc(OC)c(OC)c1
REMARK SMILES IDX 7 1 10 2 13 3 4 4 5 5 6 6 8 7 9 8 11 9 12 10 3 11 2 12 1 13
REMARK H PARENT
REMARK Flexibility Score: inf
ROOT
ATOM      1  C   UNL     1      -0.849   9.027  35.205  1.00  0.00     0.160 A 
ATOM      2  C   UNL     1      -1.852   8.346  34.497  1.00  0.00     0.160 A 
ATOM      3  C   UNL     1      -2.160   8.733  33.178  1.00  0.00     0.054 A 
ATOM      4  C   UNL     1      -1.479   9.798  32.570  1.00  0.00    -0.040 A 
ATOM      5  C   UNL     1      -0.472  10.466  33.279  1.00  0.00     0.008 A 
ATOM      6  C   UNL     1      -0.161  10.089  34.587  1.00  0.00     0.051 A 
ENDROOT
BRANCH   1   7
ATOM      7  O   UNL     1      -0.565   8.620  36.518  1.00  0.00    -0.493 OA
ATOM      8  C   UNL     1       0.725   8.239  36.982  1.00  0.00     0.278 C 
ENDBRANCH   1   7
BRANCH   2   9
ATOM      9  O   UNL     1      -2.517   7.287  35.137  1.00  0.00    -0.493 OA
ATOM     10  C   UNL     1      -2.345   5.912  34.812  1.00  0.00     0.278 C 
ENDBRANCH   2   9
BRANCH   4  11
ATOM     11  C   UNL     1      -1.789  10.190  31.149  1.00  0.00     0.062 C 
BRANCH  11  12
ATOM     12  C   UNL     1      -0.622   9.894  30.248  1.00  0.00    -0.030 C 
ATOM     13  C   UNL     1      -0.266   8.642  29.949  1.00  0.00     0.004 C 
ENDBRANCH  11  12
ENDBRANCH   4  11
TORSDOF 4
ENDMDL
MODEL 2
REMARK VINA RESULT:    -4.270      2.404      3.943
REMARK INTER + INTRA:          -5.622
REMARK INTER:                  -5.383
REMARK INTRA:                  -0.240
REMARK UNBOUND:                -0.354
REMARK SMILES C=CCc1ccc(OC)c(OC)c1
REMARK SMILES IDX 7 1 10 2 13 3 4 4 5 5 6 6 8 7 9 8 11 9 12 10 3 11 2 12 1 13
REMARK H PARENT
REMARK Flexibility Score: inf
ROOT
ATOM      1  C   UNL     1      -2.143   6.194  33.754  1.00  0.00     0.160 A 
ATOM      2  C   UNL     1      -1.350   6.903  32.836  1.00  0.00     0.160 A 
ATOM      3  C   UNL     1      -0.945   8.218  33.135  1.00  0.00     0.054 A 
ATOM      4  C   UNL     1      -1.332   8.828  34.338  1.00  0.00    -0.040 A 
ATOM      5  C   UNL     1      -2.114   8.111  35.253  1.00  0.00     0.008 A 
ATOM      6  C   UNL     1      -2.521   6.807  34.964  1.00  0.00     0.051 A 
ENDROOT
BRANCH   1   7
ATOM      7  O   UNL     1      -2.533   4.886  33.428  1.00  0.00    -0.493 OA
ATOM      8  C   UNL     1      -2.732   3.844  34.377  1.00  0.00     0.278 C 
ENDBRANCH   1   7
BRANCH   2   9
ATOM      9  O   UNL     1      -0.984   6.264  31.640  1.00  0.00    -0.493 OA
ATOM     10  C   UNL     1      -0.599   6.941  30.449  1.00  0.00     0.278 C 
ENDBRANCH   2   9
BRANCH   4  11
ATOM     11  C   UNL     1      -0.871  10.224  34.669  1.00  0.00     0.062 C 
BRANCH  11  12
ATOM     12  C   UNL     1      -0.309  10.901  33.451  1.00  0.00    -0.030 C 
ATOM     13  C   UNL     1       0.879  11.512  33.472  1.00  0.00     0.004 C 
ENDBRANCH  11  12
ENDBRANCH   4  11
TORSDOF 4
ENDMDL
MODEL 3
REMARK VINA RESULT:    -4.167      2.106      4.280
REMARK INTER + INTRA:          -5.496
REMARK INTER:                  -5.172
REMARK INTRA:                  -0.324
REMARK UNBOUND:                -0.354
REMARK SMILES C=CCc1ccc(OC)c(OC)c1
REMARK SMILES IDX 7 1 10 2 13 3 4 4 5 5 6 6 8 7 9 8 11 9 12 10 3 11 2 12 1 13
REMARK H PARENT
REMARK Flexibility Score: inf
ROOT
ATOM      1  C   UNL     1      -0.338  10.464  33.427  1.00  0.00     0.160 A 
ATOM      2  C   UNL     1      -1.327   9.830  32.657  1.00  0.00     0.160 A 
ATOM      3  C   UNL     1      -2.086   8.786  33.219  1.00  0.00     0.054 A 
ATOM      4  C   UNL     1      -1.859   8.370  34.539  1.00  0.00    -0.040 A 
ATOM      5  C   UNL     1      -0.879   9.013  35.305  1.00  0.00     0.008 A 
ATOM      6  C   UNL     1      -0.120  10.048  34.755  1.00  0.00     0.051 A 
ENDROOT
BRANCH   1   7
ATOM      7  O   UNL     1       0.404  11.500  32.840  1.00  0.00    -0.493 OA
ATOM      8  C   UNL     1       1.716  11.351  32.310  1.00  0.00     0.278 C 
ENDBRANCH   1   7
BRANCH   2   9
ATOM      9  O   UNL     1      -1.526  10.270  31.338  1.00  0.00    -0.493 OA
ATOM     10  C   UNL     1      -1.053   9.588  30.180  1.00  0.00     0.278 C 
ENDBRANCH   2   9
BRANCH   4  11
ATOM     11  C   UNL     1      -2.694   7.274  35.148  1.00  0.00     0.062 C 
BRANCH  11  12
ATOM     12  C   UNL     1      -2.096   5.926  34.859  1.00  0.00    -0.030 C 
ATOM     13  C   UNL     1      -2.601   5.121  33.920  1.00  0.00     0.004 C 
ENDBRANCH  11  12
ENDBRANCH   4  11
TORSDOF 4
ENDMDL
MODEL 4
REMARK VINA RESULT:    -4.031      1.932      3.592
REMARK INTER + INTRA:          -5.329
REMARK INTER:                  -5.025
REMARK INTRA:                  -0.303
REMARK UNBOUND:                -0.354
REMARK SMILES C=CCc1ccc(OC)c(OC)c1
REMARK SMILES IDX 7 1 10 2 13 3 4 4 5 5 6 6 8 7 9 8 11 9 12 10 3 11 2 12 1 13
REMARK H PARENT
REMARK Flexibility Score: inf
ROOT
ATOM      1  C   UNL     1      -1.465   6.336  34.739  1.00  0.00     0.160 A 
ATOM      2  C   UNL     1      -0.345   6.958  35.313  1.00  0.00     0.160 A 
ATOM      3  C   UNL     1      -0.205   8.357  35.230  1.00  0.00     0.054 A 
ATOM      4  C   UNL     1      -1.173   9.133  34.574  1.00  0.00    -0.040 A 
ATOM      5  C   UNL     1      -2.293   8.506  34.013  1.00  0.00     0.008 A 
ATOM      6  C   UNL     1      -2.438   7.120  34.090  1.00  0.00     0.051 A 
ENDROOT
BRANCH   1   7
ATOM      7  O   UNL     1      -1.576   4.940  34.836  1.00  0.00    -0.493 OA
ATOM      8  C   UNL     1      -2.645   4.176  34.287  1.00  0.00     0.278 C 
ENDBRANCH   1   7
BRANCH   2   9
ATOM      9  O   UNL     1       0.607   6.151  35.959  1.00  0.00    -0.493 OA
ATOM     10  C   UNL     1       1.445   6.587  37.024  1.00  0.00     0.278 C 
ENDBRANCH   2   9
BRANCH   4  11
ATOM     11  C   UNL     1      -1.037  10.632  34.515  1.00  0.00     0.062 C 
BRANCH  11  12
ATOM     12  C   UNL     1       0.155  11.026  33.688  1.00  0.00    -0.030 C 
ATOM     13  C   UNL     1       0.226  10.751  32.383  1.00  0.00     0.004 C 
ENDBRANCH  11  12
ENDBRANCH   4  11
TORSDOF 4
ENDMDL
MODEL 5
REMARK VINA RESULT:    -3.954      2.008      3.019
REMARK INTER + INTRA:          -5.233
REMARK INTER:                  -4.918
REMARK INTRA:                  -0.315
REMARK UNBOUND:                -0.354
REMARK SMILES C=CCc1ccc(OC)c(OC)c1
REMARK SMILES IDX 7 1 10 2 13 3 4 4 5 5 6 6 8 7 9 8 11 9 12 10 3 11 2 12 1 13
REMARK H PARENT
REMARK Flexibility Score: inf
ROOT
ATOM      1  C   UNL     1      -1.796   6.686  34.225  1.00  0.00     0.160 A 
ATOM      2  C   UNL     1      -0.561   6.796  33.565  1.00  0.00     0.160 A 
ATOM      3  C   UNL     1      -0.270   7.955  32.819  1.00  0.00     0.054 A 
ATOM      4  C   UNL     1      -1.206   8.997  32.726  1.00  0.00    -0.040 A 
ATOM      5  C   UNL     1      -2.431   8.884  33.396  1.00  0.00     0.008 A 
ATOM      6  C   UNL     1      -2.728   7.738  34.135  1.00  0.00     0.051 A 
ENDROOT
BRANCH   1   7
ATOM      7  O   UNL     1      -2.058   5.519  34.958  1.00  0.00    -0.493 OA
ATOM      8  C   UNL     1      -2.754   4.386  34.449  1.00  0.00     0.278 C 
ENDBRANCH   1   7
BRANCH   2   9
ATOM      9  O   UNL     1       0.351   5.734  33.676  1.00  0.00    -0.493 OA
ATOM     10  C   UNL     1       1.580   5.797  34.392  1.00  0.00     0.278 C 
ENDBRANCH   2   9
BRANCH   4  11
ATOM     11  C   UNL     1      -0.879  10.249  31.954  1.00  0.00     0.062 C 
BRANCH  11  12
ATOM     12  C   UNL     1      -1.779  10.386  30.758  1.00  0.00    -0.030 C 
ATOM     13  C   UNL     1      -1.426   9.921  29.557  1.00  0.00     0.004 C 
ENDBRANCH  11  12
ENDBRANCH   4  11
TORSDOF 4
ENDMDL
MODEL 6
REMARK VINA RESULT:    -3.917      2.326      4.131
REMARK INTER + INTRA:          -5.187
REMARK INTER:                  -4.854
REMARK INTRA:                  -0.333
REMARK UNBOUND:                -0.354
REMARK SMILES C=CCc1ccc(OC)c(OC)c1
REMARK SMILES IDX 7 1 10 2 13 3 4 4 5 5 6 6 8 7 9 8 11 9 12 10 3 11 2 12 1 13
REMARK H PARENT
REMARK Flexibility Score: inf
ROOT
ATOM      1  C   UNL     1       0.459  10.178  34.201  1.00  0.00     0.160 A 
ATOM      2  C   UNL     1       0.646   9.247  35.236  1.00  0.00     0.160 A 
ATOM      3  C   UNL     1      -0.389   8.348  35.559  1.00  0.00     0.054 A 
ATOM      4  C   UNL     1      -1.605   8.378  34.861  1.00  0.00    -0.040 A 
ATOM      5  C   UNL     1      -1.780   9.302  33.823  1.00  0.00     0.008 A 
ATOM      6  C   UNL     1      -0.760  10.198  33.497  1.00  0.00     0.051 A 
ENDROOT
BRANCH   1   7
ATOM      7  O   UNL     1       1.507  11.062  33.902  1.00  0.00    -0.493 OA
ATOM      8  C   UNL     1       2.423  10.893  32.827  1.00  0.00     0.278 C 
ENDBRANCH   1   7
BRANCH   2   9
ATOM      9  O   UNL     1       1.874   9.246  35.917  1.00  0.00    -0.493 OA
ATOM     10  C   UNL     1       2.667   8.087  36.151  1.00  0.00     0.278 C 
ENDBRANCH   2   9
BRANCH   4  11
ATOM     11  C   UNL     1      -2.698   7.394  35.188  1.00  0.00     0.062 C 
BRANCH  11  12
ATOM     12  C   UNL     1      -2.327   6.013  34.724  1.00  0.00    -0.030 C 
ATOM     13  C   UNL     1      -2.508   5.626  33.458  1.00  0.00     0.004 C 
ENDBRANCH  11  12
ENDBRANCH   4  11
TORSDOF 4
ENDMDL
MODEL 7
REMARK VINA RESULT:    -3.882      1.949      2.961
REMARK INTER + INTRA:          -5.144
REMARK INTER:                  -4.808
REMARK INTRA:                  -0.335
REMARK UNBOUND:                -0.354
REMARK SMILES C=CCc1ccc(OC)c(OC)c1
REMARK SMILES IDX 7 1 10 2 13 3 4 4 5 5 6 6 8 7 9 8 11 9 12 10 3 11 2 12 1 13
REMARK H PARENT
REMARK Flexibility Score: inf
ROOT
ATOM      1  C   UNL     1      -0.138   6.298  35.373  1.00  0.00     0.160 A 
ATOM      2  C   UNL     1      -1.374   6.647  34.804  1.00  0.00     0.160 A 
ATOM      3  C   UNL     1      -1.694   8.005  34.611  1.00  0.00     0.054 A 
ATOM      4  C   UNL     1      -0.791   9.011  34.986  1.00  0.00    -0.040 A 
ATOM      5  C   UNL     1       0.444   8.655  35.543  1.00  0.00     0.008 A 
ATOM      6  C   UNL     1       0.768   7.311  35.740  1.00  0.00     0.051 A 
ENDROOT
BRANCH   1   7
ATOM      7  O   UNL     1       0.152   4.937  35.555  1.00  0.00    -0.493 OA
ATOM      8  C   UNL     1       0.703   4.383  36.745  1.00  0.00     0.278 C 
ENDBRANCH   1   7
BRANCH   2   9
ATOM      9  O   UNL     1      -2.255   5.615  34.443  1.00  0.00    -0.493 OA
ATOM     10  C   UNL     1      -2.560   5.246  33.102  1.00  0.00     0.278 C 
ENDBRANCH   2   9
BRANCH   4  11
ATOM     11  C   UNL     1      -1.123  10.461  34.749  1.00  0.00     0.062 C 
BRANCH  11  12
ATOM     12  C   UNL     1      -0.206  11.055  33.716  1.00  0.00    -0.030 C 
ATOM     13  C   UNL     1      -0.200  10.624  32.452  1.00  0.00     0.004 C 
ENDBRANCH  11  12
ENDBRANCH   4  11
TORSDOF 4
ENDMDL
MODEL 8
REMARK VINA RESULT:    -3.880      2.678      5.018
REMARK INTER + INTRA:          -5.142
REMARK INTER:                  -4.775
REMARK INTRA:                  -0.368
REMARK UNBOUND:                -0.354
REMARK SMILES C=CCc1ccc(OC)c(OC)c1
REMARK SMILES IDX 7 1 10 2 13 3 4 4 5 5 6 6 8 7 9 8 11 9 12 10 3 11 2 12 1 13
REMARK H PARENT
REMARK Flexibility Score: inf
ROOT
ATOM      1  C   UNL     1      -0.901   8.919  30.648  1.00  0.00     0.160 A 
ATOM      2  C   UNL     1      -0.631   7.635  31.148  1.00  0.00     0.160 A 
ATOM      3  C   UNL     1      -0.983   7.313  32.473  1.00  0.00     0.054 A 
ATOM      4  C   UNL     1      -1.595   8.267  33.299  1.00  0.00    -0.040 A 
ATOM      5  C   UNL     1      -1.871   9.543  32.791  1.00  0.00     0.008 A 
ATOM      6  C   UNL     1      -1.524   9.870  31.479  1.00  0.00     0.051 A 
ENDROOT
BRANCH   1   7
ATOM      7  O   UNL     1      -0.537   9.211  29.325  1.00  0.00    -0.493 OA
ATOM      8  C   UNL     1       0.633   9.930  28.950  1.00  0.00     0.278 C 
ENDBRANCH   1   7
BRANCH   2   9
ATOM      9  O   UNL     1      -0.013   6.705  30.295  1.00  0.00    -0.493 OA
ATOM     10  C   UNL     1       1.371   6.374  30.329  1.00  0.00     0.278 C 
ENDBRANCH   2   9
BRANCH   4  11
ATOM     11  C   UNL     1      -2.000   7.911  34.706  1.00  0.00     0.062 C 
BRANCH  11  12
ATOM     12  C   UNL     1      -1.249   8.749  35.704  1.00  0.00    -0.030 C 
ATOM     13  C   UNL     1      -0.062   8.371  36.186  1.00  0.00     0.004 C 
ENDBRANCH  11  12
ENDBRANCH   4  11
TORSDOF 4
ENDMDL
MODEL 9
REMARK VINA RESULT:    -3.875      2.345      4.789
REMARK INTER + INTRA:          -5.136
REMARK INTER:                  -4.798
REMARK INTRA:                  -0.337
REMARK UNBOUND:                -0.354
REMARK SMILES C=CCc1ccc(OC)c(OC)c1
REMARK SMILES IDX 7 1 10 2 13 3 4 4 5 5 6 6 8 7 9 8 11 9 12 10 3 11 2 12 1 13
REMARK H PARENT
REMARK Flexibility Score: inf
ROOT
ATOM      1  C   UNL     1      -1.313   8.863  32.914  1.00  0.00     0.160 A 
ATOM      2  C   UNL     1      -0.697   7.871  32.133  1.00  0.00     0.160 A 
ATOM      3  C   UNL     1      -1.096   6.528  32.271  1.00  0.00     0.054 A 
ATOM      4  C   UNL     1      -2.099   6.171  33.185  1.00  0.00    -0.040 A 
ATOM      5  C   UNL     1      -2.716   7.168  33.953  1.00  0.00     0.008 A 
ATOM      6  C   UNL     1      -2.326   8.502  33.823  1.00  0.00     0.051 A 
ENDROOT
BRANCH   1   7
ATOM      7  O   UNL     1      -0.894  10.193  32.756  1.00  0.00    -0.493 OA
ATOM      8  C   UNL     1      -0.334  10.990  33.793  1.00  0.00     0.278 C 
ENDBRANCH   1   7
BRANCH   2   9
ATOM      9  O   UNL     1       0.306   8.262  31.231  1.00  0.00    -0.493 OA
ATOM     10  C   UNL     1       0.104   8.457  29.835  1.00  0.00     0.278 C 
ENDBRANCH   2   9
BRANCH   4  11
ATOM     11  C   UNL     1      -2.546   4.738  33.308  1.00  0.00     0.062 C 
BRANCH  11  12
ATOM     12  C   UNL     1      -2.626   4.327  34.752  1.00  0.00    -0.030 C 
ATOM     13  C   UNL     1      -1.535   4.009  35.453  1.00  0.00     0.004 C 
ENDBRANCH  11  12
ENDBRANCH   4  11
TORSDOF 4
ENDMDL
