MODEL 1
REMARK VINA RESULT:    36.499      0.000      0.000
REMARK INTER + INTRA:          39.699
REMARK INTER:                  39.699
REMARK INTRA:                   0.000
REMARK UNBOUND:                 0.000
REMARK SMILES Cc1cc(O)c2c(c1)C(=O)c1cc(O)cc(O)c1C2=O
REMARK SMILES IDX 1 1 2 2 8 3 7 4 6 5 4 6 3 7 19 8 20 9 18 10 11 11 9 12 10 13
REMARK SMILES IDX 12 14 13 15 15 16 16 17 5 18 17 20 14 22
REMARK H PARENT 5 19 17 21 14 23
REMARK Flexibility Score: inf
ROOT
ATOM      1  C   UNL     1      -2.632   4.945  -3.877  1.00  0.00     0.044 C 
ATOM      2  C   UNL     1      -1.532   4.078  -4.416  1.00  0.00    -0.047 A 
ATOM      3  C   UNL     1      -1.812   3.100  -5.375  1.00  0.00     0.016 A 
ATOM      4  C   UNL     1      -0.797   2.254  -5.854  1.00  0.00     0.038 A 
ATOM      5  C   UNL     1       0.516   2.372  -5.345  1.00  0.00     0.076 A 
ATOM      6  C   UNL     1       0.803   3.396  -4.405  1.00  0.00     0.127 A 
ATOM      7  C   UNL     1      -0.227   4.212  -3.929  1.00  0.00     0.050 A 
ATOM      8  C   UNL     1       1.525   1.366  -5.765  1.00  0.00     0.201 C 
ATOM      9  O   UNL     1       2.463   1.053  -4.983  1.00  0.00    -0.288 OA
ATOM     10  C   UNL     1       1.323   0.597  -7.020  1.00  0.00     0.076 A 
ATOM     11  C   UNL     1       0.008   0.481  -7.526  1.00  0.00     0.041 A 
ATOM     12  C   UNL     1      -1.096   1.241  -6.894  1.00  0.00     0.194 C 
ATOM     13  O   UNL     1      -2.288   1.044  -7.259  1.00  0.00    -0.289 OA
ATOM     14  C   UNL     1      -0.245  -0.349  -8.631  1.00  0.00     0.059 A 
ATOM     15  C   UNL     1       0.793  -1.051  -9.243  1.00  0.00     0.120 A 
ATOM     16  C   UNL     1       2.101  -0.908  -8.771  1.00  0.00     0.093 A 
ATOM     17  C   UNL     1       2.382  -0.072  -7.686  1.00  0.00     0.131 A 
ENDROOT
BRANCH   6  18
ATOM     18  O   UNL     1       2.096   3.658  -3.945  1.00  0.00    -0.507 OA
ATOM     19  H   UNL     1       2.370   4.526  -3.507  1.00  0.00     0.293 HD
ENDBRANCH   6  18
BRANCH  17  20
ATOM     20  O   UNL     1       3.722   0.092  -7.328  1.00  0.00    -0.507 OA
ATOM     21  H   UNL     1       4.329  -0.675  -7.071  1.00  0.00     0.293 HD
ENDBRANCH  17  20
BRANCH  15  22
ATOM     22  O   UNL     1       0.517  -1.878 -10.329  1.00  0.00    -0.508 OA
ATOM     23  H   UNL     1       0.762  -2.862 -10.322  1.00  0.00     0.293 HD
ENDBRANCH  15  22
TORSDOF 3
ENDMDL
MODEL 2
REMARK VINA RESULT:    36.550      2.481      6.210
REMARK INTER + INTRA:          39.755
REMARK INTER:                  39.755
REMARK INTRA:                   0.000
REMARK UNBOUND:                 0.000
REMARK SMILES Cc1cc(O)c2c(c1)C(=O)c1cc(O)cc(O)c1C2=O
REMARK SMILES IDX 1 1 2 2 8 3 7 4 6 5 4 6 3 7 19 8 20 9 18 10 11 11 9 12 10 13
REMARK SMILES IDX 12 14 13 15 15 16 16 17 5 18 17 20 14 22
REMARK H PARENT 5 19 17 21 14 23
REMARK Flexibility Score: inf
ROOT
ATOM      1  C   UNL     1      -2.576  -3.667 -11.352  1.00  0.00     0.044 C 
ATOM      2  C   UNL     1      -1.359  -2.938 -10.863  1.00  0.00    -0.047 A 
ATOM      3  C   UNL     1      -1.439  -2.106  -9.742  1.00  0.00     0.016 A 
ATOM      4  C   UNL     1      -0.315  -1.386  -9.301  1.00  0.00     0.038 A 
ATOM      5  C   UNL     1       0.903  -1.480 -10.011  1.00  0.00     0.076 A 
ATOM      6  C   UNL     1       0.990  -2.361 -11.121  1.00  0.00     0.127 A 
ATOM      7  C   UNL     1      -0.146  -3.051 -11.551  1.00  0.00     0.050 A 
ATOM      8  C   UNL     1       2.023  -0.592  -9.605  1.00  0.00     0.201 C 
ATOM      9  O   UNL     1       2.859  -0.203 -10.464  1.00  0.00    -0.288 OA
ATOM     10  C   UNL     1       2.047  -0.015  -8.236  1.00  0.00     0.076 A 
ATOM     11  C   UNL     1       0.827   0.078  -7.529  1.00  0.00     0.041 A 
ATOM     12  C   UNL     1      -0.401  -0.531  -8.094  1.00  0.00     0.194 C 
ATOM     13  O   UNL     1      -1.515  -0.342  -7.532  1.00  0.00    -0.289 OA
ATOM     14  C   UNL     1       0.783   0.741  -6.291  1.00  0.00     0.059 A 
ATOM     15  C   UNL     1       1.940   1.297  -5.745  1.00  0.00     0.120 A 
ATOM     16  C   UNL     1       3.157   1.174  -6.421  1.00  0.00     0.093 A 
ATOM     17  C   UNL     1       3.229   0.500  -7.645  1.00  0.00     0.131 A 
ENDROOT
BRANCH   6  18
ATOM     18  O   UNL     1       2.187  -2.603 -11.800  1.00  0.00    -0.507 OA
ATOM     19  H   UNL     1       3.099  -2.399 -11.416  1.00  0.00     0.293 HD
ENDBRANCH   6  18
BRANCH  17  20
ATOM     20  O   UNL     1       4.493   0.338  -8.217  1.00  0.00    -0.507 OA
ATOM     21  H   UNL     1       4.642  -0.026  -9.148  1.00  0.00     0.293 HD
ENDBRANCH  17  20
BRANCH  15  22
ATOM     22  O   UNL     1       1.872   1.961  -4.523  1.00  0.00    -0.508 OA
ATOM     23  H   UNL     1       2.391   2.815  -4.353  1.00  0.00     0.293 HD
ENDBRANCH  15  22
TORSDOF 3
ENDMDL
MODEL 3
REMARK VINA RESULT:    37.078      1.714      6.313
REMARK INTER + INTRA:          40.330
REMARK INTER:                  40.330
REMARK INTRA:                   0.000
REMARK UNBOUND:                 0.000
REMARK SMILES Cc1cc(O)c2c(c1)C(=O)c1cc(O)cc(O)c1C2=O
REMARK SMILES IDX 1 1 2 2 8 3 7 4 6 5 4 6 3 7 19 8 20 9 18 10 11 11 9 12 10 13
REMARK SMILES IDX 12 14 13 15 15 16 16 17 5 18 17 20 14 22
REMARK H PARENT 5 19 17 21 14 23
REMARK Flexibility Score: inf
ROOT
ATOM      1  C   UNL     1       4.399  -0.412  -6.330  1.00  0.00     0.044 C 
ATOM      2  C   UNL     1       3.044   0.231  -6.320  1.00  0.00    -0.047 A 
ATOM      3  C   UNL     1       2.759   1.262  -5.418  1.00  0.00     0.016 A 
ATOM      4  C   UNL     1       1.480   1.841  -5.372  1.00  0.00     0.038 A 
ATOM      5  C   UNL     1       0.460   1.363  -6.224  1.00  0.00     0.076 A 
ATOM      6  C   UNL     1       0.767   0.348  -7.169  1.00  0.00     0.127 A 
ATOM      7  C   UNL     1       2.041  -0.226  -7.182  1.00  0.00     0.050 A 
ATOM      8  C   UNL     1      -0.914   1.897  -6.043  1.00  0.00     0.201 C 
ATOM      9  O   UNL     1      -1.910   1.173  -6.312  1.00  0.00    -0.288 OA
ATOM     10  C   UNL     1      -1.114   3.207  -5.370  1.00  0.00     0.076 A 
ATOM     11  C   UNL     1      -0.092   3.682  -4.518  1.00  0.00     0.041 A 
ATOM     12  C   UNL     1       1.197   2.954  -4.435  1.00  0.00     0.194 C 
ATOM     13  O   UNL     1       2.063   3.299  -3.584  1.00  0.00    -0.289 OA
ATOM     14  C   UNL     1      -0.298   4.845  -3.758  1.00  0.00     0.059 A 
ATOM     15  C   UNL     1      -1.501   5.546  -3.847  1.00  0.00     0.120 A 
ATOM     16  C   UNL     1      -2.500   5.102  -4.718  1.00  0.00     0.093 A 
ATOM     17  C   UNL     1      -2.310   3.959  -5.501  1.00  0.00     0.131 A 
ENDROOT
BRANCH   6  18
ATOM     18  O   UNL     1      -0.149  -0.093  -8.126  1.00  0.00    -0.507 OA
ATOM     19  H   UNL     1      -1.053  -0.482  -7.899  1.00  0.00     0.293 HD
ENDBRANCH   6  18
BRANCH  17  20
ATOM     20  O   UNL     1      -3.315   3.629  -6.414  1.00  0.00    -0.507 OA
ATOM     21  H   UNL     1      -3.133   3.369  -7.374  1.00  0.00     0.293 HD
ENDBRANCH  17  20
BRANCH  15  22
ATOM     22  O   UNL     1      -1.689   6.689  -3.075  1.00  0.00    -0.508 OA
ATOM     23  H   UNL     1      -1.227   6.808  -2.181  1.00  0.00     0.293 HD
ENDBRANCH  15  22
TORSDOF 3
ENDMDL
MODEL 4
REMARK VINA RESULT:    37.559      3.365      5.573
REMARK INTER + INTRA:          40.852
REMARK INTER:                  40.852
REMARK INTRA:                   0.000
REMARK UNBOUND:                 0.000
REMARK SMILES Cc1cc(O)c2c(c1)C(=O)c1cc(O)cc(O)c1C2=O
REMARK SMILES IDX 1 1 2 2 8 3 7 4 6 5 4 6 3 7 19 8 20 9 18 10 11 11 9 12 10 13
REMARK SMILES IDX 12 14 13 15 15 16 16 17 5 18 17 20 14 22
REMARK H PARENT 5 19 17 21 14 23
REMARK Flexibility Score: inf
ROOT
ATOM      1  C   UNL     1       4.908   1.108  -8.216  1.00  0.00     0.044 C 
ATOM      2  C   UNL     1       3.528   0.522  -8.246  1.00  0.00    -0.047 A 
ATOM      3  C   UNL     1       3.090  -0.192  -9.366  1.00  0.00     0.016 A 
ATOM      4  C   UNL     1       1.784  -0.708  -9.422  1.00  0.00     0.038 A 
ATOM      5  C   UNL     1       0.892  -0.482  -8.350  1.00  0.00     0.076 A 
ATOM      6  C   UNL     1       1.356   0.205  -7.197  1.00  0.00     0.127 A 
ATOM      7  C   UNL     1       2.653   0.725  -7.174  1.00  0.00     0.050 A 
ATOM      8  C   UNL     1      -0.521  -0.913  -8.509  1.00  0.00     0.201 C 
ATOM      9  O   UNL     1      -1.440  -0.281  -7.923  1.00  0.00    -0.288 OA
ATOM     10  C   UNL     1      -0.864  -1.963  -9.503  1.00  0.00     0.076 A 
ATOM     11  C   UNL     1       0.030  -2.186 -10.574  1.00  0.00     0.041 A 
ATOM     12  C   UNL     1       1.339  -1.491 -10.599  1.00  0.00     0.194 C 
ATOM     13  O   UNL     1       2.086  -1.587 -11.612  1.00  0.00    -0.289 OA
ATOM     14  C   UNL     1      -0.322  -3.070 -11.607  1.00  0.00     0.059 A 
ATOM     15  C   UNL     1      -1.543  -3.743 -11.578  1.00  0.00     0.120 A 
ATOM     16  C   UNL     1      -2.414  -3.556 -10.502  1.00  0.00     0.093 A 
ATOM     17  C   UNL     1      -2.077  -2.697  -9.451  1.00  0.00     0.131 A 
ENDROOT
BRANCH   6  18
ATOM     18  O   UNL     1       0.577   0.363  -6.048  1.00  0.00    -0.507 OA
ATOM     19  H   UNL     1      -0.431   0.298  -6.043  1.00  0.00     0.293 HD
ENDBRANCH   6  18
BRANCH  17  20
ATOM     20  O   UNL     1      -2.955  -2.631  -8.366  1.00  0.00    -0.507 OA
ATOM     21  H   UNL     1      -3.396  -1.776  -8.056  1.00  0.00     0.293 HD
ENDBRANCH  17  20
BRANCH  15  22
ATOM     22  O   UNL     1      -1.877  -4.606 -12.620  1.00  0.00    -0.508 OA
ATOM     23  H   UNL     1      -2.792  -5.039 -12.677  1.00  0.00     0.293 HD
ENDBRANCH  15  22
TORSDOF 3
ENDMDL
MODEL 5
REMARK VINA RESULT:    38.905      7.961      9.925
REMARK INTER + INTRA:          42.317
REMARK INTER:                  42.317
REMARK INTRA:                   0.000
REMARK UNBOUND:                 0.000
REMARK SMILES Cc1cc(O)c2c(c1)C(=O)c1cc(O)cc(O)c1C2=O
REMARK SMILES IDX 1 1 2 2 8 3 7 4 6 5 4 6 3 7 19 8 20 9 18 10 11 11 9 12 10 13
REMARK SMILES IDX 12 14 13 15 15 16 16 17 5 18 17 20 14 22
REMARK H PARENT 5 19 17 21 14 23
REMARK Flexibility Score: inf
ROOT
ATOM      1  C   UNL     1      -0.571  -8.904 -10.102  1.00  0.00     0.044 C 
ATOM      2  C   UNL     1      -1.060  -7.533 -10.466  1.00  0.00    -0.047 A 
ATOM      3  C   UNL     1      -1.040  -7.108 -11.799  1.00  0.00     0.016 A 
ATOM      4  C   UNL     1      -1.455  -5.811 -12.144  1.00  0.00     0.038 A 
ATOM      5  C   UNL     1      -1.872  -4.914 -11.136  1.00  0.00     0.076 A 
ATOM      6  C   UNL     1      -1.933  -5.365  -9.791  1.00  0.00     0.127 A 
ATOM      7  C   UNL     1      -1.497  -6.653  -9.470  1.00  0.00     0.050 A 
ATOM      8  C   UNL     1      -2.161  -3.509 -11.521  1.00  0.00     0.201 C 
ATOM      9  O   UNL     1      -1.972  -2.578 -10.693  1.00  0.00    -0.288 OA
ATOM     10  C   UNL     1      -2.489  -3.184 -12.934  1.00  0.00     0.076 A 
ATOM     11  C   UNL     1      -2.069  -4.084 -13.940  1.00  0.00     0.041 A 
ATOM     12  C   UNL     1      -1.459  -5.381 -13.563  1.00  0.00     0.194 C 
ATOM     13  O   UNL     1      -0.968  -6.130 -14.451  1.00  0.00    -0.289 OA
ATOM     14  C   UNL     1      -2.237  -3.748 -15.294  1.00  0.00     0.059 A 
ATOM     15  C   UNL     1      -2.829  -2.537 -15.655  1.00  0.00     0.120 A 
ATOM     16  C   UNL     1      -3.281  -1.662 -14.664  1.00  0.00     0.093 A 
ATOM     17  C   UNL     1      -3.144  -1.983 -13.310  1.00  0.00     0.131 A 
ENDROOT
BRANCH   6  18
ATOM     18  O   UNL     1      -2.449  -4.582  -8.755  1.00  0.00    -0.507 OA
ATOM     19  H   UNL     1      -3.385  -4.684  -8.389  1.00  0.00     0.293 HD
ENDBRANCH   6  18
BRANCH  17  20
ATOM     20  O   UNL     1      -3.702  -1.103 -12.379  1.00  0.00    -0.507 OA
ATOM     21  H   UNL     1      -4.452  -0.462 -12.597  1.00  0.00     0.293 HD
ENDBRANCH  17  20
BRANCH  15  22
ATOM     22  O   UNL     1      -2.974  -2.219 -17.003  1.00  0.00    -0.508 OA
ATOM     23  H   UNL     1      -2.537  -1.397 -17.404  1.00  0.00     0.293 HD
ENDBRANCH  15  22
TORSDOF 3
ENDMDL
