MODEL 1
REMARK VINA RESULT:    -2.864      0.000      0.000
REMARK INTER + INTRA:          -5.865
REMARK INTER:                  -5.375
REMARK INTRA:                  -0.490
REMARK UNBOUND:                -0.490
REMARK SMILES O=C([O-])CCCCCCCCCCCCCCC(=O)[O-]
REMARK SMILES IDX 10 1 9 2 8 3 7 4 6 5 5 6 4 7 2 8 1 9 3 10 11 11 12 12 13 13
REMARK SMILES IDX 14 14 15 15 16 16 17 17 18 18 19 19 20 20
REMARK H PARENT
REMARK Flexibility Score: inf
ROOT
ATOM      1  C   UNL     1      22.503  22.467  -9.463  1.00  0.00     0.000 C 
ENDROOT
BRANCH   1   2
ATOM      2  C   UNL     1      23.349  21.261  -9.914  1.00  0.00     0.000 C 
BRANCH   2   3
ATOM      3  C   UNL     1      24.303  21.542 -11.091  1.00  0.00     0.000 C 
BRANCH   3   4
ATOM      4  C   UNL     1      24.975  22.927 -11.068  1.00  0.00     0.000 C 
BRANCH   4   5
ATOM      5  C   UNL     1      26.517  22.869 -11.024  1.00  0.00     0.000 C 
BRANCH   5   6
ATOM      6  C   UNL     1      27.120  23.992 -10.163  1.00  0.00     0.006 C 
BRANCH   6   7
ATOM      7  C   UNL     1      27.981  24.958 -10.987  1.00  0.00     0.053 C 
BRANCH   7   8
ATOM      8  C   UNL     1      28.106  26.297 -10.328  1.00  0.00     0.041 C 
ATOM      9  O   UNL     1      28.537  26.384  -9.148  1.00  0.00    -0.550 OA
ATOM     10  O   UNL     1      27.711  27.445 -11.003  1.00  0.00    -0.550 OA
ENDBRANCH   7   8
ENDBRANCH   6   7
ENDBRANCH   5   6
ENDBRANCH   4   5
ENDBRANCH   3   4
ENDBRANCH   2   3
ENDBRANCH   1   2
BRANCH   1  11
ATOM     11  C   UNL     1      21.528  23.013 -10.523  1.00  0.00     0.000 C 
BRANCH  11  12
ATOM     12  C   UNL     1      20.163  22.293 -10.543  1.00  0.00     0.000 C 
BRANCH  12  13
ATOM     13  C   UNL     1      20.258  20.869 -11.109  1.00  0.00     0.000 C 
BRANCH  13  14
ATOM     14  C   UNL     1      18.883  20.189 -11.124  1.00  0.00     0.000 C 
BRANCH  14  15
ATOM     15  C   UNL     1      19.016  18.676 -10.895  1.00  0.00     0.000 C 
BRANCH  15  16
ATOM     16  C   UNL     1      17.726  18.042 -10.336  1.00  0.00     0.006 C 
BRANCH  16  17
ATOM     17  C   UNL     1      16.639  19.067  -9.973  1.00  0.00     0.053 C 
BRANCH  17  18
ATOM     18  C   UNL     1      15.447  18.435  -9.324  1.00  0.00     0.041 C 
ATOM     19  O   UNL     1      14.350  19.051  -9.277  1.00  0.00    -0.550 OA
ATOM     20  O   UNL     1      15.546  17.162  -8.775  1.00  0.00    -0.550 OA
ENDBRANCH  17  18
ENDBRANCH  16  17
ENDBRANCH  15  16
ENDBRANCH  14  15
ENDBRANCH  13  14
ENDBRANCH  12  13
ENDBRANCH  11  12
ENDBRANCH   1  11
TORSDOF 15
ENDMDL
MODEL 2
REMARK VINA RESULT:    -2.168      1.110      1.860
REMARK INTER + INTRA:          -4.560
REMARK INTER:                  -4.624
REMARK INTRA:                   0.064
REMARK UNBOUND:                -0.490
REMARK SMILES O=C([O-])CCCCCCCCCCCCCCC(=O)[O-]
REMARK SMILES IDX 10 1 9 2 8 3 7 4 6 5 5 6 4 7 2 8 1 9 3 10 11 11 12 12 13 13
REMARK SMILES IDX 14 14 15 15 16 16 17 17 18 18 19 19 20 20
REMARK H PARENT
REMARK Flexibility Score: inf
ROOT
ATOM      1  C   UNL     1      22.566  22.894  -9.234  1.00  0.00     0.000 C 
ENDROOT
BRANCH   1   2
ATOM      2  C   UNL     1      22.912  23.311 -10.676  1.00  0.00     0.000 C 
BRANCH   2   3
ATOM      3  C   UNL     1      24.382  23.717 -10.899  1.00  0.00     0.000 C 
BRANCH   3   4
ATOM      4  C   UNL     1      25.417  22.635 -10.539  1.00  0.00     0.000 C 
BRANCH   4   5
ATOM      5  C   UNL     1      26.821  22.899 -11.125  1.00  0.00     0.000 C 
BRANCH   5   6
ATOM      6  C   UNL     1      27.384  24.267 -10.701  1.00  0.00     0.006 C 
BRANCH   6   7
ATOM      7  C   UNL     1      28.582  24.133  -9.752  1.00  0.00     0.053 C 
BRANCH   7   8
ATOM      8  C   UNL     1      28.691  25.301  -8.820  1.00  0.00     0.041 C 
ATOM      9  O   UNL     1      28.496  26.471  -9.246  1.00  0.00    -0.550 OA
ATOM     10  O   UNL     1      29.043  25.102  -7.492  1.00  0.00    -0.550 OA
ENDBRANCH   7   8
ENDBRANCH   6   7
ENDBRANCH   5   6
ENDBRANCH   4   5
ENDBRANCH   3   4
ENDBRANCH   2   3
ENDBRANCH   1   2
BRANCH   1  11
ATOM     11  C   UNL     1      22.547  21.374  -8.982  1.00  0.00     0.000 C 
BRANCH  11  12
ATOM     12  C   UNL     1      22.791  20.530 -10.252  1.00  0.00     0.000 C 
BRANCH  12  13
ATOM     13  C   UNL     1      21.503  20.293 -11.055  1.00  0.00     0.000 C 
BRANCH  13  14
ATOM     14  C   UNL     1      20.363  21.183 -10.544  1.00  0.00     0.000 C 
BRANCH  14  15
ATOM     15  C   UNL     1      19.012  20.723 -11.110  1.00  0.00     0.000 C 
BRANCH  15  16
ATOM     16  C   UNL     1      18.441  19.495 -10.372  1.00  0.00     0.006 C 
BRANCH  16  17
ATOM     17  C   UNL     1      17.130  18.965 -10.974  1.00  0.00     0.053 C 
BRANCH  17  18
ATOM     18  C   UNL     1      16.091  18.684  -9.934  1.00  0.00     0.041 C 
ATOM     19  O   UNL     1      15.191  19.531  -9.690  1.00  0.00    -0.550 OA
ATOM     20  O   UNL     1      16.114  17.483  -9.234  1.00  0.00    -0.550 OA
ENDBRANCH  17  18
ENDBRANCH  16  17
ENDBRANCH  15  16
ENDBRANCH  14  15
ENDBRANCH  13  14
ENDBRANCH  12  13
ENDBRANCH  11  12
ENDBRANCH   1  11
TORSDOF 15
ENDMDL
MODEL 3
REMARK VINA RESULT:    -2.103     11.531     14.157
REMARK INTER + INTRA:          -4.438
REMARK INTER:                  -3.924
REMARK INTRA:                  -0.514
REMARK UNBOUND:                -0.490
REMARK SMILES O=C([O-])CCCCCCCCCCCCCCC(=O)[O-]
REMARK SMILES IDX 10 1 9 2 8 3 7 4 6 5 5 6 4 7 2 8 1 9 3 10 11 11 12 12 13 13
REMARK SMILES IDX 14 14 15 15 16 16 17 17 18 18 19 19 20 20
REMARK H PARENT
REMARK Flexibility Score: inf
ROOT
ATOM      1  C   UNL     1      27.484  25.115   0.627  1.00  0.00     0.000 C 
ENDROOT
BRANCH   1   2
ATOM      2  C   UNL     1      28.904  25.689   0.464  1.00  0.00     0.000 C 
BRANCH   2   3
ATOM      3  C   UNL     1      28.985  27.227   0.449  1.00  0.00     0.000 C 
BRANCH   3   4
ATOM      4  C   UNL     1      29.123  27.885   1.835  1.00  0.00     0.000 C 
BRANCH   4   5
ATOM      5  C   UNL     1      29.076  26.881   3.007  1.00  0.00     0.000 C 
BRANCH   5   6
ATOM      6  C   UNL     1      28.951  27.580   4.372  1.00  0.00     0.006 C 
BRANCH   6   7
ATOM      7  C   UNL     1      28.080  28.841   4.301  1.00  0.00     0.053 C 
BRANCH   7   8
ATOM      8  C   UNL     1      28.151  29.640   5.567  1.00  0.00     0.041 C 
ATOM      9  O   UNL     1      27.984  29.077   6.681  1.00  0.00    -0.550 OA
ATOM     10  O   UNL     1      28.363  31.011   5.513  1.00  0.00    -0.550 OA
ENDBRANCH   7   8
ENDBRANCH   6   7
ENDBRANCH   5   6
ENDBRANCH   4   5
ENDBRANCH   3   4
ENDBRANCH   2   3
ENDBRANCH   1   2
BRANCH   1  11
ATOM     11  C   UNL     1      26.872  24.516  -0.654  1.00  0.00     0.000 C 
BRANCH  11  12
ATOM     12  C   UNL     1      27.425  25.134  -1.955  1.00  0.00     0.000 C 
BRANCH  12  13
ATOM     13  C   UNL     1      28.687  24.416  -2.456  1.00  0.00     0.000 C 
BRANCH  13  14
ATOM     14  C   UNL     1      28.343  23.391  -3.544  1.00  0.00     0.000 C 
BRANCH  14  15
ATOM     15  C   UNL     1      29.125  22.086  -3.337  1.00  0.00     0.000 C 
BRANCH  15  16
ATOM     16  C   UNL     1      28.671  21.311  -2.084  1.00  0.00     0.006 C 
BRANCH  16  17
ATOM     17  C   UNL     1      27.729  20.135  -2.391  1.00  0.00     0.053 C 
BRANCH  17  18
ATOM     18  C   UNL     1      28.457  18.833  -2.516  1.00  0.00     0.041 C 
ATOM     19  O   UNL     1      28.485  18.026  -1.548  1.00  0.00    -0.550 OA
ATOM     20  O   UNL     1      29.100  18.506  -3.703  1.00  0.00    -0.550 OA
ENDBRANCH  17  18
ENDBRANCH  16  17
ENDBRANCH  15  16
ENDBRANCH  14  15
ENDBRANCH  13  14
ENDBRANCH  12  13
ENDBRANCH  11  12
ENDBRANCH   1  11
TORSDOF 15
ENDMDL
MODEL 4
REMARK VINA RESULT:    -1.974     11.971     15.844
REMARK INTER + INTRA:          -4.195
REMARK INTER:                  -4.184
REMARK INTRA:                  -0.011
REMARK UNBOUND:                -0.490
REMARK SMILES O=C([O-])CCCCCCCCCCCCCCC(=O)[O-]
REMARK SMILES IDX 10 1 9 2 8 3 7 4 6 5 5 6 4 7 2 8 1 9 3 10 11 11 12 12 13 13
REMARK SMILES IDX 14 14 15 15 16 16 17 17 18 18 19 19 20 20
REMARK H PARENT
REMARK Flexibility Score: inf
ROOT
ATOM      1  C   UNL     1      27.018  24.793  -0.133  1.00  0.00     0.000 C 
ENDROOT
BRANCH   1   2
ATOM      2  C   UNL     1      26.199  24.318  -1.348  1.00  0.00     0.000 C 
BRANCH   2   3
ATOM      3  C   UNL     1      26.893  23.257  -2.224  1.00  0.00     0.000 C 
BRANCH   3   4
ATOM      4  C   UNL     1      27.739  23.820  -3.381  1.00  0.00     0.000 C 
BRANCH   4   5
ATOM      5  C   UNL     1      29.125  23.152  -3.520  1.00  0.00     0.000 C 
BRANCH   5   6
ATOM      6  C   UNL     1      29.027  21.622  -3.645  1.00  0.00     0.006 C 
BRANCH   6   7
ATOM      7  C   UNL     1      28.658  20.953  -2.314  1.00  0.00     0.053 C 
BRANCH   7   8
ATOM      8  C   UNL     1      28.136  19.563  -2.514  1.00  0.00     0.041 C 
ATOM      9  O   UNL     1      27.849  19.154  -3.670  1.00  0.00    -0.550 OA
ATOM     10  O   UNL     1      27.931  18.732  -1.420  1.00  0.00    -0.550 OA
ENDBRANCH   7   8
ENDBRANCH   6   7
ENDBRANCH   5   6
ENDBRANCH   4   5
ENDBRANCH   3   4
ENDBRANCH   2   3
ENDBRANCH   1   2
BRANCH   1  11
ATOM     11  C   UNL     1      28.405  25.373  -0.468  1.00  0.00     0.000 C 
BRANCH  11  12
ATOM     12  C   UNL     1      29.001  26.251   0.654  1.00  0.00     0.000 C 
BRANCH  12  13
ATOM     13  C   UNL     1      28.382  25.949   2.026  1.00  0.00     0.000 C 
BRANCH  13  14
ATOM     14  C   UNL     1      29.115  26.706   3.141  1.00  0.00     0.000 C 
BRANCH  14  15
ATOM     15  C   UNL     1      28.449  28.063   3.413  1.00  0.00     0.000 C 
BRANCH  15  16
ATOM     16  C   UNL     1      29.115  28.832   4.573  1.00  0.00     0.006 C 
BRANCH  16  17
ATOM     17  C   UNL     1      28.323  28.773   5.890  1.00  0.00     0.053 C 
BRANCH  17  18
ATOM     18  C   UNL     1      28.591  29.950   6.775  1.00  0.00     0.041 C 
ATOM     19  O   UNL     1      28.672  31.107   6.284  1.00  0.00    -0.550 OA
ATOM     20  O   UNL     1      28.746  29.770   8.144  1.00  0.00    -0.550 OA
ENDBRANCH  17  18
ENDBRANCH  16  17
ENDBRANCH  15  16
ENDBRANCH  14  15
ENDBRANCH  13  14
ENDBRANCH  12  13
ENDBRANCH  11  12
ENDBRANCH   1  11
TORSDOF 15
ENDMDL
MODEL 5
REMARK VINA RESULT:    -1.659      1.076     10.958
REMARK INTER + INTRA:          -3.605
REMARK INTER:                  -3.239
REMARK INTRA:                  -0.366
REMARK UNBOUND:                -0.490
REMARK SMILES O=C([O-])CCCCCCCCCCCCCCC(=O)[O-]
REMARK SMILES IDX 10 1 9 2 8 3 7 4 6 5 5 6 4 7 2 8 1 9 3 10 11 11 12 12 13 13
REMARK SMILES IDX 14 14 15 15 16 16 17 17 18 18 19 19 20 20
REMARK H PARENT
REMARK Flexibility Score: inf
ROOT
ATOM      1  C   UNL     1      21.805  21.676  -9.008  1.00  0.00     0.000 C 
ENDROOT
BRANCH   1   2
ATOM      2  C   UNL     1      20.534  21.924  -9.843  1.00  0.00     0.000 C 
BRANCH   2   3
ATOM      3  C   UNL     1      20.248  20.861 -10.921  1.00  0.00     0.000 C 
BRANCH   3   4
ATOM      4  C   UNL     1      18.759  20.525 -11.125  1.00  0.00     0.000 C 
BRANCH   4   5
ATOM      5  C   UNL     1      18.453  19.012 -11.091  1.00  0.00     0.000 C 
BRANCH   5   6
ATOM      6  C   UNL     1      16.946  18.721 -10.986  1.00  0.00     0.006 C 
BRANCH   6   7
ATOM      7  C   UNL     1      16.616  17.779  -9.821  1.00  0.00     0.053 C 
BRANCH   7   8
ATOM      8  C   UNL     1      15.398  18.224  -9.070  1.00  0.00     0.041 C 
ATOM      9  O   UNL     1      15.129  19.450  -8.969  1.00  0.00    -0.550 OA
ATOM     10  O   UNL     1      14.581  17.287  -8.451  1.00  0.00    -0.550 OA
ENDBRANCH   7   8
ENDBRANCH   6   7
ENDBRANCH   5   6
ENDBRANCH   4   5
ENDBRANCH   3   4
ENDBRANCH   2   3
ENDBRANCH   1   2
BRANCH   1  11
ATOM     11  C   UNL     1      23.131  21.901  -9.759  1.00  0.00     0.000 C 
BRANCH  11  12
ATOM     12  C   UNL     1      23.037  22.947 -10.890  1.00  0.00     0.000 C 
BRANCH  12  13
ATOM     13  C   UNL     1      24.314  23.790 -11.018  1.00  0.00     0.000 C 
BRANCH  13  14
ATOM     14  C   UNL     1      25.558  22.963 -10.672  1.00  0.00     0.000 C 
BRANCH  14  15
ATOM     15  C   UNL     1      26.839  23.680 -11.124  1.00  0.00     0.000 C 
BRANCH  15  16
ATOM     16  C   UNL     1      28.087  23.222 -10.344  1.00  0.00     0.006 C 
BRANCH  16  17
ATOM     17  C   UNL     1      29.113  24.342 -10.103  1.00  0.00     0.053 C 
BRANCH  17  18
ATOM     18  C   UNL     1      28.545  25.482  -9.316  1.00  0.00     0.041 C 
ATOM     19  O   UNL     1      27.891  26.389  -9.896  1.00  0.00    -0.550 OA
ATOM     20  O   UNL     1      28.732  25.540  -7.941  1.00  0.00    -0.550 OA
ENDBRANCH  17  18
ENDBRANCH  16  17
ENDBRANCH  15  16
ENDBRANCH  14  15
ENDBRANCH  13  14
ENDBRANCH  12  13
ENDBRANCH  11  12
ENDBRANCH   1  11
TORSDOF 15
ENDMDL
MODEL 6
REMARK VINA RESULT:    -1.496     12.514     13.984
REMARK INTER + INTRA:          -3.298
REMARK INTER:                  -3.023
REMARK INTRA:                  -0.275
REMARK UNBOUND:                -0.490
REMARK SMILES O=C([O-])CCCCCCCCCCCCCCC(=O)[O-]
REMARK SMILES IDX 10 1 9 2 8 3 7 4 6 5 5 6 4 7 2 8 1 9 3 10 11 11 12 12 13 13
REMARK SMILES IDX 14 14 15 15 16 16 17 17 18 18 19 19 20 20
REMARK H PARENT
REMARK Flexibility Score: inf
ROOT
ATOM      1  C   UNL     1      13.484  30.376  -7.472  1.00  0.00     0.000 C 
ENDROOT
BRANCH   1   2
ATOM      2  C   UNL     1      13.160  31.315  -8.650  1.00  0.00     0.000 C 
BRANCH   2   3
ATOM      3  C   UNL     1      13.349  30.692 -10.046  1.00  0.00     0.000 C 
BRANCH   3   4
ATOM      4  C   UNL     1      13.973  31.629 -11.098  1.00  0.00     0.000 C 
BRANCH   4   5
ATOM      5  C   UNL     1      13.961  33.118 -10.689  1.00  0.00     0.000 C 
BRANCH   5   6
ATOM      6  C   UNL     1      15.268  33.838 -11.061  1.00  0.00     0.006 C 
BRANCH   6   7
ATOM      7  C   UNL     1      16.244  33.917  -9.879  1.00  0.00     0.053 C 
BRANCH   7   8
ATOM      8  C   UNL     1      16.490  32.573  -9.266  1.00  0.00     0.041 C 
ATOM      9  O   UNL     1      16.334  32.403  -8.028  1.00  0.00    -0.550 OA
ATOM     10  O   UNL     1      16.928  31.518 -10.056  1.00  0.00    -0.550 OA
ENDBRANCH   7   8
ENDBRANCH   6   7
ENDBRANCH   5   6
ENDBRANCH   4   5
ENDBRANCH   3   4
ENDBRANCH   2   3
ENDBRANCH   1   2
BRANCH   1  11
ATOM     11  C   UNL     1      12.748  29.023  -7.495  1.00  0.00     0.000 C 
BRANCH  11  12
ATOM     12  C   UNL     1      11.217  29.151  -7.647  1.00  0.00     0.000 C 
BRANCH  12  13
ATOM     13  C   UNL     1      10.644  28.154  -8.666  1.00  0.00     0.000 C 
BRANCH  13  14
ATOM     14  C   UNL     1      10.631  28.754 -10.077  1.00  0.00     0.000 C 
BRANCH  14  15
ATOM     15  C   UNL     1       9.195  28.890 -10.604  1.00  0.00     0.000 C 
BRANCH  15  16
ATOM     16  C   UNL     1       8.876  30.312 -11.109  1.00  0.00     0.006 C 
BRANCH  16  17
ATOM     17  C   UNL     1       9.019  31.398 -10.030  1.00  0.00     0.053 C 
BRANCH  17  18
ATOM     18  C   UNL     1       9.667  32.643 -10.550  1.00  0.00     0.041 C 
ATOM     19  O   UNL     1       8.961  33.598 -10.969  1.00  0.00    -0.550 OA
ATOM     20  O   UNL     1      11.053  32.751 -10.568  1.00  0.00    -0.550 OA
ENDBRANCH  17  18
ENDBRANCH  16  17
ENDBRANCH  15  16
ENDBRANCH  14  15
ENDBRANCH  13  14
ENDBRANCH  12  13
ENDBRANCH  11  12
ENDBRANCH   1  11
TORSDOF 15
ENDMDL
