MODEL 1
REMARK VINA RESULT:    -5.046      0.000      0.000
REMARK INTER + INTRA:          -6.688
REMARK INTER:                  -6.226
REMARK INTRA:                  -0.462
REMARK UNBOUND:                -0.462
REMARK SMILES C=CC[C@@H](C)C(=O)CC
REMARK SMILES IDX 4 1 5 2 6 3 7 4 8 5 9 6 3 7 2 8 1 9
REMARK H PARENT
REMARK Flexibility Score: inf
ROOT
ATOM      1  C   UNL     1     -10.270 -34.693 -10.891  1.00  0.00     0.057 C 
ATOM      2  C   UNL     1      -9.930 -34.096  -9.518  1.00  0.00     0.016 C 
ENDROOT
BRANCH   1   3
ATOM      3  C   UNL     1     -10.610 -36.161 -10.746  1.00  0.00     0.135 C 
ATOM      4  O   UNL     1     -10.957 -36.803 -11.727  1.00  0.00    -0.299 OA
BRANCH   3   5
ATOM      5  C   UNL     1     -10.533 -36.851  -9.409  1.00  0.00     0.072 C 
ATOM      6  C   UNL     1     -11.930 -37.124  -8.861  1.00  0.00     0.012 C 
ENDBRANCH   3   5
ENDBRANCH   1   3
BRANCH   1   7
ATOM      7  C   UNL     1     -11.444 -33.948 -11.563  1.00  0.00     0.038 C 
BRANCH   7   8
ATOM      8  C   UNL     1     -12.634 -33.813 -10.651  1.00  0.00    -0.034 C 
ATOM      9  C   UNL     1     -13.732 -34.559 -10.811  1.00  0.00     0.004 C 
ENDBRANCH   7   8
ENDBRANCH   1   7
TORSDOF 4
ENDMDL
MODEL 2
REMARK VINA RESULT:    -4.914      1.637      3.372
REMARK INTER + INTRA:          -6.526
REMARK INTER:                  -6.079
REMARK INTRA:                  -0.446
REMARK UNBOUND:                -0.462
REMARK SMILES C=CC[C@@H](C)C(=O)CC
REMARK SMILES IDX 4 1 5 2 6 3 7 4 8 5 9 6 3 7 2 8 1 9
REMARK H PARENT
REMARK Flexibility Score: inf
ROOT
ATOM      1  C   UNL     1     -10.230 -34.920 -10.697  1.00  0.00     0.057 C 
ATOM      2  C   UNL     1     -10.604 -35.775 -11.915  1.00  0.00     0.016 C 
ENDROOT
BRANCH   1   3
ATOM      3  C   UNL     1     -11.331 -33.922 -10.408  1.00  0.00     0.135 C 
ATOM      4  O   UNL     1     -11.232 -33.172  -9.448  1.00  0.00    -0.299 OA
BRANCH   3   5
ATOM      5  C   UNL     1     -12.555 -33.837 -11.282  1.00  0.00     0.072 C 
ATOM      6  C   UNL     1     -13.723 -34.585 -10.649  1.00  0.00     0.012 C 
ENDBRANCH   3   5
ENDBRANCH   1   3
BRANCH   1   7
ATOM      7  C   UNL     1      -9.970 -35.789  -9.447  1.00  0.00     0.038 C 
BRANCH   7   8
ATOM      8  C   UNL     1     -10.815 -37.036  -9.431  1.00  0.00    -0.034 C 
ATOM      9  C   UNL     1     -11.925 -37.125  -8.692  1.00  0.00     0.004 C 
ENDBRANCH   7   8
ENDBRANCH   1   7
TORSDOF 4
ENDMDL
MODEL 3
REMARK VINA RESULT:    -4.813      1.465      2.268
REMARK INTER + INTRA:          -6.401
REMARK INTER:                  -6.598
REMARK INTRA:                   0.196
REMARK UNBOUND:                -0.462
REMARK SMILES C=CC[C@@H](C)C(=O)CC
REMARK SMILES IDX 4 1 5 2 6 3 7 4 8 5 9 6 3 7 2 8 1 9
REMARK H PARENT
REMARK Flexibility Score: inf
ROOT
ATOM      1  C   UNL     1     -11.338 -36.581 -11.300  1.00  0.00     0.057 C 
ATOM      2  C   UNL     1     -10.403 -35.693 -12.132  1.00  0.00     0.016 C 
ENDROOT
BRANCH   1   3
ATOM      3  C   UNL     1     -10.908 -36.568  -9.849  1.00  0.00     0.135 C 
ATOM      4  O   UNL     1     -11.586 -37.144  -9.010  1.00  0.00    -0.299 OA
BRANCH   3   5
ATOM      5  C   UNL     1      -9.657 -35.851  -9.413  1.00  0.00     0.072 C 
ATOM      6  C   UNL     1      -9.903 -34.349  -9.311  1.00  0.00     0.012 C 
ENDBRANCH   3   5
ENDBRANCH   1   3
BRANCH   1   7
ATOM      7  C   UNL     1     -12.810 -36.127 -11.414  1.00  0.00     0.038 C 
BRANCH   7   8
ATOM      8  C   UNL     1     -13.112 -34.941 -10.537  1.00  0.00    -0.034 C 
ATOM      9  C   UNL     1     -13.304 -33.720 -11.046  1.00  0.00     0.004 C 
ENDBRANCH   7   8
ENDBRANCH   1   7
TORSDOF 4
ENDMDL
MODEL 4
REMARK VINA RESULT:    -4.471      1.496      3.490
REMARK INTER + INTRA:          -5.979
REMARK INTER:                  -5.631
REMARK INTRA:                  -0.348
REMARK UNBOUND:                -0.462
REMARK SMILES C=CC[C@@H](C)C(=O)CC
REMARK SMILES IDX 4 1 5 2 6 3 7 4 8 5 9 6 3 7 2 8 1 9
REMARK H PARENT
REMARK Flexibility Score: inf
ROOT
ATOM      1  C   UNL     1     -11.274 -35.954 -10.902  1.00  0.00     0.057 C 
ATOM      2  C   UNL     1     -11.410 -36.873 -12.124  1.00  0.00     0.016 C 
ENDROOT
BRANCH   1   3
ATOM      3  C   UNL     1     -12.600 -35.855 -10.180  1.00  0.00     0.135 C 
ATOM      4  O   UNL     1     -12.863 -36.646  -9.285  1.00  0.00    -0.299 OA
BRANCH   3   5
ATOM      5  C   UNL     1     -13.612 -34.801 -10.546  1.00  0.00     0.072 C 
ATOM      6  C   UNL     1     -12.933 -33.610 -11.215  1.00  0.00     0.012 C 
ENDBRANCH   3   5
ENDBRANCH   1   3
BRANCH   1   7
ATOM      7  C   UNL     1     -10.184 -36.454  -9.930  1.00  0.00     0.038 C 
BRANCH   7   8
ATOM      8  C   UNL     1      -9.553 -35.331  -9.150  1.00  0.00    -0.034 C 
ATOM      9  C   UNL     1      -9.753 -34.050  -9.473  1.00  0.00     0.004 C 
ENDBRANCH   7   8
ENDBRANCH   1   7
TORSDOF 4
ENDMDL
MODEL 5
REMARK VINA RESULT:    -4.203      5.925      7.584
REMARK INTER + INTRA:          -5.648
REMARK INTER:                  -5.425
REMARK INTRA:                  -0.223
REMARK UNBOUND:                -0.462
REMARK SMILES C=CC[C@@H](C)C(=O)CC
REMARK SMILES IDX 4 1 5 2 6 3 7 4 8 5 9 6 3 7 2 8 1 9
REMARK H PARENT
REMARK Flexibility Score: inf
ROOT
ATOM      1  C   UNL     1     -16.207 -39.311  -5.768  1.00  0.00     0.057 C 
ATOM      2  C   UNL     1     -17.665 -39.057  -6.176  1.00  0.00     0.016 C 
ENDROOT
BRANCH   1   3
ATOM      3  C   UNL     1     -15.327 -39.355  -6.998  1.00  0.00     0.135 C 
ATOM      4  O   UNL     1     -15.700 -39.966  -7.989  1.00  0.00    -0.299 OA
BRANCH   3   5
ATOM      5  C   UNL     1     -13.989 -38.663  -7.025  1.00  0.00     0.072 C 
ATOM      6  C   UNL     1     -12.880 -39.613  -6.586  1.00  0.00     0.012 C 
ENDBRANCH   3   5
ENDBRANCH   1   3
BRANCH   1   7
ATOM      7  C   UNL     1     -15.691 -38.232  -4.792  1.00  0.00     0.038 C 
BRANCH   7   8
ATOM      8  C   UNL     1     -16.808 -37.413  -4.200  1.00  0.00    -0.034 C 
ATOM      9  C   UNL     1     -16.647 -36.124  -3.887  1.00  0.00     0.004 C 
ENDBRANCH   7   8
ENDBRANCH   1   7
TORSDOF 4
ENDMDL
MODEL 6
REMARK VINA RESULT:    -4.077      7.661      8.396
REMARK INTER + INTRA:          -5.493
REMARK INTER:                  -5.324
REMARK INTRA:                  -0.168
REMARK UNBOUND:                -0.462
REMARK SMILES C=CC[C@@H](C)C(=O)CC
REMARK SMILES IDX 4 1 5 2 6 3 7 4 8 5 9 6 3 7 2 8 1 9
REMARK H PARENT
REMARK Flexibility Score: inf
ROOT
ATOM      1  C   UNL     1     -16.790 -39.342  -5.497  1.00  0.00     0.057 C 
ATOM      2  C   UNL     1     -18.233 -39.094  -5.035  1.00  0.00     0.016 C 
ENDROOT
BRANCH   1   3
ATOM      3  C   UNL     1     -16.745 -39.465  -7.005  1.00  0.00     0.135 C 
ATOM      4  O   UNL     1     -15.670 -39.614  -7.568  1.00  0.00    -0.299 OA
BRANCH   3   5
ATOM      5  C   UNL     1     -18.003 -39.401  -7.831  1.00  0.00     0.072 C 
ATOM      6  C   UNL     1     -17.762 -39.964  -9.227  1.00  0.00     0.012 C 
ENDBRANCH   3   5
ENDBRANCH   1   3
BRANCH   1   7
ATOM      7  C   UNL     1     -15.841 -38.216  -5.034  1.00  0.00     0.038 C 
BRANCH   7   8
ATOM      8  C   UNL     1     -16.414 -37.416  -3.894  1.00  0.00    -0.034 C 
ATOM      9  C   UNL     1     -16.463 -36.080  -3.925  1.00  0.00     0.004 C 
ENDBRANCH   7   8
ENDBRANCH   1   7
TORSDOF 4
ENDMDL
MODEL 7
REMARK VINA RESULT:    -4.004      7.974      9.691
REMARK INTER + INTRA:          -5.403
REMARK INTER:                  -5.178
REMARK INTRA:                  -0.225
REMARK UNBOUND:                -0.462
REMARK SMILES C=CC[C@@H](C)C(=O)CC
REMARK SMILES IDX 4 1 5 2 6 3 7 4 8 5 9 6 3 7 2 8 1 9
REMARK H PARENT
REMARK Flexibility Score: inf
ROOT
ATOM      1  C   UNL     1     -17.758 -37.490  -3.917  1.00  0.00     0.057 C 
ATOM      2  C   UNL     1     -17.000 -36.156  -3.927  1.00  0.00     0.016 C 
ENDROOT
BRANCH   1   3
ATOM      3  C   UNL     1     -19.160 -37.292  -4.452  1.00  0.00     0.135 C 
ATOM      4  O   UNL     1     -19.843 -36.367  -4.034  1.00  0.00    -0.299 OA
BRANCH   3   5
ATOM      5  C   UNL     1     -19.738 -38.218  -5.489  1.00  0.00     0.072 C 
ATOM      6  C   UNL     1     -21.001 -37.622  -6.103  1.00  0.00     0.012 C 
ENDBRANCH   3   5
ENDBRANCH   1   3
BRANCH   1   7
ATOM      7  C   UNL     1     -17.029 -38.568  -4.748  1.00  0.00     0.038 C 
BRANCH   7   8
ATOM      8  C   UNL     1     -15.587 -38.215  -5.004  1.00  0.00    -0.034 C 
ATOM      9  C   UNL     1     -14.852 -38.869  -5.909  1.00  0.00     0.004 C 
ENDBRANCH   7   8
ENDBRANCH   1   7
TORSDOF 4
ENDMDL
MODEL 8
REMARK VINA RESULT:    -3.964      7.471      8.426
REMARK INTER + INTRA:          -5.353
REMARK INTER:                  -5.162
REMARK INTRA:                  -0.191
REMARK UNBOUND:                -0.462
REMARK SMILES C=CC[C@@H](C)C(=O)CC
REMARK SMILES IDX 4 1 5 2 6 3 7 4 8 5 9 6 3 7 2 8 1 9
REMARK H PARENT
REMARK Flexibility Score: inf
ROOT
ATOM      1  C   UNL     1     -16.317 -39.223  -5.532  1.00  0.00     0.057 C 
ATOM      2  C   UNL     1     -14.874 -38.767  -5.790  1.00  0.00     0.016 C 
ENDROOT
BRANCH   1   3
ATOM      3  C   UNL     1     -17.010 -38.246  -4.607  1.00  0.00     0.135 C 
ATOM      4  O   UNL     1     -18.217 -38.329  -4.432  1.00  0.00    -0.299 OA
BRANCH   3   5
ATOM      5  C   UNL     1     -16.239 -37.163  -3.898  1.00  0.00     0.072 C 
ATOM      6  C   UNL     1     -17.017 -35.851  -3.909  1.00  0.00     0.012 C 
ENDBRANCH   3   5
ENDBRANCH   1   3
BRANCH   1   7
ATOM      7  C   UNL     1     -17.117 -39.358  -6.846  1.00  0.00     0.038 C 
BRANCH   7   8
ATOM      8  C   UNL     1     -16.338 -40.069  -7.920  1.00  0.00    -0.034 C 
ATOM      9  C   UNL     1     -16.763 -40.115  -9.186  1.00  0.00     0.004 C 
ENDBRANCH   7   8
ENDBRANCH   1   7
TORSDOF 4
ENDMDL
MODEL 9
REMARK VINA RESULT:    -3.877      8.606      9.917
REMARK INTER + INTRA:          -5.246
REMARK INTER:                  -5.000
REMARK INTRA:                  -0.245
REMARK UNBOUND:                -0.462
REMARK SMILES C=CC[C@@H](C)C(=O)CC
REMARK SMILES IDX 4 1 5 2 6 3 7 4 8 5 9 6 3 7 2 8 1 9
REMARK H PARENT
REMARK Flexibility Score: inf
ROOT
ATOM      1  C   UNL     1     -19.176 -38.770  -5.265  1.00  0.00     0.057 C 
ATOM      2  C   UNL     1     -18.977 -39.013  -6.767  1.00  0.00     0.016 C 
ENDROOT
BRANCH   1   3
ATOM      3  C   UNL     1     -17.888 -38.269  -4.648  1.00  0.00     0.135 C 
ATOM      4  O   UNL     1     -16.870 -38.940  -4.741  1.00  0.00    -0.299 OA
BRANCH   3   5
ATOM      5  C   UNL     1     -17.835 -36.955  -3.912  1.00  0.00     0.072 C 
ATOM      6  C   UNL     1     -16.407 -36.425  -3.856  1.00  0.00     0.012 C 
ENDBRANCH   3   5
ENDBRANCH   1   3
BRANCH   1   7
ATOM      7  C   UNL     1     -20.314 -37.762  -4.995  1.00  0.00     0.038 C 
BRANCH   7   8
ATOM      8  C   UNL     1     -21.230 -37.601  -6.180  1.00  0.00    -0.034 C 
ATOM      9  C   UNL     1     -21.792 -36.426  -6.481  1.00  0.00     0.004 C 
ENDBRANCH   7   8
ENDBRANCH   1   7
TORSDOF 4
ENDMDL
