MODEL 1
REMARK VINA RESULT:    -4.345      0.000      0.000
REMARK INTER + INTRA:          -6.368
REMARK INTER:                  -5.870
REMARK INTRA:                  -0.498
REMARK UNBOUND:                -0.498
REMARK SMILES [NH3+]CCCC[C@@H]([NH3+])C(=O)[O-]
REMARK SMILES IDX 4 1 3 2 2 3 1 4 5 8 6 9 7 10 8 14 9 15 10 16
REMARK H PARENT 1 5 1 6 1 7 7 11 7 12 7 13
REMARK Flexibility Score: inf
ROOT
ATOM      1  C   UNL     1     -29.416 -39.720  26.254  1.00  0.00     0.012 C 
ENDROOT
BRANCH   1   2
ATOM      2  C   UNL     1     -27.963 -40.155  26.021  1.00  0.00     0.061 C 
BRANCH   2   3
ATOM      3  C   UNL     1     -27.766 -41.636  26.374  1.00  0.00     0.258 C 
BRANCH   3   4
ATOM      4  N   UNL     1     -27.366 -42.406  25.196  1.00  0.00    -0.358 N 
ATOM      5  H   UNL     1     -27.716 -41.942  24.328  1.00  0.00     0.344 HD
ATOM      6  H   UNL     1     -27.747 -43.379  25.256  1.00  0.00     0.344 HD
ATOM      7  H   UNL     1     -26.323 -42.454  25.158  1.00  0.00     0.344 HD
ENDBRANCH   3   4
ENDBRANCH   2   3
ENDBRANCH   1   2
BRANCH   1   8
ATOM      8  C   UNL     1     -30.364 -40.892  26.580  1.00  0.00     0.072 C 
BRANCH   8   9
ATOM      9  C   UNL     1     -31.566 -41.098  25.619  1.00  0.00     0.227 C 
BRANCH   9  10
ATOM     10  N   UNL     1     -32.650 -40.140  25.875  1.00  0.00    -0.350 N 
ATOM     11  H   UNL     1     -33.533 -40.431  25.398  1.00  0.00     0.345 HD
ATOM     12  H   UNL     1     -32.373 -39.189  25.540  1.00  0.00     0.345 HD
ATOM     13  H   UNL     1     -32.829 -40.082  26.904  1.00  0.00     0.345 HD
ENDBRANCH   9  10
BRANCH   9  14
ATOM     14  C   UNL     1     -31.149 -41.094  24.167  1.00  0.00     0.099 C 
ATOM     15  O   UNL     1     -31.692 -40.294  23.360  1.00  0.00    -0.544 OA
ATOM     16  O   UNL     1     -30.146 -41.942  23.709  1.00  0.00    -0.544 OA
ENDBRANCH   9  14
ENDBRANCH   8   9
ENDBRANCH   1   8
TORSDOF 7
ENDMDL
MODEL 2
REMARK VINA RESULT:    -4.186      2.176      3.753
REMARK INTER + INTRA:          -6.152
REMARK INTER:                  -5.557
REMARK INTRA:                  -0.595
REMARK UNBOUND:                -0.498
REMARK SMILES [NH3+]CCCC[C@@H]([NH3+])C(=O)[O-]
REMARK SMILES IDX 4 1 3 2 2 3 1 4 5 8 6 9 7 10 8 14 9 15 10 16
REMARK H PARENT 1 5 1 6 1 7 7 11 7 12 7 13
REMARK Flexibility Score: inf
ROOT
ATOM      1  C   UNL     1     -29.837 -39.098  27.716  1.00  0.00     0.012 C 
ENDROOT
BRANCH   1   2
ATOM      2  C   UNL     1     -31.264 -39.488  27.308  1.00  0.00     0.061 C 
BRANCH   2   3
ATOM      3  C   UNL     1     -31.658 -40.846  27.906  1.00  0.00     0.258 C 
BRANCH   3   4
ATOM      4  N   UNL     1     -31.477 -41.919  26.928  1.00  0.00    -0.358 N 
ATOM      5  H   UNL     1     -31.441 -42.844  27.413  1.00  0.00     0.344 HD
ATOM      6  H   UNL     1     -30.594 -41.768  26.388  1.00  0.00     0.344 HD
ATOM      7  H   UNL     1     -32.284 -41.916  26.264  1.00  0.00     0.344 HD
ENDBRANCH   3   4
ENDBRANCH   2   3
ENDBRANCH   1   2
BRANCH   1   8
ATOM      8  C   UNL     1     -28.807 -39.255  26.579  1.00  0.00     0.072 C 
BRANCH   8   9
ATOM      9  C   UNL     1     -27.900 -40.513  26.635  1.00  0.00     0.227 C 
BRANCH   9  10
ATOM     10  N   UNL     1     -27.915 -41.147  27.960  1.00  0.00    -0.350 N 
ATOM     11  H   UNL     1     -27.817 -42.184  27.886  1.00  0.00     0.345 HD
ATOM     12  H   UNL     1     -28.807 -40.918  28.456  1.00  0.00     0.345 HD
ATOM     13  H   UNL     1     -27.122 -40.776  28.534  1.00  0.00     0.345 HD
ENDBRANCH   9  10
BRANCH   9  14
ATOM     14  C   UNL     1     -28.220 -41.503  25.539  1.00  0.00     0.099 C 
ATOM     15  O   UNL     1     -27.388 -42.401  25.241  1.00  0.00    -0.544 OA
ATOM     16  O   UNL     1     -29.438 -41.460  24.871  1.00  0.00    -0.544 OA
ENDBRANCH   9  14
ENDBRANCH   8   9
ENDBRANCH   1   8
TORSDOF 7
ENDMDL
MODEL 3
REMARK VINA RESULT:    -4.181      2.514      3.487
REMARK INTER + INTRA:          -6.145
REMARK INTER:                  -5.670
REMARK INTRA:                  -0.475
REMARK UNBOUND:                -0.498
REMARK SMILES [NH3+]CCCC[C@@H]([NH3+])C(=O)[O-]
REMARK SMILES IDX 4 1 3 2 2 3 1 4 5 8 6 9 7 10 8 14 9 15 10 16
REMARK H PARENT 1 5 1 6 1 7 7 11 7 12 7 13
REMARK Flexibility Score: inf
ROOT
ATOM      1  C   UNL     1     -31.431 -41.175  25.511  1.00  0.00     0.012 C 
ENDROOT
BRANCH   1   2
ATOM      2  C   UNL     1     -31.103 -40.983  24.024  1.00  0.00     0.061 C 
BRANCH   2   3
ATOM      3  C   UNL     1     -30.905 -42.334  23.323  1.00  0.00     0.258 C 
BRANCH   3   4
ATOM      4  N   UNL     1     -29.488 -42.697  23.279  1.00  0.00    -0.358 N 
ATOM      5  H   UNL     1     -28.947 -41.969  22.759  1.00  0.00     0.344 HD
ATOM      6  H   UNL     1     -29.369 -43.627  22.815  1.00  0.00     0.344 HD
ATOM      7  H   UNL     1     -29.121 -42.758  24.256  1.00  0.00     0.344 HD
ENDBRANCH   3   4
ENDBRANCH   2   3
ENDBRANCH   1   2
BRANCH   1   8
ATOM      8  C   UNL     1     -30.573 -40.301  26.448  1.00  0.00     0.072 C 
BRANCH   8   9
ATOM      9  C   UNL     1     -29.335 -40.983  27.091  1.00  0.00     0.227 C 
BRANCH   9  10
ATOM     10  N   UNL     1     -29.623 -42.359  27.521  1.00  0.00    -0.350 N 
ATOM     11  H   UNL     1     -29.885 -42.393  28.532  1.00  0.00     0.345 HD
ATOM     12  H   UNL     1     -28.787 -42.966  27.360  1.00  0.00     0.345 HD
ATOM     13  H   UNL     1     -30.416 -42.743  26.957  1.00  0.00     0.345 HD
ENDBRANCH   9  10
BRANCH   9  14
ATOM     14  C   UNL     1     -28.116 -40.920  26.202  1.00  0.00     0.099 C 
ATOM     15  O   UNL     1     -27.530 -39.820  26.017  1.00  0.00    -0.544 OA
ATOM     16  O   UNL     1     -27.607 -42.067  25.604  1.00  0.00    -0.544 OA
ENDBRANCH   9  14
ENDBRANCH   8   9
ENDBRANCH   1   8
TORSDOF 7
ENDMDL
MODEL 4
REMARK VINA RESULT:    -4.117      1.943      2.015
REMARK INTER + INTRA:          -6.059
REMARK INTER:                  -5.857
REMARK INTRA:                  -0.202
REMARK UNBOUND:                -0.498
REMARK SMILES [NH3+]CCCC[C@@H]([NH3+])C(=O)[O-]
REMARK SMILES IDX 4 1 3 2 2 3 1 4 5 8 6 9 7 10 8 14 9 15 10 16
REMARK H PARENT 1 5 1 6 1 7 7 11 7 12 7 13
REMARK Flexibility Score: inf
ROOT
ATOM      1  C   UNL     1     -30.196 -39.756  26.314  1.00  0.00     0.012 C 
ENDROOT
BRANCH   1   2
ATOM      2  C   UNL     1     -28.833 -39.630  27.007  1.00  0.00     0.061 C 
BRANCH   2   3
ATOM      3  C   UNL     1     -28.390 -40.974  27.603  1.00  0.00     0.258 C 
BRANCH   3   4
ATOM      4  N   UNL     1     -27.185 -41.470  26.937  1.00  0.00    -0.358 N 
ATOM      5  H   UNL     1     -26.411 -41.579  27.630  1.00  0.00     0.344 HD
ATOM      6  H   UNL     1     -26.894 -40.807  26.182  1.00  0.00     0.344 HD
ATOM      7  H   UNL     1     -27.391 -42.401  26.509  1.00  0.00     0.344 HD
ENDBRANCH   3   4
ENDBRANCH   2   3
ENDBRANCH   1   2
BRANCH   1   8
ATOM      8  C   UNL     1     -30.492 -41.175  25.790  1.00  0.00     0.072 C 
BRANCH   8   9
ATOM      9  C   UNL     1     -30.150 -41.449  24.301  1.00  0.00     0.227 C 
BRANCH   9  10
ATOM     10  N   UNL     1     -29.006 -42.361  24.155  1.00  0.00    -0.350 N 
ATOM     11  H   UNL     1     -29.279 -43.347  24.367  1.00  0.00     0.345 HD
ATOM     12  H   UNL     1     -28.234 -42.070  24.798  1.00  0.00     0.345 HD
ATOM     13  H   UNL     1     -28.645 -42.316  23.174  1.00  0.00     0.345 HD
ENDBRANCH   9  10
BRANCH   9  14
ATOM     14  C   UNL     1     -31.347 -41.925  23.513  1.00  0.00     0.099 C 
ATOM     15  O   UNL     1     -32.316 -41.146  23.311  1.00  0.00    -0.544 OA
ATOM     16  O   UNL     1     -31.385 -43.207  22.976  1.00  0.00    -0.544 OA
ENDBRANCH   9  14
ENDBRANCH   8   9
ENDBRANCH   1   8
TORSDOF 7
ENDMDL
MODEL 5
REMARK VINA RESULT:    -4.066      1.946      2.387
REMARK INTER + INTRA:          -5.990
REMARK INTER:                  -5.531
REMARK INTRA:                  -0.459
REMARK UNBOUND:                -0.498
REMARK SMILES [NH3+]CCCC[C@@H]([NH3+])C(=O)[O-]
REMARK SMILES IDX 4 1 3 2 2 3 1 4 5 8 6 9 7 10 8 14 9 15 10 16
REMARK H PARENT 1 5 1 6 1 7 7 11 7 12 7 13
REMARK Flexibility Score: inf
ROOT
ATOM      1  C   UNL     1     -27.671 -40.010  26.577  1.00  0.00     0.012 C 
ENDROOT
BRANCH   1   2
ATOM      2  C   UNL     1     -27.776 -41.538  26.479  1.00  0.00     0.061 C 
BRANCH   2   3
ATOM      3  C   UNL     1     -27.475 -42.021  25.053  1.00  0.00     0.258 C 
BRANCH   3   4
ATOM      4  N   UNL     1     -28.709 -42.378  24.352  1.00  0.00    -0.358 N 
ATOM      5  H   UNL     1     -29.408 -41.606  24.439  1.00  0.00     0.344 HD
ATOM      6  H   UNL     1     -29.105 -43.262  24.748  1.00  0.00     0.344 HD
ATOM      7  H   UNL     1     -28.495 -42.528  23.340  1.00  0.00     0.344 HD
ENDBRANCH   3   4
ENDBRANCH   2   3
ENDBRANCH   1   2
BRANCH   1   8
ATOM      8  C   UNL     1     -28.997 -39.281  26.280  1.00  0.00     0.072 C 
BRANCH   8   9
ATOM      9  C   UNL     1     -30.185 -39.589  27.230  1.00  0.00     0.227 C 
BRANCH   9  10
ATOM     10  N   UNL     1     -30.546 -38.429  28.058  1.00  0.00    -0.350 N 
ATOM     11  H   UNL     1     -30.169 -38.524  29.028  1.00  0.00     0.345 HD
ATOM     12  H   UNL     1     -31.586 -38.329  28.099  1.00  0.00     0.345 HD
ATOM     13  H   UNL     1     -30.154 -37.559  27.630  1.00  0.00     0.345 HD
ENDBRANCH   9  10
BRANCH   9  14
ATOM     14  C   UNL     1     -31.382 -40.144  26.495  1.00  0.00     0.099 C 
ATOM     15  O   UNL     1     -32.507 -39.590  26.618  1.00  0.00    -0.544 OA
ATOM     16  O   UNL     1     -31.257 -41.244  25.654  1.00  0.00    -0.544 OA
ENDBRANCH   9  14
ENDBRANCH   8   9
ENDBRANCH   1   8
TORSDOF 7
ENDMDL
MODEL 6
REMARK VINA RESULT:    -4.004      2.993      4.183
REMARK INTER + INTRA:          -5.906
REMARK INTER:                  -5.731
REMARK INTRA:                  -0.175
REMARK UNBOUND:                -0.498
REMARK SMILES [NH3+]CCCC[C@@H]([NH3+])C(=O)[O-]
REMARK SMILES IDX 4 1 3 2 2 3 1 4 5 8 6 9 7 10 8 14 9 15 10 16
REMARK H PARENT 1 5 1 6 1 7 7 11 7 12 7 13
REMARK Flexibility Score: inf
ROOT
ATOM      1  C   UNL     1     -30.866 -40.731  25.415  1.00  0.00     0.012 C 
ENDROOT
BRANCH   1   2
ATOM      2  C   UNL     1     -31.067 -40.873  23.900  1.00  0.00     0.061 C 
BRANCH   2   3
ATOM      3  C   UNL     1     -31.096 -42.351  23.483  1.00  0.00     0.258 C 
BRANCH   3   4
ATOM      4  N   UNL     1     -29.762 -42.812  23.098  1.00  0.00    -0.358 N 
ATOM      5  H   UNL     1     -29.722 -42.974  22.067  1.00  0.00     0.344 HD
ATOM      6  H   UNL     1     -29.528 -43.696  23.606  1.00  0.00     0.344 HD
ATOM      7  H   UNL     1     -29.061 -42.080  23.354  1.00  0.00     0.344 HD
ENDBRANCH   3   4
ENDBRANCH   2   3
ENDBRANCH   1   2
BRANCH   1   8
ATOM      8  C   UNL     1     -29.396 -40.504  25.822  1.00  0.00     0.072 C 
BRANCH   8   9
ATOM      9  C   UNL     1     -28.728 -41.628  26.659  1.00  0.00     0.227 C 
BRANCH   9  10
ATOM     10  N   UNL     1     -27.263 -41.603  26.548  1.00  0.00    -0.350 N 
ATOM     11  H   UNL     1     -26.952 -40.966  25.780  1.00  0.00     0.345 HD
ATOM     12  H   UNL     1     -26.902 -42.568  26.365  1.00  0.00     0.345 HD
ATOM     13  H   UNL     1     -26.850 -41.268  27.449  1.00  0.00     0.345 HD
ENDBRANCH   9  10
BRANCH   9  14
ATOM     14  C   UNL     1     -29.179 -41.618  28.100  1.00  0.00     0.099 C 
ATOM     15  O   UNL     1     -28.659 -40.810  28.916  1.00  0.00    -0.544 OA
ATOM     16  O   UNL     1     -30.187 -42.469  28.539  1.00  0.00    -0.544 OA
ENDBRANCH   9  14
ENDBRANCH   8   9
ENDBRANCH   1   8
TORSDOF 7
ENDMDL
MODEL 7
REMARK VINA RESULT:    -3.930      3.191      3.461
REMARK INTER + INTRA:          -5.806
REMARK INTER:                  -5.226
REMARK INTRA:                  -0.580
REMARK UNBOUND:                -0.498
REMARK SMILES [NH3+]CCCC[C@@H]([NH3+])C(=O)[O-]
REMARK SMILES IDX 4 1 3 2 2 3 1 4 5 8 6 9 7 10 8 14 9 15 10 16
REMARK H PARENT 1 5 1 6 1 7 7 11 7 12 7 13
REMARK Flexibility Score: inf
ROOT
ATOM      1  C   UNL     1     -29.558 -39.492  26.190  1.00  0.00     0.012 C 
ENDROOT
BRANCH   1   2
ATOM      2  C   UNL     1     -28.033 -39.657  26.173  1.00  0.00     0.061 C 
BRANCH   2   3
ATOM      3  C   UNL     1     -27.636 -41.069  25.717  1.00  0.00     0.258 C 
BRANCH   3   4
ATOM      4  N   UNL     1     -27.116 -41.853  26.838  1.00  0.00    -0.358 N 
ATOM      5  H   UNL     1     -27.162 -41.293  27.720  1.00  0.00     0.344 HD
ATOM      6  H   UNL     1     -26.127 -42.137  26.650  1.00  0.00     0.344 HD
ATOM      7  H   UNL     1     -27.698 -42.713  26.952  1.00  0.00     0.344 HD
ENDBRANCH   3   4
ENDBRANCH   2   3
ENDBRANCH   1   2
BRANCH   1   8
ATOM      8  C   UNL     1     -30.186 -39.714  27.580  1.00  0.00     0.072 C 
BRANCH   8   9
ATOM      9  C   UNL     1     -30.797 -41.116  27.849  1.00  0.00     0.227 C 
BRANCH   9  10
ATOM     10  N   UNL     1     -31.019 -41.869  26.606  1.00  0.00    -0.350 N 
ATOM     11  H   UNL     1     -30.322 -42.639  26.500  1.00  0.00     0.345 HD
ATOM     12  H   UNL     1     -30.953 -41.227  25.783  1.00  0.00     0.345 HD
ATOM     13  H   UNL     1     -31.979 -42.285  26.616  1.00  0.00     0.345 HD
ENDBRANCH   9  10
BRANCH   9  14
ATOM     14  C   UNL     1     -29.993 -41.913  28.848  1.00  0.00     0.099 C 
ATOM     15  O   UNL     1     -30.384 -43.059  29.198  1.00  0.00    -0.544 OA
ATOM     16  O   UNL     1     -28.804 -41.415  29.368  1.00  0.00    -0.544 OA
ENDBRANCH   9  14
ENDBRANCH   8   9
ENDBRANCH   1   8
TORSDOF 7
ENDMDL
MODEL 8
REMARK VINA RESULT:    -3.852      2.267      2.548
REMARK INTER + INTRA:          -5.702
REMARK INTER:                  -5.470
REMARK INTRA:                  -0.232
REMARK UNBOUND:                -0.498
REMARK SMILES [NH3+]CCCC[C@@H]([NH3+])C(=O)[O-]
REMARK SMILES IDX 4 1 3 2 2 3 1 4 5 8 6 9 7 10 8 14 9 15 10 16
REMARK H PARENT 1 5 1 6 1 7 7 11 7 12 7 13
REMARK Flexibility Score: inf
ROOT
ATOM      1  C   UNL     1     -28.950 -39.382  26.302  1.00  0.00     0.012 C 
ENDROOT
BRANCH   1   2
ATOM      2  C   UNL     1     -27.645 -40.176  26.155  1.00  0.00     0.061 C 
BRANCH   2   3
ATOM      3  C   UNL     1     -27.883 -41.676  26.381  1.00  0.00     0.258 C 
BRANCH   3   4
ATOM      4  N   UNL     1     -27.351 -42.463  25.269  1.00  0.00    -0.358 N 
ATOM      5  H   UNL     1     -26.352 -42.712  25.451  1.00  0.00     0.344 HD
ATOM      6  H   UNL     1     -27.423 -41.920  24.377  1.00  0.00     0.344 HD
ATOM      7  H   UNL     1     -27.908 -43.342  25.175  1.00  0.00     0.344 HD
ENDBRANCH   3   4
ENDBRANCH   2   3
ENDBRANCH   1   2
BRANCH   1   8
ATOM      8  C   UNL     1     -30.188 -40.127  25.763  1.00  0.00     0.072 C 
BRANCH   8   9
ATOM      9  C   UNL     1     -31.451 -40.117  26.666  1.00  0.00     0.227 C 
BRANCH   9  10
ATOM     10  N   UNL     1     -32.692 -40.131  25.880  1.00  0.00    -0.350 N 
ATOM     11  H   UNL     1     -33.289 -39.302  26.099  1.00  0.00     0.345 HD
ATOM     12  H   UNL     1     -33.231 -41.006  26.079  1.00  0.00     0.345 HD
ATOM     13  H   UNL     1     -32.461 -40.118  24.860  1.00  0.00     0.345 HD
ENDBRANCH   9  10
BRANCH   9  14
ATOM     14  C   UNL     1     -31.430 -41.221  27.697  1.00  0.00     0.099 C 
ATOM     15  O   UNL     1     -32.112 -42.264  27.514  1.00  0.00    -0.544 OA
ATOM     16  O   UNL     1     -30.640 -41.120  28.836  1.00  0.00    -0.544 OA
ENDBRANCH   9  14
ENDBRANCH   8   9
ENDBRANCH   1   8
TORSDOF 7
ENDMDL
MODEL 9
REMARK VINA RESULT:    -3.806      2.357      2.573
REMARK INTER + INTRA:          -5.639
REMARK INTER:                  -5.398
REMARK INTRA:                  -0.240
REMARK UNBOUND:                -0.498
REMARK SMILES [NH3+]CCCC[C@@H]([NH3+])C(=O)[O-]
REMARK SMILES IDX 4 1 3 2 2 3 1 4 5 8 6 9 7 10 8 14 9 15 10 16
REMARK H PARENT 1 5 1 6 1 7 7 11 7 12 7 13
REMARK Flexibility Score: inf
ROOT
ATOM      1  C   UNL     1     -29.378 -39.688  26.320  1.00  0.00     0.012 C 
ENDROOT
BRANCH   1   2
ATOM      2  C   UNL     1     -27.938 -40.135  26.034  1.00  0.00     0.061 C 
BRANCH   2   3
ATOM      3  C   UNL     1     -27.732 -41.609  26.409  1.00  0.00     0.258 C 
BRANCH   3   4
ATOM      4  N   UNL     1     -27.337 -42.396  25.241  1.00  0.00    -0.358 N 
ATOM      5  H   UNL     1     -28.053 -43.132  25.045  1.00  0.00     0.344 HD
ATOM      6  H   UNL     1     -26.406 -42.842  25.406  1.00  0.00     0.344 HD
ATOM      7  H   UNL     1     -27.266 -41.763  24.412  1.00  0.00     0.344 HD
ENDBRANCH   3   4
ENDBRANCH   2   3
ENDBRANCH   1   2
BRANCH   1   8
ATOM      8  C   UNL     1     -30.433 -40.432  25.475  1.00  0.00     0.072 C 
BRANCH   8   9
ATOM      9  C   UNL     1     -31.621 -41.063  26.250  1.00  0.00     0.227 C 
BRANCH   9  10
ATOM     10  N   UNL     1     -31.240 -42.310  26.928  1.00  0.00    -0.350 N 
ATOM     11  H   UNL     1     -30.833 -42.118  27.871  1.00  0.00     0.345 HD
ATOM     12  H   UNL     1     -30.541 -42.831  26.350  1.00  0.00     0.345 HD
ATOM     13  H   UNL     1     -32.083 -42.917  27.043  1.00  0.00     0.345 HD
ENDBRANCH   9  10
BRANCH   9  14
ATOM     14  C   UNL     1     -32.272 -40.086  27.201  1.00  0.00     0.099 C 
ATOM     15  O   UNL     1     -32.942 -39.120  26.747  1.00  0.00    -0.544 OA
ATOM     16  O   UNL     1     -32.171 -40.254  28.577  1.00  0.00    -0.544 OA
ENDBRANCH   9  14
ENDBRANCH   8   9
ENDBRANCH   1   8
TORSDOF 7
ENDMDL
