MODEL 1
REMARK VINA RESULT:    -2.334      0.000      0.000
REMARK INTER + INTRA:          -2.334
REMARK INTER:                  -2.334
REMARK INTRA:                   0.000
REMARK UNBOUND:                 0.000
REMARK SMILES CC(=O)[O-]
REMARK SMILES IDX 1 1 2 2 3 3 4 4
REMARK H PARENT
REMARK Flexibility Score: inf
ROOT
ATOM      1  C   UNL     1      61.132  28.190  24.883  1.00  0.00     0.063 C 
ATOM      2  C   UNL     1      60.457  27.193  25.763  1.00  0.00     0.038 C 
ATOM      3  O   UNL     1      59.432  26.586  25.359  1.00  0.00    -0.550 OA
ATOM      4  O   UNL     1      60.990  26.891  27.009  1.00  0.00    -0.550 OA
ENDROOT
TORSDOF 0
ENDMDL
MODEL 2
REMARK VINA RESULT:    -2.296     12.849     13.478
REMARK INTER + INTRA:          -2.296
REMARK INTER:                  -2.296
REMARK INTRA:                   0.000
REMARK UNBOUND:                 0.000
REMARK SMILES CC(=O)[O-]
REMARK SMILES IDX 1 1 2 2 3 3 4 4
REMARK H PARENT
REMARK Flexibility Score: inf
ROOT
ATOM      1  C   UNL     1      60.708  28.639  13.300  1.00  0.00     0.063 C 
ATOM      2  C   UNL     1      59.481  28.636  12.452  1.00  0.00     0.038 C 
ATOM      3  O   UNL     1      59.466  29.263  11.361  1.00  0.00    -0.550 OA
ATOM      4  O   UNL     1      58.369  27.898  12.837  1.00  0.00    -0.550 OA
ENDROOT
TORSDOF 0
ENDMDL
MODEL 3
REMARK VINA RESULT:    -2.221     15.450     15.870
REMARK INTER + INTRA:          -2.221
REMARK INTER:                  -2.221
REMARK INTRA:                   0.000
REMARK UNBOUND:                 0.000
REMARK SMILES CC(=O)[O-]
REMARK SMILES IDX 1 1 2 2 3 3 4 4
REMARK H PARENT
REMARK Flexibility Score: inf
ROOT
ATOM      1  C   UNL     1      60.013  29.240  10.570  1.00  0.00     0.063 C 
ATOM      2  C   UNL     1      61.151  28.473   9.986  1.00  0.00     0.038 C 
ATOM      3  O   UNL     1      60.960  27.710   9.003  1.00  0.00    -0.550 OA
ATOM      4  O   UNL     1      62.434  28.640  10.490  1.00  0.00    -0.550 OA
ENDROOT
TORSDOF 0
ENDMDL
MODEL 4
REMARK VINA RESULT:    -2.210     15.179     15.734
REMARK INTER + INTRA:          -2.210
REMARK INTER:                  -2.210
REMARK INTRA:                   0.000
REMARK UNBOUND:                 0.000
REMARK SMILES CC(=O)[O-]
REMARK SMILES IDX 1 1 2 2 3 3 4 4
REMARK H PARENT
REMARK Flexibility Score: inf
ROOT
ATOM      1  C   UNL     1      59.949  29.332  10.734  1.00  0.00     0.063 C 
ATOM      2  C   UNL     1      61.109  28.543  10.226  1.00  0.00     0.038 C 
ATOM      3  O   UNL     1      62.206  28.565  10.842  1.00  0.00    -0.550 OA
ATOM      4  O   UNL     1      60.966  27.740   9.102  1.00  0.00    -0.550 OA
ENDROOT
TORSDOF 0
ENDMDL
MODEL 5
REMARK VINA RESULT:    -2.201     13.929     14.344
REMARK INTER + INTRA:          -2.201
REMARK INTER:                  -2.201
REMARK INTRA:                   0.000
REMARK UNBOUND:                 0.000
REMARK SMILES CC(=O)[O-]
REMARK SMILES IDX 1 1 2 2 3 3 4 4
REMARK H PARENT
REMARK Flexibility Score: inf
ROOT
ATOM      1  C   UNL     1      60.249  28.172  12.958  1.00  0.00     0.063 C 
ATOM      2  C   UNL     1      60.392  28.745  11.589  1.00  0.00     0.038 C 
ATOM      3  O   UNL     1      59.671  29.712  11.230  1.00  0.00    -0.550 OA
ATOM      4  O   UNL     1      61.358  28.248  10.723  1.00  0.00    -0.550 OA
ENDROOT
TORSDOF 0
ENDMDL
MODEL 6
REMARK VINA RESULT:    -2.197      1.544      1.797
REMARK INTER + INTRA:          -2.197
REMARK INTER:                  -2.197
REMARK INTRA:                   0.000
REMARK UNBOUND:                 0.000
REMARK SMILES CC(=O)[O-]
REMARK SMILES IDX 1 1 2 2 3 3 4 4
REMARK H PARENT
REMARK Flexibility Score: inf
ROOT
ATOM      1  C   UNL     1      60.332  27.618  25.404  1.00  0.00     0.063 C 
ATOM      2  C   UNL     1      61.237  27.154  26.494  1.00  0.00     0.038 C 
ATOM      3  O   UNL     1      60.807  27.058  27.673  1.00  0.00    -0.550 OA
ATOM      4  O   UNL     1      62.540  26.773  26.203  1.00  0.00    -0.550 OA
ENDROOT
TORSDOF 0
ENDMDL
MODEL 7
REMARK VINA RESULT:    -2.168      3.189      3.376
REMARK INTER + INTRA:          -2.168
REMARK INTER:                  -2.168
REMARK INTRA:                   0.000
REMARK UNBOUND:                 0.000
REMARK SMILES CC(=O)[O-]
REMARK SMILES IDX 1 1 2 2 3 3 4 4
REMARK H PARENT
REMARK Flexibility Score: inf
ROOT
ATOM      1  C   UNL     1      61.441  27.159  27.661  1.00  0.00     0.063 C 
ATOM      2  C   UNL     1      61.257  28.579  28.078  1.00  0.00     0.038 C 
ATOM      3  O   UNL     1      60.592  28.853  29.111  1.00  0.00    -0.550 OA
ATOM      4  O   UNL     1      61.863  29.601  27.358  1.00  0.00    -0.550 OA
ENDROOT
TORSDOF 0
ENDMDL
MODEL 8
REMARK VINA RESULT:    -2.148     16.190     16.411
REMARK INTER + INTRA:          -2.148
REMARK INTER:                  -2.148
REMARK INTRA:                   0.000
REMARK UNBOUND:                 0.000
REMARK SMILES CC(=O)[O-]
REMARK SMILES IDX 1 1 2 2 3 3 4 4
REMARK H PARENT
REMARK Flexibility Score: inf
ROOT
ATOM      1  C   UNL     1      63.111  28.956   9.702  1.00  0.00     0.063 C 
ATOM      2  C   UNL     1      61.639  28.843   9.491  1.00  0.00     0.038 C 
ATOM      3  O   UNL     1      61.162  27.848   8.887  1.00  0.00    -0.550 OA
ATOM      4  O   UNL     1      60.786  29.809  10.008  1.00  0.00    -0.550 OA
ENDROOT
TORSDOF 0
ENDMDL
MODEL 9
REMARK VINA RESULT:    -2.144      3.418      3.738
REMARK INTER + INTRA:          -2.144
REMARK INTER:                  -2.144
REMARK INTRA:                   0.000
REMARK UNBOUND:                 0.000
REMARK SMILES CC(=O)[O-]
REMARK SMILES IDX 1 1 2 2 3 3 4 4
REMARK H PARENT
REMARK Flexibility Score: inf
ROOT
ATOM      1  C   UNL     1      62.639  30.469  28.663  1.00  0.00     0.063 C 
ATOM      2  C   UNL     1      61.730  29.432  28.096  1.00  0.00     0.038 C 
ATOM      3  O   UNL     1      61.917  28.998  26.930  1.00  0.00    -0.550 OA
ATOM      4  O   UNL     1      60.708  28.902  28.873  1.00  0.00    -0.550 OA
ENDROOT
TORSDOF 0
ENDMDL
