MODEL 1
REMARK VINA RESULT:    -3.271      0.000      0.000
REMARK INTER + INTRA:          -3.898
REMARK INTER:                  -3.845
REMARK INTRA:                  -0.053
REMARK UNBOUND:                -0.053
REMARK SMILES O=C([O-])CCC(=O)[O-]
REMARK SMILES IDX 4 1 2 2 1 3 3 4 5 5 6 6 7 7 8 8
REMARK H PARENT
REMARK Flexibility Score: inf
ROOT
ATOM      1  C   UNL     1       2.232  28.376  14.338  1.00  0.00     0.059 C 
ENDROOT
BRANCH   1   2
ATOM      2  C   UNL     1       1.571  28.775  15.618  1.00  0.00     0.042 C 
ATOM      3  O   UNL     1       2.254  28.921  16.666  1.00  0.00    -0.550 OA
ATOM      4  O   UNL     1       0.206  29.032  15.645  1.00  0.00    -0.550 OA
ENDBRANCH   1   2
BRANCH   1   5
ATOM      5  C   UNL     1       1.535  29.037  13.147  1.00  0.00     0.059 C 
BRANCH   5   6
ATOM      6  C   UNL     1       2.539  29.679  12.243  1.00  0.00     0.042 C 
ATOM      7  O   UNL     1       3.770  29.510  12.442  1.00  0.00    -0.550 OA
ATOM      8  O   UNL     1       2.115  30.502  11.207  1.00  0.00    -0.550 OA
ENDBRANCH   5   6
ENDBRANCH   1   5
TORSDOF 3
ENDMDL
MODEL 2
REMARK VINA RESULT:    -3.247      0.142      4.075
REMARK INTER + INTRA:          -3.870
REMARK INTER:                  -3.816
REMARK INTRA:                  -0.054
REMARK UNBOUND:                -0.053
REMARK SMILES O=C([O-])CCC(=O)[O-]
REMARK SMILES IDX 4 1 2 2 1 3 3 4 5 5 6 6 7 7 8 8
REMARK H PARENT
REMARK Flexibility Score: inf
ROOT
ATOM      1  C   UNL     1       1.603  29.032  13.151  1.00  0.00     0.059 C 
ENDROOT
BRANCH   1   2
ATOM      2  C   UNL     1       2.666  29.623  12.279  1.00  0.00     0.042 C 
ATOM      3  O   UNL     1       3.881  29.392  12.516  1.00  0.00    -0.550 OA
ATOM      4  O   UNL     1       2.313  30.390  11.177  1.00  0.00    -0.550 OA
ENDBRANCH   1   2
BRANCH   1   5
ATOM      5  C   UNL     1       2.231  28.311  14.345  1.00  0.00     0.059 C 
BRANCH   5   6
ATOM      6  C   UNL     1       1.580  28.746  15.619  1.00  0.00     0.042 C 
ATOM      7  O   UNL     1       0.336  28.938  15.663  1.00  0.00    -0.550 OA
ATOM      8  O   UNL     1       2.353  28.986  16.748  1.00  0.00    -0.550 OA
ENDBRANCH   5   6
ENDBRANCH   1   5
TORSDOF 3
ENDMDL
MODEL 3
REMARK VINA RESULT:    -3.199      0.197      1.161
REMARK INTER + INTRA:          -3.813
REMARK INTER:                  -3.767
REMARK INTRA:                  -0.046
REMARK UNBOUND:                -0.053
REMARK SMILES O=C([O-])CCC(=O)[O-]
REMARK SMILES IDX 4 1 2 2 1 3 3 4 5 5 6 6 7 7 8 8
REMARK H PARENT
REMARK Flexibility Score: inf
ROOT
ATOM      1  C   UNL     1       2.225  28.377  14.302  1.00  0.00     0.059 C 
ENDROOT
BRANCH   1   2
ATOM      2  C   UNL     1       1.556  28.780  15.577  1.00  0.00     0.042 C 
ATOM      3  O   UNL     1       0.308  28.945  15.614  1.00  0.00    -0.550 OA
ATOM      4  O   UNL     1       2.304  28.929  16.738  1.00  0.00    -0.550 OA
ENDBRANCH   1   2
BRANCH   1   5
ATOM      5  C   UNL     1       1.603  29.115  13.115  1.00  0.00     0.059 C 
BRANCH   5   6
ATOM      6  C   UNL     1       2.662  29.534  12.146  1.00  0.00     0.042 C 
ATOM      7  O   UNL     1       3.857  29.175  12.317  1.00  0.00    -0.550 OA
ATOM      8  O   UNL     1       2.339  30.361  11.078  1.00  0.00    -0.550 OA
ENDBRANCH   5   6
ENDBRANCH   1   5
TORSDOF 3
ENDMDL
MODEL 4
REMARK VINA RESULT:    -3.030      1.463      2.260
REMARK INTER + INTRA:          -3.614
REMARK INTER:                  -3.583
REMARK INTRA:                  -0.032
REMARK UNBOUND:                -0.053
REMARK SMILES O=C([O-])CCC(=O)[O-]
REMARK SMILES IDX 4 1 2 2 1 3 3 4 5 5 6 6 7 7 8 8
REMARK H PARENT
REMARK Flexibility Score: inf
ROOT
ATOM      1  C   UNL     1       1.340  29.445  13.033  1.00  0.00     0.059 C 
ENDROOT
BRANCH   1   2
ATOM      2  C   UNL     1       1.900  28.536  14.080  1.00  0.00     0.042 C 
ATOM      3  O   UNL     1       2.773  27.681  13.776  1.00  0.00    -0.550 OA
ATOM      4  O   UNL     1       1.493  28.663  15.402  1.00  0.00    -0.550 OA
ENDBRANCH   1   2
BRANCH   1   5
ATOM      5  C   UNL     1       2.403  29.767  11.981  1.00  0.00     0.059 C 
BRANCH   5   6
ATOM      6  C   UNL     1       2.166  31.124  11.398  1.00  0.00     0.042 C 
ATOM      7  O   UNL     1       1.128  31.353  10.724  1.00  0.00    -0.550 OA
ATOM      8  O   UNL     1       3.116  32.125  11.559  1.00  0.00    -0.550 OA
ENDBRANCH   5   6
ENDBRANCH   1   5
TORSDOF 3
ENDMDL
MODEL 5
REMARK VINA RESULT:    -2.977      2.153      4.109
REMARK INTER + INTRA:          -3.552
REMARK INTER:                  -3.523
REMARK INTRA:                  -0.028
REMARK UNBOUND:                -0.053
REMARK SMILES O=C([O-])CCC(=O)[O-]
REMARK SMILES IDX 4 1 2 2 1 3 3 4 5 5 6 6 7 7 8 8
REMARK H PARENT
REMARK Flexibility Score: inf
ROOT
ATOM      1  C   UNL     1       1.643  30.196  12.255  1.00  0.00     0.059 C 
ENDROOT
BRANCH   1   2
ATOM      2  C   UNL     1       1.862  31.345  11.322  1.00  0.00     0.042 C 
ATOM      3  O   UNL     1       2.836  32.125  11.495  1.00  0.00    -0.550 OA
ATOM      4  O   UNL     1       1.018  31.528  10.235  1.00  0.00    -0.550 OA
ENDBRANCH   1   2
BRANCH   1   5
ATOM      5  C   UNL     1       2.907  29.341  12.355  1.00  0.00     0.059 C 
BRANCH   5   6
ATOM      6  C   UNL     1       2.612  28.053  13.056  1.00  0.00     0.042 C 
ATOM      7  O   UNL     1       2.354  28.046  14.288  1.00  0.00    -0.550 OA
ATOM      8  O   UNL     1       2.670  26.853  12.358  1.00  0.00    -0.550 OA
ENDBRANCH   5   6
ENDBRANCH   1   5
TORSDOF 3
ENDMDL
MODEL 6
REMARK VINA RESULT:    -2.968      3.156      4.159
REMARK INTER + INTRA:          -3.542
REMARK INTER:                  -3.494
REMARK INTRA:                  -0.048
REMARK UNBOUND:                -0.053
REMARK SMILES O=C([O-])CCC(=O)[O-]
REMARK SMILES IDX 4 1 2 2 1 3 3 4 5 5 6 6 7 7 8 8
REMARK H PARENT
REMARK Flexibility Score: inf
ROOT
ATOM      1  C   UNL     1       3.141  27.173  11.521  1.00  0.00     0.059 C 
ENDROOT
BRANCH   1   2
ATOM      2  C   UNL     1       2.914  25.706  11.334  1.00  0.00     0.042 C 
ATOM      3  O   UNL     1       3.880  24.944  11.069  1.00  0.00    -0.550 OA
ATOM      4  O   UNL     1       1.641  25.174  11.499  1.00  0.00    -0.550 OA
ENDBRANCH   1   2
BRANCH   1   5
ATOM      5  C   UNL     1       2.559  27.638  12.857  1.00  0.00     0.059 C 
BRANCH   5   6
ATOM      6  C   UNL     1       1.933  28.988  12.713  1.00  0.00     0.042 C 
ATOM      7  O   UNL     1       2.402  29.820  11.893  1.00  0.00    -0.550 OA
ATOM      8  O   UNL     1       0.860  29.346  13.519  1.00  0.00    -0.550 OA
ENDBRANCH   5   6
ENDBRANCH   1   5
TORSDOF 3
ENDMDL
MODEL 7
REMARK VINA RESULT:    -2.965      3.163      3.854
REMARK INTER + INTRA:          -3.539
REMARK INTER:                  -3.485
REMARK INTRA:                  -0.053
REMARK UNBOUND:                -0.053
REMARK SMILES O=C([O-])CCC(=O)[O-]
REMARK SMILES IDX 4 1 2 2 1 3 3 4 5 5 6 6 7 7 8 8
REMARK H PARENT
REMARK Flexibility Score: inf
ROOT
ATOM      1  C   UNL     1       2.654  27.704  12.827  1.00  0.00     0.059 C 
ENDROOT
BRANCH   1   2
ATOM      2  C   UNL     1       1.993  29.031  12.631  1.00  0.00     0.042 C 
ATOM      3  O   UNL     1       2.430  29.835  11.767  1.00  0.00    -0.550 OA
ATOM      4  O   UNL     1       0.864  29.361  13.371  1.00  0.00    -0.550 OA
ENDBRANCH   1   2
BRANCH   1   5
ATOM      5  C   UNL     1       3.203  27.179  11.499  1.00  0.00     0.059 C 
BRANCH   5   6
ATOM      6  C   UNL     1       2.873  25.729  11.334  1.00  0.00     0.042 C 
ATOM      7  O   UNL     1       3.775  24.903  11.037  1.00  0.00    -0.550 OA
ATOM      8  O   UNL     1       1.559  25.297  11.460  1.00  0.00    -0.550 OA
ENDBRANCH   5   6
ENDBRANCH   1   5
TORSDOF 3
ENDMDL
MODEL 8
REMARK VINA RESULT:    -2.961     19.789     20.739
REMARK INTER + INTRA:          -3.533
REMARK INTER:                  -3.446
REMARK INTRA:                  -0.087
REMARK UNBOUND:                -0.053
REMARK SMILES O=C([O-])CCC(=O)[O-]
REMARK SMILES IDX 4 1 2 2 1 3 3 4 5 5 6 6 7 7 8 8
REMARK H PARENT
REMARK Flexibility Score: inf
ROOT
ATOM      1  C   UNL     1     -10.219  19.628  25.597  1.00  0.00     0.059 C 
ENDROOT
BRANCH   1   2
ATOM      2  C   UNL     1     -10.709  18.253  25.271  1.00  0.00     0.042 C 
ATOM      3  O   UNL     1     -11.124  17.494  26.186  1.00  0.00    -0.550 OA
ATOM      4  O   UNL     1     -10.753  17.826  23.950  1.00  0.00    -0.550 OA
ENDBRANCH   1   2
BRANCH   1   5
ATOM      5  C   UNL     1     -11.092  20.265  26.680  1.00  0.00     0.059 C 
BRANCH   5   6
ATOM      6  C   UNL     1     -10.360  20.307  27.984  1.00  0.00     0.042 C 
ATOM      7  O   UNL     1      -9.218  19.789  28.087  1.00  0.00    -0.550 OA
ATOM      8  O   UNL     1     -10.960  20.879  29.099  1.00  0.00    -0.550 OA
ENDBRANCH   5   6
ENDBRANCH   1   5
TORSDOF 3
ENDMDL
MODEL 9
REMARK VINA RESULT:    -2.928      2.296      2.681
REMARK INTER + INTRA:          -3.495
REMARK INTER:                  -3.406
REMARK INTRA:                  -0.088
REMARK UNBOUND:                -0.053
REMARK SMILES O=C([O-])CCC(=O)[O-]
REMARK SMILES IDX 4 1 2 2 1 3 3 4 5 5 6 6 7 7 8 8
REMARK H PARENT
REMARK Flexibility Score: inf
ROOT
ATOM      1  C   UNL     1       2.685  28.010  13.794  1.00  0.00     0.059 C 
ENDROOT
BRANCH   1   2
ATOM      2  C   UNL     1       1.494  28.815  14.208  1.00  0.00     0.042 C 
ATOM      3  O   UNL     1       0.828  29.450  13.349  1.00  0.00    -0.550 OA
ATOM      4  O   UNL     1       1.093  28.828  15.538  1.00  0.00    -0.550 OA
ENDBRANCH   1   2
BRANCH   1   5
ATOM      5  C   UNL     1       3.067  28.327  12.347  1.00  0.00     0.059 C 
BRANCH   5   6
ATOM      6  C   UNL     1       3.122  27.072  11.534  1.00  0.00     0.042 C 
ATOM      7  O   UNL     1       2.546  26.028  11.940  1.00  0.00    -0.550 OA
ATOM      8  O   UNL     1       3.848  27.042  10.351  1.00  0.00    -0.550 OA
ENDBRANCH   5   6
ENDBRANCH   1   5
TORSDOF 3
ENDMDL
