MODEL 1
REMARK VINA RESULT:     7.682      0.000      0.000
REMARK INTER + INTRA:          18.284
REMARK INTER:                  14.643
REMARK INTRA:                   3.641
REMARK UNBOUND:                 3.641
REMARK SMILES C[C@H]1O[C@@H](O[C@@H]2[C@H](O)[C@H](OCCc3ccc(O)c(O)c3)O[C@H](CO)[C@@H]2OC(=O)C=Cc2ccc(O)c(O)c2)[C@@H](O)[C@H](O)[C@@H]1O
REMARK SMILES IDX 6 1 7 2 9 3 21 4 22 5 25 6 5 7 4 8 1 9 2 10 43 11 3 12 41 13
REMARK SMILES IDX 39 14 44 15 42 17 40 19 8 21 26 23 27 24 28 25 29 26 30 27
REMARK SMILES IDX 31 28 38 29 32 30 36 31 33 32 34 33 37 34 35 36 10 38 11 39
REMARK SMILES IDX 12 40 13 41 20 42 14 43 18 44 15 45 16 46 19 47 17 49 23 51
REMARK SMILES IDX 24 52
REMARK H PARENT 44 16 42 18 40 20 8 22 37 35 35 37 19 48 17 50 24 53
REMARK Flexibility Score: inf
ROOT
ATOM      1  C   UNL     1      72.607  40.565  23.012  1.00  0.00     0.199 C 
ATOM      2  C   UNL     1      71.443  41.557  23.132  1.00  0.00     0.203 C 
ATOM      3  C   UNL     1      71.838  42.934  22.518  1.00  0.00     0.282 C 
ATOM      4  O   UNL     1      73.220  43.006  22.220  1.00  0.00    -0.340 OA
ATOM      5  C   UNL     1      74.004  42.687  23.355  1.00  0.00     0.190 C 
ATOM      6  C   UNL     1      73.799  41.193  23.766  1.00  0.00     0.240 C 
ENDROOT
BRANCH   1   7
ATOM      7  O   UNL     1      72.956  40.399  21.640  1.00  0.00    -0.340 OA
BRANCH   7   8
ATOM      8  C   UNL     1      72.224  39.386  20.973  1.00  0.00     0.282 C 
ATOM      9  C   UNL     1      69.253  37.617  22.153  1.00  0.00     0.041 C 
ATOM     10  C   UNL     1      70.184  38.233  21.105  1.00  0.00     0.150 C 
ATOM     11  C   UNL     1      70.860  37.116  20.231  1.00  0.00     0.174 C 
ATOM     12  O   UNL     1      71.128  39.051  21.792  1.00  0.00    -0.344 OA
ATOM     13  C   UNL     1      72.271  36.834  20.772  1.00  0.00     0.179 C 
ATOM     14  C   UNL     1      73.119  38.129  20.763  1.00  0.00     0.202 C 
BRANCH  11  15
ATOM     15  O   UNL     1      70.972  37.533  18.904  1.00  0.00    -0.388 OA
ATOM     16  H   UNL     1      71.359  38.454  18.914  1.00  0.00     0.211 HD
ENDBRANCH  11  15
BRANCH  13  17
ATOM     17  O   UNL     1      72.893  35.840  19.999  1.00  0.00    -0.387 OA
ATOM     18  H   UNL     1      72.201  35.154  19.813  1.00  0.00     0.211 HD
ENDBRANCH  13  17
BRANCH  14  19
ATOM     19  O   UNL     1      74.164  38.045  21.709  1.00  0.00    -0.385 OA
ATOM     20  H   UNL     1      73.754  38.234  22.588  1.00  0.00     0.211 HD
ENDBRANCH  14  19
ENDBRANCH   7   8
ENDBRANCH   1   7
BRANCH   2  21
ATOM     21  O   UNL     1      70.285  41.029  22.543  1.00  0.00    -0.385 OA
ATOM     22  H   UNL     1      69.530  41.224  23.152  1.00  0.00     0.211 HD
ENDBRANCH   2  21
BRANCH   6  23
ATOM     23  O   UNL     1      74.953  40.374  23.574  1.00  0.00    -0.453 OA
BRANCH  23  24
ATOM     24  C   UNL     1      75.803  40.029  24.621  1.00  0.00     0.331 C 
ATOM     25  O   UNL     1      76.819  39.322  24.387  1.00  0.00    -0.247 OA
BRANCH  24  26
ATOM     26  C   UNL     1      75.524  40.492  25.996  1.00  0.00     0.094 C 
ATOM     27  C   UNL     1      76.437  40.419  26.966  1.00  0.00     0.016 C 
BRANCH  27  28
ATOM     28  C   UNL     1      76.124  40.837  28.349  1.00  0.00    -0.021 A 
ATOM     29  C   UNL     1      77.031  41.600  29.097  1.00  0.00     0.058 A 
ATOM     30  C   UNL     1      74.904  40.459  28.931  1.00  0.00     0.012 A 
ATOM     31  C   UNL     1      76.727  42.008  30.407  1.00  0.00     0.157 A 
ATOM     32  C   UNL     1      74.590  40.880  30.222  1.00  0.00     0.051 A 
ATOM     33  C   UNL     1      75.492  41.639  30.976  1.00  0.00     0.157 A 
BRANCH  31  34
ATOM     34  O   UNL     1      77.636  42.768  31.137  1.00  0.00    -0.504 OA
ATOM     35  H   UNL     1      77.346  43.583  31.654  1.00  0.00     0.293 HD
ENDBRANCH  31  34
BRANCH  33  36
ATOM     36  O   UNL     1      75.148  42.025  32.270  1.00  0.00    -0.504 OA
ATOM     37  H   UNL     1      75.747  41.790  33.058  1.00  0.00     0.293 HD
ENDBRANCH  33  36
ENDBRANCH  27  28
ENDBRANCH  24  26
ENDBRANCH  23  24
ENDBRANCH   6  23
BRANCH   3  38
ATOM     38  O   UNL     1      71.133  43.125  21.319  1.00  0.00    -0.350 OA
BRANCH  38  39
ATOM     39  C   UNL     1      71.660  42.350  20.255  1.00  0.00     0.168 C 
BRANCH  39  40
ATOM     40  C   UNL     1      72.806  43.102  19.578  1.00  0.00     0.064 C 
BRANCH  40  41
ATOM     41  C   UNL     1      73.956  42.179  19.292  1.00  0.00    -0.042 A 
ATOM     42  C   UNL     1      75.284  42.618  19.439  1.00  0.00     0.054 A 
ATOM     43  C   UNL     1      73.718  40.832  18.987  1.00  0.00     0.008 A 
ATOM     44  C   UNL     1      76.358  41.720  19.317  1.00  0.00     0.157 A 
ATOM     45  C   UNL     1      74.779  39.928  18.876  1.00  0.00     0.050 A 
ATOM     46  C   UNL     1      76.097  40.354  19.039  1.00  0.00     0.157 A 
BRANCH  44  47
ATOM     47  O   UNL     1      77.647  42.219  19.516  1.00  0.00    -0.504 OA
ATOM     48  H   UNL     1      78.024  43.014  19.035  1.00  0.00     0.293 HD
ENDBRANCH  44  47
BRANCH  46  49
ATOM     49  O   UNL     1      77.116  39.394  18.936  1.00  0.00    -0.504 OA
ATOM     50  H   UNL     1      77.228  38.634  19.584  1.00  0.00     0.293 HD
ENDBRANCH  46  49
ENDBRANCH  40  41
ENDBRANCH  39  40
ENDBRANCH  38  39
ENDBRANCH   3  38
BRANCH   5  51
ATOM     51  C   UNL     1      75.460  43.125  23.069  1.00  0.00     0.192 C 
BRANCH  51  52
ATOM     52  O   UNL     1      76.066  42.282  22.134  1.00  0.00    -0.394 OA
ATOM     53  H   UNL     1      76.554  41.594  22.659  1.00  0.00     0.210 HD
ENDBRANCH  51  52
ENDBRANCH   5  51
TORSDOF 20
ENDMDL
