MODEL 1
REMARK VINA RESULT:    -4.282      0.000      0.000
REMARK INTER + INTRA:          -6.715
REMARK INTER:                  -5.784
REMARK INTRA:                  -0.930
REMARK UNBOUND:                -0.930
REMARK SMILES CC(=O)CCC=C(C)CCC=C(C)C
REMARK SMILES IDX 7 1 6 2 8 3 9 4 10 5 11 6 13 7 12 8 14 9 5 10 4 11 2 12 3 13
REMARK SMILES IDX 1 14
REMARK H PARENT
REMARK Flexibility Score: inf
ROOT
ATOM      1  C   UNL     1       0.802 -15.330   9.450  1.00  0.00    -0.077 C 
ATOM      2  C   UNL     1       1.059 -14.100   9.953  1.00  0.00    -0.028 C 
ATOM      3  C   UNL     1      -0.291 -15.562   8.433  1.00  0.00     0.039 C 
ENDROOT
BRANCH   1   4
ATOM      4  C   UNL     1       1.618 -16.507   9.936  1.00  0.00     0.034 C 
BRANCH   4   5
ATOM      5  C   UNL     1       2.504 -16.104  11.120  1.00  0.00     0.032 C 
BRANCH   5   6
ATOM      6  C   UNL     1       2.082 -16.824  12.376  1.00  0.00    -0.028 C 
ATOM      7  C   UNL     1       1.330 -14.725  13.517  1.00  0.00     0.039 C 
ATOM      8  C   UNL     1       1.588 -16.212  13.476  1.00  0.00    -0.080 C 
ATOM      9  C   UNL     1       1.213 -17.030  14.684  1.00  0.00     0.039 C 
ENDBRANCH   5   6
ENDBRANCH   4   5
ENDBRANCH   1   4
BRANCH   2  10
ATOM     10  C   UNL     1       0.356 -12.839   9.520  1.00  0.00     0.035 C 
BRANCH  10  11
ATOM     11  C   UNL     1       1.320 -11.910   8.776  1.00  0.00     0.079 C 
BRANCH  11  12
ATOM     12  C   UNL     1       1.207 -12.107   7.288  1.00  0.00     0.130 C 
ATOM     13  O   UNL     1       0.107 -12.274   6.786  1.00  0.00    -0.300 OA
ATOM     14  C   UNL     1       2.420 -12.097   6.404  1.00  0.00     0.087 C 
ENDBRANCH  11  12
ENDBRANCH  10  11
ENDBRANCH   2  10
TORSDOF 6
ENDMDL
MODEL 2
REMARK VINA RESULT:    -4.190      2.818      6.511
REMARK INTER + INTRA:          -6.590
REMARK INTER:                  -5.838
REMARK INTRA:                  -0.752
REMARK UNBOUND:                -0.930
REMARK SMILES CC(=O)CCC=C(C)CCC=C(C)C
REMARK SMILES IDX 7 1 6 2 8 3 9 4 10 5 11 6 13 7 12 8 14 9 5 10 4 11 2 12 3 13
REMARK SMILES IDX 1 14
REMARK H PARENT
REMARK Flexibility Score: inf
ROOT
ATOM      1  C   UNL     1       1.133 -15.784   9.988  1.00  0.00    -0.077 C 
ATOM      2  C   UNL     1       1.420 -15.553  11.291  1.00  0.00    -0.028 C 
ATOM      3  C   UNL     1       1.727 -16.953   9.237  1.00  0.00     0.039 C 
ENDROOT
BRANCH   1   4
ATOM      4  C   UNL     1       0.208 -14.834   9.259  1.00  0.00     0.034 C 
BRANCH   4   5
ATOM      5  C   UNL     1       0.645 -13.380   9.472  1.00  0.00     0.032 C 
BRANCH   5   6
ATOM      6  C   UNL     1       1.078 -12.754   8.171  1.00  0.00    -0.028 C 
ATOM      7  C   UNL     1       3.496 -13.301   8.529  1.00  0.00     0.039 C 
ATOM      8  C   UNL     1       2.362 -12.677   7.753  1.00  0.00    -0.080 C 
ATOM      9  C   UNL     1       2.684 -12.013   6.439  1.00  0.00     0.039 C 
ENDBRANCH   5   6
ENDBRANCH   4   5
ENDBRANCH   1   4
BRANCH   2  10
ATOM     10  C   UNL     1       2.284 -16.446  12.144  1.00  0.00     0.035 C 
BRANCH  10  11
ATOM     11  C   UNL     1       1.814 -16.422  13.601  1.00  0.00     0.079 C 
BRANCH  11  12
ATOM     12  C   UNL     1       1.523 -17.816  14.089  1.00  0.00     0.130 C 
ATOM     13  O   UNL     1       2.215 -18.744  13.703  1.00  0.00    -0.300 OA
ATOM     14  C   UNL     1       0.401 -18.090  15.047  1.00  0.00     0.087 C 
ENDBRANCH  11  12
ENDBRANCH  10  11
ENDBRANCH   2  10
TORSDOF 6
ENDMDL
MODEL 3
REMARK VINA RESULT:    -4.012      2.237      4.525
REMARK INTER + INTRA:          -6.350
REMARK INTER:                  -5.073
REMARK INTRA:                  -1.277
REMARK UNBOUND:                -0.930
REMARK SMILES CC(=O)CCC=C(C)CCC=C(C)C
REMARK SMILES IDX 7 1 6 2 8 3 9 4 10 5 11 6 13 7 12 8 14 9 5 10 4 11 2 12 3 13
REMARK SMILES IDX 1 14
REMARK H PARENT
REMARK Flexibility Score: inf
ROOT
ATOM      1  C   UNL     1       2.096 -16.171  10.116  1.00  0.00    -0.077 C 
ATOM      2  C   UNL     1       3.352 -16.002   9.639  1.00  0.00    -0.028 C 
ATOM      3  C   UNL     1       1.746 -15.883  11.557  1.00  0.00     0.039 C 
ENDROOT
BRANCH   1   4
ATOM      4  C   UNL     1       1.020 -16.684   9.184  1.00  0.00     0.034 C 
BRANCH   4   5
ATOM      5  C   UNL     1      -0.120 -15.667   9.057  1.00  0.00     0.032 C 
BRANCH   5   6
ATOM      6  C   UNL     1       0.265 -14.543   8.129  1.00  0.00    -0.028 C 
ATOM      7  C   UNL     1       0.378 -12.849   9.971  1.00  0.00     0.039 C 
ATOM      8  C   UNL     1       0.454 -13.262   8.522  1.00  0.00    -0.080 C 
ATOM      9  C   UNL     1       0.821 -12.213   7.504  1.00  0.00     0.039 C 
ENDBRANCH   5   6
ENDBRANCH   4   5
ENDBRANCH   1   4
BRANCH   2  10
ATOM     10  C   UNL     1       4.502 -15.454  10.445  1.00  0.00     0.035 C 
BRANCH  10  11
ATOM     11  C   UNL     1       5.312 -14.451   9.619  1.00  0.00     0.079 C 
BRANCH  11  12
ATOM     12  C   UNL     1       4.472 -13.255   9.262  1.00  0.00     0.130 C 
ATOM     13  O   UNL     1       3.845 -12.678  10.136  1.00  0.00    -0.300 OA
ATOM     14  C   UNL     1       4.393 -12.749   7.851  1.00  0.00     0.087 C 
ENDBRANCH  11  12
ENDBRANCH  10  11
ENDBRANCH   2  10
TORSDOF 6
ENDMDL
MODEL 4
REMARK VINA RESULT:    -4.011      2.843      6.152
REMARK INTER + INTRA:          -6.348
REMARK INTER:                  -5.342
REMARK INTRA:                  -1.007
REMARK UNBOUND:                -0.930
REMARK SMILES CC(=O)CCC=C(C)CCC=C(C)C
REMARK SMILES IDX 7 1 6 2 8 3 9 4 10 5 11 6 13 7 12 8 14 9 5 10 4 11 2 12 3 13
REMARK SMILES IDX 1 14
REMARK H PARENT
REMARK Flexibility Score: inf
ROOT
ATOM      1  C   UNL     1       2.126 -16.305  10.057  1.00  0.00    -0.077 C 
ATOM      2  C   UNL     1       1.814 -16.330  11.374  1.00  0.00    -0.028 C 
ATOM      3  C   UNL     1       3.481 -15.847   9.568  1.00  0.00     0.039 C 
ENDROOT
BRANCH   1   4
ATOM      4  C   UNL     1       1.083 -16.727   9.047  1.00  0.00     0.034 C 
BRANCH   4   5
ATOM      5  C   UNL     1      -0.093 -15.743   9.036  1.00  0.00     0.032 C 
BRANCH   5   6
ATOM      6  C   UNL     1       0.196 -14.570   8.134  1.00  0.00    -0.028 C 
ATOM      7  C   UNL     1       0.531 -12.982  10.042  1.00  0.00     0.039 C 
ATOM      8  C   UNL     1       0.440 -13.314   8.573  1.00  0.00    -0.080 C 
ATOM      9  C   UNL     1       0.701 -12.212   7.580  1.00  0.00     0.039 C 
ENDBRANCH   5   6
ENDBRANCH   4   5
ENDBRANCH   1   4
BRANCH   2  10
ATOM     10  C   UNL     1       2.775 -15.984  12.483  1.00  0.00     0.035 C 
BRANCH  10  11
ATOM     11  C   UNL     1       2.891 -17.141  13.480  1.00  0.00     0.079 C 
BRANCH  11  12
ATOM     12  C   UNL     1       1.668 -17.213  14.355  1.00  0.00     0.130 C 
ATOM     13  O   UNL     1       1.017 -18.245  14.395  1.00  0.00    -0.300 OA
ATOM     14  C   UNL     1       1.233 -16.042  15.187  1.00  0.00     0.087 C 
ENDBRANCH  11  12
ENDBRANCH  10  11
ENDBRANCH   2  10
TORSDOF 6
ENDMDL
MODEL 5
REMARK VINA RESULT:    -4.009      3.569      6.673
REMARK INTER + INTRA:          -6.345
REMARK INTER:                  -5.423
REMARK INTRA:                  -0.921
REMARK UNBOUND:                -0.930
REMARK SMILES CC(=O)CCC=C(C)CCC=C(C)C
REMARK SMILES IDX 7 1 6 2 8 3 9 4 10 5 11 6 13 7 12 8 14 9 5 10 4 11 2 12 3 13
REMARK SMILES IDX 1 14
REMARK H PARENT
REMARK Flexibility Score: inf
ROOT
ATOM      1  C   UNL     1       1.402 -14.231  13.204  1.00  0.00    -0.077 C 
ATOM      2  C   UNL     1       2.045 -15.407  13.012  1.00  0.00    -0.028 C 
ATOM      3  C   UNL     1       0.829 -13.847  14.548  1.00  0.00     0.039 C 
ENDROOT
BRANCH   1   4
ATOM      4  C   UNL     1       1.234 -13.286  12.035  1.00  0.00     0.034 C 
BRANCH   4   5
ATOM      5  C   UNL     1       1.815 -13.897  10.754  1.00  0.00     0.032 C 
BRANCH   5   6
ATOM      6  C   UNL     1       0.716 -14.405   9.856  1.00  0.00    -0.028 C 
ATOM      7  C   UNL     1       1.753 -16.671   9.603  1.00  0.00     0.039 C 
ATOM      8  C   UNL     1       0.695 -15.637   9.299  1.00  0.00    -0.080 C 
ATOM      9  C   UNL     1      -0.447 -16.035   8.401  1.00  0.00     0.039 C 
ENDBRANCH   5   6
ENDBRANCH   4   5
ENDBRANCH   1   4
BRANCH   2  10
ATOM     10  C   UNL     1       2.323 -16.413  14.099  1.00  0.00     0.035 C 
BRANCH  10  11
ATOM     11  C   UNL     1       1.660 -17.756  13.776  1.00  0.00     0.079 C 
BRANCH  11  12
ATOM     12  C   UNL     1       0.859 -18.250  14.951  1.00  0.00     0.130 C 
ATOM     13  O   UNL     1       1.186 -19.286  15.508  1.00  0.00    -0.300 OA
ATOM     14  C   UNL     1      -0.333 -17.491  15.458  1.00  0.00     0.087 C 
ENDBRANCH  11  12
ENDBRANCH  10  11
ENDBRANCH   2  10
TORSDOF 6
ENDMDL
MODEL 6
REMARK VINA RESULT:    -3.937      2.168      4.294
REMARK INTER + INTRA:          -6.248
REMARK INTER:                  -5.608
REMARK INTRA:                  -0.640
REMARK UNBOUND:                -0.930
REMARK SMILES CC(=O)CCC=C(C)CCC=C(C)C
REMARK SMILES IDX 7 1 6 2 8 3 9 4 10 5 11 6 13 7 12 8 14 9 5 10 4 11 2 12 3 13
REMARK SMILES IDX 1 14
REMARK H PARENT
REMARK Flexibility Score: inf
ROOT
ATOM      1  C   UNL     1       1.536 -15.718  13.010  1.00  0.00    -0.077 C 
ATOM      2  C   UNL     1       1.972 -16.482  11.981  1.00  0.00    -0.028 C 
ATOM      3  C   UNL     1       1.461 -14.213  12.909  1.00  0.00     0.039 C 
ENDROOT
BRANCH   1   4
ATOM      4  C   UNL     1       1.133 -16.390  14.304  1.00  0.00     0.034 C 
BRANCH   4   5
ATOM      5  C   UNL     1       1.401 -17.898  14.240  1.00  0.00     0.032 C 
BRANCH   5   6
ATOM      6  C   UNL     1       0.784 -18.603  15.422  1.00  0.00    -0.028 C 
ATOM      7  C   UNL     1       2.609 -20.313  15.557  1.00  0.00     0.039 C 
ATOM      8  C   UNL     1       1.297 -19.713  15.999  1.00  0.00    -0.080 C 
ATOM      9  C   UNL     1       0.586 -20.347  17.167  1.00  0.00     0.039 C 
ENDBRANCH   5   6
ENDBRANCH   4   5
ENDBRANCH   1   4
BRANCH   2  10
ATOM     10  C   UNL     1       2.356 -15.945  10.625  1.00  0.00     0.035 C 
BRANCH  10  11
ATOM     11  C   UNL     1       1.508 -16.594   9.527  1.00  0.00     0.079 C 
BRANCH  11  12
ATOM     12  C   UNL     1       0.420 -15.659   9.073  1.00  0.00     0.130 C 
ATOM     13  O   UNL     1      -0.560 -16.110   8.502  1.00  0.00    -0.300 OA
ATOM     14  C   UNL     1       0.510 -14.180   9.313  1.00  0.00     0.087 C 
ENDBRANCH  11  12
ENDBRANCH  10  11
ENDBRANCH   2  10
TORSDOF 6
ENDMDL
MODEL 7
REMARK VINA RESULT:    -3.879      1.794      2.888
REMARK INTER + INTRA:          -6.170
REMARK INTER:                  -5.169
REMARK INTRA:                  -1.001
REMARK UNBOUND:                -0.930
REMARK SMILES CC(=O)CCC=C(C)CCC=C(C)C
REMARK SMILES IDX 7 1 6 2 8 3 9 4 10 5 11 6 13 7 12 8 14 9 5 10 4 11 2 12 3 13
REMARK SMILES IDX 1 14
REMARK H PARENT
REMARK Flexibility Score: inf
ROOT
ATOM      1  C   UNL     1       0.973 -15.020  10.006  1.00  0.00    -0.077 C 
ATOM      2  C   UNL     1       0.888 -13.752   9.538  1.00  0.00    -0.028 C 
ATOM      3  C   UNL     1       0.623 -16.212   9.146  1.00  0.00     0.039 C 
ENDROOT
BRANCH   1   4
ATOM      4  C   UNL     1       1.409 -15.246  11.437  1.00  0.00     0.034 C 
BRANCH   4   5
ATOM      5  C   UNL     1       2.489 -16.332  11.511  1.00  0.00     0.032 C 
BRANCH   5   6
ATOM      6  C   UNL     1       3.861 -15.716  11.629  1.00  0.00    -0.028 C 
ATOM      7  C   UNL     1       4.386 -16.032   9.200  1.00  0.00     0.039 C 
ATOM      8  C   UNL     1       4.739 -15.611  10.606  1.00  0.00    -0.080 C 
ATOM      9  C   UNL     1       6.093 -14.993  10.841  1.00  0.00     0.039 C 
ENDBRANCH   5   6
ENDBRANCH   4   5
ENDBRANCH   1   4
BRANCH   2  10
ATOM     10  C   UNL     1       0.515 -13.391   8.122  1.00  0.00     0.035 C 
BRANCH  10  11
ATOM     11  C   UNL     1       1.150 -12.057   7.719  1.00  0.00     0.079 C 
BRANCH  11  12
ATOM     12  C   UNL     1       2.385 -12.285   6.890  1.00  0.00     0.130 C 
ATOM     13  O   UNL     1       2.307 -12.244   5.673  1.00  0.00    -0.300 OA
ATOM     14  C   UNL     1       3.715 -12.556   7.529  1.00  0.00     0.087 C 
ENDBRANCH  11  12
ENDBRANCH  10  11
ENDBRANCH   2  10
TORSDOF 6
ENDMDL
MODEL 8
REMARK VINA RESULT:    -3.856      1.453      2.507
REMARK INTER + INTRA:          -6.138
REMARK INTER:                  -5.509
REMARK INTRA:                  -0.629
REMARK UNBOUND:                -0.930
REMARK SMILES CC(=O)CCC=C(C)CCC=C(C)C
REMARK SMILES IDX 7 1 6 2 8 3 9 4 10 5 11 6 13 7 12 8 14 9 5 10 4 11 2 12 3 13
REMARK SMILES IDX 1 14
REMARK H PARENT
REMARK Flexibility Score: inf
ROOT
ATOM      1  C   UNL     1       2.577 -16.013  10.749  1.00  0.00    -0.077 C 
ATOM      2  C   UNL     1       1.279 -15.673  10.565  1.00  0.00    -0.028 C 
ATOM      3  C   UNL     1       3.566 -16.028   9.607  1.00  0.00     0.039 C 
ENDROOT
BRANCH   1   4
ATOM      4  C   UNL     1       3.042 -16.410  12.132  1.00  0.00     0.034 C 
BRANCH   4   5
ATOM      5  C   UNL     1       1.869 -16.922  12.976  1.00  0.00     0.032 C 
BRANCH   5   6
ATOM      6  C   UNL     1       2.265 -18.148  13.759  1.00  0.00    -0.028 C 
ATOM      7  C   UNL     1       0.212 -18.091  15.192  1.00  0.00     0.039 C 
ATOM      8  C   UNL     1       1.548 -18.662  14.784  1.00  0.00    -0.080 C 
ATOM      9  C   UNL     1       2.048 -19.884  15.509  1.00  0.00     0.039 C 
ENDBRANCH   5   6
ENDBRANCH   4   5
ENDBRANCH   1   4
BRANCH   2  10
ATOM     10  C   UNL     1       0.698 -15.212   9.252  1.00  0.00     0.035 C 
BRANCH  10  11
ATOM     11  C   UNL     1       0.353 -13.721   9.307  1.00  0.00     0.079 C 
BRANCH  11  12
ATOM     12  C   UNL     1       0.999 -12.983   8.165  1.00  0.00     0.130 C 
ATOM     13  O   UNL     1       0.305 -12.560   7.254  1.00  0.00    -0.300 OA
ATOM     14  C   UNL     1       2.481 -12.750   8.124  1.00  0.00     0.087 C 
ENDBRANCH  11  12
ENDBRANCH  10  11
ENDBRANCH   2  10
TORSDOF 6
ENDMDL
MODEL 9
REMARK VINA RESULT:    -3.805      3.087      6.486
REMARK INTER + INTRA:          -6.069
REMARK INTER:                  -5.250
REMARK INTRA:                  -0.820
REMARK UNBOUND:                -0.930
REMARK SMILES CC(=O)CCC=C(C)CCC=C(C)C
REMARK SMILES IDX 7 1 6 2 8 3 9 4 10 5 11 6 13 7 12 8 14 9 5 10 4 11 2 12 3 13
REMARK SMILES IDX 1 14
REMARK H PARENT
REMARK Flexibility Score: inf
ROOT
ATOM      1  C   UNL     1       2.676 -15.883  10.132  1.00  0.00    -0.077 C 
ATOM      2  C   UNL     1       2.911 -15.998  11.461  1.00  0.00    -0.028 C 
ATOM      3  C   UNL     1       1.505 -16.569   9.468  1.00  0.00     0.039 C 
ENDROOT
BRANCH   1   4
ATOM      4  C   UNL     1       3.626 -15.062   9.288  1.00  0.00     0.034 C 
BRANCH   4   5
ATOM      5  C   UNL     1       3.326 -13.566   9.430  1.00  0.00     0.032 C 
BRANCH   5   6
ATOM      6  C   UNL     1       2.418 -13.093   8.323  1.00  0.00    -0.028 C 
ATOM      7  C   UNL     1       0.405 -12.976   9.809  1.00  0.00     0.039 C 
ATOM      8  C   UNL     1       1.094 -12.861   8.471  1.00  0.00    -0.080 C 
ATOM      9  C   UNL     1       0.276 -12.406   7.289  1.00  0.00     0.039 C 
ENDBRANCH   5   6
ENDBRANCH   4   5
ENDBRANCH   1   4
BRANCH   2  10
ATOM     10  C   UNL     1       2.019 -16.743  12.422  1.00  0.00     0.035 C 
BRANCH  10  11
ATOM     11  C   UNL     1       2.826 -17.268  13.613  1.00  0.00     0.079 C 
BRANCH  11  12
ATOM     12  C   UNL     1       2.167 -18.484  14.206  1.00  0.00     0.130 C 
ATOM     13  O   UNL     1       1.010 -18.414  14.590  1.00  0.00    -0.300 OA
ATOM     14  C   UNL     1       2.901 -19.787  14.332  1.00  0.00     0.087 C 
ENDBRANCH  11  12
ENDBRANCH  10  11
ENDBRANCH   2  10
TORSDOF 6
ENDMDL
