MODEL 1
REMARK VINA RESULT:    -2.240      0.000      0.000
REMARK INTER + INTRA:          -2.240
REMARK INTER:                  -2.240
REMARK INTRA:                   0.000
REMARK UNBOUND:                 0.000
REMARK SMILES CC(=O)[O-]
REMARK SMILES IDX 1 1 2 2 3 3 4 4
REMARK H PARENT
REMARK Flexibility Score: inf
ROOT
ATOM      1  C   UNL     1      12.731 -27.271  24.779  1.00  0.00     0.063 C 
ATOM      2  C   UNL     1      12.324 -28.498  24.037  1.00  0.00     0.038 C 
ATOM      3  O   UNL     1      13.000 -29.555  24.144  1.00  0.00    -0.550 OA
ATOM      4  O   UNL     1      11.228 -28.464  23.183  1.00  0.00    -0.550 OA
ENDROOT
TORSDOF 0
ENDMDL
MODEL 2
REMARK VINA RESULT:    -2.232      1.363      1.766
REMARK INTER + INTRA:          -2.232
REMARK INTER:                  -2.232
REMARK INTRA:                   0.000
REMARK UNBOUND:                 0.000
REMARK SMILES CC(=O)[O-]
REMARK SMILES IDX 1 1 2 2 3 3 4 4
REMARK H PARENT
REMARK Flexibility Score: inf
ROOT
ATOM      1  C   UNL     1      11.162 -28.261  23.269  1.00  0.00     0.063 C 
ATOM      2  C   UNL     1      12.336 -28.442  24.171  1.00  0.00     0.038 C 
ATOM      3  O   UNL     1      13.020 -29.498  24.114  1.00  0.00    -0.550 OA
ATOM      4  O   UNL     1      12.646 -27.470  25.114  1.00  0.00    -0.550 OA
ENDROOT
TORSDOF 0
ENDMDL
MODEL 3
REMARK VINA RESULT:    -2.229     12.154     12.444
REMARK INTER + INTRA:          -2.229
REMARK INTER:                  -2.229
REMARK INTRA:                   0.000
REMARK UNBOUND:                 0.000
REMARK SMILES CC(=O)[O-]
REMARK SMILES IDX 1 1 2 2 3 3 4 4
REMARK H PARENT
REMARK Flexibility Score: inf
ROOT
ATOM      1  C   UNL     1      24.069 -23.458  19.862  1.00  0.00     0.063 C 
ATOM      2  C   UNL     1      23.136 -24.536  19.425  1.00  0.00     0.038 C 
ATOM      3  O   UNL     1      23.362 -25.175  18.363  1.00  0.00    -0.550 OA
ATOM      4  O   UNL     1      21.987 -24.802  20.158  1.00  0.00    -0.550 OA
ENDROOT
TORSDOF 0
ENDMDL
MODEL 4
REMARK VINA RESULT:    -2.206     12.532     12.856
REMARK INTER + INTRA:          -2.206
REMARK INTER:                  -2.206
REMARK INTRA:                   0.000
REMARK UNBOUND:                 0.000
REMARK SMILES CC(=O)[O-]
REMARK SMILES IDX 1 1 2 2 3 3 4 4
REMARK H PARENT
REMARK Flexibility Score: inf
ROOT
ATOM      1  C   UNL     1      22.917 -24.342  21.204  1.00  0.00     0.063 C 
ATOM      2  C   UNL     1      23.622 -24.007  19.934  1.00  0.00     0.038 C 
ATOM      3  O   UNL     1      24.448 -23.056  19.900  1.00  0.00    -0.550 OA
ATOM      4  O   UNL     1      23.329 -24.706  18.769  1.00  0.00    -0.550 OA
ENDROOT
TORSDOF 0
ENDMDL
MODEL 5
REMARK VINA RESULT:    -2.195     11.281     11.627
REMARK INTER + INTRA:          -2.195
REMARK INTER:                  -2.195
REMARK INTRA:                   0.000
REMARK UNBOUND:                 0.000
REMARK SMILES CC(=O)[O-]
REMARK SMILES IDX 1 1 2 2 3 3 4 4
REMARK H PARENT
REMARK Flexibility Score: inf
ROOT
ATOM      1  C   UNL     1      15.753 -38.125  28.431  1.00  0.00     0.063 C 
ATOM      2  C   UNL     1      17.151 -37.757  28.796  1.00  0.00     0.038 C 
ATOM      3  O   UNL     1      17.523 -37.803  29.998  1.00  0.00    -0.550 OA
ATOM      4  O   UNL     1      18.032 -37.310  27.819  1.00  0.00    -0.550 OA
ENDROOT
TORSDOF 0
ENDMDL
MODEL 6
REMARK VINA RESULT:    -2.164     12.422     12.765
REMARK INTER + INTRA:          -2.164
REMARK INTER:                  -2.164
REMARK INTRA:                   0.000
REMARK UNBOUND:                 0.000
REMARK SMILES CC(=O)[O-]
REMARK SMILES IDX 1 1 2 2 3 3 4 4
REMARK H PARENT
REMARK Flexibility Score: inf
ROOT
ATOM      1  C   UNL     1      22.875 -24.708  21.125  1.00  0.00     0.063 C 
ATOM      2  C   UNL     1      23.489 -24.213  19.860  1.00  0.00     0.038 C 
ATOM      3  O   UNL     1      23.250 -24.798  18.770  1.00  0.00    -0.550 OA
ATOM      4  O   UNL     1      24.371 -23.140  19.886  1.00  0.00    -0.550 OA
ENDROOT
TORSDOF 0
ENDMDL
MODEL 7
REMARK VINA RESULT:    -2.074      3.875      4.334
REMARK INTER + INTRA:          -2.074
REMARK INTER:                  -2.074
REMARK INTRA:                   0.000
REMARK UNBOUND:                 0.000
REMARK SMILES CC(=O)[O-]
REMARK SMILES IDX 1 1 2 2 3 3 4 4
REMARK H PARENT
REMARK Flexibility Score: inf
ROOT
ATOM      1  C   UNL     1      11.954 -30.595  21.632  1.00  0.00     0.063 C 
ATOM      2  C   UNL     1      13.255 -31.014  21.035  1.00  0.00     0.038 C 
ATOM      3  O   UNL     1      13.355 -32.129  20.457  1.00  0.00    -0.550 OA
ATOM      4  O   UNL     1      14.374 -30.201  21.163  1.00  0.00    -0.550 OA
ENDROOT
TORSDOF 0
ENDMDL
MODEL 8
REMARK VINA RESULT:    -2.058      1.771      2.417
REMARK INTER + INTRA:          -2.058
REMARK INTER:                  -2.058
REMARK INTRA:                   0.000
REMARK UNBOUND:                 0.000
REMARK SMILES CC(=O)[O-]
REMARK SMILES IDX 1 1 2 2 3 3 4 4
REMARK H PARENT
REMARK Flexibility Score: inf
ROOT
ATOM      1  C   UNL     1      12.252 -30.600  21.764  1.00  0.00     0.063 C 
ATOM      2  C   UNL     1      12.269 -29.530  22.801  1.00  0.00     0.038 C 
ATOM      3  O   UNL     1      13.092 -29.584  23.753  1.00  0.00    -0.550 OA
ATOM      4  O   UNL     1      11.341 -28.496  22.751  1.00  0.00    -0.550 OA
ENDROOT
TORSDOF 0
ENDMDL
MODEL 9
REMARK VINA RESULT:    -2.029      2.985      3.540
REMARK INTER + INTRA:          -2.029
REMARK INTER:                  -2.029
REMARK INTRA:                   0.000
REMARK UNBOUND:                 0.000
REMARK SMILES CC(=O)[O-]
REMARK SMILES IDX 1 1 2 2 3 3 4 4
REMARK H PARENT
REMARK Flexibility Score: inf
ROOT
ATOM      1  C   UNL     1      13.179 -30.601  23.031  1.00  0.00     0.063 C 
ATOM      2  C   UNL     1      12.344 -30.648  21.797  1.00  0.00     0.038 C 
ATOM      3  O   UNL     1      11.237 -30.047  21.760  1.00  0.00    -0.550 OA
ATOM      4  O   UNL     1      12.757 -31.400  20.704  1.00  0.00    -0.550 OA
ENDROOT
TORSDOF 0
ENDMDL
