MODEL 1
REMARK VINA RESULT:    -3.894      0.000      0.000
REMARK INTER + INTRA:          -5.459
REMARK INTER:                  -5.032
REMARK INTRA:                  -0.427
REMARK UNBOUND:                -0.427
REMARK SMILES C=CC(=O)CCCCC
REMARK SMILES IDX 6 1 7 2 8 3 9 4 5 5 3 6 4 7 2 8 1 9
REMARK H PARENT
REMARK Flexibility Score: inf
ROOT
ATOM      1  C   UNL     1     116.979 164.671 120.663  1.00  0.00     0.008 C 
ENDROOT
BRANCH   1   2
ATOM      2  C   UNL     1     117.401 165.104 119.251  1.00  0.00     0.000 C 
BRANCH   2   3
ATOM      3  C   UNL     1     116.200 165.408 118.343  1.00  0.00    -0.003 C 
ATOM      4  C   UNL     1     116.466 166.634 117.473  1.00  0.00     0.004 C 
ENDBRANCH   2   3
ENDBRANCH   1   2
BRANCH   1   5
ATOM      5  C   UNL     1     117.194 165.773 121.708  1.00  0.00     0.080 C 
BRANCH   5   6
ATOM      6  C   UNL     1     115.937 166.006 122.494  1.00  0.00     0.155 C 
ATOM      7  O   UNL     1     115.584 165.156 123.359  1.00  0.00    -0.295 OA
BRANCH   6   8
ATOM      8  C   UNL     1     115.103 167.192 122.222  1.00  0.00     0.039 C 
ATOM      9  C   UNL     1     114.565 167.430 121.027  1.00  0.00     0.012 C 
ENDBRANCH   6   8
ENDBRANCH   5   6
ENDBRANCH   1   5
TORSDOF 5
ENDMDL
MODEL 2
REMARK VINA RESULT:    -3.871      0.924      1.398
REMARK INTER + INTRA:          -5.429
REMARK INTER:                  -4.929
REMARK INTRA:                  -0.499
REMARK UNBOUND:                -0.427
REMARK SMILES C=CC(=O)CCCCC
REMARK SMILES IDX 6 1 7 2 8 3 9 4 5 5 3 6 4 7 2 8 1 9
REMARK H PARENT
REMARK Flexibility Score: inf
ROOT
ATOM      1  C   UNL     1     117.655 165.413 122.204  1.00  0.00     0.008 C 
ENDROOT
BRANCH   1   2
ATOM      2  C   UNL     1     118.149 165.432 120.749  1.00  0.00     0.000 C 
BRANCH   2   3
ATOM      3  C   UNL     1     117.270 164.586 119.816  1.00  0.00    -0.003 C 
ATOM      4  C   UNL     1     116.672 165.440 118.701  1.00  0.00     0.004 C 
ENDBRANCH   2   3
ENDBRANCH   1   2
BRANCH   1   5
ATOM      5  C   UNL     1     116.175 165.027 122.321  1.00  0.00     0.080 C 
BRANCH   5   6
ATOM      6  C   UNL     1     115.401 166.117 123.003  1.00  0.00     0.155 C 
ATOM      7  O   UNL     1     114.858 165.883 124.118  1.00  0.00    -0.295 OA
BRANCH   6   8
ATOM      8  C   UNL     1     115.241 167.431 122.351  1.00  0.00     0.039 C 
ATOM      9  C   UNL     1     114.530 167.595 121.237  1.00  0.00     0.012 C 
ENDBRANCH   6   8
ENDBRANCH   5   6
ENDBRANCH   1   5
TORSDOF 5
ENDMDL
MODEL 3
REMARK VINA RESULT:    -3.798      1.659      3.708
REMARK INTER + INTRA:          -5.336
REMARK INTER:                  -4.827
REMARK INTRA:                  -0.509
REMARK UNBOUND:                -0.427
REMARK SMILES C=CC(=O)CCCCC
REMARK SMILES IDX 6 1 7 2 8 3 9 4 5 5 3 6 4 7 2 8 1 9
REMARK H PARENT
REMARK Flexibility Score: inf
ROOT
ATOM      1  C   UNL     1     117.773 166.109 121.914  1.00  0.00     0.008 C 
ENDROOT
BRANCH   1   2
ATOM      2  C   UNL     1     116.837 165.467 122.949  1.00  0.00     0.000 C 
BRANCH   2   3
ATOM      3  C   UNL     1     115.361 165.817 122.707  1.00  0.00    -0.003 C 
ATOM      4  C   UNL     1     115.221 167.200 122.076  1.00  0.00     0.004 C 
ENDBRANCH   2   3
ENDBRANCH   1   2
BRANCH   1   5
ATOM      5  C   UNL     1     118.435 165.075 120.994  1.00  0.00     0.080 C 
BRANCH   5   6
ATOM      6  C   UNL     1     117.495 164.672 119.895  1.00  0.00     0.155 C 
ATOM      7  O   UNL     1     117.200 163.453 119.752  1.00  0.00    -0.295 OA
BRANCH   6   8
ATOM      8  C   UNL     1     116.961 165.688 118.967  1.00  0.00     0.039 C 
ATOM      9  C   UNL     1     115.932 165.446 118.157  1.00  0.00     0.012 C 
ENDBRANCH   6   8
ENDBRANCH   5   6
ENDBRANCH   1   5
TORSDOF 5
ENDMDL
MODEL 4
REMARK VINA RESULT:    -3.784     12.666     14.074
REMARK INTER + INTRA:          -5.317
REMARK INTER:                  -4.818
REMARK INTRA:                  -0.500
REMARK UNBOUND:                -0.427
REMARK SMILES C=CC(=O)CCCCC
REMARK SMILES IDX 6 1 7 2 8 3 9 4 5 5 3 6 4 7 2 8 1 9
REMARK H PARENT
REMARK Flexibility Score: inf
ROOT
ATOM      1  C   UNL     1     120.154 178.938 124.467  1.00  0.00     0.008 C 
ENDROOT
BRANCH   1   2
ATOM      2  C   UNL     1     120.275 179.805 125.730  1.00  0.00     0.000 C 
BRANCH   2   3
ATOM      3  C   UNL     1     121.368 179.304 126.686  1.00  0.00    -0.003 C 
ATOM      4  C   UNL     1     120.764 178.795 127.992  1.00  0.00     0.004 C 
ENDBRANCH   2   3
ENDBRANCH   1   2
BRANCH   1   5
ATOM      5  C   UNL     1     118.765 178.306 124.314  1.00  0.00     0.080 C 
BRANCH   5   6
ATOM      6  C   UNL     1     118.516 177.312 125.410  1.00  0.00     0.155 C 
ATOM      7  O   UNL     1     119.285 176.318 125.527  1.00  0.00    -0.295 OA
BRANCH   6   8
ATOM      8  C   UNL     1     117.357 177.476 126.309  1.00  0.00     0.039 C 
ATOM      9  C   UNL     1     116.263 178.144 125.950  1.00  0.00     0.012 C 
ENDBRANCH   6   8
ENDBRANCH   5   6
ENDBRANCH   1   5
TORSDOF 5
ENDMDL
MODEL 5
REMARK VINA RESULT:    -3.741     12.820     14.256
REMARK INTER + INTRA:          -5.262
REMARK INTER:                  -4.817
REMARK INTRA:                  -0.445
REMARK UNBOUND:                -0.427
REMARK SMILES C=CC(=O)CCCCC
REMARK SMILES IDX 6 1 7 2 8 3 9 4 5 5 3 6 4 7 2 8 1 9
REMARK H PARENT
REMARK Flexibility Score: inf
ROOT
ATOM      1  C   UNL     1     117.226 177.728 126.347  1.00  0.00     0.008 C 
ENDROOT
BRANCH   1   2
ATOM      2  C   UNL     1     116.004 178.113 125.498  1.00  0.00     0.000 C 
BRANCH   2   3
ATOM      3  C   UNL     1     115.346 179.419 125.970  1.00  0.00    -0.003 C 
ATOM      4  C   UNL     1     116.054 180.635 125.378  1.00  0.00     0.004 C 
ENDBRANCH   2   3
ENDBRANCH   1   2
BRANCH   1   5
ATOM      5  C   UNL     1     118.407 177.244 125.497  1.00  0.00     0.080 C 
BRANCH   5   6
ATOM      6  C   UNL     1     119.098 178.406 124.846  1.00  0.00     0.155 C 
ATOM      7  O   UNL     1     119.304 178.383 123.601  1.00  0.00    -0.295 OA
BRANCH   6   8
ATOM      8  C   UNL     1     119.568 179.540 125.664  1.00  0.00     0.039 C 
ATOM      9  C   UNL     1     120.753 179.540 126.273  1.00  0.00     0.012 C 
ENDBRANCH   6   8
ENDBRANCH   5   6
ENDBRANCH   1   5
TORSDOF 5
ENDMDL
MODEL 6
REMARK VINA RESULT:    -3.734     13.087     14.220
REMARK INTER + INTRA:          -5.252
REMARK INTER:                  -5.044
REMARK INTRA:                  -0.209
REMARK UNBOUND:                -0.427
REMARK SMILES C=CC(=O)CCCCC
REMARK SMILES IDX 6 1 7 2 8 3 9 4 5 5 3 6 4 7 2 8 1 9
REMARK H PARENT
REMARK Flexibility Score: inf
ROOT
ATOM      1  C   UNL     1     119.005 178.559 124.633  1.00  0.00     0.008 C 
ENDROOT
BRANCH   1   2
ATOM      2  C   UNL     1     119.576 179.703 125.485  1.00  0.00     0.000 C 
BRANCH   2   3
ATOM      3  C   UNL     1     120.916 179.338 126.141  1.00  0.00    -0.003 C 
ATOM      4  C   UNL     1     120.719 178.917 127.595  1.00  0.00     0.004 C 
ENDBRANCH   2   3
ENDBRANCH   1   2
BRANCH   1   5
ATOM      5  C   UNL     1     117.887 177.789 125.348  1.00  0.00     0.080 C 
BRANCH   5   6
ATOM      6  C   UNL     1     116.542 178.308 124.931  1.00  0.00     0.155 C 
ATOM      7  O   UNL     1     116.309 178.502 123.706  1.00  0.00    -0.295 OA
BRANCH   6   8
ATOM      8  C   UNL     1     115.524 178.628 125.950  1.00  0.00     0.039 C 
ATOM      9  C   UNL     1     114.414 179.305 125.663  1.00  0.00     0.012 C 
ENDBRANCH   6   8
ENDBRANCH   5   6
ENDBRANCH   1   5
TORSDOF 5
ENDMDL
MODEL 7
REMARK VINA RESULT:    -3.697     13.628     14.991
REMARK INTER + INTRA:          -5.204
REMARK INTER:                  -4.946
REMARK INTRA:                  -0.258
REMARK UNBOUND:                -0.427
REMARK SMILES C=CC(=O)CCCCC
REMARK SMILES IDX 6 1 7 2 8 3 9 4 5 5 3 6 4 7 2 8 1 9
REMARK H PARENT
REMARK Flexibility Score: inf
ROOT
ATOM      1  C   UNL     1     120.960 179.351 126.141  1.00  0.00     0.008 C 
ENDROOT
BRANCH   1   2
ATOM      2  C   UNL     1     120.899 178.937 127.619  1.00  0.00     0.000 C 
BRANCH   2   3
ATOM      3  C   UNL     1     122.284 178.614 128.199  1.00  0.00    -0.003 C 
ATOM      4  C   UNL     1     123.378 179.393 127.474  1.00  0.00     0.004 C 
ENDBRANCH   2   3
ENDBRANCH   1   2
BRANCH   1   5
ATOM      5  C   UNL     1     119.629 179.917 125.629  1.00  0.00     0.080 C 
BRANCH   5   6
ATOM      6  C   UNL     1     118.819 178.840 124.970  1.00  0.00     0.155 C 
ATOM      7  O   UNL     1     119.359 178.114 124.089  1.00  0.00    -0.295 OA
BRANCH   6   8
ATOM      8  C   UNL     1     117.396 178.665 125.319  1.00  0.00     0.039 C 
ATOM      9  C   UNL     1     116.981 177.744 126.187  1.00  0.00     0.012 C 
ENDBRANCH   6   8
ENDBRANCH   5   6
ENDBRANCH   1   5
TORSDOF 5
ENDMDL
MODEL 8
REMARK VINA RESULT:    -3.638     13.570     14.545
REMARK INTER + INTRA:          -5.128
REMARK INTER:                  -4.490
REMARK INTRA:                  -0.639
REMARK UNBOUND:                -0.427
REMARK SMILES C=CC(=O)CCCCC
REMARK SMILES IDX 6 1 7 2 8 3 9 4 5 5 3 6 4 7 2 8 1 9
REMARK H PARENT
REMARK Flexibility Score: inf
ROOT
ATOM      1  C   UNL     1     120.704 178.972 124.399  1.00  0.00     0.008 C 
ENDROOT
BRANCH   1   2
ATOM      2  C   UNL     1     120.327 177.483 124.361  1.00  0.00     0.000 C 
BRANCH   2   3
ATOM      3  C   UNL     1     121.543 176.572 124.135  1.00  0.00    -0.003 C 
ATOM      4  C   UNL     1     122.667 177.323 123.426  1.00  0.00     0.004 C 
ENDBRANCH   2   3
ENDBRANCH   1   2
BRANCH   1   5
ATOM      5  C   UNL     1     120.275 179.658 125.702  1.00  0.00     0.080 C 
BRANCH   5   6
ATOM      6  C   UNL     1     121.039 179.098 126.866  1.00  0.00     0.155 C 
ATOM      7  O   UNL     1     120.411 178.517 127.794  1.00  0.00    -0.295 OA
BRANCH   6   8
ATOM      8  C   UNL     1     122.504 179.267 126.941  1.00  0.00     0.039 C 
ATOM      9  C   UNL     1     123.339 178.235 127.041  1.00  0.00     0.012 C 
ENDBRANCH   6   8
ENDBRANCH   5   6
ENDBRANCH   1   5
TORSDOF 5
ENDMDL
MODEL 9
REMARK VINA RESULT:    -3.637     13.694     14.998
REMARK INTER + INTRA:          -5.126
REMARK INTER:                  -4.604
REMARK INTRA:                  -0.522
REMARK UNBOUND:                -0.427
REMARK SMILES C=CC(=O)CCCCC
REMARK SMILES IDX 6 1 7 2 8 3 9 4 5 5 3 6 4 7 2 8 1 9
REMARK H PARENT
REMARK Flexibility Score: inf
ROOT
ATOM      1  C   UNL     1     120.601 179.596 126.163  1.00  0.00     0.008 C 
ENDROOT
BRANCH   1   2
ATOM      2  C   UNL     1     120.870 178.885 127.498  1.00  0.00     0.000 C 
BRANCH   2   3
ATOM      3  C   UNL     1     122.292 178.310 127.584  1.00  0.00    -0.003 C 
ATOM      4  C   UNL     1     123.337 179.385 127.295  1.00  0.00     0.004 C 
ENDBRANCH   2   3
ENDBRANCH   1   2
BRANCH   1   5
ATOM      5  C   UNL     1     120.045 178.649 125.091  1.00  0.00     0.080 C 
BRANCH   5   6
ATOM      6  C   UNL     1     121.011 178.525 123.949  1.00  0.00     0.155 C 
ATOM      7  O   UNL     1     120.925 179.327 122.978  1.00  0.00    -0.295 OA
BRANCH   6   8
ATOM      8  C   UNL     1     122.018 177.446 123.945  1.00  0.00     0.039 C 
ATOM      9  C   UNL     1     121.710 176.180 124.224  1.00  0.00     0.012 C 
ENDBRANCH   6   8
ENDBRANCH   5   6
ENDBRANCH   1   5
TORSDOF 5
ENDMDL
