MODEL 1
REMARK VINA RESULT:    -5.192      0.000      0.000
REMARK INTER + INTRA:          -8.255
REMARK INTER:                  -7.923
REMARK INTRA:                  -0.332
REMARK UNBOUND:                -0.332
REMARK SMILES O=C([O-])CCCCCCCCC(=O)[O-]
REMARK SMILES IDX 7 1 6 2 5 3 4 4 2 5 1 6 3 7 8 8 9 9 10 10 11 11 12 12 13 13
REMARK SMILES IDX 14 14
REMARK H PARENT
REMARK Flexibility Score: inf
ROOT
ATOM      1  C   UNL     1      22.038  11.409  10.101  1.00  0.00     0.000 C 
ENDROOT
BRANCH   1   2
ATOM      2  C   UNL     1      22.504  12.850  10.374  1.00  0.00     0.000 C 
BRANCH   2   3
ATOM      3  C   UNL     1      22.607  13.690   9.090  1.00  0.00     0.006 C 
BRANCH   3   4
ATOM      4  C   UNL     1      23.712  13.197   8.147  1.00  0.00     0.053 C 
BRANCH   4   5
ATOM      5  C   UNL     1      25.041  13.734   8.578  1.00  0.00     0.041 C 
ATOM      6  O   UNL     1      25.480  14.808   8.088  1.00  0.00    -0.550 OA
ATOM      7  O   UNL     1      25.819  13.023   9.484  1.00  0.00    -0.550 OA
ENDBRANCH   4   5
ENDBRANCH   3   4
ENDBRANCH   2   3
ENDBRANCH   1   2
BRANCH   1   8
ATOM      8  C   UNL     1      21.297  10.791  11.298  1.00  0.00     0.000 C 
BRANCH   8   9
ATOM      9  C   UNL     1      21.783   9.372  11.630  1.00  0.00     0.000 C 
BRANCH   9  10
ATOM     10  C   UNL     1      21.602   9.066  13.125  1.00  0.00     0.006 C 
BRANCH  10  11
ATOM     11  C   UNL     1      20.431   8.110  13.384  1.00  0.00     0.053 C 
BRANCH  11  12
ATOM     12  C   UNL     1      19.321   8.780  14.134  1.00  0.00     0.041 C 
ATOM     13  O   UNL     1      18.861   9.882  13.735  1.00  0.00    -0.550 OA
ATOM     14  O   UNL     1      18.817   8.203  15.293  1.00  0.00    -0.550 OA
ENDBRANCH  11  12
ENDBRANCH  10  11
ENDBRANCH   9  10
ENDBRANCH   8   9
ENDBRANCH   1   8
TORSDOF 9
ENDMDL
MODEL 2
REMARK VINA RESULT:    -5.027      1.004      7.696
REMARK INTER + INTRA:          -8.004
REMARK INTER:                  -7.634
REMARK INTRA:                  -0.370
REMARK UNBOUND:                -0.332
REMARK SMILES O=C([O-])CCCCCCCCC(=O)[O-]
REMARK SMILES IDX 7 1 6 2 5 3 4 4 2 5 1 6 3 7 8 8 9 9 10 10 11 11 12 12 13 13
REMARK SMILES IDX 14 14
REMARK H PARENT
REMARK Flexibility Score: inf
ROOT
ATOM      1  C   UNL     1      21.247  11.253  10.759  1.00  0.00     0.000 C 
ENDROOT
BRANCH   1   2
ATOM      2  C   UNL     1      21.837   9.879  11.122  1.00  0.00     0.000 C 
BRANCH   2   3
ATOM      3  C   UNL     1      21.864   9.632  12.640  1.00  0.00     0.006 C 
BRANCH   3   4
ATOM      4  C   UNL     1      20.992   8.442  13.062  1.00  0.00     0.053 C 
BRANCH   4   5
ATOM      5  C   UNL     1      19.759   8.922  13.760  1.00  0.00     0.041 C 
ATOM      6  O   UNL     1      19.239   8.230  14.675  1.00  0.00    -0.550 OA
ATOM      7  O   UNL     1      19.154  10.110  13.369  1.00  0.00    -0.550 OA
ENDBRANCH   4   5
ENDBRANCH   3   4
ENDBRANCH   2   3
ENDBRANCH   1   2
BRANCH   1   8
ATOM      8  C   UNL     1      22.329  12.286  10.406  1.00  0.00     0.000 C 
BRANCH   8   9
ATOM      9  C   UNL     1      22.569  12.403   8.894  1.00  0.00     0.000 C 
BRANCH   9  10
ATOM     10  C   UNL     1      23.776  13.307   8.598  1.00  0.00     0.006 C 
BRANCH  10  11
ATOM     11  C   UNL     1      24.856  13.208   9.683  1.00  0.00     0.053 C 
BRANCH  11  12
ATOM     12  C   UNL     1      26.179  13.717   9.199  1.00  0.00     0.041 C 
ATOM     13  O   UNL     1      27.022  14.172  10.016  1.00  0.00    -0.550 OA
ATOM     14  O   UNL     1      26.467  13.719   7.840  1.00  0.00    -0.550 OA
ENDBRANCH  11  12
ENDBRANCH  10  11
ENDBRANCH   9  10
ENDBRANCH   8   9
ENDBRANCH   1   8
TORSDOF 9
ENDMDL
MODEL 3
REMARK VINA RESULT:    -4.947      3.126      6.030
REMARK INTER + INTRA:          -7.882
REMARK INTER:                  -7.144
REMARK INTRA:                  -0.738
REMARK UNBOUND:                -0.332
REMARK SMILES O=C([O-])CCCCCCCCC(=O)[O-]
REMARK SMILES IDX 7 1 6 2 5 3 4 4 2 5 1 6 3 7 8 8 9 9 10 10 11 11 12 12 13 13
REMARK SMILES IDX 14 14
REMARK H PARENT
REMARK Flexibility Score: inf
ROOT
ATOM      1  C   UNL     1      21.322   9.570  12.477  1.00  0.00     0.000 C 
ENDROOT
BRANCH   1   2
ATOM      2  C   UNL     1      22.819   9.282  12.272  1.00  0.00     0.000 C 
BRANCH   2   3
ATOM      3  C   UNL     1      23.685   9.806  13.430  1.00  0.00     0.006 C 
BRANCH   3   4
ATOM      4  C   UNL     1      24.309  11.175  13.129  1.00  0.00     0.053 C 
BRANCH   4   5
ATOM      5  C   UNL     1      25.779  11.149  13.407  1.00  0.00     0.041 C 
ATOM      6  O   UNL     1      26.260  10.293  14.197  1.00  0.00    -0.550 OA
ATOM      7  O   UNL     1      26.613  12.102  12.834  1.00  0.00    -0.550 OA
ENDBRANCH   4   5
ENDBRANCH   3   4
ENDBRANCH   2   3
ENDBRANCH   1   2
BRANCH   1   8
ATOM      8  C   UNL     1      20.799  10.674  11.544  1.00  0.00     0.000 C 
BRANCH   8   9
ATOM      9  C   UNL     1      21.728  10.929  10.347  1.00  0.00     0.000 C 
BRANCH   9  10
ATOM     10  C   UNL     1      22.158  12.403  10.292  1.00  0.00     0.006 C 
BRANCH  10  11
ATOM     11  C   UNL     1      22.802  12.771   8.949  1.00  0.00     0.053 C 
BRANCH  11  12
ATOM     12  C   UNL     1      24.240  13.160   9.110  1.00  0.00     0.041 C 
ATOM     13  O   UNL     1      24.775  13.158  10.250  1.00  0.00    -0.550 OA
ATOM     14  O   UNL     1      24.980  13.558   8.003  1.00  0.00    -0.550 OA
ENDBRANCH  11  12
ENDBRANCH  10  11
ENDBRANCH   9  10
ENDBRANCH   8   9
ENDBRANCH   1   8
TORSDOF 9
ENDMDL
MODEL 4
REMARK VINA RESULT:    -4.880      3.134      4.311
REMARK INTER + INTRA:          -7.779
REMARK INTER:                  -7.068
REMARK INTRA:                  -0.712
REMARK UNBOUND:                -0.332
REMARK SMILES O=C([O-])CCCCCCCCC(=O)[O-]
REMARK SMILES IDX 7 1 6 2 5 3 4 4 2 5 1 6 3 7 8 8 9 9 10 10 11 11 12 12 13 13
REMARK SMILES IDX 14 14
REMARK H PARENT
REMARK Flexibility Score: inf
ROOT
ATOM      1  C   UNL     1      20.715  10.225  12.101  1.00  0.00     0.000 C 
ENDROOT
BRANCH   1   2
ATOM      2  C   UNL     1      21.403  10.513  10.755  1.00  0.00     0.000 C 
BRANCH   2   3
ATOM      3  C   UNL     1      21.942  11.950  10.664  1.00  0.00     0.006 C 
BRANCH   3   4
ATOM      4  C   UNL     1      22.498  12.287   9.275  1.00  0.00     0.053 C 
BRANCH   4   5
ATOM      5  C   UNL     1      23.694  13.178   9.394  1.00  0.00     0.041 C 
ATOM      6  O   UNL     1      24.491  13.043  10.359  1.00  0.00    -0.550 OA
ATOM      7  O   UNL     1      23.902  14.191   8.466  1.00  0.00    -0.550 OA
ENDBRANCH   4   5
ENDBRANCH   3   4
ENDBRANCH   2   3
ENDBRANCH   1   2
BRANCH   1   8
ATOM      8  C   UNL     1      21.348   9.039  12.846  1.00  0.00     0.000 C 
BRANCH   8   9
ATOM      9  C   UNL     1      22.854   8.901  12.573  1.00  0.00     0.000 C 
BRANCH   9  10
ATOM     10  C   UNL     1      23.675   9.609  13.661  1.00  0.00     0.006 C 
BRANCH  10  11
ATOM     11  C   UNL     1      24.317  10.907  13.153  1.00  0.00     0.053 C 
BRANCH  11  12
ATOM     12  C   UNL     1      25.791  10.938  13.415  1.00  0.00     0.041 C 
ATOM     13  O   UNL     1      26.314  10.103  14.200  1.00  0.00    -0.550 OA
ATOM     14  O   UNL     1      26.583  11.911  12.818  1.00  0.00    -0.550 OA
ENDBRANCH  11  12
ENDBRANCH  10  11
ENDBRANCH   9  10
ENDBRANCH   8   9
ENDBRANCH   1   8
TORSDOF 9
ENDMDL
MODEL 5
REMARK VINA RESULT:    -4.848      2.645      6.362
REMARK INTER + INTRA:          -7.731
REMARK INTER:                  -7.061
REMARK INTRA:                  -0.670
REMARK UNBOUND:                -0.332
REMARK SMILES O=C([O-])CCCCCCCCC(=O)[O-]
REMARK SMILES IDX 7 1 6 2 5 3 4 4 2 5 1 6 3 7 8 8 9 9 10 10 11 11 12 12 13 13
REMARK SMILES IDX 14 14
REMARK H PARENT
REMARK Flexibility Score: inf
ROOT
ATOM      1  C   UNL     1      24.342  11.236  13.158  1.00  0.00     0.000 C 
ENDROOT
BRANCH   1   2
ATOM      2  C   UNL     1      24.101   9.817  13.703  1.00  0.00     0.000 C 
BRANCH   2   3
ATOM      3  C   UNL     1      22.690   9.295  13.385  1.00  0.00     0.006 C 
BRANCH   3   4
ATOM      4  C   UNL     1      22.302   9.497  11.914  1.00  0.00     0.053 C 
BRANCH   4   5
ATOM      5  C   UNL     1      21.042  10.298  11.813  1.00  0.00     0.041 C 
ATOM      6  O   UNL     1      20.886  11.116  10.867  1.00  0.00    -0.550 OA
ATOM      7  O   UNL     1      20.061  10.179  12.789  1.00  0.00    -0.550 OA
ENDBRANCH   4   5
ENDBRANCH   3   4
ENDBRANCH   2   3
ENDBRANCH   1   2
BRANCH   1   8
ATOM      8  C   UNL     1      25.756  11.414  12.582  1.00  0.00     0.000 C 
BRANCH   8   9
ATOM      9  C   UNL     1      25.784  12.333  11.352  1.00  0.00     0.000 C 
BRANCH   9  10
ATOM     10  C   UNL     1      24.364  12.765  10.957  1.00  0.00     0.006 C 
BRANCH  10  11
ATOM     11  C   UNL     1      24.292  13.279   9.513  1.00  0.00     0.053 C 
BRANCH  11  12
ATOM     12  C   UNL     1      22.890  13.619   9.113  1.00  0.00     0.041 C 
ATOM     13  O   UNL     1      22.113  14.178   9.932  1.00  0.00    -0.550 OA
ATOM     14  O   UNL     1      22.429  13.288   7.845  1.00  0.00    -0.550 OA
ENDBRANCH  11  12
ENDBRANCH  10  11
ENDBRANCH   9  10
ENDBRANCH   8   9
ENDBRANCH   1   8
TORSDOF 9
ENDMDL
MODEL 6
REMARK VINA RESULT:    -4.791      2.576      6.570
REMARK INTER + INTRA:          -7.643
REMARK INTER:                  -7.041
REMARK INTRA:                  -0.602
REMARK UNBOUND:                -0.332
REMARK SMILES O=C([O-])CCCCCCCCC(=O)[O-]
REMARK SMILES IDX 7 1 6 2 5 3 4 4 2 5 1 6 3 7 8 8 9 9 10 10 11 11 12 12 13 13
REMARK SMILES IDX 14 14
REMARK H PARENT
REMARK Flexibility Score: inf
ROOT
ATOM      1  C   UNL     1      21.026  10.939  10.816  1.00  0.00     0.000 C 
ENDROOT
BRANCH   1   2
ATOM      2  C   UNL     1      21.474   9.630  11.490  1.00  0.00     0.000 C 
BRANCH   2   3
ATOM      3  C   UNL     1      21.951   9.845  12.936  1.00  0.00     0.006 C 
BRANCH   3   4
ATOM      4  C   UNL     1      23.299   9.170  13.221  1.00  0.00     0.053 C 
BRANCH   4   5
ATOM      5  C   UNL     1      24.357  10.200  13.458  1.00  0.00     0.041 C 
ATOM      6  O   UNL     1      24.175  11.392  13.091  1.00  0.00    -0.550 OA
ATOM      7  O   UNL     1      25.566   9.836  14.039  1.00  0.00    -0.550 OA
ENDBRANCH   4   5
ENDBRANCH   3   4
ENDBRANCH   2   3
ENDBRANCH   1   2
BRANCH   1   8
ATOM      8  C   UNL     1      22.191  11.691  10.154  1.00  0.00     0.000 C 
BRANCH   8   9
ATOM      9  C   UNL     1      22.110  13.211  10.359  1.00  0.00     0.000 C 
BRANCH   9  10
ATOM     10  C   UNL     1      22.675  13.960   9.142  1.00  0.00     0.006 C 
BRANCH  10  11
ATOM     11  C   UNL     1      23.615  13.083   8.305  1.00  0.00     0.053 C 
BRANCH  11  12
ATOM     12  C   UNL     1      25.052  13.450   8.516  1.00  0.00     0.041 C 
ATOM     13  O   UNL     1      25.741  13.893   7.559  1.00  0.00    -0.550 OA
ATOM     14  O   UNL     1      25.640  13.269   9.761  1.00  0.00    -0.550 OA
ENDBRANCH  11  12
ENDBRANCH  10  11
ENDBRANCH   9  10
ENDBRANCH   8   9
ENDBRANCH   1   8
TORSDOF 9
ENDMDL
MODEL 7
REMARK VINA RESULT:    -4.657     10.942     14.634
REMARK INTER + INTRA:          -7.439
REMARK INTER:                  -6.922
REMARK INTRA:                  -0.516
REMARK UNBOUND:                -0.332
REMARK SMILES O=C([O-])CCCCCCCCC(=O)[O-]
REMARK SMILES IDX 7 1 6 2 5 3 4 4 2 5 1 6 3 7 8 8 9 9 10 10 11 11 12 12 13 13
REMARK SMILES IDX 14 14
REMARK H PARENT
REMARK Flexibility Score: inf
ROOT
ATOM      1  C   UNL     1      25.068  23.077   5.501  1.00  0.00     0.000 C 
ENDROOT
BRANCH   1   2
ATOM      2  C   UNL     1      24.381  22.619   4.202  1.00  0.00     0.000 C 
BRANCH   2   3
ATOM      3  C   UNL     1      23.315  21.538   4.449  1.00  0.00     0.006 C 
BRANCH   3   4
ATOM      4  C   UNL     1      22.775  21.556   5.885  1.00  0.00     0.053 C 
BRANCH   4   5
ATOM      5  C   UNL     1      21.934  20.346   6.140  1.00  0.00     0.041 C 
ATOM      6  O   UNL     1      21.657  19.557   5.198  1.00  0.00    -0.550 OA
ATOM      7  O   UNL     1      21.413  20.115   7.407  1.00  0.00    -0.550 OA
ENDBRANCH   4   5
ENDBRANCH   3   4
ENDBRANCH   2   3
ENDBRANCH   1   2
BRANCH   1   8
ATOM      8  C   UNL     1      26.173  24.116   5.249  1.00  0.00     0.000 C 
BRANCH   8   9
ATOM      9  C   UNL     1      25.859  25.482   5.879  1.00  0.00     0.000 C 
BRANCH   9  10
ATOM     10  C   UNL     1      24.424  25.517   6.426  1.00  0.00     0.006 C 
BRANCH  10  11
ATOM     11  C   UNL     1      24.209  26.663   7.422  1.00  0.00     0.053 C 
BRANCH  11  12
ATOM     12  C   UNL     1      24.851  26.377   8.745  1.00  0.00     0.041 C 
ATOM     13  O   UNL     1      25.867  27.024   9.112  1.00  0.00    -0.550 OA
ATOM     14  O   UNL     1      24.345  25.370   9.559  1.00  0.00    -0.550 OA
ENDBRANCH  11  12
ENDBRANCH  10  11
ENDBRANCH   9  10
ENDBRANCH   8   9
ENDBRANCH   1   8
TORSDOF 9
ENDMDL
