MODEL 1
REMARK VINA RESULT:    -3.518      0.000      0.000
REMARK INTER + INTRA:          -8.429
REMARK INTER:                  -6.397
REMARK INTRA:                  -2.032
REMARK UNBOUND:                -2.032
REMARK SMILES CCCCCCCCCCCCCC[C@H](C)C(=O)[O-]
REMARK SMILES IDX 9 1 10 2 11 3 12 4 13 5 14 6 15 7 16 8 17 9 18 10 19 11 8 12
REMARK SMILES IDX 7 13 6 14 5 15 4 16 3 17 2 18 1 19
REMARK H PARENT
REMARK Flexibility Score: inf
ROOT
ATOM      1  C   UNL     1      26.460  40.579   5.914  1.00  0.00     0.000 C 
ENDROOT
BRANCH   1   2
ATOM      2  C   UNL     1      27.784  40.001   5.383  1.00  0.00     0.000 C 
BRANCH   2   3
ATOM      3  C   UNL     1      28.537  40.976   4.460  1.00  0.00     0.000 C 
BRANCH   3   4
ATOM      4  C   UNL     1      27.589  41.848   3.622  1.00  0.00     0.000 C 
BRANCH   4   5
ATOM      5  C   UNL     1      27.678  43.339   3.981  1.00  0.00     0.001 C 
BRANCH   5   6
ATOM      6  C   UNL     1      26.283  43.909   4.297  1.00  0.00     0.009 C 
BRANCH   6   7
ATOM      7  C   UNL     1      26.099  44.368   5.760  1.00  0.00     0.032 C 
ATOM      8  C   UNL     1      24.653  44.212   6.253  1.00  0.00     0.014 C 
BRANCH   7   9
ATOM      9  C   UNL     1      26.609  45.769   5.972  1.00  0.00     0.044 C 
ATOM     10  O   UNL     1      25.935  46.750   5.559  1.00  0.00    -0.550 OA
ATOM     11  O   UNL     1      27.792  46.000   6.666  1.00  0.00    -0.550 OA
ENDBRANCH   7   9
ENDBRANCH   6   7
ENDBRANCH   5   6
ENDBRANCH   4   5
ENDBRANCH   3   4
ENDBRANCH   2   3
ENDBRANCH   1   2
BRANCH   1  12
ATOM     12  C   UNL     1      25.187  39.856   5.436  1.00  0.00     0.000 C 
BRANCH  12  13
ATOM     13  C   UNL     1      24.076  40.824   4.997  1.00  0.00    -0.000 C 
BRANCH  13  14
ATOM     14  C   UNL     1      24.086  41.086   3.481  1.00  0.00    -0.000 C 
BRANCH  14  15
ATOM     15  C   UNL     1      24.477  39.843   2.668  1.00  0.00    -0.000 C 
BRANCH  15  16
ATOM     16  C   UNL     1      25.223  40.240   1.385  1.00  0.00    -0.000 C 
BRANCH  16  17
ATOM     17  C   UNL     1      24.692  39.518   0.134  1.00  0.00    -0.000 C 
BRANCH  17  18
ATOM     18  C   UNL     1      25.706  39.384  -1.016  1.00  0.00    -0.003 C 
ATOM     19  C   UNL     1      27.150  39.272  -0.532  1.00  0.00     0.004 C 
ENDBRANCH  17  18
ENDBRANCH  16  17
ENDBRANCH  15  16
ENDBRANCH  14  15
ENDBRANCH  13  14
ENDBRANCH  12  13
ENDBRANCH   1  12
TORSDOF 14
ENDMDL
MODEL 2
REMARK VINA RESULT:    -3.433     17.604     20.064
REMARK INTER + INTRA:          -8.275
REMARK INTER:                  -6.426
REMARK INTRA:                  -1.849
REMARK UNBOUND:                -2.032
REMARK SMILES CCCCCCCCCCCCCC[C@H](C)C(=O)[O-]
REMARK SMILES IDX 9 1 10 2 11 3 12 4 13 5 14 6 15 7 16 8 17 9 18 10 19 11 8 12
REMARK SMILES IDX 7 13 6 14 5 15 4 16 3 17 2 18 1 19
REMARK H PARENT
REMARK Flexibility Score: inf
ROOT
ATOM      1  C   UNL     1      40.886  30.907   3.962  1.00  0.00     0.000 C 
ENDROOT
BRANCH   1   2
ATOM      2  C   UNL     1      41.913  32.030   3.731  1.00  0.00     0.000 C 
BRANCH   2   3
ATOM      3  C   UNL     1      43.331  31.500   3.451  1.00  0.00     0.000 C 
BRANCH   3   4
ATOM      4  C   UNL     1      43.855  31.917   2.068  1.00  0.00     0.000 C 
BRANCH   4   5
ATOM      5  C   UNL     1      43.526  33.378   1.724  1.00  0.00     0.001 C 
BRANCH   5   6
ATOM      6  C   UNL     1      43.156  33.519   0.236  1.00  0.00     0.009 C 
BRANCH   6   7
ATOM      7  C   UNL     1      41.937  32.675  -0.199  1.00  0.00     0.032 C 
ATOM      8  C   UNL     1      42.045  32.181  -1.649  1.00  0.00     0.014 C 
BRANCH   7   9
ATOM      9  C   UNL     1      40.641  33.405   0.042  1.00  0.00     0.044 C 
ATOM     10  O   UNL     1      40.129  34.094  -0.880  1.00  0.00    -0.550 OA
ATOM     11  O   UNL     1      39.973  33.290   1.257  1.00  0.00    -0.550 OA
ENDBRANCH   7   9
ENDBRANCH   6   7
ENDBRANCH   5   6
ENDBRANCH   4   5
ENDBRANCH   3   4
ENDBRANCH   2   3
ENDBRANCH   1   2
BRANCH   1  12
ATOM     12  C   UNL     1      41.484  29.513   4.225  1.00  0.00     0.000 C 
BRANCH  12  13
ATOM     13  C   UNL     1      41.306  29.047   5.680  1.00  0.00    -0.000 C 
BRANCH  13  14
ATOM     14  C   UNL     1      42.572  28.383   6.247  1.00  0.00    -0.000 C 
BRANCH  14  15
ATOM     15  C   UNL     1      43.699  29.391   6.517  1.00  0.00    -0.000 C 
BRANCH  15  16
ATOM     16  C   UNL     1      43.781  29.734   8.012  1.00  0.00    -0.000 C 
BRANCH  16  17
ATOM     17  C   UNL     1      43.145  31.094   8.352  1.00  0.00    -0.000 C 
BRANCH  17  18
ATOM     18  C   UNL     1      42.952  32.038   7.151  1.00  0.00    -0.003 C 
ATOM     19  C   UNL     1      43.605  33.404   7.353  1.00  0.00     0.004 C 
ENDBRANCH  17  18
ENDBRANCH  16  17
ENDBRANCH  15  16
ENDBRANCH  14  15
ENDBRANCH  13  14
ENDBRANCH  12  13
ENDBRANCH   1  12
TORSDOF 14
ENDMDL
MODEL 3
REMARK VINA RESULT:    -3.418      2.208      2.972
REMARK INTER + INTRA:          -8.247
REMARK INTER:                  -5.979
REMARK INTRA:                  -2.268
REMARK UNBOUND:                -2.032
REMARK SMILES CCCCCCCCCCCCCC[C@H](C)C(=O)[O-]
REMARK SMILES IDX 9 1 10 2 11 3 12 4 13 5 14 6 15 7 16 8 17 9 18 10 19 11 8 12
REMARK SMILES IDX 7 13 6 14 5 15 4 16 3 17 2 18 1 19
REMARK H PARENT
REMARK Flexibility Score: inf
ROOT
ATOM      1  C   UNL     1      25.700  41.849   3.291  1.00  0.00     0.000 C 
ENDROOT
BRANCH   1   2
ATOM      2  C   UNL     1      26.265  43.177   3.828  1.00  0.00     0.000 C 
BRANCH   2   3
ATOM      3  C   UNL     1      27.633  43.013   4.516  1.00  0.00     0.000 C 
BRANCH   3   4
ATOM      4  C   UNL     1      27.687  41.784   5.437  1.00  0.00     0.000 C 
BRANCH   4   5
ATOM      5  C   UNL     1      27.430  42.133   6.911  1.00  0.00     0.001 C 
BRANCH   5   6
ATOM      6  C   UNL     1      26.177  41.406   7.434  1.00  0.00     0.009 C 
BRANCH   6   7
ATOM      7  C   UNL     1      25.122  42.336   8.074  1.00  0.00     0.032 C 
ATOM      8  C   UNL     1      24.574  43.378   7.090  1.00  0.00     0.014 C 
BRANCH   7   9
ATOM      9  C   UNL     1      25.642  42.981   9.333  1.00  0.00     0.044 C 
ATOM     10  O   UNL     1      25.427  44.204   9.544  1.00  0.00    -0.550 OA
ATOM     11  O   UNL     1      26.315  42.233  10.293  1.00  0.00    -0.550 OA
ENDBRANCH   7   9
ENDBRANCH   6   7
ENDBRANCH   5   6
ENDBRANCH   4   5
ENDBRANCH   3   4
ENDBRANCH   2   3
ENDBRANCH   1   2
BRANCH   1  12
ATOM     12  C   UNL     1      24.251  41.536   3.705  1.00  0.00     0.000 C 
BRANCH  12  13
ATOM     13  C   UNL     1      24.146  40.331   4.656  1.00  0.00    -0.000 C 
BRANCH  13  14
ATOM     14  C   UNL     1      24.938  39.112   4.154  1.00  0.00    -0.000 C 
BRANCH  14  15
ATOM     15  C   UNL     1      24.121  38.229   3.198  1.00  0.00    -0.000 C 
BRANCH  15  16
ATOM     16  C   UNL     1      24.830  38.090   1.842  1.00  0.00    -0.000 C 
BRANCH  16  17
ATOM     17  C   UNL     1      24.355  39.126   0.807  1.00  0.00    -0.000 C 
BRANCH  17  18
ATOM     18  C   UNL     1      25.480  39.926   0.127  1.00  0.00    -0.003 C 
ATOM     19  C   UNL     1      25.664  39.566  -1.346  1.00  0.00     0.004 C 
ENDBRANCH  17  18
ENDBRANCH  16  17
ENDBRANCH  15  16
ENDBRANCH  14  15
ENDBRANCH  13  14
ENDBRANCH  12  13
ENDBRANCH   1  12
TORSDOF 14
ENDMDL
MODEL 4
REMARK VINA RESULT:    -3.382      3.357      6.992
REMARK INTER + INTRA:          -8.181
REMARK INTER:                  -6.437
REMARK INTRA:                  -1.745
REMARK UNBOUND:                -2.032
REMARK SMILES CCCCCCCCCCCCCC[C@H](C)C(=O)[O-]
REMARK SMILES IDX 9 1 10 2 11 3 12 4 13 5 14 6 15 7 16 8 17 9 18 10 19 11 8 12
REMARK SMILES IDX 7 13 6 14 5 15 4 16 3 17 2 18 1 19
REMARK H PARENT
REMARK Flexibility Score: inf
ROOT
ATOM      1  C   UNL     1      26.298  42.138   3.563  1.00  0.00     0.000 C 
ENDROOT
BRANCH   1   2
ATOM      2  C   UNL     1      24.933  41.910   4.238  1.00  0.00     0.000 C 
BRANCH   2   3
ATOM      3  C   UNL     1      24.196  40.671   3.699  1.00  0.00     0.000 C 
BRANCH   3   4
ATOM      4  C   UNL     1      24.131  40.645   2.164  1.00  0.00     0.000 C 
BRANCH   4   5
ATOM      5  C   UNL     1      24.177  39.220   1.590  1.00  0.00     0.001 C 
BRANCH   5   6
ATOM      6  C   UNL     1      24.483  39.248   0.082  1.00  0.00     0.009 C 
BRANCH   6   7
ATOM      7  C   UNL     1      25.832  39.907  -0.283  1.00  0.00     0.032 C 
ATOM      8  C   UNL     1      25.995  40.127  -1.793  1.00  0.00     0.014 C 
BRANCH   7   9
ATOM      9  C   UNL     1      26.996  39.146   0.296  1.00  0.00     0.044 C 
ATOM     10  O   UNL     1      27.368  38.068  -0.238  1.00  0.00    -0.550 OA
ATOM     11  O   UNL     1      27.702  39.645   1.386  1.00  0.00    -0.550 OA
ENDBRANCH   7   9
ENDBRANCH   6   7
ENDBRANCH   5   6
ENDBRANCH   4   5
ENDBRANCH   3   4
ENDBRANCH   2   3
ENDBRANCH   1   2
BRANCH   1  12
ATOM     12  C   UNL     1      27.006  43.453   3.937  1.00  0.00     0.000 C 
BRANCH  12  13
ATOM     13  C   UNL     1      26.151  44.359   4.840  1.00  0.00    -0.000 C 
BRANCH  13  14
ATOM     14  C   UNL     1      26.991  45.117   5.882  1.00  0.00    -0.000 C 
BRANCH  14  15
ATOM     15  C   UNL     1      26.540  44.838   7.323  1.00  0.00    -0.000 C 
BRANCH  15  16
ATOM     16  C   UNL     1      25.343  43.874   7.346  1.00  0.00    -0.000 C 
BRANCH  16  17
ATOM     17  C   UNL     1      25.644  42.561   8.092  1.00  0.00    -0.000 C 
BRANCH  17  18
ATOM     18  C   UNL     1      26.715  41.672   7.434  1.00  0.00    -0.003 C 
ATOM     19  C   UNL     1      27.997  41.572   8.257  1.00  0.00     0.004 C 
ENDBRANCH  17  18
ENDBRANCH  16  17
ENDBRANCH  15  16
ENDBRANCH  14  15
ENDBRANCH  13  14
ENDBRANCH  12  13
ENDBRANCH   1  12
TORSDOF 14
ENDMDL
MODEL 5
REMARK VINA RESULT:    -3.377      1.490      4.356
REMARK INTER + INTRA:          -8.173
REMARK INTER:                  -6.408
REMARK INTRA:                  -1.765
REMARK UNBOUND:                -2.032
REMARK SMILES CCCCCCCCCCCCCC[C@H](C)C(=O)[O-]
REMARK SMILES IDX 9 1 10 2 11 3 12 4 13 5 14 6 15 7 16 8 17 9 18 10 19 11 8 12
REMARK SMILES IDX 7 13 6 14 5 15 4 16 3 17 2 18 1 19
REMARK H PARENT
REMARK Flexibility Score: inf
ROOT
ATOM      1  C   UNL     1      24.870  39.287   0.586  1.00  0.00     0.000 C 
ENDROOT
BRANCH   1   2
ATOM      2  C   UNL     1      24.061  40.242   1.481  1.00  0.00     0.000 C 
BRANCH   2   3
ATOM      3  C   UNL     1      24.428  40.123   2.971  1.00  0.00     0.000 C 
BRANCH   3   4
ATOM      4  C   UNL     1      24.116  41.405   3.760  1.00  0.00     0.000 C 
BRANCH   4   5
ATOM      5  C   UNL     1      25.296  41.869   4.630  1.00  0.00     0.001 C 
BRANCH   5   6
ATOM      6  C   UNL     1      25.920  43.156   4.061  1.00  0.00     0.009 C 
BRANCH   6   7
ATOM      7  C   UNL     1      26.608  44.051   5.116  1.00  0.00     0.032 C 
ATOM      8  C   UNL     1      27.281  43.240   6.232  1.00  0.00     0.014 C 
BRANCH   7   9
ATOM      9  C   UNL     1      25.661  45.081   5.673  1.00  0.00     0.044 C 
ATOM     10  O   UNL     1      24.534  44.726   6.108  1.00  0.00    -0.550 OA
ATOM     11  O   UNL     1      26.034  46.419   5.761  1.00  0.00    -0.550 OA
ENDBRANCH   7   9
ENDBRANCH   6   7
ENDBRANCH   5   6
ENDBRANCH   4   5
ENDBRANCH   3   4
ENDBRANCH   2   3
ENDBRANCH   1   2
BRANCH   1  12
ATOM     12  C   UNL     1      25.648  39.959  -0.561  1.00  0.00     0.000 C 
BRANCH  12  13
ATOM     13  C   UNL     1      26.492  38.965  -1.377  1.00  0.00    -0.000 C 
BRANCH  13  14
ATOM     14  C   UNL     1      28.003  39.161  -1.166  1.00  0.00    -0.000 C 
BRANCH  14  15
ATOM     15  C   UNL     1      28.621  38.074  -0.274  1.00  0.00    -0.000 C 
BRANCH  15  16
ATOM     16  C   UNL     1      29.211  38.686   1.005  1.00  0.00    -0.000 C 
BRANCH  16  17
ATOM     17  C   UNL     1      28.176  38.828   2.136  1.00  0.00    -0.000 C 
BRANCH  17  18
ATOM     18  C   UNL     1      28.096  40.228   2.769  1.00  0.00    -0.003 C 
ATOM     19  C   UNL     1      28.494  40.242   4.244  1.00  0.00     0.004 C 
ENDBRANCH  17  18
ENDBRANCH  16  17
ENDBRANCH  15  16
ENDBRANCH  14  15
ENDBRANCH  13  14
ENDBRANCH  12  13
ENDBRANCH   1  12
TORSDOF 14
ENDMDL
MODEL 6
REMARK VINA RESULT:    -3.341      2.485      3.823
REMARK INTER + INTRA:          -8.107
REMARK INTER:                  -6.198
REMARK INTRA:                  -1.909
REMARK UNBOUND:                -2.032
REMARK SMILES CCCCCCCCCCCCCC[C@H](C)C(=O)[O-]
REMARK SMILES IDX 9 1 10 2 11 3 12 4 13 5 14 6 15 7 16 8 17 9 18 10 19 11 8 12
REMARK SMILES IDX 7 13 6 14 5 15 4 16 3 17 2 18 1 19
REMARK H PARENT
REMARK Flexibility Score: inf
ROOT
ATOM      1  C   UNL     1      27.767  43.177   4.529  1.00  0.00     0.000 C 
ENDROOT
BRANCH   1   2
ATOM      2  C   UNL     1      27.947  44.261   5.608  1.00  0.00     0.000 C 
BRANCH   2   3
ATOM      3  C   UNL     1      26.666  45.076   5.859  1.00  0.00     0.000 C 
BRANCH   3   4
ATOM      4  C   UNL     1      25.955  44.673   7.161  1.00  0.00     0.000 C 
BRANCH   4   5
ATOM      5  C   UNL     1      24.633  43.930   6.911  1.00  0.00     0.001 C 
BRANCH   5   6
ATOM      6  C   UNL     1      24.672  42.521   7.532  1.00  0.00     0.009 C 
BRANCH   6   7
ATOM      7  C   UNL     1      26.067  42.083   8.031  1.00  0.00     0.032 C 
ATOM      8  C   UNL     1      26.585  40.828   7.315  1.00  0.00     0.014 C 
BRANCH   7   9
ATOM      9  C   UNL     1      26.095  41.919   9.529  1.00  0.00     0.044 C 
ATOM     10  O   UNL     1      26.453  40.821  10.032  1.00  0.00    -0.550 OA
ATOM     11  O   UNL     1      25.780  42.982  10.368  1.00  0.00    -0.550 OA
ENDBRANCH   7   9
ENDBRANCH   6   7
ENDBRANCH   5   6
ENDBRANCH   4   5
ENDBRANCH   3   4
ENDBRANCH   2   3
ENDBRANCH   1   2
BRANCH   1  12
ATOM     12  C   UNL     1      26.467  43.274   3.709  1.00  0.00     0.000 C 
BRANCH  12  13
ATOM     13  C   UNL     1      25.537  42.066   3.913  1.00  0.00    -0.000 C 
BRANCH  13  14
ATOM     14  C   UNL     1      25.462  41.162   2.670  1.00  0.00    -0.000 C 
BRANCH  14  15
ATOM     15  C   UNL     1      26.667  40.217   2.551  1.00  0.00    -0.000 C 
BRANCH  15  16
ATOM     16  C   UNL     1      26.731  39.585   1.153  1.00  0.00    -0.000 C 
BRANCH  16  17
ATOM     17  C   UNL     1      25.487  39.890   0.298  1.00  0.00    -0.000 C 
BRANCH  17  18
ATOM     18  C   UNL     1      25.610  39.502  -1.186  1.00  0.00    -0.003 C 
ATOM     19  C   UNL     1      27.038  39.608  -1.716  1.00  0.00     0.004 C 
ENDBRANCH  17  18
ENDBRANCH  16  17
ENDBRANCH  15  16
ENDBRANCH  14  15
ENDBRANCH  13  14
ENDBRANCH  12  13
ENDBRANCH   1  12
TORSDOF 14
ENDMDL
MODEL 7
REMARK VINA RESULT:    -3.321     17.624     19.966
REMARK INTER + INTRA:          -8.071
REMARK INTER:                  -5.948
REMARK INTRA:                  -2.122
REMARK UNBOUND:                -2.032
REMARK SMILES CCCCCCCCCCCCCC[C@H](C)C(=O)[O-]
REMARK SMILES IDX 9 1 10 2 11 3 12 4 13 5 14 6 15 7 16 8 17 9 18 10 19 11 8 12
REMARK SMILES IDX 7 13 6 14 5 15 4 16 3 17 2 18 1 19
REMARK H PARENT
REMARK Flexibility Score: inf
ROOT
ATOM      1  C   UNL     1      40.864  31.670   3.799  1.00  0.00     0.000 C 
ENDROOT
BRANCH   1   2
ATOM      2  C   UNL     1      41.786  30.438   3.868  1.00  0.00     0.000 C 
BRANCH   2   3
ATOM      3  C   UNL     1      41.200  29.296   4.717  1.00  0.00     0.000 C 
BRANCH   3   4
ATOM      4  C   UNL     1      42.244  28.655   5.645  1.00  0.00     0.000 C 
BRANCH   4   5
ATOM      5  C   UNL     1      43.446  29.575   5.914  1.00  0.00     0.001 C 
BRANCH   5   6
ATOM      6  C   UNL     1      43.636  29.798   7.426  1.00  0.00     0.009 C 
BRANCH   6   7
ATOM      7  C   UNL     1      42.479  30.563   8.107  1.00  0.00     0.032 C 
ATOM      8  C   UNL     1      42.175  31.905   7.426  1.00  0.00     0.014 C 
BRANCH   7   9
ATOM      9  C   UNL     1      42.720  30.733   9.585  1.00  0.00     0.044 C 
ATOM     10  O   UNL     1      43.080  29.745  10.278  1.00  0.00    -0.550 OA
ATOM     11  O   UNL     1      42.598  31.981  10.188  1.00  0.00    -0.550 OA
ENDBRANCH   7   9
ENDBRANCH   6   7
ENDBRANCH   5   6
ENDBRANCH   4   5
ENDBRANCH   3   4
ENDBRANCH   2   3
ENDBRANCH   1   2
BRANCH   1  12
ATOM     12  C   UNL     1      41.584  33.031   3.793  1.00  0.00     0.000 C 
BRANCH  12  13
ATOM     13  C   UNL     1      43.110  32.903   3.935  1.00  0.00    -0.000 C 
BRANCH  13  14
ATOM     14  C   UNL     1      43.865  33.436   2.705  1.00  0.00    -0.000 C 
BRANCH  14  15
ATOM     15  C   UNL     1      43.886  32.432   1.543  1.00  0.00    -0.000 C 
BRANCH  15  16
ATOM     16  C   UNL     1      43.918  33.159   0.191  1.00  0.00    -0.000 C 
BRANCH  16  17
ATOM     17  C   UNL     1      42.665  32.893  -0.664  1.00  0.00    -0.000 C 
BRANCH  17  18
ATOM     18  C   UNL     1      41.341  32.854   0.120  1.00  0.00    -0.003 C 
ATOM     19  C   UNL     1      40.715  34.235   0.307  1.00  0.00     0.004 C 
ENDBRANCH  17  18
ENDBRANCH  16  17
ENDBRANCH  15  16
ENDBRANCH  14  15
ENDBRANCH  13  14
ENDBRANCH  12  13
ENDBRANCH   1  12
TORSDOF 14
ENDMDL
MODEL 8
REMARK VINA RESULT:    -3.306     17.469     19.806
REMARK INTER + INTRA:          -8.044
REMARK INTER:                  -5.844
REMARK INTRA:                  -2.199
REMARK UNBOUND:                -2.032
REMARK SMILES CCCCCCCCCCCCCC[C@H](C)C(=O)[O-]
REMARK SMILES IDX 9 1 10 2 11 3 12 4 13 5 14 6 15 7 16 8 17 9 18 10 19 11 8 12
REMARK SMILES IDX 7 13 6 14 5 15 4 16 3 17 2 18 1 19
REMARK H PARENT
REMARK Flexibility Score: inf
ROOT
ATOM      1  C   UNL     1      43.693  31.949   3.744  1.00  0.00     0.000 C 
ENDROOT
BRANCH   1   2
ATOM      2  C   UNL     1      43.910  33.338   4.372  1.00  0.00     0.000 C 
BRANCH   2   3
ATOM      3  C   UNL     1      43.121  33.536   5.679  1.00  0.00     0.000 C 
BRANCH   3   4
ATOM      4  C   UNL     1      42.806  32.209   6.386  1.00  0.00     0.000 C 
BRANCH   4   5
ATOM      5  C   UNL     1      41.323  32.074   6.765  1.00  0.00     0.001 C 
BRANCH   5   6
ATOM      6  C   UNL     1      40.845  30.620   6.593  1.00  0.00     0.009 C 
BRANCH   6   7
ATOM      7  C   UNL     1      41.701  29.779   5.621  1.00  0.00     0.032 C 
ATOM      8  C   UNL     1      40.980  29.488   4.297  1.00  0.00     0.014 C 
BRANCH   7   9
ATOM      9  C   UNL     1      42.199  28.514   6.271  1.00  0.00     0.044 C 
ATOM     10  O   UNL     1      43.435  28.340   6.437  1.00  0.00    -0.550 OA
ATOM     11  O   UNL     1      41.307  27.554   6.738  1.00  0.00    -0.550 OA
ENDBRANCH   7   9
ENDBRANCH   6   7
ENDBRANCH   5   6
ENDBRANCH   4   5
ENDBRANCH   3   4
ENDBRANCH   2   3
ENDBRANCH   1   2
BRANCH   1  12
ATOM     12  C   UNL     1      43.906  31.874   2.222  1.00  0.00     0.000 C 
BRANCH  12  13
ATOM     13  C   UNL     1      43.899  33.256   1.546  1.00  0.00    -0.000 C 
BRANCH  13  14
ATOM     14  C   UNL     1      43.841  33.164   0.012  1.00  0.00    -0.000 C 
BRANCH  14  15
ATOM     15  C   UNL     1      42.490  32.639  -0.498  1.00  0.00    -0.000 C 
BRANCH  15  16
ATOM     16  C   UNL     1      41.400  33.713  -0.365  1.00  0.00    -0.000 C 
BRANCH  16  17
ATOM     17  C   UNL     1      40.236  33.278   0.544  1.00  0.00    -0.000 C 
BRANCH  17  18
ATOM     18  C   UNL     1      40.264  33.873   1.963  1.00  0.00    -0.003 C 
ATOM     19  C   UNL     1      40.202  32.811   3.059  1.00  0.00     0.004 C 
ENDBRANCH  17  18
ENDBRANCH  16  17
ENDBRANCH  15  16
ENDBRANCH  14  15
ENDBRANCH  13  14
ENDBRANCH  12  13
ENDBRANCH   1  12
TORSDOF 14
ENDMDL
