MODEL 1
REMARK VINA RESULT:    -5.266      0.000      0.000
REMARK INTER + INTRA:          -5.420
REMARK INTER:                  -5.420
REMARK INTRA:                   0.000
REMARK UNBOUND:                 0.000
REMARK SMILES Oc1ccc2[nH]ccc2c1
REMARK SMILES IDX 3 1 4 2 5 3 9 4 8 5 7 6 6 7 10 8 2 9 1 11
REMARK H PARENT 6 10 1 12
REMARK Flexibility Score: inf
ROOT
ATOM      1  C   UNL     1     150.149 147.842 149.434  1.00  0.00     0.048 A 
ATOM      2  C   UNL     1     149.807 147.356 148.158  1.00  0.00     0.030 A 
ATOM      3  C   UNL     1     148.460 147.108 147.898  1.00  0.00     0.046 A 
ATOM      4  C   UNL     1     147.492 147.325 148.842  1.00  0.00     0.003 A 
ATOM      5  C   UNL     1     146.283 146.985 148.277  1.00  0.00     0.028 A 
ATOM      6  C   UNL     1     146.588 146.569 146.986  1.00  0.00     0.083 A 
ATOM      7  N   UNL     1     147.920 146.645 146.759  1.00  0.00    -0.361 N 
ATOM      8  C   UNL     1     147.798 147.805 150.113  1.00  0.00     0.056 A 
ATOM      9  C   UNL     1     149.153 148.067 150.410  1.00  0.00     0.116 A 
ATOM     10  H   UNL     1     148.421 146.395 145.877  1.00  0.00     0.166 HD
ENDROOT
BRANCH   9  11
ATOM     11  O   UNL     1     149.519 148.549 151.665  1.00  0.00    -0.508 OA
ATOM     12  H   UNL     1     150.265 149.224 151.775  1.00  0.00     0.293 HD
ENDBRANCH   9  11
TORSDOF 1
ENDMDL
MODEL 2
REMARK VINA RESULT:    -5.210     21.815     23.153
REMARK INTER + INTRA:          -5.362
REMARK INTER:                  -5.362
REMARK INTRA:                   0.000
REMARK UNBOUND:                 0.000
REMARK SMILES Oc1ccc2[nH]ccc2c1
REMARK SMILES IDX 3 1 4 2 5 3 9 4 8 5 7 6 6 7 10 8 2 9 1 11
REMARK H PARENT 6 10 1 12
REMARK Flexibility Score: inf
ROOT
ATOM      1  C   UNL     1     161.839 164.138 149.530  1.00  0.00     0.048 A 
ATOM      2  C   UNL     1     162.135 164.602 148.235  1.00  0.00     0.030 A 
ATOM      3  C   UNL     1     163.470 164.852 147.924  1.00  0.00     0.046 A 
ATOM      4  C   UNL     1     164.472 164.656 148.837  1.00  0.00     0.003 A 
ATOM      5  C   UNL     1     165.659 164.990 148.225  1.00  0.00     0.028 A 
ATOM      6  C   UNL     1     165.307 165.382 146.938  1.00  0.00     0.083 A 
ATOM      7  N   UNL     1     163.969 165.297 146.758  1.00  0.00    -0.361 N 
ATOM      8  C   UNL     1     164.212 164.197 150.126  1.00  0.00     0.056 A 
ATOM      9  C   UNL     1     162.870 163.934 150.475  1.00  0.00     0.116 A 
ATOM     10  H   UNL     1     163.436 165.529 145.891  1.00  0.00     0.166 HD
ENDROOT
BRANCH   9  11
ATOM     11  O   UNL     1     162.550 163.473 151.750  1.00  0.00    -0.508 OA
ATOM     12  H   UNL     1     161.770 163.855 152.270  1.00  0.00     0.293 HD
ENDBRANCH   9  11
TORSDOF 1
ENDMDL
MODEL 3
REMARK VINA RESULT:    -5.105     17.663     19.121
REMARK INTER + INTRA:          -5.254
REMARK INTER:                  -5.254
REMARK INTRA:                   0.000
REMARK UNBOUND:                 0.000
REMARK SMILES Oc1ccc2[nH]ccc2c1
REMARK SMILES IDX 3 1 4 2 5 3 9 4 8 5 7 6 6 7 10 8 2 9 1 11
REMARK H PARENT 6 10 1 12
REMARK Flexibility Score: inf
ROOT
ATOM      1  C   UNL     1     158.194 160.354 155.035  1.00  0.00     0.048 A 
ATOM      2  C   UNL     1     159.184 161.284 155.400  1.00  0.00     0.030 A 
ATOM      3  C   UNL     1     159.170 161.770 156.708  1.00  0.00     0.046 A 
ATOM      4  C   UNL     1     158.229 161.363 157.617  1.00  0.00     0.003 A 
ATOM      5  C   UNL     1     158.488 162.019 158.799  1.00  0.00     0.028 A 
ATOM      6  C   UNL     1     159.602 162.811 158.539  1.00  0.00     0.083 A 
ATOM      7  N   UNL     1     160.014 162.656 157.260  1.00  0.00    -0.361 N 
ATOM      8  C   UNL     1     157.237 160.443 157.287  1.00  0.00     0.056 A 
ATOM      9  C   UNL     1     157.222 159.931 155.971  1.00  0.00     0.116 A 
ATOM     10  H   UNL     1     160.824 163.129 156.800  1.00  0.00     0.166 HD
ENDROOT
BRANCH   9  11
ATOM     11  O   UNL     1     156.253 159.009 155.584  1.00  0.00    -0.508 OA
ATOM     12  H   UNL     1     156.012 158.218 156.169  1.00  0.00     0.293 HD
ENDBRANCH   9  11
TORSDOF 1
ENDMDL
MODEL 4
REMARK VINA RESULT:    -5.087      9.108     10.463
REMARK INTER + INTRA:          -5.236
REMARK INTER:                  -5.236
REMARK INTRA:                   0.000
REMARK UNBOUND:                 0.000
REMARK SMILES Oc1ccc2[nH]ccc2c1
REMARK SMILES IDX 3 1 4 2 5 3 9 4 8 5 7 6 6 7 10 8 2 9 1 11
REMARK H PARENT 6 10 1 12
REMARK Flexibility Score: inf
ROOT
ATOM      1  C   UNL     1     153.758 151.630 154.989  1.00  0.00     0.048 A 
ATOM      2  C   UNL     1     152.762 150.701 155.341  1.00  0.00     0.030 A 
ATOM      3  C   UNL     1     152.766 150.206 156.644  1.00  0.00     0.046 A 
ATOM      4  C   UNL     1     153.702 150.602 157.563  1.00  0.00     0.003 A 
ATOM      5  C   UNL     1     153.433 149.937 158.738  1.00  0.00     0.028 A 
ATOM      6  C   UNL     1     152.318 149.151 158.465  1.00  0.00     0.083 A 
ATOM      7  N   UNL     1     151.915 149.318 157.184  1.00  0.00    -0.361 N 
ATOM      8  C   UNL     1     154.700 151.520 157.246  1.00  0.00     0.056 A 
ATOM      9  C   UNL     1     154.725 152.042 155.935  1.00  0.00     0.116 A 
ATOM     10  H   UNL     1     151.106 148.851 156.716  1.00  0.00     0.166 HD
ENDROOT
BRANCH   9  11
ATOM     11  O   UNL     1     155.700 152.964 155.561  1.00  0.00    -0.508 OA
ATOM     12  H   UNL     1     155.757 153.320 154.614  1.00  0.00     0.293 HD
ENDBRANCH   9  11
TORSDOF 1
ENDMDL
MODEL 5
REMARK VINA RESULT:    -4.970     18.109     19.620
REMARK INTER + INTRA:          -5.115
REMARK INTER:                  -5.115
REMARK INTRA:                   0.000
REMARK UNBOUND:                 0.000
REMARK SMILES Oc1ccc2[nH]ccc2c1
REMARK SMILES IDX 3 1 4 2 5 3 9 4 8 5 7 6 6 7 10 8 2 9 1 11
REMARK H PARENT 6 10 1 12
REMARK Flexibility Score: inf
ROOT
ATOM      1  C   UNL     1     157.562 160.137 155.970  1.00  0.00     0.048 A 
ATOM      2  C   UNL     1     157.442 160.570 157.303  1.00  0.00     0.030 A 
ATOM      3  C   UNL     1     158.344 161.531 157.759  1.00  0.00     0.046 A 
ATOM      4  C   UNL     1     159.319 162.046 156.946  1.00  0.00     0.003 A 
ATOM      5  C   UNL     1     160.033 162.960 157.688  1.00  0.00     0.028 A 
ATOM      6  C   UNL     1     159.438 162.952 158.945  1.00  0.00     0.083 A 
ATOM      7  N   UNL     1     158.407 162.077 158.984  1.00  0.00    -0.361 N 
ATOM      8  C   UNL     1     159.463 161.639 155.622  1.00  0.00     0.056 A 
ATOM      9  C   UNL     1     158.566 160.666 155.129  1.00  0.00     0.116 A 
ATOM     10  H   UNL     1     157.789 161.872 159.800  1.00  0.00     0.166 HD
ENDROOT
BRANCH   9  11
ATOM     11  O   UNL     1     158.663 160.221 153.812  1.00  0.00    -0.508 OA
ATOM     12  H   UNL     1     157.840 160.076 153.241  1.00  0.00     0.293 HD
ENDBRANCH   9  11
TORSDOF 1
ENDMDL
MODEL 6
REMARK VINA RESULT:    -4.958      9.116     10.427
REMARK INTER + INTRA:          -5.103
REMARK INTER:                  -5.103
REMARK INTRA:                   0.000
REMARK UNBOUND:                 0.000
REMARK SMILES Oc1ccc2[nH]ccc2c1
REMARK SMILES IDX 3 1 4 2 5 3 9 4 8 5 7 6 6 7 10 8 2 9 1 11
REMARK H PARENT 6 10 1 12
REMARK Flexibility Score: inf
ROOT
ATOM      1  C   UNL     1     152.355 149.176 158.242  1.00  0.00     0.048 A 
ATOM      2  C   UNL     1     153.422 150.061 158.487  1.00  0.00     0.030 A 
ATOM      3  C   UNL     1     153.864 150.855 157.430  1.00  0.00     0.046 A 
ATOM      4  C   UNL     1     153.288 150.788 156.189  1.00  0.00     0.003 A 
ATOM      5  C   UNL     1     153.947 151.688 155.381  1.00  0.00     0.028 A 
ATOM      6  C   UNL     1     154.912 152.270 156.195  1.00  0.00     0.083 A 
ATOM      7  N   UNL     1     154.858 151.757 157.446  1.00  0.00    -0.361 N 
ATOM      8  C   UNL     1     152.231 149.924 155.914  1.00  0.00     0.056 A 
ATOM      9  C   UNL     1     151.759 149.105 156.962  1.00  0.00     0.116 A 
ATOM     10  H   UNL     1     155.467 152.014 158.255  1.00  0.00     0.166 HD
ENDROOT
BRANCH   9  11
ATOM     11  O   UNL     1     150.704 148.221 156.746  1.00  0.00    -0.508 OA
ATOM     12  H   UNL     1     150.865 147.275 156.423  1.00  0.00     0.293 HD
ENDBRANCH   9  11
TORSDOF 1
ENDMDL
MODEL 7
REMARK VINA RESULT:    -4.937     17.925     19.253
REMARK INTER + INTRA:          -5.081
REMARK INTER:                  -5.081
REMARK INTRA:                   0.000
REMARK UNBOUND:                 0.000
REMARK SMILES Oc1ccc2[nH]ccc2c1
REMARK SMILES IDX 3 1 4 2 5 3 9 4 8 5 7 6 6 7 10 8 2 9 1 11
REMARK H PARENT 6 10 1 12
REMARK Flexibility Score: inf
ROOT
ATOM      1  C   UNL     1     159.388 162.582 158.221  1.00  0.00     0.048 A 
ATOM      2  C   UNL     1     158.315 161.694 158.420  1.00  0.00     0.030 A 
ATOM      3  C   UNL     1     157.905 160.917 157.337  1.00  0.00     0.046 A 
ATOM      4  C   UNL     1     158.518 161.005 156.115  1.00  0.00     0.003 A 
ATOM      5  C   UNL     1     157.885 160.118 155.272  1.00  0.00     0.028 A 
ATOM      6  C   UNL     1     156.895 159.523 156.048  1.00  0.00     0.083 A 
ATOM      7  N   UNL     1     156.911 160.015 157.308  1.00  0.00    -0.361 N 
ATOM      8  C   UNL     1     159.582 161.873 155.886  1.00  0.00     0.056 A 
ATOM      9  C   UNL     1     160.023 162.675 156.962  1.00  0.00     0.116 A 
ATOM     10  H   UNL     1     156.279 159.745 158.094  1.00  0.00     0.166 HD
ENDROOT
BRANCH   9  11
ATOM     11  O   UNL     1     161.083 163.562 156.792  1.00  0.00    -0.508 OA
ATOM     12  H   UNL     1     161.124 164.440 157.295  1.00  0.00     0.293 HD
ENDBRANCH   9  11
TORSDOF 1
ENDMDL
MODEL 8
REMARK VINA RESULT:    -4.836     21.877     23.250
REMARK INTER + INTRA:          -4.977
REMARK INTER:                  -4.977
REMARK INTRA:                   0.000
REMARK UNBOUND:                 0.000
REMARK SMILES Oc1ccc2[nH]ccc2c1
REMARK SMILES IDX 3 1 4 2 5 3 9 4 8 5 7 6 6 7 10 8 2 9 1 11
REMARK H PARENT 6 10 1 12
REMARK Flexibility Score: inf
ROOT
ATOM      1  C   UNL     1     162.387 164.366 148.196  1.00  0.00     0.048 A 
ATOM      2  C   UNL     1     161.967 163.898 149.454  1.00  0.00     0.030 A 
ATOM      3  C   UNL     1     162.688 164.310 150.575  1.00  0.00     0.046 A 
ATOM      4  C   UNL     1     163.770 165.143 150.469  1.00  0.00     0.003 A 
ATOM      5  C   UNL     1     164.252 165.355 151.741  1.00  0.00     0.028 A 
ATOM      6  C   UNL     1     163.415 164.621 152.575  1.00  0.00     0.083 A 
ATOM      7  N   UNL     1     162.461 163.984 151.858  1.00  0.00    -0.361 N 
ATOM      8  C   UNL     1     164.210 165.624 149.238  1.00  0.00     0.056 A 
ATOM      9  C   UNL     1     163.503 165.226 148.083  1.00  0.00     0.116 A 
ATOM     10  H   UNL     1     161.705 163.367 152.229  1.00  0.00     0.166 HD
ENDROOT
BRANCH   9  11
ATOM     11  O   UNL     1     163.898 165.676 146.825  1.00  0.00    -0.508 OA
ATOM     12  H   UNL     1     164.606 165.191 146.288  1.00  0.00     0.293 HD
ENDBRANCH   9  11
TORSDOF 1
ENDMDL
MODEL 9
REMARK VINA RESULT:    -4.816      2.773      3.686
REMARK INTER + INTRA:          -4.957
REMARK INTER:                  -4.957
REMARK INTRA:                   0.000
REMARK UNBOUND:                 0.000
REMARK SMILES Oc1ccc2[nH]ccc2c1
REMARK SMILES IDX 3 1 4 2 5 3 9 4 8 5 7 6 6 7 10 8 2 9 1 11
REMARK H PARENT 6 10 1 12
REMARK Flexibility Score: inf
ROOT
ATOM      1  C   UNL     1     149.364 147.529 148.233  1.00  0.00     0.048 A 
ATOM      2  C   UNL     1     149.747 147.921 149.529  1.00  0.00     0.030 A 
ATOM      3  C   UNL     1     149.012 147.422 150.604  1.00  0.00     0.046 A 
ATOM      4  C   UNL     1     147.950 146.577 150.419  1.00  0.00     0.003 A 
ATOM      5  C   UNL     1     147.445 146.272 151.663  1.00  0.00     0.028 A 
ATOM      6  C   UNL     1     148.249 146.966 152.562  1.00  0.00     0.083 A 
ATOM      7  N   UNL     1     149.204 147.668 151.910  1.00  0.00    -0.361 N 
ATOM      8  C   UNL     1     147.546 146.169 149.150  1.00  0.00     0.056 A 
ATOM      9  C   UNL     1     148.269 146.656 148.039  1.00  0.00     0.116 A 
ATOM     10  H   UNL     1     149.938 148.274 152.338  1.00  0.00     0.166 HD
ENDROOT
BRANCH   9  11
ATOM     11  O   UNL     1     147.911 146.283 146.746  1.00  0.00    -0.508 OA
ATOM     12  H   UNL     1     147.890 145.311 146.463  1.00  0.00     0.293 HD
ENDBRANCH   9  11
TORSDOF 1
ENDMDL
