MODEL 1
REMARK VINA RESULT:    -4.559      0.000      0.000
REMARK INTER + INTRA:          -7.192
REMARK INTER:                  -5.626
REMARK INTRA:                  -1.567
REMARK UNBOUND:                -1.567
REMARK SMILES CC(C)=CCC[C@H](C)c1ccc(C)cc1
REMARK SMILES IDX 6 1 7 2 8 3 9 4 13 5 12 6 11 7 14 8 10 9 15 10 5 11 4 12
REMARK SMILES IDX 2 13 1 14 3 15
REMARK H PARENT
REMARK Flexibility Score: inf
ROOT
ATOM      1  C   UNL     1     127.212 145.963 106.352  1.00  0.00     0.012 C 
ENDROOT
BRANCH   1   2
ATOM      2  C   UNL     1     127.857 144.812 105.547  1.00  0.00     0.016 C 
ATOM      3  C   UNL     1     127.274 143.440 105.926  1.00  0.00     0.013 C 
BRANCH   2   4
ATOM      4  C   UNL     1     129.363 144.813 105.733  1.00  0.00    -0.045 A 
ATOM      5  C   UNL     1     133.655 144.789 106.222  1.00  0.00     0.044 C 
ATOM      6  C   UNL     1     132.161 144.796 106.082  1.00  0.00    -0.051 A 
ATOM      7  C   UNL     1     131.463 143.594 105.906  1.00  0.00     0.004 A 
ATOM      8  C   UNL     1     131.460 146.009 106.058  1.00  0.00     0.004 A 
ATOM      9  C   UNL     1     130.075 143.601 105.739  1.00  0.00     0.004 A 
ATOM     10  C   UNL     1     130.073 146.019 105.891  1.00  0.00     0.004 A 
ENDBRANCH   2   4
ENDBRANCH   1   2
BRANCH   1  11
ATOM     11  C   UNL     1     126.922 145.577 107.809  1.00  0.00     0.028 C 
BRANCH  11  12
ATOM     12  C   UNL     1     127.990 146.121 108.727  1.00  0.00    -0.028 C 
ATOM     13  C   UNL     1     128.907 145.360 109.366  1.00  0.00    -0.080 C 
ATOM     14  C   UNL     1     129.938 146.049 110.222  1.00  0.00     0.039 C 
ATOM     15  C   UNL     1     128.912 143.853 109.262  1.00  0.00     0.039 C 
ENDBRANCH  11  12
ENDBRANCH   1  11
TORSDOF 4
ENDMDL
MODEL 2
REMARK VINA RESULT:    -4.485      1.989      3.139
REMARK INTER + INTRA:          -7.100
REMARK INTER:                  -5.614
REMARK INTRA:                  -1.486
REMARK UNBOUND:                -1.567
REMARK SMILES CC(C)=CCC[C@H](C)c1ccc(C)cc1
REMARK SMILES IDX 6 1 7 2 8 3 9 4 13 5 12 6 11 7 14 8 10 9 15 10 5 11 4 12
REMARK SMILES IDX 2 13 1 14 3 15
REMARK H PARENT
REMARK Flexibility Score: inf
ROOT
ATOM      1  C   UNL     1     126.973 145.980 107.163  1.00  0.00     0.012 C 
ENDROOT
BRANCH   1   2
ATOM      2  C   UNL     1     127.719 145.503 105.895  1.00  0.00     0.016 C 
ATOM      3  C   UNL     1     126.875 145.683 104.622  1.00  0.00     0.013 C 
BRANCH   2   4
ATOM      4  C   UNL     1     128.144 144.053 106.044  1.00  0.00    -0.045 A 
ATOM      5  C   UNL     1     129.393 139.944 106.500  1.00  0.00     0.044 C 
ATOM      6  C   UNL     1     128.951 141.365 106.314  1.00  0.00    -0.051 A 
ATOM      7  C   UNL     1     129.865 142.339 105.891  1.00  0.00     0.004 A 
ATOM      8  C   UNL     1     127.638 141.743 106.626  1.00  0.00     0.004 A 
ATOM      9  C   UNL     1     129.465 143.671 105.752  1.00  0.00     0.004 A 
ATOM     10  C   UNL     1     127.235 143.074 106.487  1.00  0.00     0.004 A 
ENDBRANCH   2   4
ENDBRANCH   1   2
BRANCH   1  11
ATOM     11  C   UNL     1     127.904 146.135 108.374  1.00  0.00     0.028 C 
BRANCH  11  12
ATOM     12  C   UNL     1     127.456 145.246 109.508  1.00  0.00    -0.028 C 
ATOM     13  C   UNL     1     128.188 144.231 110.017  1.00  0.00    -0.080 C 
ATOM     14  C   UNL     1     127.625 143.452 111.178  1.00  0.00     0.039 C 
ATOM     15  C   UNL     1     129.533 143.846 109.446  1.00  0.00     0.039 C 
ENDBRANCH  11  12
ENDBRANCH   1  11
TORSDOF 4
ENDMDL
MODEL 3
REMARK VINA RESULT:    -4.481      1.609      3.368
REMARK INTER + INTRA:          -7.095
REMARK INTER:                  -5.538
REMARK INTRA:                  -1.558
REMARK UNBOUND:                -1.567
REMARK SMILES CC(C)=CCC[C@H](C)c1ccc(C)cc1
REMARK SMILES IDX 6 1 7 2 8 3 9 4 13 5 12 6 11 7 14 8 10 9 15 10 5 11 4 12
REMARK SMILES IDX 2 13 1 14 3 15
REMARK H PARENT
REMARK Flexibility Score: inf
ROOT
ATOM      1  C   UNL     1     127.240 143.612 106.721  1.00  0.00     0.012 C 
ENDROOT
BRANCH   1   2
ATOM      2  C   UNL     1     127.562 145.104 106.478  1.00  0.00     0.016 C 
ATOM      3  C   UNL     1     127.242 145.541 105.039  1.00  0.00     0.013 C 
BRANCH   2   4
ATOM      4  C   UNL     1     129.017 145.392 106.804  1.00  0.00    -0.045 A 
ATOM      5  C   UNL     1     133.148 146.261 107.715  1.00  0.00     0.044 C 
ATOM      6  C   UNL     1     131.721 145.932 107.391  1.00  0.00    -0.051 A 
ATOM      7  C   UNL     1     131.201 146.221 106.122  1.00  0.00     0.004 A 
ATOM      8  C   UNL     1     130.879 145.395 108.373  1.00  0.00     0.004 A 
ATOM      9  C   UNL     1     129.862 145.949 105.828  1.00  0.00     0.004 A 
ATOM     10  C   UNL     1     129.540 145.122 108.083  1.00  0.00     0.004 A 
ENDBRANCH   2   4
ENDBRANCH   1   2
BRANCH   1  11
ATOM     11  C   UNL     1     127.951 142.683 105.726  1.00  0.00     0.028 C 
BRANCH  11  12
ATOM     12  C   UNL     1     128.910 141.766 106.445  1.00  0.00    -0.028 C 
ATOM     13  C   UNL     1     130.246 141.747 106.240  1.00  0.00    -0.080 C 
ATOM     14  C   UNL     1     131.084 140.802 107.062  1.00  0.00     0.039 C 
ATOM     15  C   UNL     1     130.912 142.625 105.206  1.00  0.00     0.039 C 
ENDBRANCH  11  12
ENDBRANCH   1  11
TORSDOF 4
ENDMDL
MODEL 4
REMARK VINA RESULT:    -4.400      1.720      4.611
REMARK INTER + INTRA:          -6.995
REMARK INTER:                  -5.543
REMARK INTRA:                  -1.453
REMARK UNBOUND:                -1.567
REMARK SMILES CC(C)=CCC[C@H](C)c1ccc(C)cc1
REMARK SMILES IDX 6 1 7 2 8 3 9 4 13 5 12 6 11 7 14 8 10 9 15 10 5 11 4 12
REMARK SMILES IDX 2 13 1 14 3 15
REMARK H PARENT
REMARK Flexibility Score: inf
ROOT
ATOM      1  C   UNL     1     127.230 145.274 105.544  1.00  0.00     0.012 C 
ENDROOT
BRANCH   1   2
ATOM      2  C   UNL     1     128.346 145.939 106.384  1.00  0.00     0.016 C 
ATOM      3  C   UNL     1     129.749 145.611 105.849  1.00  0.00     0.013 C 
BRANCH   2   4
ATOM      4  C   UNL     1     128.228 145.527 107.840  1.00  0.00    -0.045 A 
ATOM      5  C   UNL     1     127.849 144.327 111.972  1.00  0.00     0.044 C 
ATOM      6  C   UNL     1     127.990 144.770 110.546  1.00  0.00    -0.051 A 
ATOM      7  C   UNL     1     126.898 145.332 109.870  1.00  0.00     0.004 A 
ATOM      8  C   UNL     1     129.194 144.565 109.859  1.00  0.00     0.004 A 
ATOM      9  C   UNL     1     127.017 145.712 108.530  1.00  0.00     0.004 A 
ATOM     10  C   UNL     1     129.315 144.945 108.519  1.00  0.00     0.004 A 
ENDBRANCH   2   4
ENDBRANCH   1   2
BRANCH   1  11
ATOM     11  C   UNL     1     127.642 143.902 104.992  1.00  0.00     0.028 C 
BRANCH  11  12
ATOM     12  C   UNL     1     127.279 142.806 105.964  1.00  0.00    -0.028 C 
ATOM     13  C   UNL     1     128.169 141.957 106.525  1.00  0.00    -0.080 C 
ATOM     14  C   UNL     1     127.663 140.936 107.510  1.00  0.00     0.039 C 
ATOM     15  C   UNL     1     129.639 141.993 106.179  1.00  0.00     0.039 C 
ENDBRANCH  11  12
ENDBRANCH   1  11
TORSDOF 4
ENDMDL
MODEL 5
REMARK VINA RESULT:    -4.376      1.552      3.216
REMARK INTER + INTRA:          -6.966
REMARK INTER:                  -5.881
REMARK INTRA:                  -1.085
REMARK UNBOUND:                -1.567
REMARK SMILES CC(C)=CCC[C@H](C)c1ccc(C)cc1
REMARK SMILES IDX 6 1 7 2 8 3 9 4 13 5 12 6 11 7 14 8 10 9 15 10 5 11 4 12
REMARK SMILES IDX 2 13 1 14 3 15
REMARK H PARENT
REMARK Flexibility Score: inf
ROOT
ATOM      1  C   UNL     1     127.380 145.055 105.443  1.00  0.00     0.012 C 
ENDROOT
BRANCH   1   2
ATOM      2  C   UNL     1     127.735 145.170 106.943  1.00  0.00     0.016 C 
ATOM      3  C   UNL     1     126.894 146.240 107.659  1.00  0.00     0.013 C 
BRANCH   2   4
ATOM      4  C   UNL     1     129.215 145.462 107.116  1.00  0.00    -0.045 A 
ATOM      5  C   UNL     1     133.418 146.340 107.585  1.00  0.00     0.044 C 
ATOM      6  C   UNL     1     131.965 146.006 107.417  1.00  0.00    -0.051 A 
ATOM      7  C   UNL     1     131.344 146.167 106.170  1.00  0.00     0.004 A 
ATOM      8  C   UNL     1     131.202 145.597 108.518  1.00  0.00     0.004 A 
ATOM      9  C   UNL     1     129.982 145.892 106.019  1.00  0.00     0.004 A 
ATOM     10  C   UNL     1     129.839 145.322 108.370  1.00  0.00     0.004 A 
ENDBRANCH   2   4
ENDBRANCH   1   2
BRANCH   1  11
ATOM     11  C   UNL     1     127.595 143.639 104.890  1.00  0.00     0.028 C 
BRANCH  11  12
ATOM     12  C   UNL     1     127.366 142.606 105.966  1.00  0.00    -0.028 C 
ATOM     13  C   UNL     1     128.343 141.860 106.528  1.00  0.00    -0.080 C 
ATOM     14  C   UNL     1     127.967 140.894 107.622  1.00  0.00     0.039 C 
ATOM     15  C   UNL     1     129.783 141.954 106.081  1.00  0.00     0.039 C 
ENDBRANCH  11  12
ENDBRANCH   1  11
TORSDOF 4
ENDMDL
MODEL 6
REMARK VINA RESULT:    -4.283      1.995      3.835
REMARK INTER + INTRA:          -6.851
REMARK INTER:                  -5.379
REMARK INTRA:                  -1.472
REMARK UNBOUND:                -1.567
REMARK SMILES CC(C)=CCC[C@H](C)c1ccc(C)cc1
REMARK SMILES IDX 6 1 7 2 8 3 9 4 13 5 12 6 11 7 14 8 10 9 15 10 5 11 4 12
REMARK SMILES IDX 2 13 1 14 3 15
REMARK H PARENT
REMARK Flexibility Score: inf
ROOT
ATOM      1  C   UNL     1     127.654 143.754 105.031  1.00  0.00     0.012 C 
ENDROOT
BRANCH   1   2
ATOM      2  C   UNL     1     127.030 144.919 105.834  1.00  0.00     0.016 C 
ATOM      3  C   UNL     1     126.875 146.192 104.986  1.00  0.00     0.013 C 
BRANCH   2   4
ATOM      4  C   UNL     1     127.856 145.210 107.074  1.00  0.00    -0.045 A 
ATOM      5  C   UNL     1     130.229 146.077 110.577  1.00  0.00     0.044 C 
ATOM      6  C   UNL     1     129.408 145.747 109.366  1.00  0.00    -0.051 A 
ATOM      7  C   UNL     1     130.019 145.620 108.111  1.00  0.00     0.004 A 
ATOM      8  C   UNL     1     128.015 145.630 109.468  1.00  0.00     0.004 A 
ATOM      9  C   UNL     1     129.252 145.348 106.975  1.00  0.00     0.004 A 
ATOM     10  C   UNL     1     127.245 145.358 108.333  1.00  0.00     0.004 A 
ENDBRANCH   2   4
ENDBRANCH   1   2
BRANCH   1  11
ATOM     11  C   UNL     1     127.522 142.403 105.748  1.00  0.00     0.028 C 
BRANCH  11  12
ATOM     12  C   UNL     1     128.876 141.887 106.166  1.00  0.00    -0.028 C 
ATOM     13  C   UNL     1     129.228 141.613 107.442  1.00  0.00    -0.080 C 
ATOM     14  C   UNL     1     130.607 141.065 107.704  1.00  0.00     0.039 C 
ATOM     15  C   UNL     1     128.292 141.857 108.602  1.00  0.00     0.039 C 
ENDBRANCH  11  12
ENDBRANCH   1  11
TORSDOF 4
ENDMDL
MODEL 7
REMARK VINA RESULT:    -4.207      1.895      3.732
REMARK INTER + INTRA:          -6.758
REMARK INTER:                  -5.169
REMARK INTRA:                  -1.588
REMARK UNBOUND:                -1.567
REMARK SMILES CC(C)=CCC[C@H](C)c1ccc(C)cc1
REMARK SMILES IDX 6 1 7 2 8 3 9 4 13 5 12 6 11 7 14 8 10 9 15 10 5 11 4 12
REMARK SMILES IDX 2 13 1 14 3 15
REMARK H PARENT
REMARK Flexibility Score: inf
ROOT
ATOM      1  C   UNL     1     129.426 145.595 106.228  1.00  0.00     0.012 C 
ENDROOT
BRANCH   1   2
ATOM      2  C   UNL     1     128.397 144.881 105.321  1.00  0.00     0.016 C 
ATOM      3  C   UNL     1     127.017 145.558 105.362  1.00  0.00     0.013 C 
BRANCH   2   4
ATOM      4  C   UNL     1     128.276 143.418 105.707  1.00  0.00    -0.045 A 
ATOM      5  C   UNL     1     127.896 139.248 106.770  1.00  0.00     0.044 C 
ATOM      6  C   UNL     1     128.032 140.703 106.430  1.00  0.00    -0.051 A 
ATOM      7  C   UNL     1     126.894 141.515 106.335  1.00  0.00     0.004 A 
ATOM      8  C   UNL     1     129.291 141.246 106.138  1.00  0.00     0.004 A 
ATOM      9  C   UNL     1     127.014 142.863 105.983  1.00  0.00     0.004 A 
ATOM     10  C   UNL     1     129.414 142.592 105.785  1.00  0.00     0.004 A 
ENDBRANCH   2   4
ENDBRANCH   1   2
BRANCH   1  11
ATOM     11  C   UNL     1     128.969 145.677 107.691  1.00  0.00     0.028 C 
BRANCH  11  12
ATOM     12  C   UNL     1     129.863 144.844 108.576  1.00  0.00    -0.028 C 
ATOM     13  C   UNL     1     129.436 143.811 109.336  1.00  0.00    -0.080 C 
ATOM     14  C   UNL     1     130.454 143.045 110.141  1.00  0.00     0.039 C 
ATOM     15  C   UNL     1     127.979 143.422 109.415  1.00  0.00     0.039 C 
ENDBRANCH  11  12
ENDBRANCH   1  11
TORSDOF 4
ENDMDL
MODEL 8
REMARK VINA RESULT:    -4.184      1.902      4.504
REMARK INTER + INTRA:          -6.729
REMARK INTER:                  -5.243
REMARK INTRA:                  -1.486
REMARK UNBOUND:                -1.567
REMARK SMILES CC(C)=CCC[C@H](C)c1ccc(C)cc1
REMARK SMILES IDX 6 1 7 2 8 3 9 4 13 5 12 6 11 7 14 8 10 9 15 10 5 11 4 12
REMARK SMILES IDX 2 13 1 14 3 15
REMARK H PARENT
REMARK Flexibility Score: inf
ROOT
ATOM      1  C   UNL     1     128.248 145.632 105.753  1.00  0.00     0.012 C 
ENDROOT
BRANCH   1   2
ATOM      2  C   UNL     1     127.196 145.140 106.773  1.00  0.00     0.016 C 
ATOM      3  C   UNL     1     127.253 145.926 108.093  1.00  0.00     0.013 C 
BRANCH   2   4
ATOM      4  C   UNL     1     127.369 143.654 107.037  1.00  0.00    -0.045 A 
ATOM      5  C   UNL     1     127.829 139.433 107.828  1.00  0.00     0.044 C 
ATOM      6  C   UNL     1     127.698 140.901 107.546  1.00  0.00    -0.051 A 
ATOM      7  C   UNL     1     127.865 141.836 108.576  1.00  0.00     0.004 A 
ATOM      8  C   UNL     1     127.341 141.344 106.265  1.00  0.00     0.004 A 
ATOM      9  C   UNL     1     127.708 143.202 108.324  1.00  0.00     0.004 A 
ATOM     10  C   UNL     1     127.183 142.710 106.010  1.00  0.00     0.004 A 
ENDBRANCH   2   4
ENDBRANCH   1   2
BRANCH   1  11
ATOM     11  C   UNL     1     129.681 145.566 106.302  1.00  0.00     0.028 C 
BRANCH  11  12
ATOM     12  C   UNL     1     130.396 144.344 105.779  1.00  0.00    -0.028 C 
ATOM     13  C   UNL     1     131.065 143.462 106.554  1.00  0.00    -0.080 C 
ATOM     14  C   UNL     1     131.699 142.264 105.894  1.00  0.00     0.039 C 
ATOM     15  C   UNL     1     131.211 143.654 108.046  1.00  0.00     0.039 C 
ENDBRANCH  11  12
ENDBRANCH   1  11
TORSDOF 4
ENDMDL
MODEL 9
REMARK VINA RESULT:    -4.173      2.086      3.722
REMARK INTER + INTRA:          -6.716
REMARK INTER:                  -5.959
REMARK INTRA:                  -0.756
REMARK UNBOUND:                -1.567
REMARK SMILES CC(C)=CCC[C@H](C)c1ccc(C)cc1
REMARK SMILES IDX 6 1 7 2 8 3 9 4 13 5 12 6 11 7 14 8 10 9 15 10 5 11 4 12
REMARK SMILES IDX 2 13 1 14 3 15
REMARK H PARENT
REMARK Flexibility Score: inf
ROOT
ATOM      1  C   UNL     1     127.567 143.110 105.503  1.00  0.00     0.012 C 
ENDROOT
BRANCH   1   2
ATOM      2  C   UNL     1     128.002 144.502 106.018  1.00  0.00     0.016 C 
ATOM      3  C   UNL     1     127.340 145.645 105.232  1.00  0.00     0.013 C 
BRANCH   2   4
ATOM      4  C   UNL     1     129.514 144.636 105.968  1.00  0.00    -0.045 A 
ATOM      5  C   UNL     1     133.814 144.993 105.779  1.00  0.00     0.044 C 
ATOM      6  C   UNL     1     132.323 144.864 105.874  1.00  0.00    -0.051 A 
ATOM      7  C   UNL     1     131.707 143.622 105.668  1.00  0.00     0.004 A 
ATOM      8  C   UNL     1     131.529 145.996 106.103  1.00  0.00     0.004 A 
ATOM      9  C   UNL     1     130.315 143.507 105.720  1.00  0.00     0.004 A 
ATOM     10  C   UNL     1     130.137 145.884 106.156  1.00  0.00     0.004 A 
ENDBRANCH   2   4
ENDBRANCH   1   2
BRANCH   1  11
ATOM     11  C   UNL     1     127.168 142.157 106.638  1.00  0.00     0.028 C 
BRANCH  11  12
ATOM     12  C   UNL     1     127.087 140.736 106.137  1.00  0.00    -0.028 C 
ATOM     13  C   UNL     1     128.067 139.817 106.285  1.00  0.00    -0.080 C 
ATOM     14  C   UNL     1     127.827 138.422 105.766  1.00  0.00     0.039 C 
ATOM     15  C   UNL     1     129.390 140.152 106.934  1.00  0.00     0.039 C 
ENDBRANCH  11  12
ENDBRANCH   1  11
TORSDOF 4
ENDMDL
