MODEL 1
REMARK VINA RESULT:    -3.226      0.000      0.000
REMARK INTER + INTRA:          -5.833
REMARK INTER:                  -4.923
REMARK INTRA:                  -0.910
REMARK UNBOUND:                -0.910
REMARK SMILES O=C([O-])CCCCCCCCC(=O)[O-]
REMARK SMILES IDX 7 1 6 2 5 3 4 4 2 5 1 6 3 7 8 8 9 9 10 10 11 11 12 12 13 13
REMARK SMILES IDX 14 14
REMARK H PARENT
REMARK Flexibility Score: inf
ROOT
ATOM      1  C   UNL     1      18.240  -8.054   4.262  1.00  0.00     0.000 C 
ENDROOT
BRANCH   1   2
ATOM      2  C   UNL     1      19.125  -6.846   4.606  1.00  0.00     0.000 C 
BRANCH   2   3
ATOM      3  C   UNL     1      20.022  -7.095   5.827  1.00  0.00     0.006 C 
BRANCH   3   4
ATOM      4  C   UNL     1      19.579  -8.349   6.587  1.00  0.00     0.053 C 
BRANCH   4   5
ATOM      5  C   UNL     1      19.391  -8.044   8.039  1.00  0.00     0.041 C 
ATOM      6  O   UNL     1      19.731  -8.886   8.912  1.00  0.00    -0.550 OA
ATOM      7  O   UNL     1      18.886  -6.812   8.432  1.00  0.00    -0.550 OA
ENDBRANCH   4   5
ENDBRANCH   3   4
ENDBRANCH   2   3
ENDBRANCH   1   2
BRANCH   1   8
ATOM      8  C   UNL     1      16.752  -7.681   4.136  1.00  0.00     0.000 C 
BRANCH   8   9
ATOM      9  C   UNL     1      16.273  -6.775   5.281  1.00  0.00     0.000 C 
BRANCH   9  10
ATOM     10  C   UNL     1      15.987  -7.555   6.576  1.00  0.00     0.006 C 
BRANCH  10  11
ATOM     11  C   UNL     1      15.133  -8.804   6.323  1.00  0.00     0.053 C 
BRANCH  11  12
ATOM     12  C   UNL     1      13.671  -8.516   6.472  1.00  0.00     0.041 C 
ATOM     13  O   UNL     1      13.106  -8.663   7.587  1.00  0.00    -0.550 OA
ATOM     14  O   UNL     1      12.940  -8.050   5.387  1.00  0.00    -0.550 OA
ENDBRANCH  11  12
ENDBRANCH  10  11
ENDBRANCH   9  10
ENDBRANCH   8   9
ENDBRANCH   1   8
TORSDOF 9
ENDMDL
MODEL 2
REMARK VINA RESULT:    -3.106      0.845      5.582
REMARK INTER + INTRA:          -5.651
REMARK INTER:                  -5.001
REMARK INTRA:                  -0.649
REMARK UNBOUND:                -0.910
REMARK SMILES O=C([O-])CCCCCCCCC(=O)[O-]
REMARK SMILES IDX 7 1 6 2 5 3 4 4 2 5 1 6 3 7 8 8 9 9 10 10 11 11 12 12 13 13
REMARK SMILES IDX 14 14
REMARK H PARENT
REMARK Flexibility Score: inf
ROOT
ATOM      1  C   UNL     1      16.736  -7.051   5.429  1.00  0.00     0.000 C 
ENDROOT
BRANCH   1   2
ATOM      2  C   UNL     1      15.835  -7.461   6.605  1.00  0.00     0.000 C 
BRANCH   2   3
ATOM      3  C   UNL     1      15.015  -8.727   6.312  1.00  0.00     0.006 C 
BRANCH   3   4
ATOM      4  C   UNL     1      13.664  -8.683   7.032  1.00  0.00     0.053 C 
BRANCH   4   5
ATOM      5  C   UNL     1      12.587  -8.226   6.100  1.00  0.00     0.041 C 
ATOM      6  O   UNL     1      12.883  -7.791   4.955  1.00  0.00    -0.550 OA
ATOM      7  O   UNL     1      11.254  -8.324   6.475  1.00  0.00    -0.550 OA
ENDBRANCH   4   5
ENDBRANCH   3   4
ENDBRANCH   2   3
ENDBRANCH   1   2
BRANCH   1   8
ATOM      8  C   UNL     1      17.639  -8.201   4.948  1.00  0.00     0.000 C 
BRANCH   8   9
ATOM      9  C   UNL     1      19.073  -7.738   4.649  1.00  0.00     0.000 C 
BRANCH   9  10
ATOM     10  C   UNL     1      19.942  -7.635   5.915  1.00  0.00     0.006 C 
BRANCH  10  11
ATOM     11  C   UNL     1      19.658  -8.772   6.905  1.00  0.00     0.053 C 
BRANCH  11  12
ATOM     12  C   UNL     1      19.377  -8.252   8.280  1.00  0.00     0.041 C 
ATOM     13  O   UNL     1      19.660  -8.945   9.292  1.00  0.00    -0.550 OA
ATOM     14  O   UNL     1      18.834  -6.984   8.446  1.00  0.00    -0.550 OA
ENDBRANCH  11  12
ENDBRANCH  10  11
ENDBRANCH   9  10
ENDBRANCH   8   9
ENDBRANCH   1   8
TORSDOF 9
ENDMDL
MODEL 3
REMARK VINA RESULT:    -3.073      4.703      6.763
REMARK INTER + INTRA:          -5.600
REMARK INTER:                  -5.295
REMARK INTRA:                  -0.305
REMARK UNBOUND:                -0.910
REMARK SMILES O=C([O-])CCCCCCCCC(=O)[O-]
REMARK SMILES IDX 7 1 6 2 5 3 4 4 2 5 1 6 3 7 8 8 9 9 10 10 11 11 12 12 13 13
REMARK SMILES IDX 14 14
REMARK H PARENT
REMARK Flexibility Score: inf
ROOT
ATOM      1  C   UNL     1      11.000  -7.836   5.690  1.00  0.00     0.000 C 
ENDROOT
BRANCH   1   2
ATOM      2  C   UNL     1      12.160  -8.379   6.539  1.00  0.00     0.000 C 
BRANCH   2   3
ATOM      3  C   UNL     1      13.510  -8.315   5.809  1.00  0.00     0.006 C 
BRANCH   3   4
ATOM      4  C   UNL     1      14.673  -8.488   6.791  1.00  0.00     0.053 C 
BRANCH   4   5
ATOM      5  C   UNL     1      15.729  -7.460   6.539  1.00  0.00     0.041 C 
ATOM      6  O   UNL     1      15.886  -6.982   5.385  1.00  0.00    -0.550 OA
ATOM      7  O   UNL     1      16.510  -6.992   7.589  1.00  0.00    -0.550 OA
ENDBRANCH   4   5
ENDBRANCH   3   4
ENDBRANCH   2   3
ENDBRANCH   1   2
BRANCH   1   8
ATOM      8  C   UNL     1       9.895  -8.883   5.461  1.00  0.00     0.000 C 
BRANCH   8   9
ATOM      9  C   UNL     1       9.215  -9.319   6.769  1.00  0.00     0.000 C 
BRANCH   9  10
ATOM     10  C   UNL     1       7.924  -8.533   7.059  1.00  0.00     0.006 C 
BRANCH  10  11
ATOM     11  C   UNL     1       7.365  -7.856   5.802  1.00  0.00     0.053 C 
BRANCH  11  12
ATOM     12  C   UNL     1       6.218  -6.949   6.125  1.00  0.00     0.041 C 
ATOM     13  O   UNL     1       6.237  -6.249   7.171  1.00  0.00    -0.550 OA
ATOM     14  O   UNL     1       5.142  -6.850   5.251  1.00  0.00    -0.550 OA
ENDBRANCH  11  12
ENDBRANCH  10  11
ENDBRANCH   9  10
ENDBRANCH   8   9
ENDBRANCH   1   8
TORSDOF 9
ENDMDL
MODEL 4
REMARK VINA RESULT:    -3.062      4.379      8.688
REMARK INTER + INTRA:          -5.584
REMARK INTER:                  -5.193
REMARK INTRA:                  -0.391
REMARK UNBOUND:                -0.910
REMARK SMILES O=C([O-])CCCCCCCCC(=O)[O-]
REMARK SMILES IDX 7 1 6 2 5 3 4 4 2 5 1 6 3 7 8 8 9 9 10 10 11 11 12 12 13 13
REMARK SMILES IDX 14 14
REMARK H PARENT
REMARK Flexibility Score: inf
ROOT
ATOM      1  C   UNL     1      10.257  -8.324   5.249  1.00  0.00     0.000 C 
ENDROOT
BRANCH   1   2
ATOM      2  C   UNL     1       9.676  -8.982   6.510  1.00  0.00     0.000 C 
BRANCH   2   3
ATOM      3  C   UNL     1       8.190  -9.343   6.361  1.00  0.00     0.006 C 
BRANCH   3   4
ATOM      4  C   UNL     1       7.317  -8.436   7.234  1.00  0.00     0.053 C 
BRANCH   4   5
ATOM      5  C   UNL     1       6.702  -7.349   6.410  1.00  0.00     0.041 C 
ATOM      6  O   UNL     1       6.286  -6.295   6.960  1.00  0.00    -0.550 OA
ATOM      7  O   UNL     1       6.633  -7.477   5.029  1.00  0.00    -0.550 OA
ENDBRANCH   4   5
ENDBRANCH   3   4
ENDBRANCH   2   3
ENDBRANCH   1   2
BRANCH   1   8
ATOM      8  C   UNL     1      11.524  -7.500   5.542  1.00  0.00     0.000 C 
BRANCH   8   9
ATOM      9  C   UNL     1      12.813  -8.314   5.346  1.00  0.00     0.000 C 
BRANCH   9  10
ATOM     10  C   UNL     1      13.590  -8.522   6.658  1.00  0.00     0.006 C 
BRANCH  10  11
ATOM     11  C   UNL     1      15.089  -8.737   6.415  1.00  0.00     0.053 C 
BRANCH  11  12
ATOM     12  C   UNL     1      15.839  -7.441   6.396  1.00  0.00     0.041 C 
ATOM     13  O   UNL     1      16.331  -6.976   7.458  1.00  0.00    -0.550 OA
ATOM     14  O   UNL     1      16.025  -6.763   5.198  1.00  0.00    -0.550 OA
ENDBRANCH  11  12
ENDBRANCH  10  11
ENDBRANCH   9  10
ENDBRANCH   8   9
ENDBRANCH   1   8
TORSDOF 9
ENDMDL
MODEL 5
REMARK VINA RESULT:    -3.000      1.262      2.000
REMARK INTER + INTRA:          -5.489
REMARK INTER:                  -4.841
REMARK INTRA:                  -0.648
REMARK UNBOUND:                -0.910
REMARK SMILES O=C([O-])CCCCCCCCC(=O)[O-]
REMARK SMILES IDX 7 1 6 2 5 3 4 4 2 5 1 6 3 7 8 8 9 9 10 10 11 11 12 12 13 13
REMARK SMILES IDX 14 14
REMARK H PARENT
REMARK Flexibility Score: inf
ROOT
ATOM      1  C   UNL     1      17.216  -7.581   4.861  1.00  0.00     0.000 C 
ENDROOT
BRANCH   1   2
ATOM      2  C   UNL     1      17.603  -8.954   5.433  1.00  0.00     0.000 C 
BRANCH   2   3
ATOM      3  C   UNL     1      19.058  -9.005   5.922  1.00  0.00     0.006 C 
BRANCH   3   4
ATOM      4  C   UNL     1      19.465  -7.679   6.571  1.00  0.00     0.053 C 
BRANCH   4   5
ATOM      5  C   UNL     1      19.238  -7.727   8.049  1.00  0.00     0.041 C 
ATOM      6  O   UNL     1      19.725  -8.665   8.734  1.00  0.00    -0.550 OA
ATOM      7  O   UNL     1      18.531  -6.711   8.678  1.00  0.00    -0.550 OA
ENDBRANCH   4   5
ENDBRANCH   3   4
ENDBRANCH   2   3
ENDBRANCH   1   2
BRANCH   1   8
ATOM      8  C   UNL     1      15.967  -6.989   5.538  1.00  0.00     0.000 C 
BRANCH   8   9
ATOM      9  C   UNL     1      15.357  -7.939   6.582  1.00  0.00     0.000 C 
BRANCH   9  10
ATOM     10  C   UNL     1      14.150  -8.724   6.038  1.00  0.00     0.006 C 
BRANCH  10  11
ATOM     11  C   UNL     1      13.403  -7.951   4.943  1.00  0.00     0.053 C 
BRANCH  11  12
ATOM     12  C   UNL     1      11.962  -7.748   5.292  1.00  0.00     0.041 C 
ATOM     13  O   UNL     1      11.186  -7.179   4.481  1.00  0.00    -0.550 OA
ATOM     14  O   UNL     1      11.466  -8.219   6.501  1.00  0.00    -0.550 OA
ENDBRANCH  11  12
ENDBRANCH  10  11
ENDBRANCH   9  10
ENDBRANCH   8   9
ENDBRANCH   1   8
TORSDOF 9
ENDMDL
MODEL 6
REMARK VINA RESULT:    -2.987      3.465      7.957
REMARK INTER + INTRA:          -5.470
REMARK INTER:                  -5.184
REMARK INTRA:                  -0.285
REMARK UNBOUND:                -0.910
REMARK SMILES O=C([O-])CCCCCCCCC(=O)[O-]
REMARK SMILES IDX 7 1 6 2 5 3 4 4 2 5 1 6 3 7 8 8 9 9 10 10 11 11 12 12 13 13
REMARK SMILES IDX 14 14
REMARK H PARENT
REMARK Flexibility Score: inf
ROOT
ATOM      1  C   UNL     1      11.740  -8.234   6.445  1.00  0.00     0.000 C 
ENDROOT
BRANCH   1   2
ATOM      2  C   UNL     1      10.609  -7.889   5.463  1.00  0.00     0.000 C 
BRANCH   2   3
ATOM      3  C   UNL     1       9.482  -8.933   5.465  1.00  0.00     0.006 C 
BRANCH   3   4
ATOM      4  C   UNL     1       9.271  -9.509   6.869  1.00  0.00     0.053 C 
BRANCH   4   5
ATOM      5  C   UNL     1       7.969  -9.044   7.437  1.00  0.00     0.041 C 
ATOM      6  O   UNL     1       7.344  -8.094   6.895  1.00  0.00    -0.550 OA
ATOM      7  O   UNL     1       7.419  -9.689   8.537  1.00  0.00    -0.550 OA
ENDBRANCH   4   5
ENDBRANCH   3   4
ENDBRANCH   2   3
ENDBRANCH   1   2
BRANCH   1   8
ATOM      8  C   UNL     1      13.125  -8.238   5.774  1.00  0.00     0.000 C 
BRANCH   8   9
ATOM      9  C   UNL     1      14.259  -8.548   6.765  1.00  0.00     0.000 C 
BRANCH   9  10
ATOM     10  C   UNL     1      15.642  -8.127   6.237  1.00  0.00     0.006 C 
BRANCH  10  11
ATOM     11  C   UNL     1      16.327  -7.108   7.157  1.00  0.00     0.053 C 
BRANCH  11  12
ATOM     12  C   UNL     1      17.789  -7.394   7.308  1.00  0.00     0.041 C 
ATOM     13  O   UNL     1      18.411  -7.002   8.330  1.00  0.00    -0.550 OA
ATOM     14  O   UNL     1      18.459  -8.124   6.335  1.00  0.00    -0.550 OA
ENDBRANCH  11  12
ENDBRANCH  10  11
ENDBRANCH   9  10
ENDBRANCH   8   9
ENDBRANCH   1   8
TORSDOF 9
ENDMDL
MODEL 7
REMARK VINA RESULT:    -2.945      2.364      6.190
REMARK INTER + INTRA:          -5.405
REMARK INTER:                  -4.895
REMARK INTRA:                  -0.510
REMARK UNBOUND:                -0.910
REMARK SMILES O=C([O-])CCCCCCCCC(=O)[O-]
REMARK SMILES IDX 7 1 6 2 5 3 4 4 2 5 1 6 3 7 8 8 9 9 10 10 11 11 12 12 13 13
REMARK SMILES IDX 14 14
REMARK H PARENT
REMARK Flexibility Score: inf
ROOT
ATOM      1  C   UNL     1      17.586  -7.309   7.314  1.00  0.00     0.000 C 
ENDROOT
BRANCH   1   2
ATOM      2  C   UNL     1      17.031  -7.827   5.978  1.00  0.00     0.000 C 
BRANCH   2   3
ATOM      3  C   UNL     1      15.652  -7.240   5.641  1.00  0.00     0.006 C 
BRANCH   3   4
ATOM      4  C   UNL     1      14.638  -8.352   5.356  1.00  0.00     0.053 C 
BRANCH   4   5
ATOM      5  C   UNL     1      13.569  -8.368   6.401  1.00  0.00     0.041 C 
ATOM      6  O   UNL     1      13.852  -8.660   7.593  1.00  0.00    -0.550 OA
ATOM      7  O   UNL     1      12.267  -8.014   6.070  1.00  0.00    -0.550 OA
ENDBRANCH   4   5
ENDBRANCH   3   4
ENDBRANCH   2   3
ENDBRANCH   1   2
BRANCH   1   8
ATOM      8  C   UNL     1      19.110  -7.490   7.430  1.00  0.00     0.000 C 
BRANCH   8   9
ATOM      9  C   UNL     1      19.656  -8.542   6.452  1.00  0.00     0.000 C 
BRANCH   9  10
ATOM     10  C   UNL     1      20.748  -7.982   5.524  1.00  0.00     0.006 C 
BRANCH  10  11
ATOM     11  C   UNL     1      20.306  -6.691   4.823  1.00  0.00     0.053 C 
BRANCH  11  12
ATOM     12  C   UNL     1      21.456  -5.757   4.605  1.00  0.00     0.041 C 
ATOM     13  O   UNL     1      22.640  -6.181   4.672  1.00  0.00    -0.550 OA
ATOM     14  O   UNL     1      21.219  -4.425   4.293  1.00  0.00    -0.550 OA
ENDBRANCH  11  12
ENDBRANCH  10  11
ENDBRANCH   9  10
ENDBRANCH   8   9
ENDBRANCH   1   8
TORSDOF 9
ENDMDL
MODEL 8
REMARK VINA RESULT:    -2.919      4.851      7.324
REMARK INTER + INTRA:          -5.365
REMARK INTER:                  -4.958
REMARK INTRA:                  -0.408
REMARK UNBOUND:                -0.910
REMARK SMILES O=C([O-])CCCCCCCCC(=O)[O-]
REMARK SMILES IDX 7 1 6 2 5 3 4 4 2 5 1 6 3 7 8 8 9 9 10 10 11 11 12 12 13 13
REMARK SMILES IDX 14 14
REMARK H PARENT
REMARK Flexibility Score: inf
ROOT
ATOM      1  C   UNL     1      10.780  -8.557   6.178  1.00  0.00     0.000 C 
ENDROOT
BRANCH   1   2
ATOM      2  C   UNL     1      11.139  -7.615   5.018  1.00  0.00     0.000 C 
BRANCH   2   3
ATOM      3  C   UNL     1      12.644  -7.599   4.710  1.00  0.00     0.006 C 
BRANCH   3   4
ATOM      4  C   UNL     1      13.342  -8.815   5.326  1.00  0.00     0.053 C 
BRANCH   4   5
ATOM      5  C   UNL     1      14.331  -8.384   6.361  1.00  0.00     0.041 C 
ATOM      6  O   UNL     1      14.086  -8.562   7.584  1.00  0.00    -0.550 OA
ATOM      7  O   UNL     1      15.544  -7.829   5.977  1.00  0.00    -0.550 OA
ENDBRANCH   4   5
ENDBRANCH   3   4
ENDBRANCH   2   3
ENDBRANCH   1   2
BRANCH   1   8
ATOM      8  C   UNL     1       9.433  -9.271   5.963  1.00  0.00     0.000 C 
BRANCH   8   9
ATOM      9  C   UNL     1       8.701  -9.558   7.284  1.00  0.00     0.000 C 
BRANCH   9  10
ATOM     10  C   UNL     1       7.388  -8.767   7.420  1.00  0.00     0.006 C 
BRANCH  10  11
ATOM     11  C   UNL     1       6.704  -8.545   6.065  1.00  0.00     0.053 C 
BRANCH  11  12
ATOM     12  C   UNL     1       6.215  -7.138   5.916  1.00  0.00     0.041 C 
ATOM     13  O   UNL     1       5.728  -6.747   4.823  1.00  0.00    -0.550 OA
ATOM     14  O   UNL     1       6.264  -6.266   6.996  1.00  0.00    -0.550 OA
ENDBRANCH  11  12
ENDBRANCH  10  11
ENDBRANCH   9  10
ENDBRANCH   8   9
ENDBRANCH   1   8
TORSDOF 9
ENDMDL
MODEL 9
REMARK VINA RESULT:    -2.897      2.016      2.973
REMARK INTER + INTRA:          -5.331
REMARK INTER:                  -4.833
REMARK INTRA:                  -0.499
REMARK UNBOUND:                -0.910
REMARK SMILES O=C([O-])CCCCCCCCC(=O)[O-]
REMARK SMILES IDX 7 1 6 2 5 3 4 4 2 5 1 6 3 7 8 8 9 9 10 10 11 11 12 12 13 13
REMARK SMILES IDX 14 14
REMARK H PARENT
REMARK Flexibility Score: inf
ROOT
ATOM      1  C   UNL     1      15.207  -7.894   6.887  1.00  0.00     0.000 C 
ENDROOT
BRANCH   1   2
ATOM      2  C   UNL     1      16.296  -7.352   5.949  1.00  0.00     0.000 C 
BRANCH   2   3
ATOM      3  C   UNL     1      17.500  -8.298   5.828  1.00  0.00     0.006 C 
BRANCH   3   4
ATOM      4  C   UNL     1      18.803  -7.576   6.188  1.00  0.00     0.053 C 
BRANCH   4   5
ATOM      5  C   UNL     1      19.131  -7.777   7.633  1.00  0.00     0.041 C 
ATOM      6  O   UNL     1      19.768  -8.798   8.002  1.00  0.00    -0.550 OA
ATOM      7  O   UNL     1      18.776  -6.812   8.568  1.00  0.00    -0.550 OA
ENDBRANCH   4   5
ENDBRANCH   3   4
ENDBRANCH   2   3
ENDBRANCH   1   2
BRANCH   1   8
ATOM      8  C   UNL     1      14.107  -8.663   6.133  1.00  0.00     0.000 C 
BRANCH   8   9
ATOM      9  C   UNL     1      13.707  -7.979   4.816  1.00  0.00     0.000 C 
BRANCH   9  10
ATOM     10  C   UNL     1      12.220  -7.587   4.776  1.00  0.00     0.006 C 
BRANCH  10  11
ATOM     11  C   UNL     1      11.495  -7.933   6.084  1.00  0.00     0.053 C 
BRANCH  11  12
ATOM     12  C   UNL     1      10.361  -8.882   5.854  1.00  0.00     0.041 C 
ATOM     13  O   UNL     1       9.479  -9.045   6.738  1.00  0.00    -0.550 OA
ATOM     14  O   UNL     1      10.257  -9.563   4.647  1.00  0.00    -0.550 OA
ENDBRANCH  11  12
ENDBRANCH  10  11
ENDBRANCH   9  10
ENDBRANCH   8   9
ENDBRANCH   1   8
TORSDOF 9
ENDMDL
