MODEL 1
REMARK VINA RESULT:    -3.917      0.000      0.000
REMARK INTER + INTRA:          -6.749
REMARK INTER:                  -6.207
REMARK INTRA:                  -0.542
REMARK UNBOUND:                -0.542
REMARK SMILES CCCCCCCCCCCC(=O)[O-]
REMARK SMILES IDX 7 1 8 2 9 3 10 4 11 5 12 6 13 7 14 8 6 9 5 10 4 11 3 12 2 13
REMARK SMILES IDX 1 14
REMARK H PARENT
REMARK Flexibility Score: inf
ROOT
ATOM      1  C   UNL     1     121.912 112.303 106.391  1.00  0.00     0.000 C 
ENDROOT
BRANCH   1   2
ATOM      2  C   UNL     1     121.768 113.476 105.408  1.00  0.00     0.000 C 
BRANCH   2   3
ATOM      3  C   UNL     1     120.502 114.309 105.657  1.00  0.00     0.000 C 
BRANCH   3   4
ATOM      4  C   UNL     1     120.841 115.804 105.763  1.00  0.00     0.006 C 
BRANCH   4   5
ATOM      5  C   UNL     1     121.114 116.435 104.391  1.00  0.00     0.053 C 
BRANCH   5   6
ATOM      6  C   UNL     1     120.462 117.777 104.258  1.00  0.00     0.041 C 
ATOM      7  O   UNL     1     119.218 117.863 104.077  1.00  0.00    -0.550 OA
ATOM      8  O   UNL     1     121.232 118.932 104.299  1.00  0.00    -0.550 OA
ENDBRANCH   5   6
ENDBRANCH   4   5
ENDBRANCH   3   4
ENDBRANCH   2   3
ENDBRANCH   1   2
BRANCH   1   9
ATOM      9  C   UNL     1     120.694 112.156 107.319  1.00  0.00     0.000 C 
BRANCH   9  10
ATOM     10  C   UNL     1     120.303 110.686 107.542  1.00  0.00    -0.000 C 
BRANCH  10  11
ATOM     11  C   UNL     1     121.527 109.765 107.683  1.00  0.00    -0.000 C 
BRANCH  11  12
ATOM     12  C   UNL     1     121.313 108.402 106.991  1.00  0.00    -0.000 C 
BRANCH  12  13
ATOM     13  C   UNL     1     119.869 108.177 106.511  1.00  0.00    -0.003 C 
ATOM     14  C   UNL     1     119.698 106.892 105.704  1.00  0.00     0.004 C 
ENDBRANCH  12  13
ENDBRANCH  11  12
ENDBRANCH  10  11
ENDBRANCH   9  10
ENDBRANCH   1   9
TORSDOF 10
ENDMDL
MODEL 2
REMARK VINA RESULT:    -3.903      2.303      3.699
REMARK INTER + INTRA:          -6.726
REMARK INTER:                  -5.808
REMARK INTRA:                  -0.918
REMARK UNBOUND:                -0.542
REMARK SMILES CCCCCCCCCCCC(=O)[O-]
REMARK SMILES IDX 7 1 8 2 9 3 10 4 11 5 12 6 13 7 14 8 6 9 5 10 4 11 3 12 2 13
REMARK SMILES IDX 1 14
REMARK H PARENT
REMARK Flexibility Score: inf
ROOT
ATOM      1  C   UNL     1     122.400 109.953 107.394  1.00  0.00     0.000 C 
ENDROOT
BRANCH   1   2
ATOM      2  C   UNL     1     122.677 111.219 106.567  1.00  0.00     0.000 C 
BRANCH   2   3
ATOM      3  C   UNL     1     122.365 112.511 107.336  1.00  0.00     0.000 C 
BRANCH   3   4
ATOM      4  C   UNL     1     120.937 112.994 107.041  1.00  0.00     0.006 C 
BRANCH   4   5
ATOM      5  C   UNL     1     120.829 113.685 105.676  1.00  0.00     0.053 C 
BRANCH   5   6
ATOM      6  C   UNL     1     120.729 115.174 105.813  1.00  0.00     0.041 C 
ATOM      7  O   UNL     1     121.743 115.851 106.126  1.00  0.00    -0.550 OA
ATOM      8  O   UNL     1     119.508 115.810 105.627  1.00  0.00    -0.550 OA
ENDBRANCH   5   6
ENDBRANCH   4   5
ENDBRANCH   3   4
ENDBRANCH   2   3
ENDBRANCH   1   2
BRANCH   1   9
ATOM      9  C   UNL     1     121.192 109.156 106.870  1.00  0.00     0.000 C 
BRANCH   9  10
ATOM     10  C   UNL     1     119.926 109.395 107.710  1.00  0.00    -0.000 C 
BRANCH  10  11
ATOM     11  C   UNL     1     120.248 109.770 109.167  1.00  0.00    -0.000 C 
BRANCH  11  12
ATOM     12  C   UNL     1     119.093 110.546 109.836  1.00  0.00    -0.000 C 
BRANCH  12  13
ATOM     13  C   UNL     1     119.016 110.341 111.359  1.00  0.00    -0.003 C 
ATOM     14  C   UNL     1     120.355 109.945 111.979  1.00  0.00     0.004 C 
ENDBRANCH  12  13
ENDBRANCH  11  12
ENDBRANCH  10  11
ENDBRANCH   9  10
ENDBRANCH   1   9
TORSDOF 10
ENDMDL
MODEL 3
REMARK VINA RESULT:    -3.895      1.762      2.510
REMARK INTER + INTRA:          -6.713
REMARK INTER:                  -6.016
REMARK INTRA:                  -0.697
REMARK UNBOUND:                -0.542
REMARK SMILES CCCCCCCCCCCC(=O)[O-]
REMARK SMILES IDX 7 1 8 2 9 3 10 4 11 5 12 6 13 7 14 8 6 9 5 10 4 11 3 12 2 13
REMARK SMILES IDX 1 14
REMARK H PARENT
REMARK Flexibility Score: inf
ROOT
ATOM      1  C   UNL     1     121.415 112.778 108.208  1.00  0.00     0.000 C 
ENDROOT
BRANCH   1   2
ATOM      2  C   UNL     1     121.650 113.999 107.304  1.00  0.00     0.000 C 
BRANCH   2   3
ATOM      3  C   UNL     1     121.306 113.725 105.833  1.00  0.00     0.000 C 
BRANCH   3   4
ATOM      4  C   UNL     1     121.327 115.025 105.013  1.00  0.00     0.006 C 
BRANCH   4   5
ATOM      5  C   UNL     1     120.176 115.967 105.390  1.00  0.00     0.053 C 
BRANCH   5   6
ATOM      6  C   UNL     1     120.226 117.245 104.609  1.00  0.00     0.041 C 
ATOM      7  O   UNL     1     119.159 117.818 104.262  1.00  0.00    -0.550 OA
ATOM      8  O   UNL     1     121.450 117.785 104.235  1.00  0.00    -0.550 OA
ENDBRANCH   5   6
ENDBRANCH   4   5
ENDBRANCH   3   4
ENDBRANCH   2   3
ENDBRANCH   1   2
BRANCH   1   9
ATOM      9  C   UNL     1     120.308 111.851 107.673  1.00  0.00     0.000 C 
BRANCH   9  10
ATOM     10  C   UNL     1     120.793 110.402 107.502  1.00  0.00    -0.000 C 
BRANCH  10  11
ATOM     11  C   UNL     1     120.137 109.438 108.507  1.00  0.00    -0.000 C 
BRANCH  11  12
ATOM     12  C   UNL     1     121.009 109.226 109.763  1.00  0.00    -0.000 C 
BRANCH  12  13
ATOM     13  C   UNL     1     120.415 109.852 111.036  1.00  0.00    -0.003 C 
ATOM     14  C   UNL     1     118.958 110.279 110.871  1.00  0.00     0.004 C 
ENDBRANCH  12  13
ENDBRANCH  11  12
ENDBRANCH  10  11
ENDBRANCH   9  10
ENDBRANCH   1   9
TORSDOF 10
ENDMDL
MODEL 4
REMARK VINA RESULT:    -3.894      5.274      7.404
REMARK INTER + INTRA:          -6.713
REMARK INTER:                  -6.039
REMARK INTRA:                  -0.674
REMARK UNBOUND:                -0.542
REMARK SMILES CCCCCCCCCCCC(=O)[O-]
REMARK SMILES IDX 7 1 8 2 9 3 10 4 11 5 12 6 13 7 14 8 6 9 5 10 4 11 3 12 2 13
REMARK SMILES IDX 1 14
REMARK H PARENT
REMARK Flexibility Score: inf
ROOT
ATOM      1  C   UNL     1     120.079 111.064 107.807  1.00  0.00     0.000 C 
ENDROOT
BRANCH   1   2
ATOM      2  C   UNL     1     121.609 111.123 107.675  1.00  0.00     0.000 C 
BRANCH   2   3
ATOM      3  C   UNL     1     122.179 109.968 106.838  1.00  0.00     0.000 C 
BRANCH   3   4
ATOM      4  C   UNL     1     121.550 108.628 107.254  1.00  0.00     0.006 C 
BRANCH   4   5
ATOM      5  C   UNL     1     121.392 107.669 106.067  1.00  0.00     0.053 C 
BRANCH   5   6
ATOM      6  C   UNL     1     119.960 107.287 105.849  1.00  0.00     0.041 C 
ATOM      7  O   UNL     1     119.667 106.341 105.071  1.00  0.00    -0.550 OA
ATOM      8  O   UNL     1     118.946 107.998 106.480  1.00  0.00    -0.550 OA
ENDBRANCH   5   6
ENDBRANCH   4   5
ENDBRANCH   3   4
ENDBRANCH   2   3
ENDBRANCH   1   2
BRANCH   1   9
ATOM      9  C   UNL     1     119.600 111.315 109.248  1.00  0.00     0.000 C 
BRANCH   9  10
ATOM     10  C   UNL     1     119.282 110.008 109.994  1.00  0.00    -0.000 C 
BRANCH  10  11
ATOM     11  C   UNL     1     119.092 110.223 111.506  1.00  0.00    -0.000 C 
BRANCH  11  12
ATOM     12  C   UNL     1     120.217 111.086 112.116  1.00  0.00    -0.000 C 
BRANCH  12  13
ATOM     13  C   UNL     1     121.043 110.352 113.185  1.00  0.00    -0.003 C 
ATOM     14  C   UNL     1     121.076 111.083 114.525  1.00  0.00     0.004 C 
ENDBRANCH  12  13
ENDBRANCH  11  12
ENDBRANCH  10  11
ENDBRANCH   9  10
ENDBRANCH   1   9
TORSDOF 10
ENDMDL
MODEL 5
REMARK VINA RESULT:    -3.886      8.219     10.094
REMARK INTER + INTRA:          -6.699
REMARK INTER:                  -6.127
REMARK INTRA:                  -0.572
REMARK UNBOUND:                -0.542
REMARK SMILES CCCCCCCCCCCC(=O)[O-]
REMARK SMILES IDX 7 1 8 2 9 3 10 4 11 5 12 6 13 7 14 8 6 9 5 10 4 11 3 12 2 13
REMARK SMILES IDX 1 14
REMARK H PARENT
REMARK Flexibility Score: inf
ROOT
ATOM      1  C   UNL     1     122.100 111.511 115.360  1.00  0.00     0.000 C 
ENDROOT
BRANCH   1   2
ATOM      2  C   UNL     1     122.019 110.809 113.995  1.00  0.00     0.000 C 
BRANCH   2   3
ATOM      3  C   UNL     1     120.695 111.082 113.265  1.00  0.00     0.000 C 
BRANCH   3   4
ATOM      4  C   UNL     1     120.363 109.943 112.289  1.00  0.00     0.006 C 
BRANCH   4   5
ATOM      5  C   UNL     1     119.117 110.246 111.446  1.00  0.00     0.053 C 
BRANCH   5   6
ATOM      6  C   UNL     1     119.477 110.645 110.047  1.00  0.00     0.041 C 
ATOM      7  O   UNL     1     119.583 111.863 109.742  1.00  0.00    -0.550 OA
ATOM      8  O   UNL     1     119.663 109.673 109.072  1.00  0.00    -0.550 OA
ENDBRANCH   5   6
ENDBRANCH   4   5
ENDBRANCH   3   4
ENDBRANCH   2   3
ENDBRANCH   1   2
BRANCH   1   9
ATOM      9  C   UNL     1     120.717 111.905 115.907  1.00  0.00     0.000 C 
BRANCH   9  10
ATOM     10  C   UNL     1     120.541 111.514 117.384  1.00  0.00    -0.000 C 
BRANCH  10  11
ATOM     11  C   UNL     1     119.096 111.710 117.877  1.00  0.00    -0.000 C 
BRANCH  11  12
ATOM     12  C   UNL     1     118.783 113.188 118.191  1.00  0.00    -0.000 C 
BRANCH  12  13
ATOM     13  C   UNL     1     117.642 113.769 117.339  1.00  0.00    -0.003 C 
ATOM     14  C   UNL     1     118.138 114.531 116.111  1.00  0.00     0.004 C 
ENDBRANCH  12  13
ENDBRANCH  11  12
ENDBRANCH  10  11
ENDBRANCH   9  10
ENDBRANCH   1   9
TORSDOF 10
ENDMDL
MODEL 6
REMARK VINA RESULT:    -3.840      5.317      7.088
REMARK INTER + INTRA:          -6.627
REMARK INTER:                  -5.067
REMARK INTRA:                  -1.560
REMARK UNBOUND:                -0.542
REMARK SMILES CCCCCCCCCCCC(=O)[O-]
REMARK SMILES IDX 7 1 8 2 9 3 10 4 11 5 12 6 13 7 14 8 6 9 5 10 4 11 3 12 2 13
REMARK SMILES IDX 1 14
REMARK H PARENT
REMARK Flexibility Score: inf
ROOT
ATOM      1  C   UNL     1     122.332 111.220 107.651  1.00  0.00     0.000 C 
ENDROOT
BRANCH   1   2
ATOM      2  C   UNL     1     122.608 109.999 106.758  1.00  0.00     0.000 C 
BRANCH   2   3
ATOM      3  C   UNL     1     122.839 108.713 107.566  1.00  0.00     0.000 C 
BRANCH   3   4
ATOM      4  C   UNL     1     121.528 107.933 107.742  1.00  0.00     0.006 C 
BRANCH   4   5
ATOM      5  C   UNL     1     120.572 108.129 106.558  1.00  0.00     0.053 C 
BRANCH   5   6
ATOM      6  C   UNL     1     120.560 106.936 105.651  1.00  0.00     0.041 C 
ATOM      7  O   UNL     1     119.500 106.274 105.489  1.00  0.00    -0.550 OA
ATOM      8  O   UNL     1     121.726 106.535 105.012  1.00  0.00    -0.550 OA
ENDBRANCH   5   6
ENDBRANCH   4   5
ENDBRANCH   3   4
ENDBRANCH   2   3
ENDBRANCH   1   2
BRANCH   1   9
ATOM      9  C   UNL     1     121.111 112.031 107.184  1.00  0.00     0.000 C 
BRANCH   9  10
ATOM     10  C   UNL     1     119.800 111.526 107.810  1.00  0.00    -0.000 C 
BRANCH  10  11
ATOM     11  C   UNL     1     119.847 111.516 109.348  1.00  0.00    -0.000 C 
BRANCH  11  12
ATOM     12  C   UNL     1     119.496 110.131 109.932  1.00  0.00    -0.000 C 
BRANCH  12  13
ATOM     13  C   UNL     1     120.401 109.711 111.102  1.00  0.00    -0.003 C 
ATOM     14  C   UNL     1     121.743 110.441 111.115  1.00  0.00     0.004 C 
ENDBRANCH  12  13
ENDBRANCH  11  12
ENDBRANCH  10  11
ENDBRANCH   9  10
ENDBRANCH   1   9
TORSDOF 10
ENDMDL
MODEL 7
REMARK VINA RESULT:    -3.839      7.181      9.051
REMARK INTER + INTRA:          -6.626
REMARK INTER:                  -5.780
REMARK INTRA:                  -0.846
REMARK UNBOUND:                -0.542
REMARK SMILES CCCCCCCCCCCC(=O)[O-]
REMARK SMILES IDX 7 1 8 2 9 3 10 4 11 5 12 6 13 7 14 8 6 9 5 10 4 11 3 12 2 13
REMARK SMILES IDX 1 14
REMARK H PARENT
REMARK Flexibility Score: inf
ROOT
ATOM      1  C   UNL     1     120.162 112.507 112.990  1.00  0.00     0.000 C 
ENDROOT
BRANCH   1   2
ATOM      2  C   UNL     1     120.728 111.149 113.437  1.00  0.00     0.000 C 
BRANCH   2   3
ATOM      3  C   UNL     1     120.376 110.010 112.469  1.00  0.00     0.000 C 
BRANCH   3   4
ATOM      4  C   UNL     1     119.278 110.446 111.486  1.00  0.00     0.006 C 
BRANCH   4   5
ATOM      5  C   UNL     1     119.569 109.988 110.051  1.00  0.00     0.053 C 
BRANCH   5   6
ATOM      6  C   UNL     1     120.043 111.120 109.192  1.00  0.00     0.041 C 
ATOM      7  O   UNL     1     119.632 111.232 108.006  1.00  0.00    -0.550 OA
ATOM      8  O   UNL     1     120.963 112.034 109.689  1.00  0.00    -0.550 OA
ENDBRANCH   5   6
ENDBRANCH   4   5
ENDBRANCH   3   4
ENDBRANCH   2   3
ENDBRANCH   1   2
BRANCH   1   9
ATOM      9  C   UNL     1     120.494 113.640 113.977  1.00  0.00     0.000 C 
BRANCH   9  10
ATOM     10  C   UNL     1     119.259 114.481 114.337  1.00  0.00    -0.000 C 
BRANCH  10  11
ATOM     11  C   UNL     1     118.856 114.333 115.815  1.00  0.00    -0.000 C 
BRANCH  11  12
ATOM     12  C   UNL     1     119.910 113.555 116.630  1.00  0.00    -0.000 C 
BRANCH  12  13
ATOM     13  C   UNL     1     119.306 112.473 117.541  1.00  0.00    -0.003 C 
ATOM     14  C   UNL     1     120.009 111.123 117.416  1.00  0.00     0.004 C 
ENDBRANCH  12  13
ENDBRANCH  11  12
ENDBRANCH  10  11
ENDBRANCH   9  10
ENDBRANCH   1   9
TORSDOF 10
ENDMDL
MODEL 8
REMARK VINA RESULT:    -3.787      4.879      7.286
REMARK INTER + INTRA:          -6.543
REMARK INTER:                  -5.845
REMARK INTRA:                  -0.698
REMARK UNBOUND:                -0.542
REMARK SMILES CCCCCCCCCCCC(=O)[O-]
REMARK SMILES IDX 7 1 8 2 9 3 10 4 11 5 12 6 13 7 14 8 6 9 5 10 4 11 3 12 2 13
REMARK SMILES IDX 1 14
REMARK H PARENT
REMARK Flexibility Score: inf
ROOT
ATOM      1  C   UNL     1     120.285 109.630 109.625  1.00  0.00     0.000 C 
ENDROOT
BRANCH   1   2
ATOM      2  C   UNL     1     119.053 110.358 110.187  1.00  0.00     0.000 C 
BRANCH   2   3
ATOM      3  C   UNL     1     119.002 110.340 111.722  1.00  0.00     0.000 C 
BRANCH   3   4
ATOM      4  C   UNL     1     120.378 109.996 112.313  1.00  0.00     0.006 C 
BRANCH   4   5
ATOM      5  C   UNL     1     120.797 110.976 113.417  1.00  0.00     0.053 C 
BRANCH   5   6
ATOM      6  C   UNL     1     120.710 112.400 112.957  1.00  0.00     0.041 C 
ATOM      7  O   UNL     1     121.447 112.810 112.022  1.00  0.00    -0.550 OA
ATOM      8  O   UNL     1     119.840 113.282 113.585  1.00  0.00    -0.550 OA
ENDBRANCH   5   6
ENDBRANCH   4   5
ENDBRANCH   3   4
ENDBRANCH   2   3
ENDBRANCH   1   2
BRANCH   1   9
ATOM      9  C   UNL     1     120.135 109.278 108.134  1.00  0.00     0.000 C 
BRANCH   9  10
ATOM     10  C   UNL     1     120.212 110.520 107.230  1.00  0.00    -0.000 C 
BRANCH  10  11
ATOM     11  C   UNL     1     121.492 111.342 107.466  1.00  0.00    -0.000 C 
BRANCH  11  12
ATOM     12  C   UNL     1     121.236 112.860 107.355  1.00  0.00    -0.000 C 
BRANCH  12  13
ATOM     13  C   UNL     1     121.323 113.394 105.915  1.00  0.00    -0.003 C 
ATOM     14  C   UNL     1     120.421 114.601 105.668  1.00  0.00     0.004 C 
ENDBRANCH  12  13
ENDBRANCH  11  12
ENDBRANCH  10  11
ENDBRANCH   9  10
ENDBRANCH   1   9
TORSDOF 10
ENDMDL
MODEL 9
REMARK VINA RESULT:    -3.784      7.314      9.218
REMARK INTER + INTRA:          -6.538
REMARK INTER:                  -6.013
REMARK INTRA:                  -0.525
REMARK UNBOUND:                -0.542
REMARK SMILES CCCCCCCCCCCC(=O)[O-]
REMARK SMILES IDX 7 1 8 2 9 3 10 4 11 5 12 6 13 7 14 8 6 9 5 10 4 11 3 12 2 13
REMARK SMILES IDX 1 14
REMARK H PARENT
REMARK Flexibility Score: inf
ROOT
ATOM      1  C   UNL     1     121.078 110.501 113.311  1.00  0.00     0.000 C 
ENDROOT
BRANCH   1   2
ATOM      2  C   UNL     1     120.081 111.238 112.402  1.00  0.00     0.000 C 
BRANCH   2   3
ATOM      3  C   UNL     1     119.070 110.291 111.739  1.00  0.00     0.000 C 
BRANCH   3   4
ATOM      4  C   UNL     1     119.141 110.397 110.208  1.00  0.00     0.006 C 
BRANCH   4   5
ATOM      5  C   UNL     1     120.244 109.511 109.615  1.00  0.00     0.053 C 
BRANCH   5   6
ATOM      6  C   UNL     1     120.592 109.918 108.216  1.00  0.00     0.041 C 
ATOM      7  O   UNL     1     121.562 109.378 107.621  1.00  0.00    -0.550 OA
ATOM      8  O   UNL     1     119.866 110.917 107.581  1.00  0.00    -0.550 OA
ENDBRANCH   5   6
ENDBRANCH   4   5
ENDBRANCH   3   4
ENDBRANCH   2   3
ENDBRANCH   1   2
BRANCH   1   9
ATOM      9  C   UNL     1     121.241 111.179 114.683  1.00  0.00     0.000 C 
BRANCH   9  10
ATOM     10  C   UNL     1     120.583 112.568 114.729  1.00  0.00    -0.000 C 
BRANCH  10  11
ATOM     11  C   UNL     1     120.472 113.120 116.161  1.00  0.00    -0.000 C 
BRANCH  11  12
ATOM     12  C   UNL     1     119.942 112.063 117.153  1.00  0.00    -0.000 C 
BRANCH  12  13
ATOM     13  C   UNL     1     118.789 112.571 118.035  1.00  0.00    -0.003 C 
ATOM     14  C   UNL     1     118.031 113.743 117.415  1.00  0.00     0.004 C 
ENDBRANCH  12  13
ENDBRANCH  11  12
ENDBRANCH  10  11
ENDBRANCH   9  10
ENDBRANCH   1   9
TORSDOF 10
ENDMDL
