MODEL 1
REMARK VINA RESULT:    -3.401      0.000      0.000
REMARK INTER + INTRA:          -4.028
REMARK INTER:                  -3.998
REMARK INTRA:                  -0.030
REMARK UNBOUND:                -0.030
REMARK SMILES O=C([O-])CCC(=O)[O-]
REMARK SMILES IDX 4 1 2 2 1 3 3 4 5 5 6 6 7 7 8 8
REMARK H PARENT
REMARK Flexibility Score: inf
ROOT
ATOM      1  C   UNL     1      -0.635   4.193  -8.861  1.00  0.00     0.059 C 
ENDROOT
BRANCH   1   2
ATOM      2  C   UNL     1      -1.196   5.490  -8.374  1.00  0.00     0.042 C 
ATOM      3  O   UNL     1      -0.427   6.437  -8.063  1.00  0.00    -0.550 OA
ATOM      4  O   UNL     1      -2.572   5.672  -8.310  1.00  0.00    -0.550 OA
ENDBRANCH   1   2
BRANCH   1   5
ATOM      5  C   UNL     1      -1.118   3.036  -7.985  1.00  0.00     0.059 C 
BRANCH   5   6
ATOM      6  C   UNL     1      -0.046   2.002  -7.844  1.00  0.00     0.042 C 
ATOM      7  O   UNL     1       0.606   1.623  -8.852  1.00  0.00    -0.550 OA
ATOM      8  O   UNL     1       0.268   1.494  -6.589  1.00  0.00    -0.550 OA
ENDBRANCH   5   6
ENDBRANCH   1   5
TORSDOF 3
ENDMDL
MODEL 2
REMARK VINA RESULT:    -3.397      0.124      4.169
REMARK INTER + INTRA:          -4.023
REMARK INTER:                  -3.994
REMARK INTRA:                  -0.029
REMARK UNBOUND:                -0.030
REMARK SMILES O=C([O-])CCC(=O)[O-]
REMARK SMILES IDX 4 1 2 2 1 3 3 4 5 5 6 6 7 7 8 8
REMARK H PARENT
REMARK Flexibility Score: inf
ROOT
ATOM      1  C   UNL     1      -1.188   3.021  -8.066  1.00  0.00     0.059 C 
ENDROOT
BRANCH   1   2
ATOM      2  C   UNL     1      -0.063   2.066  -7.826  1.00  0.00     0.042 C 
ATOM      3  O   UNL     1       0.187   1.661  -6.659  1.00  0.00    -0.550 OA
ATOM      4  O   UNL     1       0.679   1.583  -8.896  1.00  0.00    -0.550 OA
ENDBRANCH   1   2
BRANCH   1   5
ATOM      5  C   UNL     1      -0.708   4.221  -8.883  1.00  0.00     0.059 C 
BRANCH   5   6
ATOM      6  C   UNL     1      -1.305   5.487  -8.355  1.00  0.00     0.042 C 
ATOM      7  O   UNL     1      -0.560   6.426  -7.970  1.00  0.00    -0.550 OA
ATOM      8  O   UNL     1      -2.684   5.649  -8.335  1.00  0.00    -0.550 OA
ENDBRANCH   5   6
ENDBRANCH   1   5
TORSDOF 3
ENDMDL
MODEL 3
REMARK VINA RESULT:    -3.373      1.580      4.081
REMARK INTER + INTRA:          -3.995
REMARK INTER:                  -3.884
REMARK INTRA:                  -0.111
REMARK UNBOUND:                -0.030
REMARK SMILES O=C([O-])CCC(=O)[O-]
REMARK SMILES IDX 4 1 2 2 1 3 3 4 5 5 6 6 7 7 8 8
REMARK H PARENT
REMARK Flexibility Score: inf
ROOT
ATOM      1  C   UNL     1      -0.842   2.920  -7.870  1.00  0.00     0.059 C 
ENDROOT
BRANCH   1   2
ATOM      2  C   UNL     1       0.022   2.162  -8.825  1.00  0.00     0.042 C 
ATOM      3  O   UNL     1       0.571   1.086  -8.467  1.00  0.00    -0.550 OA
ATOM      4  O   UNL     1       0.184   2.616 -10.128  1.00  0.00    -0.550 OA
ENDBRANCH   1   2
BRANCH   1   5
ATOM      5  C   UNL     1      -1.322   4.228  -8.502  1.00  0.00     0.059 C 
BRANCH   5   6
ATOM      6  C   UNL     1      -2.797   4.184  -8.744  1.00  0.00     0.042 C 
ATOM      7  O   UNL     1      -3.514   5.183  -8.476  1.00  0.00    -0.550 OA
ATOM      8  O   UNL     1      -3.374   3.056  -9.314  1.00  0.00    -0.550 OA
ENDBRANCH   5   6
ENDBRANCH   1   5
TORSDOF 3
ENDMDL
MODEL 4
REMARK VINA RESULT:    -3.364      1.686      2.147
REMARK INTER + INTRA:          -3.984
REMARK INTER:                  -3.881
REMARK INTRA:                  -0.103
REMARK UNBOUND:                -0.030
REMARK SMILES O=C([O-])CCC(=O)[O-]
REMARK SMILES IDX 4 1 2 2 1 3 3 4 5 5 6 6 7 7 8 8
REMARK H PARENT
REMARK Flexibility Score: inf
ROOT
ATOM      1  C   UNL     1      -1.458   4.213  -8.586  1.00  0.00     0.059 C 
ENDROOT
BRANCH   1   2
ATOM      2  C   UNL     1      -2.925   4.079  -8.840  1.00  0.00     0.042 C 
ATOM      3  O   UNL     1      -3.390   3.011  -9.318  1.00  0.00    -0.550 OA
ATOM      4  O   UNL     1      -3.786   5.115  -8.504  1.00  0.00    -0.550 OA
ENDBRANCH   1   2
BRANCH   1   5
ATOM      5  C   UNL     1      -0.917   2.961  -7.894  1.00  0.00     0.059 C 
BRANCH   5   6
ATOM      6  C   UNL     1       0.000   2.211  -8.808  1.00  0.00     0.042 C 
ATOM      7  O   UNL     1       0.295   2.684  -9.937  1.00  0.00    -0.550 OA
ATOM      8  O   UNL     1       0.570   1.014  -8.391  1.00  0.00    -0.550 OA
ENDBRANCH   5   6
ENDBRANCH   1   5
TORSDOF 3
ENDMDL
MODEL 5
REMARK VINA RESULT:    -3.232      3.716      5.019
REMARK INTER + INTRA:          -3.829
REMARK INTER:                  -3.785
REMARK INTRA:                  -0.044
REMARK UNBOUND:                -0.030
REMARK SMILES O=C([O-])CCC(=O)[O-]
REMARK SMILES IDX 4 1 2 2 1 3 3 4 5 5 6 6 7 7 8 8
REMARK H PARENT
REMARK Flexibility Score: inf
ROOT
ATOM      1  C   UNL     1      -4.308   2.827  -9.342  1.00  0.00     0.059 C 
ENDROOT
BRANCH   1   2
ATOM      2  C   UNL     1      -5.707   2.330  -9.171  1.00  0.00     0.042 C 
ATOM      3  O   UNL     1      -6.166   1.450  -9.947  1.00  0.00    -0.550 OA
ATOM      4  O   UNL     1      -6.490   2.800  -8.125  1.00  0.00    -0.550 OA
ENDBRANCH   1   2
BRANCH   1   5
ATOM      5  C   UNL     1      -4.219   4.311  -8.981  1.00  0.00     0.059 C 
BRANCH   5   6
ATOM      6  C   UNL     1      -2.809   4.685  -8.647  1.00  0.00     0.042 C 
ATOM      7  O   UNL     1      -1.901   3.814  -8.667  1.00  0.00    -0.550 OA
ATOM      8  O   UNL     1      -2.491   6.008  -8.363  1.00  0.00    -0.550 OA
ENDBRANCH   5   6
ENDBRANCH   1   5
TORSDOF 3
ENDMDL
MODEL 6
REMARK VINA RESULT:    -3.181      3.991      4.860
REMARK INTER + INTRA:          -3.769
REMARK INTER:                  -3.660
REMARK INTRA:                  -0.109
REMARK UNBOUND:                -0.030
REMARK SMILES O=C([O-])CCC(=O)[O-]
REMARK SMILES IDX 4 1 2 2 1 3 3 4 5 5 6 6 7 7 8 8
REMARK H PARENT
REMARK Flexibility Score: inf
ROOT
ATOM      1  C   UNL     1      -3.338   2.821  -9.692  1.00  0.00     0.059 C 
ENDROOT
BRANCH   1   2
ATOM      2  C   UNL     1      -2.899   3.952  -8.818  1.00  0.00     0.042 C 
ATOM      3  O   UNL     1      -3.719   4.844  -8.476  1.00  0.00    -0.550 OA
ATOM      4  O   UNL     1      -1.595   3.995  -8.341  1.00  0.00    -0.550 OA
ENDBRANCH   1   2
BRANCH   1   5
ATOM      5  C   UNL     1      -4.757   3.063 -10.209  1.00  0.00     0.059 C 
BRANCH   5   6
ATOM      6  C   UNL     1      -5.676   1.978  -9.744  1.00  0.00     0.042 C 
ATOM      7  O   UNL     1      -5.789   1.726  -8.516  1.00  0.00    -0.550 OA
ATOM      8  O   UNL     1      -6.448   1.279 -10.665  1.00  0.00    -0.550 OA
ENDBRANCH   5   6
ENDBRANCH   1   5
TORSDOF 3
ENDMDL
MODEL 7
REMARK VINA RESULT:    -3.144     14.017     14.831
REMARK INTER + INTRA:          -3.726
REMARK INTER:                  -3.635
REMARK INTRA:                  -0.091
REMARK UNBOUND:                -0.030
REMARK SMILES O=C([O-])CCC(=O)[O-]
REMARK SMILES IDX 4 1 2 2 1 3 3 4 5 5 6 6 7 7 8 8
REMARK H PARENT
REMARK Flexibility Score: inf
ROOT
ATOM      1  C   UNL     1      -1.198 -10.927  -3.659  1.00  0.00     0.059 C 
ENDROOT
BRANCH   1   2
ATOM      2  C   UNL     1      -1.724  -9.876  -2.736  1.00  0.00     0.042 C 
ATOM      3  O   UNL     1      -2.179 -10.196  -1.606  1.00  0.00    -0.550 OA
ATOM      4  O   UNL     1      -1.666  -8.538  -3.101  1.00  0.00    -0.550 OA
ENDBRANCH   1   2
BRANCH   1   5
ATOM      5  C   UNL     1      -0.727 -10.301  -4.973  1.00  0.00     0.059 C 
BRANCH   5   6
ATOM      6  C   UNL     1       0.704 -10.647  -5.236  1.00  0.00     0.042 C 
ATOM      7  O   UNL     1       1.577 -10.451  -4.350  1.00  0.00    -0.550 OA
ATOM      8  O   UNL     1       1.066 -11.233  -6.442  1.00  0.00    -0.550 OA
ENDBRANCH   5   6
ENDBRANCH   1   5
TORSDOF 3
ENDMDL
MODEL 8
REMARK VINA RESULT:    -3.068     13.991     14.932
REMARK INTER + INTRA:          -3.636
REMARK INTER:                  -3.602
REMARK INTRA:                  -0.033
REMARK UNBOUND:                -0.030
REMARK SMILES O=C([O-])CCC(=O)[O-]
REMARK SMILES IDX 4 1 2 2 1 3 3 4 5 5 6 6 7 7 8 8
REMARK H PARENT
REMARK Flexibility Score: inf
ROOT
ATOM      1  C   UNL     1      -0.020 -10.388  -4.445  1.00  0.00     0.059 C 
ENDROOT
BRANCH   1   2
ATOM      2  C   UNL     1       0.208 -10.930  -5.819  1.00  0.00     0.042 C 
ATOM      3  O   UNL     1       1.381 -11.120  -6.238  1.00  0.00    -0.550 OA
ATOM      4  O   UNL     1      -0.873 -11.273  -6.620  1.00  0.00    -0.550 OA
ENDBRANCH   1   2
BRANCH   1   5
ATOM      5  C   UNL     1      -1.517 -10.319  -4.137  1.00  0.00     0.059 C 
BRANCH   5   6
ATOM      6  C   UNL     1      -1.756  -9.596  -2.849  1.00  0.00     0.042 C 
ATOM      7  O   UNL     1      -1.640  -8.344  -2.795  1.00  0.00    -0.550 OA
ATOM      8  O   UNL     1      -2.155 -10.301  -1.721  1.00  0.00    -0.550 OA
ENDBRANCH   5   6
ENDBRANCH   1   5
TORSDOF 3
ENDMDL
MODEL 9
REMARK VINA RESULT:    -3.016      1.583      4.264
REMARK INTER + INTRA:          -3.575
REMARK INTER:                  -3.474
REMARK INTRA:                  -0.101
REMARK UNBOUND:                -0.030
REMARK SMILES O=C([O-])CCC(=O)[O-]
REMARK SMILES IDX 4 1 2 2 1 3 3 4 5 5 6 6 7 7 8 8
REMARK H PARENT
REMARK Flexibility Score: inf
ROOT
ATOM      1  C   UNL     1      -0.530   4.601  -9.095  1.00  0.00     0.059 C 
ENDROOT
BRANCH   1   2
ATOM      2  C   UNL     1      -1.044   3.267  -8.659  1.00  0.00     0.042 C 
ATOM      3  O   UNL     1      -0.618   2.740  -7.598  1.00  0.00    -0.550 OA
ATOM      4  O   UNL     1      -2.031   2.627  -9.398  1.00  0.00    -0.550 OA
ENDBRANCH   1   2
BRANCH   1   5
ATOM      5  C   UNL     1      -1.025   5.701  -8.154  1.00  0.00     0.059 C 
BRANCH   5   6
ATOM      6  C   UNL     1      -2.255   6.349  -8.706  1.00  0.00     0.042 C 
ATOM      7  O   UNL     1      -3.374   5.783  -8.596  1.00  0.00    -0.550 OA
ATOM      8  O   UNL     1      -2.173   7.603  -9.299  1.00  0.00    -0.550 OA
ENDBRANCH   5   6
ENDBRANCH   1   5
TORSDOF 3
ENDMDL
