MODEL 1
REMARK VINA RESULT:    81.266      0.000      0.000
REMARK INTER + INTRA:         107.144
REMARK INTER:                 107.396
REMARK INTRA:                  -0.252
REMARK UNBOUND:                -0.252
REMARK SMILES C=C(CC[C@H](C)[C@H]1CC[C@@]2(C)[C@@H]3CC[C@@H]4C(C)(C)[C@H](O)CC[C@]45C[C@]35CC[C@]12C)C(C)C
REMARK SMILES IDX 4 1 3 2 2 3 1 4 30 5 31 6 32 7 5 8 6 9 7 10 8 11 28 12 9 13
REMARK SMILES IDX 10 14 27 15 29 16 11 17 12 18 26 19 25 20 13 21 23 22 24 23
REMARK SMILES IDX 14 24 15 25 22 26 16 27 21 28 19 29 17 30 18 31 20 32
REMARK H PARENT 20 33
REMARK Flexibility Score: inf
ROOT
ATOM      1  C   UNL     1      32.552 -27.432   0.777  1.00  0.00     0.008 C 
ENDROOT
BRANCH   1   2
ATOM      2  C   UNL     1      32.299 -28.228  -0.517  1.00  0.00     0.031 C 
BRANCH   2   3
ATOM      3  C   UNL     1      33.606 -28.681  -1.137  1.00  0.00    -0.075 C 
ATOM      4  C   UNL     1      34.718 -27.957  -0.923  1.00  0.00     0.008 C 
BRANCH   3   5
ATOM      5  C   UNL     1      33.662 -29.903  -2.045  1.00  0.00     0.008 C 
ATOM      6  C   UNL     1      32.476 -29.918  -3.017  1.00  0.00     0.012 C 
ATOM      7  C   UNL     1      33.723 -31.201  -1.231  1.00  0.00     0.012 C 
ENDBRANCH   3   5
ENDBRANCH   2   3
ENDBRANCH   1   2
BRANCH   1   8
ATOM      8  C   UNL     1      31.682 -27.865   1.989  1.00  0.00    -0.010 C 
ATOM      9  C   UNL     1      30.239 -28.176   1.536  1.00  0.00     0.008 C 
BRANCH   8  10
ATOM     10  C   UNL     1      31.831 -26.889   3.219  1.00  0.00    -0.002 C 
ATOM     11  C   UNL     1      31.343 -27.411   4.602  1.00  0.00     0.005 C 
ATOM     12  C   UNL     1      33.243 -26.314   3.525  1.00  0.00    -0.024 C 
ATOM     13  C   UNL     1      32.237 -26.752   5.678  1.00  0.00     0.008 C 
ATOM     14  C   UNL     1      33.025 -25.660   4.939  1.00  0.00    -0.024 C 
ATOM     15  C   UNL     1      33.751 -25.229   2.543  1.00  0.00     0.008 C 
ATOM     16  C   UNL     1      34.277 -27.499   3.526  1.00  0.00     0.012 C 
ATOM     17  C   UNL     1      32.097 -24.380   4.904  1.00  0.00     0.012 C 
ATOM     18  C   UNL     1      34.410 -25.264   5.553  1.00  0.00     0.002 C 
ATOM     19  C   UNL     1      35.069 -24.579   3.045  1.00  0.00     0.008 C 
ATOM     20  C   UNL     1      35.103 -24.249   4.583  1.00  0.00    -0.020 C 
ATOM     21  C   UNL     1      34.344 -24.887   7.057  1.00  0.00     0.005 C 
ATOM     22  C   UNL     1      36.364 -23.568   5.163  1.00  0.00    -0.020 C 
ATOM     23  C   UNL     1      35.095 -22.744   4.900  1.00  0.00     0.015 C 
ATOM     24  C   UNL     1      35.494 -24.016   7.587  1.00  0.00     0.005 C 
ATOM     25  C   UNL     1      36.723 -23.873   6.648  1.00  0.00     0.004 C 
ATOM     26  C   UNL     1      37.550 -23.396   4.173  1.00  0.00     0.010 C 
ATOM     27  C   UNL     1      37.844 -22.894   7.228  1.00  0.00    -0.006 C 
ATOM     28  C   UNL     1      38.879 -23.155   4.893  1.00  0.00     0.033 C 
ATOM     29  C   UNL     1      38.694 -22.218   6.089  1.00  0.00     0.120 C 
ATOM     30  C   UNL     1      37.266 -21.764   8.125  1.00  0.00     0.014 C 
ATOM     31  C   UNL     1      38.798 -23.726   8.125  1.00  0.00     0.014 C 
BRANCH  29  32
ATOM     32  O   UNL     1      38.089 -21.024   5.646  1.00  0.00    -0.393 OA
ATOM     33  H   UNL     1      37.111 -21.193   5.601  1.00  0.00     0.210 HD
ENDBRANCH  29  32
ENDBRANCH   8  10
ENDBRANCH   1   8
TORSDOF 6
ENDMDL
MODEL 2
REMARK VINA RESULT:    82.970      2.980      4.557
REMARK INTER + INTRA:         109.396
REMARK INTER:                 108.441
REMARK INTRA:                   0.954
REMARK UNBOUND:                -0.252
REMARK SMILES C=C(CC[C@H](C)[C@H]1CC[C@@]2(C)[C@@H]3CC[C@@H]4C(C)(C)[C@H](O)CC[C@]45C[C@]35CC[C@]12C)C(C)C
REMARK SMILES IDX 4 1 3 2 2 3 1 4 30 5 31 6 32 7 5 8 6 9 7 10 8 11 28 12 9 13
REMARK SMILES IDX 10 14 27 15 29 16 11 17 12 18 26 19 25 20 13 21 23 22 24 23
REMARK SMILES IDX 14 24 15 25 22 26 16 27 21 28 19 29 17 30 18 31 20 32
REMARK H PARENT 20 33
REMARK Flexibility Score: inf
ROOT
ATOM      1  C   UNL     1      29.016 -28.305   4.880  1.00  0.00     0.008 C 
ENDROOT
BRANCH   1   2
ATOM      2  C   UNL     1      28.291 -27.472   5.953  1.00  0.00     0.031 C 
BRANCH   2   3
ATOM      3  C   UNL     1      26.967 -26.950   5.429  1.00  0.00    -0.075 C 
ATOM      4  C   UNL     1      26.412 -25.873   6.011  1.00  0.00     0.008 C 
BRANCH   3   5
ATOM      5  C   UNL     1      26.234 -27.663   4.300  1.00  0.00     0.008 C 
ATOM      6  C   UNL     1      26.609 -27.064   2.939  1.00  0.00     0.012 C 
ATOM      7  C   UNL     1      24.716 -27.636   4.515  1.00  0.00     0.012 C 
ENDBRANCH   3   5
ENDBRANCH   2   3
ENDBRANCH   1   2
BRANCH   1   8
ATOM      8  C   UNL     1      30.402 -27.752   4.452  1.00  0.00    -0.010 C 
ATOM      9  C   UNL     1      31.378 -28.910   4.152  1.00  0.00     0.008 C 
BRANCH   8  10
ATOM     10  C   UNL     1      30.932 -26.630   5.425  1.00  0.00    -0.002 C 
ATOM     11  C   UNL     1      30.830 -26.909   6.953  1.00  0.00     0.005 C 
ATOM     12  C   UNL     1      32.396 -26.139   5.241  1.00  0.00    -0.024 C 
ATOM     13  C   UNL     1      32.018 -26.182   7.628  1.00  0.00     0.008 C 
ATOM     14  C   UNL     1      32.612 -25.276   6.540  1.00  0.00    -0.024 C 
ATOM     15  C   UNL     1      32.654 -25.250   4.000  1.00  0.00     0.008 C 
ATOM     16  C   UNL     1      33.337 -27.395   5.150  1.00  0.00     0.012 C 
ATOM     17  C   UNL     1      31.767 -23.940   6.555  1.00  0.00     0.012 C 
ATOM     18  C   UNL     1      34.129 -24.916   6.684  1.00  0.00     0.002 C 
ATOM     19  C   UNL     1      34.086 -24.650   4.016  1.00  0.00     0.008 C 
ATOM     20  C   UNL     1      34.564 -24.111   5.415  1.00  0.00    -0.020 C 
ATOM     21  C   UNL     1      34.504 -24.328   8.071  1.00  0.00     0.005 C 
ATOM     22  C   UNL     1      35.965 -23.464   5.515  1.00  0.00    -0.020 C 
ATOM     23  C   UNL     1      34.709 -22.580   5.480  1.00  0.00     0.015 C 
ATOM     24  C   UNL     1      35.793 -23.492   8.124  1.00  0.00     0.005 C 
ATOM     25  C   UNL     1      36.713 -23.587   6.877  1.00  0.00     0.004 C 
ATOM     26  C   UNL     1      36.831 -23.535   4.227  1.00  0.00     0.010 C 
ATOM     27  C   UNL     1      37.992 -22.635   6.968  1.00  0.00    -0.006 C 
ATOM     28  C   UNL     1      38.318 -23.308   4.512  1.00  0.00     0.033 C 
ATOM     29  C   UNL     1      38.517 -22.200   5.549  1.00  0.00     0.120 C 
ATOM     30  C   UNL     1      37.738 -21.345   7.797  1.00  0.00     0.014 C 
ATOM     31  C   UNL     1      39.124 -23.410   7.693  1.00  0.00     0.014 C 
BRANCH  29  32
ATOM     32  O   UNL     1      37.862 -21.033   5.104  1.00  0.00    -0.393 OA
ATOM     33  H   UNL     1      38.493 -20.557   4.502  1.00  0.00     0.210 HD
ENDBRANCH  29  32
ENDBRANCH   8  10
ENDBRANCH   1   8
TORSDOF 6
ENDMDL
