MODEL 1
REMARK VINA RESULT:    -6.264      0.000      0.000
REMARK INTER + INTRA:          -7.412
REMARK INTER:                  -7.546
REMARK INTRA:                   0.134
REMARK UNBOUND:                 0.134
REMARK SMILES Oc1cc(O)c2c(c1)O[C@@H](c1ccc(O)c(O)c1)[C@@H](O)C2
REMARK SMILES IDX 21 1 19 2 10 3 9 4 7 5 8 6 2 7 3 8 4 9 6 10 20 11 11 13
REMARK SMILES IDX 18 14 12 15 16 16 13 17 14 18 17 19 15 21 5 23 1 25
REMARK H PARENT 20 12 17 20 15 22 5 24 1 26
REMARK Flexibility Score: inf
ROOT
ATOM      1  C   UNL     1      15.673   0.204  29.166  1.00  0.00     0.079 C 
ATOM      2  C   UNL     1      15.427  -1.305  29.007  1.00  0.00     0.164 C 
ATOM      3  C   UNL     1      15.970  -1.863  27.670  1.00  0.00     0.232 C 
ATOM      4  O   UNL     1      15.575  -1.043  26.567  1.00  0.00    -0.482 OA
ATOM      5  C   UNL     1      15.367   0.337  26.658  1.00  0.00     0.131 A 
ATOM      6  C   UNL     1      15.131   1.057  25.481  1.00  0.00     0.093 A 
ATOM      7  C   UNL     1      14.872   2.430  25.533  1.00  0.00     0.122 A 
ATOM      8  C   UNL     1      14.884   3.094  26.768  1.00  0.00     0.092 A 
ATOM      9  C   UNL     1      15.157   2.394  27.952  1.00  0.00     0.126 A 
ATOM     10  C   UNL     1      15.369   0.992  27.911  1.00  0.00     0.039 A 
ENDROOT
BRANCH   2  11
ATOM     11  O   UNL     1      15.995  -1.989  30.096  1.00  0.00    -0.389 OA
ATOM     12  H   UNL     1      16.898  -2.289  29.805  1.00  0.00     0.211 HD
ENDBRANCH   2  11
BRANCH   3  13
ATOM     13  C   UNL     1      17.471  -2.096  27.653  1.00  0.00    -0.001 A 
ATOM     14  C   UNL     1      18.304  -1.470  26.705  1.00  0.00     0.057 A 
ATOM     15  C   UNL     1      18.051  -2.972  28.590  1.00  0.00     0.012 A 
ATOM     16  C   UNL     1      19.690  -1.691  26.710  1.00  0.00     0.157 A 
ATOM     17  C   UNL     1      19.426  -3.213  28.585  1.00  0.00     0.050 A 
ATOM     18  C   UNL     1      20.252  -2.574  27.646  1.00  0.00     0.157 A 
BRANCH  16  19
ATOM     19  O   UNL     1      20.483  -1.037  25.764  1.00  0.00    -0.504 OA
ATOM     20  H   UNL     1      20.160  -0.846  24.823  1.00  0.00     0.293 HD
ENDBRANCH  16  19
BRANCH  18  21
ATOM     21  O   UNL     1      21.625  -2.806  27.650  1.00  0.00    -0.504 OA
ATOM     22  H   UNL     1      22.220  -2.448  28.385  1.00  0.00     0.293 HD
ENDBRANCH  18  21
ENDBRANCH   3  13
BRANCH   9  23
ATOM     23  O   UNL     1      15.212   3.124  29.146  1.00  0.00    -0.507 OA
ATOM     24  H   UNL     1      15.864   2.927  29.897  1.00  0.00     0.293 HD
ENDBRANCH   9  23
BRANCH   7  25
ATOM     25  O   UNL     1      14.610   3.125  24.354  1.00  0.00    -0.508 OA
ATOM     26  H   UNL     1      14.822   4.113  24.263  1.00  0.00     0.293 HD
ENDBRANCH   7  25
TORSDOF 6
ENDMDL
MODEL 2
REMARK VINA RESULT:    -4.910     11.880     14.773
REMARK INTER + INTRA:          -5.780
REMARK INTER:                  -5.856
REMARK INTRA:                   0.075
REMARK UNBOUND:                 0.134
REMARK SMILES Oc1cc(O)c2c(c1)O[C@@H](c1ccc(O)c(O)c1)[C@@H](O)C2
REMARK SMILES IDX 21 1 19 2 10 3 9 4 7 5 8 6 2 7 3 8 4 9 6 10 20 11 11 13
REMARK SMILES IDX 18 14 12 15 16 16 13 17 14 18 17 19 15 21 5 23 1 25
REMARK H PARENT 20 12 17 20 15 22 5 24 1 26
REMARK Flexibility Score: inf
ROOT
ATOM      1  C   UNL     1      14.585 -13.476  30.911  1.00  0.00     0.079 C 
ATOM      2  C   UNL     1      14.829 -12.011  30.515  1.00  0.00     0.164 C 
ATOM      3  C   UNL     1      14.297 -11.676  29.102  1.00  0.00     0.232 C 
ATOM      4  O   UNL     1      14.703 -12.660  28.147  1.00  0.00    -0.482 OA
ATOM      5  C   UNL     1      14.913 -14.007  28.459  1.00  0.00     0.131 A 
ATOM      6  C   UNL     1      15.160 -14.905  27.414  1.00  0.00     0.093 A 
ATOM      7  C   UNL     1      15.421 -16.252  27.687  1.00  0.00     0.122 A 
ATOM      8  C   UNL     1      15.400 -16.709  29.012  1.00  0.00     0.092 A 
ATOM      9  C   UNL     1      15.116 -15.830  30.067  1.00  0.00     0.126 A 
ATOM     10  C   UNL     1      14.901 -14.453  29.800  1.00  0.00     0.039 A 
ENDROOT
BRANCH   2  11
ATOM     11  O   UNL     1      14.251 -11.164  31.476  1.00  0.00    -0.389 OA
ATOM     12  H   UNL     1      14.965 -10.535  31.769  1.00  0.00     0.211 HD
ENDBRANCH   2  11
BRANCH   3  13
ATOM     13  C   UNL     1      12.795 -11.453  29.035  1.00  0.00    -0.001 A 
ATOM     14  C   UNL     1      11.960 -12.284  28.263  1.00  0.00     0.057 A 
ATOM     15  C   UNL     1      12.217 -10.382  29.742  1.00  0.00     0.012 A 
ATOM     16  C   UNL     1      10.574 -12.068  28.220  1.00  0.00     0.157 A 
ATOM     17  C   UNL     1      10.843 -10.149  29.685  1.00  0.00     0.050 A 
ATOM     18  C   UNL     1      10.014 -10.990  28.926  1.00  0.00     0.157 A 
BRANCH  16  19
ATOM     19  O   UNL     1       9.779 -12.926  27.457  1.00  0.00    -0.504 OA
ATOM     20  H   UNL     1       9.806 -12.935  26.444  1.00  0.00     0.293 HD
ENDBRANCH  16  19
BRANCH  18  21
ATOM     21  O   UNL     1       8.640 -10.764  28.879  1.00  0.00    -0.504 OA
ATOM     22  H   UNL     1       8.257  -9.915  28.486  1.00  0.00     0.293 HD
ENDBRANCH  18  21
ENDBRANCH   3  13
BRANCH   9  23
ATOM     23  O   UNL     1      15.052 -16.360  31.361  1.00  0.00    -0.507 OA
ATOM     24  H   UNL     1      14.338 -16.111  32.037  1.00  0.00     0.293 HD
ENDBRANCH   9  23
BRANCH   7  25
ATOM     25  O   UNL     1      15.695 -17.125  26.636  1.00  0.00    -0.508 OA
ATOM     26  H   UNL     1      15.835 -18.117  26.795  1.00  0.00     0.293 HD
ENDBRANCH   7  25
TORSDOF 6
ENDMDL
