MODEL 1
REMARK VINA RESULT:    -3.877      0.000      0.000
REMARK INTER + INTRA:          -3.877
REMARK INTER:                  -3.877
REMARK INTRA:                   0.000
REMARK UNBOUND:                 0.000
REMARK SMILES C=C1CC[C@H]2C[C@@H]1C2(C)C
REMARK SMILES IDX 9 1 8 2 5 3 4 4 3 5 2 6 1 7 7 8 6 9 10 10
REMARK H PARENT
REMARK Flexibility Score: inf
ROOT
ATOM      1  C   UNL     1     139.692 135.330 135.594  1.00  0.00     0.012 C 
ATOM      2  C   UNL     1     139.237 136.796 135.800  1.00  0.00    -0.026 C 
ATOM      3  C   UNL     1     140.130 137.795 135.020  1.00  0.00    -0.004 C 
ATOM      4  C   UNL     1     139.440 139.191 134.903  1.00  0.00     0.008 C 
ATOM      5  C   UNL     1     138.943 139.741 136.294  1.00  0.00     0.031 C 
ATOM      6  C   UNL     1     139.099 138.705 137.419  1.00  0.00    -0.074 C 
ATOM      7  C   UNL     1     138.607 138.928 138.642  1.00  0.00     0.008 C 
ATOM      8  C   UNL     1     139.843 137.417 137.080  1.00  0.00     0.021 C 
ATOM      9  C   UNL     1     141.054 137.866 136.247  1.00  0.00     0.012 C 
ATOM     10  C   UNL     1     137.697 136.863 135.604  1.00  0.00     0.012 C 
ENDROOT
TORSDOF 0
ENDMDL
MODEL 2
REMARK VINA RESULT:    -3.852      4.127      5.314
REMARK INTER + INTRA:          -3.852
REMARK INTER:                  -3.852
REMARK INTRA:                   0.000
REMARK UNBOUND:                 0.000
REMARK SMILES C=C1CC[C@H]2C[C@@H]1C2(C)C
REMARK SMILES IDX 9 1 8 2 5 3 4 4 3 5 2 6 1 7 7 8 6 9 10 10
REMARK H PARENT
REMARK Flexibility Score: inf
ROOT
ATOM      1  C   UNL     1     135.367 132.873 135.522  1.00  0.00     0.012 C 
ATOM      2  C   UNL     1     136.821 133.351 135.765  1.00  0.00    -0.026 C 
ATOM      3  C   UNL     1     137.854 132.466 135.021  1.00  0.00    -0.004 C 
ATOM      4  C   UNL     1     139.243 133.176 134.937  1.00  0.00     0.008 C 
ATOM      5  C   UNL     1     139.745 133.692 136.339  1.00  0.00     0.031 C 
ATOM      6  C   UNL     1     138.681 133.530 137.436  1.00  0.00    -0.074 C 
ATOM      7  C   UNL     1     138.862 134.034 138.661  1.00  0.00     0.008 C 
ATOM      8  C   UNL     1     137.414 132.765 137.067  1.00  0.00     0.021 C 
ATOM      9  C   UNL     1     137.903 131.553 136.257  1.00  0.00     0.012 C 
ATOM     10  C   UNL     1     136.871 134.890 135.558  1.00  0.00     0.012 C 
ENDROOT
TORSDOF 0
ENDMDL
MODEL 3
REMARK VINA RESULT:    -3.849      4.088      5.283
REMARK INTER + INTRA:          -3.849
REMARK INTER:                  -3.849
REMARK INTRA:                   0.000
REMARK UNBOUND:                 0.000
REMARK SMILES C=C1CC[C@H]2C[C@@H]1C2(C)C
REMARK SMILES IDX 9 1 8 2 5 3 4 4 3 5 2 6 1 7 7 8 6 9 10 10
REMARK H PARENT
REMARK Flexibility Score: inf
ROOT
ATOM      1  C   UNL     1     137.316 139.676 135.639  1.00  0.00     0.012 C 
ATOM      2  C   UNL     1     135.853 139.222 135.872  1.00  0.00    -0.026 C 
ATOM      3  C   UNL     1     134.842 140.097 135.087  1.00  0.00    -0.004 C 
ATOM      4  C   UNL     1     133.447 139.401 135.000  1.00  0.00     0.008 C 
ATOM      5  C   UNL     1     132.916 138.931 136.408  1.00  0.00     0.031 C 
ATOM      6  C   UNL     1     133.965 139.111 137.517  1.00  0.00    -0.074 C 
ATOM      7  C   UNL     1     133.758 138.643 138.752  1.00  0.00     0.008 C 
ATOM      8  C   UNL     1     135.246 139.851 137.147  1.00  0.00     0.021 C 
ATOM      9  C   UNL     1     134.784 141.045 136.296  1.00  0.00     0.012 C 
ATOM     10  C   UNL     1     135.788 137.678 135.707  1.00  0.00     0.012 C 
ENDROOT
TORSDOF 0
ENDMDL
MODEL 4
REMARK VINA RESULT:    -3.823      5.253      7.459
REMARK INTER + INTRA:          -3.823
REMARK INTER:                  -3.823
REMARK INTRA:                   0.000
REMARK UNBOUND:                 0.000
REMARK SMILES C=C1CC[C@H]2C[C@@H]1C2(C)C
REMARK SMILES IDX 9 1 8 2 5 3 4 4 3 5 2 6 1 7 7 8 6 9 10 10
REMARK H PARENT
REMARK Flexibility Score: inf
ROOT
ATOM      1  C   UNL     1     132.985 137.388 135.670  1.00  0.00     0.012 C 
ATOM      2  C   UNL     1     133.430 135.915 135.842  1.00  0.00    -0.026 C 
ATOM      3  C   UNL     1     132.544 134.942 135.023  1.00  0.00    -0.004 C 
ATOM      4  C   UNL     1     133.229 133.546 134.877  1.00  0.00     0.008 C 
ATOM      5  C   UNL     1     133.704 132.956 136.259  1.00  0.00     0.031 C 
ATOM      6  C   UNL     1     133.538 133.962 137.410  1.00  0.00    -0.074 C 
ATOM      7  C   UNL     1     134.011 133.703 138.633  1.00  0.00     0.008 C 
ATOM      8  C   UNL     1     132.805 135.262 137.096  1.00  0.00     0.021 C 
ATOM      9  C   UNL     1     131.603 134.842 136.234  1.00  0.00     0.012 C 
ATOM     10  C   UNL     1     134.973 135.845 135.665  1.00  0.00     0.012 C 
ENDROOT
TORSDOF 0
ENDMDL
MODEL 5
REMARK VINA RESULT:    -3.721      5.199      7.410
REMARK INTER + INTRA:          -3.721
REMARK INTER:                  -3.721
REMARK INTRA:                   0.000
REMARK UNBOUND:                 0.000
REMARK SMILES C=C1CC[C@H]2C[C@@H]1C2(C)C
REMARK SMILES IDX 9 1 8 2 5 3 4 4 3 5 2 6 1 7 7 8 6 9 10 10
REMARK H PARENT
REMARK Flexibility Score: inf
ROOT
ATOM      1  C   UNL     1     136.014 133.325 136.333  1.00  0.00     0.012 C 
ATOM      2  C   UNL     1     134.721 134.164 136.176  1.00  0.00    -0.026 C 
ATOM      3  C   UNL     1     133.638 133.758 137.209  1.00  0.00    -0.004 C 
ATOM      4  C   UNL     1     132.526 134.849 137.314  1.00  0.00     0.008 C 
ATOM      5  C   UNL     1     131.938 135.253 135.908  1.00  0.00     0.031 C 
ATOM      6  C   UNL     1     132.710 134.607 134.746  1.00  0.00    -0.074 C 
ATOM      7  C   UNL     1     132.456 134.935 133.476  1.00  0.00     0.008 C 
ATOM      8  C   UNL     1     133.772 133.574 135.107  1.00  0.00     0.021 C 
ATOM      9  C   UNL     1     133.130 132.710 136.205  1.00  0.00     0.012 C 
ATOM     10  C   UNL     1     135.119 135.661 136.064  1.00  0.00     0.012 C 
ENDROOT
TORSDOF 0
ENDMDL
MODEL 6
REMARK VINA RESULT:    -3.716      1.144      3.479
REMARK INTER + INTRA:          -3.716
REMARK INTER:                  -3.716
REMARK INTRA:                   0.000
REMARK UNBOUND:                 0.000
REMARK SMILES C=C1CC[C@H]2C[C@@H]1C2(C)C
REMARK SMILES IDX 9 1 8 2 5 3 4 4 3 5 2 6 1 7 7 8 6 9 10 10
REMARK H PARENT
REMARK Flexibility Score: inf
ROOT
ATOM      1  C   UNL     1     138.972 139.836 135.367  1.00  0.00     0.012 C 
ATOM      2  C   UNL     1     139.020 138.289 135.433  1.00  0.00    -0.026 C 
ATOM      3  C   UNL     1     139.343 137.780 136.862  1.00  0.00    -0.004 C 
ATOM      4  C   UNL     1     138.995 136.265 137.010  1.00  0.00     0.008 C 
ATOM      5  C   UNL     1     139.627 135.383 135.866  1.00  0.00     0.031 C 
ATOM      6  C   UNL     1     140.298 136.235 134.777  1.00  0.00    -0.074 C 
ATOM      7  C   UNL     1     140.769 135.682 133.654  1.00  0.00     0.008 C 
ATOM      8  C   UNL     1     140.407 137.734 135.036  1.00  0.00     0.021 C 
ATOM      9  C   UNL     1     140.837 137.853 136.507  1.00  0.00     0.012 C 
ATOM     10  C   UNL     1     137.765 137.728 134.708  1.00  0.00     0.012 C 
ENDROOT
TORSDOF 0
ENDMDL
MODEL 7
REMARK VINA RESULT:    -3.706      3.600      5.237
REMARK INTER + INTRA:          -3.706
REMARK INTER:                  -3.706
REMARK INTRA:                   0.000
REMARK UNBOUND:                 0.000
REMARK SMILES C=C1CC[C@H]2C[C@@H]1C2(C)C
REMARK SMILES IDX 9 1 8 2 5 3 4 4 3 5 2 6 1 7 7 8 6 9 10 10
REMARK H PARENT
REMARK Flexibility Score: inf
ROOT
ATOM      1  C   UNL     1     132.907 138.994 135.313  1.00  0.00     0.012 C 
ATOM      2  C   UNL     1     134.451 139.035 135.432  1.00  0.00    -0.026 C 
ATOM      3  C   UNL     1     134.913 139.302 136.888  1.00  0.00    -0.004 C 
ATOM      4  C   UNL     1     136.422 138.943 137.072  1.00  0.00     0.008 C 
ATOM      5  C   UNL     1     137.342 139.616 135.983  1.00  0.00     0.031 C 
ATOM      6  C   UNL     1     136.529 140.330 134.893  1.00  0.00    -0.074 C 
ATOM      7  C   UNL     1     137.118 140.842 133.808  1.00  0.00     0.008 C 
ATOM      8  C   UNL     1     135.022 140.434 135.106  1.00  0.00     0.021 C 
ATOM      9  C   UNL     1     134.855 140.808 136.588  1.00  0.00     0.012 C 
ATOM     10  C   UNL     1     135.033 137.807 134.679  1.00  0.00     0.012 C 
ENDROOT
TORSDOF 0
ENDMDL
MODEL 8
REMARK VINA RESULT:    -3.698      4.164      6.109
REMARK INTER + INTRA:          -3.698
REMARK INTER:                  -3.698
REMARK INTRA:                   0.000
REMARK UNBOUND:                 0.000
REMARK SMILES C=C1CC[C@H]2C[C@@H]1C2(C)C
REMARK SMILES IDX 9 1 8 2 5 3 4 4 3 5 2 6 1 7 7 8 6 9 10 10
REMARK H PARENT
REMARK Flexibility Score: inf
ROOT
ATOM      1  C   UNL     1     139.763 133.717 135.368  1.00  0.00     0.012 C 
ATOM      2  C   UNL     1     138.217 133.649 135.437  1.00  0.00    -0.026 C 
ATOM      3  C   UNL     1     137.713 133.359 136.874  1.00  0.00    -0.004 C 
ATOM      4  C   UNL     1     136.193 133.690 137.014  1.00  0.00     0.008 C 
ATOM      5  C   UNL     1     135.320 133.015 135.889  1.00  0.00     0.031 C 
ATOM      6  C   UNL     1     136.180 132.326 134.818  1.00  0.00    -0.074 C 
ATOM      7  C   UNL     1     135.634 131.816 133.709  1.00  0.00     0.008 C 
ATOM      8  C   UNL     1     137.681 132.244 135.079  1.00  0.00     0.021 C 
ATOM      9  C   UNL     1     137.806 131.857 136.561  1.00  0.00     0.012 C 
ATOM     10  C   UNL     1     137.639 134.876 134.678  1.00  0.00     0.012 C 
ENDROOT
TORSDOF 0
ENDMDL
MODEL 9
REMARK VINA RESULT:    -3.694      5.698      7.265
REMARK INTER + INTRA:          -3.694
REMARK INTER:                  -3.694
REMARK INTRA:                   0.000
REMARK UNBOUND:                 0.000
REMARK SMILES C=C1CC[C@H]2C[C@@H]1C2(C)C
REMARK SMILES IDX 9 1 8 2 5 3 4 4 3 5 2 6 1 7 7 8 6 9 10 10
REMARK H PARENT
REMARK Flexibility Score: inf
ROOT
ATOM      1  C   UNL     1     133.732 132.952 135.240  1.00  0.00     0.012 C 
ATOM      2  C   UNL     1     133.644 134.495 135.356  1.00  0.00    -0.026 C 
ATOM      3  C   UNL     1     133.360 134.952 136.809  1.00  0.00    -0.004 C 
ATOM      4  C   UNL     1     133.672 136.472 136.991  1.00  0.00     0.008 C 
ATOM      5  C   UNL     1     132.975 137.368 135.898  1.00  0.00     0.031 C 
ATOM      6  C   UNL     1     132.288 136.530 134.808  1.00  0.00    -0.074 C 
ATOM      7  C   UNL     1     131.761 137.102 133.720  1.00  0.00     0.008 C 
ATOM      8  C   UNL     1     132.229 135.022 135.025  1.00  0.00     0.021 C 
ATOM      9  C   UNL     1     131.857 134.848 136.506  1.00  0.00     0.012 C 
ATOM     10  C   UNL     1     134.856 135.112 134.604  1.00  0.00     0.012 C 
ENDROOT
TORSDOF 0
ENDMDL
