MODEL 1
REMARK VINA RESULT:    -4.229      0.000      0.000
REMARK INTER + INTRA:          -4.563
REMARK INTER:                  -4.476
REMARK INTRA:                  -0.087
REMARK UNBOUND:                -0.087
REMARK SMILES C=C(C)[C@H]1CC=C(C)C(=O)C1
REMARK SMILES IDX 8 1 7 2 6 3 5 4 4 5 11 6 9 7 10 8 2 9 1 10 3 11
REMARK H PARENT
REMARK Flexibility Score: inf
ROOT
ATOM      1  C   UNL     1    -118.034-100.379  -0.197  1.00  0.00     0.048 C 
ATOM      2  C   UNL     1    -119.093-100.351   0.871  1.00  0.00    -0.012 C 
ATOM      3  C   UNL     1    -119.666 -99.185   1.215  1.00  0.00    -0.019 C 
ATOM      4  C   UNL     1    -120.717 -99.098   2.290  1.00  0.00     0.036 C 
ATOM      5  C   UNL     1    -121.572-100.378   2.334  1.00  0.00     0.025 C 
ATOM      6  C   UNL     1    -120.672-101.617   2.498  1.00  0.00     0.089 C 
ATOM      7  C   UNL     1    -119.588-101.623   1.456  1.00  0.00     0.158 C 
ATOM      8  O   UNL     1    -119.075-102.722   1.109  1.00  0.00    -0.295 OA
ENDROOT
BRANCH   5   9
ATOM      9  C   UNL     1    -122.625-100.306   3.432  1.00  0.00    -0.077 C 
ATOM     10  C   UNL     1    -123.916-100.118   3.115  1.00  0.00     0.008 C 
ATOM     11  C   UNL     1    -122.254-100.446   4.888  1.00  0.00     0.039 C 
ENDBRANCH   5   9
TORSDOF 1
ENDMDL
MODEL 2
REMARK VINA RESULT:    -4.175      2.212      5.061
REMARK INTER + INTRA:          -4.506
REMARK INTER:                  -4.418
REMARK INTRA:                  -0.089
REMARK UNBOUND:                -0.087
REMARK SMILES C=C(C)[C@H]1CC=C(C)C(=O)C1
REMARK SMILES IDX 8 1 7 2 6 3 5 4 4 5 11 6 9 7 10 8 2 9 1 10 3 11
REMARK H PARENT
REMARK Flexibility Score: inf
ROOT
ATOM      1  C   UNL     1    -120.618-101.810   1.683  1.00  0.00     0.048 C 
ATOM      2  C   UNL     1    -119.419-100.976   1.323  1.00  0.00    -0.012 C 
ATOM      3  C   UNL     1    -119.517 -99.636   1.310  1.00  0.00    -0.019 C 
ATOM      4  C   UNL     1    -118.353 -98.754   0.939  1.00  0.00     0.036 C 
ATOM      5  C   UNL     1    -117.018 -99.389   1.369  1.00  0.00     0.025 C 
ATOM      6  C   UNL     1    -116.885-100.807   0.781  1.00  0.00     0.089 C 
ATOM      7  C   UNL     1    -118.103-101.627   1.104  1.00  0.00     0.158 C 
ATOM      8  O   UNL     1    -118.002-102.884   1.151  1.00  0.00    -0.295 OA
ENDROOT
BRANCH   5   9
ATOM      9  C   UNL     1    -115.834 -98.513   0.981  1.00  0.00    -0.077 C 
ATOM     10  C   UNL     1    -115.460 -97.496   1.775  1.00  0.00     0.008 C 
ATOM     11  C   UNL     1    -115.055 -98.761  -0.288  1.00  0.00     0.039 C 
ENDBRANCH   5   9
TORSDOF 1
ENDMDL
MODEL 3
REMARK VINA RESULT:    -4.159      2.285      4.960
REMARK INTER + INTRA:          -4.489
REMARK INTER:                  -4.391
REMARK INTRA:                  -0.098
REMARK UNBOUND:                -0.087
REMARK SMILES C=C(C)[C@H]1CC=C(C)C(=O)C1
REMARK SMILES IDX 8 1 7 2 6 3 5 4 4 5 11 6 9 7 10 8 2 9 1 10 3 11
REMARK H PARENT
REMARK Flexibility Score: inf
ROOT
ATOM      1  C   UNL     1    -120.661-101.743   1.571  1.00  0.00     0.048 C 
ATOM      2  C   UNL     1    -119.452-100.897   1.282  1.00  0.00    -0.012 C 
ATOM      3  C   UNL     1    -119.554 -99.557   1.300  1.00  0.00    -0.019 C 
ATOM      4  C   UNL     1    -118.380 -98.663   0.999  1.00  0.00     0.036 C 
ATOM      5  C   UNL     1    -117.060 -99.306   1.465  1.00  0.00     0.025 C 
ATOM      6  C   UNL     1    -116.899-100.707   0.846  1.00  0.00     0.089 C 
ATOM      7  C   UNL     1    -118.126-101.539   1.098  1.00  0.00     0.158 C 
ATOM      8  O   UNL     1    -118.022-102.796   1.116  1.00  0.00    -0.295 OA
ENDROOT
BRANCH   5   9
ATOM      9  C   UNL     1    -115.865 -98.417   1.148  1.00  0.00    -0.077 C 
ATOM     10  C   UNL     1    -115.152 -98.622   0.028  1.00  0.00     0.008 C 
ATOM     11  C   UNL     1    -115.455 -97.293   2.067  1.00  0.00     0.039 C 
ENDBRANCH   5   9
TORSDOF 1
ENDMDL
MODEL 4
REMARK VINA RESULT:    -4.100      2.569      5.224
REMARK INTER + INTRA:          -4.427
REMARK INTER:                  -4.330
REMARK INTRA:                  -0.097
REMARK UNBOUND:                -0.087
REMARK SMILES C=C(C)[C@H]1CC=C(C)C(=O)C1
REMARK SMILES IDX 8 1 7 2 6 3 5 4 4 5 11 6 9 7 10 8 2 9 1 10 3 11
REMARK H PARENT
REMARK Flexibility Score: inf
ROOT
ATOM      1  C   UNL     1    -125.845 -99.752   5.385  1.00  0.00     0.048 C 
ATOM      2  C   UNL     1    -124.594 -99.762   4.549  1.00  0.00    -0.012 C 
ATOM      3  C   UNL     1    -123.401 -99.544   5.129  1.00  0.00    -0.019 C 
ATOM      4  C   UNL     1    -122.120 -99.524   4.336  1.00  0.00     0.036 C 
ATOM      5  C   UNL     1    -122.191-100.497   3.144  1.00  0.00     0.025 C 
ATOM      6  C   UNL     1    -123.421-100.186   2.272  1.00  0.00     0.089 C 
ATOM      7  C   UNL     1    -124.666-100.134   3.114  1.00  0.00     0.158 C 
ATOM      8  O   UNL     1    -125.782-100.373   2.576  1.00  0.00    -0.295 OA
ENDROOT
BRANCH   5   9
ATOM      9  C   UNL     1    -120.907-100.470   2.327  1.00  0.00    -0.077 C 
ATOM     10  C   UNL     1    -120.349 -99.296   1.989  1.00  0.00     0.008 C 
ATOM     11  C   UNL     1    -120.232-101.743   1.879  1.00  0.00     0.039 C 
ENDBRANCH   5   9
TORSDOF 1
ENDMDL
MODEL 5
REMARK VINA RESULT:    -4.081      1.868      2.732
REMARK INTER + INTRA:          -4.406
REMARK INTER:                  -4.311
REMARK INTRA:                  -0.095
REMARK UNBOUND:                -0.087
REMARK SMILES C=C(C)[C@H]1CC=C(C)C(=O)C1
REMARK SMILES IDX 8 1 7 2 6 3 5 4 4 5 11 6 9 7 10 8 2 9 1 10 3 11
REMARK H PARENT
REMARK Flexibility Score: inf
ROOT
ATOM      1  C   UNL     1    -121.750-102.705  -0.056  1.00  0.00     0.048 C 
ATOM      2  C   UNL     1    -122.116-101.752   1.048  1.00  0.00    -0.012 C 
ATOM      3  C   UNL     1    -123.409-101.469   1.287  1.00  0.00    -0.019 C 
ATOM      4  C   UNL     1    -123.830-100.507   2.366  1.00  0.00     0.036 C 
ATOM      5  C   UNL     1    -122.855-100.551   3.558  1.00  0.00     0.025 C 
ATOM      6  C   UNL     1    -121.413-100.296   3.080  1.00  0.00     0.089 C 
ATOM      7  C   UNL     1    -121.062-101.221   1.948  1.00  0.00     0.158 C 
ATOM      8  O   UNL     1    -119.851-101.513   1.747  1.00  0.00    -0.295 OA
ENDROOT
BRANCH   5   9
ATOM      9  C   UNL     1    -123.262 -99.568   4.647  1.00  0.00    -0.077 C 
ATOM     10  C   UNL     1    -124.556 -99.430   4.980  1.00  0.00     0.008 C 
ATOM     11  C   UNL     1    -122.238 -98.732   5.375  1.00  0.00     0.039 C 
ENDBRANCH   5   9
TORSDOF 1
ENDMDL
MODEL 6
REMARK VINA RESULT:    -3.983      1.426      2.063
REMARK INTER + INTRA:          -4.303
REMARK INTER:                  -4.206
REMARK INTRA:                  -0.097
REMARK UNBOUND:                -0.087
REMARK SMILES C=C(C)[C@H]1CC=C(C)C(=O)C1
REMARK SMILES IDX 8 1 7 2 6 3 5 4 4 5 11 6 9 7 10 8 2 9 1 10 3 11
REMARK H PARENT
REMARK Flexibility Score: inf
ROOT
ATOM      1  C   UNL     1    -117.448-100.891   0.349  1.00  0.00     0.048 C 
ATOM      2  C   UNL     1    -118.813-100.751   0.964  1.00  0.00    -0.012 C 
ATOM      3  C   UNL     1    -119.522-101.850   1.276  1.00  0.00    -0.019 C 
ATOM      4  C   UNL     1    -120.901-101.767   1.876  1.00  0.00     0.036 C 
ATOM      5  C   UNL     1    -121.039-100.524   2.775  1.00  0.00     0.025 C 
ATOM      6  C   UNL     1    -120.668 -99.252   1.990  1.00  0.00     0.089 C 
ATOM      7  C   UNL     1    -119.321 -99.408   1.339  1.00  0.00     0.158 C 
ATOM      8  O   UNL     1    -118.642 -98.378   1.079  1.00  0.00    -0.295 OA
ENDROOT
BRANCH   5   9
ATOM      9  C   UNL     1    -122.437-100.421   3.371  1.00  0.00    -0.077 C 
ATOM     10  C   UNL     1    -123.515-100.473   2.572  1.00  0.00     0.008 C 
ATOM     11  C   UNL     1    -122.649-100.265   4.857  1.00  0.00     0.039 C 
ENDBRANCH   5   9
TORSDOF 1
ENDMDL
MODEL 7
REMARK VINA RESULT:    -3.893      2.237      4.849
REMARK INTER + INTRA:          -4.207
REMARK INTER:                  -4.110
REMARK INTRA:                  -0.097
REMARK UNBOUND:                -0.087
REMARK SMILES C=C(C)[C@H]1CC=C(C)C(=O)C1
REMARK SMILES IDX 8 1 7 2 6 3 5 4 4 5 11 6 9 7 10 8 2 9 1 10 3 11
REMARK H PARENT
REMARK Flexibility Score: inf
ROOT
ATOM      1  C   UNL     1    -124.995 -99.368   4.842  1.00  0.00     0.048 C 
ATOM      2  C   UNL     1    -123.880 -99.991   4.047  1.00  0.00    -0.012 C 
ATOM      3  C   UNL     1    -124.083-100.330   2.763  1.00  0.00    -0.019 C 
ATOM      4  C   UNL     1    -123.007-100.973   1.927  1.00  0.00     0.036 C 
ATOM      5  C   UNL     1    -121.610-100.475   2.344  1.00  0.00     0.025 C 
ATOM      6  C   UNL     1    -121.389-100.700   3.851  1.00  0.00     0.089 C 
ATOM      7  C   UNL     1    -122.526-100.115   4.644  1.00  0.00     0.158 C 
ATOM      8  O   UNL     1    -122.325 -99.764   5.838  1.00  0.00    -0.295 OA
ENDROOT
BRANCH   5   9
ATOM      9  C   UNL     1    -120.515-101.135   1.517  1.00  0.00    -0.077 C 
ATOM     10  C   UNL     1    -120.573-102.450   1.248  1.00  0.00     0.008 C 
ATOM     11  C   UNL     1    -119.349-100.342   0.980  1.00  0.00     0.039 C 
ENDBRANCH   5   9
TORSDOF 1
ENDMDL
MODEL 8
REMARK VINA RESULT:    -3.818     13.608     15.330
REMARK INTER + INTRA:          -4.128
REMARK INTER:                  -4.030
REMARK INTRA:                  -0.098
REMARK UNBOUND:                -0.087
REMARK SMILES C=C(C)[C@H]1CC=C(C)C(=O)C1
REMARK SMILES IDX 8 1 7 2 6 3 5 4 4 5 11 6 9 7 10 8 2 9 1 10 3 11
REMARK H PARENT
REMARK Flexibility Score: inf
ROOT
ATOM      1  C   UNL     1    -117.048 -92.737  16.319  1.00  0.00     0.048 C 
ATOM      2  C   UNL     1    -116.427 -94.024  15.851  1.00  0.00    -0.012 C 
ATOM      3  C   UNL     1    -115.260 -94.433  16.377  1.00  0.00    -0.019 C 
ATOM      4  C   UNL     1    -114.585 -95.705  15.932  1.00  0.00     0.036 C 
ATOM      5  C   UNL     1    -115.622 -96.769  15.528  1.00  0.00     0.025 C 
ATOM      6  C   UNL     1    -116.575 -96.209  14.455  1.00  0.00     0.089 C 
ATOM      7  C   UNL     1    -117.162 -94.899  14.904  1.00  0.00     0.158 C 
ATOM      8  O   UNL     1    -118.275 -94.533  14.436  1.00  0.00    -0.295 OA
ENDROOT
BRANCH   5   9
ATOM      9  C   UNL     1    -114.949 -98.052  15.058  1.00  0.00    -0.077 C 
ATOM     10  C   UNL     1    -115.462 -98.744  14.028  1.00  0.00     0.008 C 
ATOM     11  C   UNL     1    -113.699 -98.573  15.724  1.00  0.00     0.039 C 
ENDBRANCH   5   9
TORSDOF 1
ENDMDL
MODEL 9
REMARK VINA RESULT:    -3.791      1.860      5.090
REMARK INTER + INTRA:          -4.100
REMARK INTER:                  -4.002
REMARK INTRA:                  -0.098
REMARK UNBOUND:                -0.087
REMARK SMILES C=C(C)[C@H]1CC=C(C)C(=O)C1
REMARK SMILES IDX 8 1 7 2 6 3 5 4 4 5 11 6 9 7 10 8 2 9 1 10 3 11
REMARK H PARENT
REMARK Flexibility Score: inf
ROOT
ATOM      1  C   UNL     1    -122.217-100.500   2.666  1.00  0.00     0.048 C 
ATOM      2  C   UNL     1    -120.823-100.611   2.115  1.00  0.00    -0.012 C 
ATOM      3  C   UNL     1    -120.282-101.824   1.903  1.00  0.00    -0.019 C 
ATOM      4  C   UNL     1    -118.883-101.992   1.371  1.00  0.00     0.036 C 
ATOM      5  C   UNL     1    -118.514-100.845   0.411  1.00  0.00     0.025 C 
ATOM      6  C   UNL     1    -118.714 -99.484   1.102  1.00  0.00     0.089 C 
ATOM      7  C   UNL     1    -120.095 -99.389   1.691  1.00  0.00     0.158 C 
ATOM      8  O   UNL     1    -120.615 -98.252   1.857  1.00  0.00    -0.295 OA
ENDROOT
BRANCH   5   9
ATOM      9  C   UNL     1    -117.094-100.998  -0.117  1.00  0.00    -0.077 C 
ATOM     10  C   UNL     1    -116.076-100.377   0.500  1.00  0.00     0.008 C 
ATOM     11  C   UNL     1    -116.793-101.842  -1.332  1.00  0.00     0.039 C 
ENDBRANCH   5   9
TORSDOF 1
ENDMDL
