MODEL 1
REMARK VINA RESULT:    -3.503      0.000      0.000
REMARK INTER + INTRA:          -7.373
REMARK INTER:                  -6.165
REMARK INTRA:                  -1.208
REMARK UNBOUND:                -1.208
REMARK SMILES CCCCCCCCCCCCCCC(=O)[O-]
REMARK SMILES IDX 9 1 10 2 11 3 12 4 13 5 14 6 15 7 16 8 17 9 8 10 7 11 6 12
REMARK SMILES IDX 5 13 4 14 3 15 2 16 1 17
REMARK H PARENT
REMARK Flexibility Score: inf
ROOT
ATOM      1  C   UNL     1      15.922  15.900   7.314  1.00  0.00     0.000 C 
ENDROOT
BRANCH   1   2
ATOM      2  C   UNL     1      17.043  14.946   7.753  1.00  0.00     0.000 C 
BRANCH   2   3
ATOM      3  C   UNL     1      16.534  13.503   7.842  1.00  0.00     0.000 C 
BRANCH   3   4
ATOM      4  C   UNL     1      15.104  13.390   7.295  1.00  0.00     0.000 C 
BRANCH   4   5
ATOM      5  C   UNL     1      14.097  12.933   8.362  1.00  0.00     0.006 C 
BRANCH   5   6
ATOM      6  C   UNL     1      14.432  13.470   9.758  1.00  0.00     0.053 C 
BRANCH   6   7
ATOM      7  C   UNL     1      14.062  12.468  10.806  1.00  0.00     0.041 C 
ATOM      8  O   UNL     1      14.255  11.241  10.605  1.00  0.00    -0.550 OA
ATOM      9  O   UNL     1      13.455  12.886  11.985  1.00  0.00    -0.550 OA
ENDBRANCH   6   7
ENDBRANCH   5   6
ENDBRANCH   4   5
ENDBRANCH   3   4
ENDBRANCH   2   3
ENDBRANCH   1   2
BRANCH   1  10
ATOM     10  C   UNL     1      15.584  16.958   8.379  1.00  0.00     0.000 C 
BRANCH  10  11
ATOM     11  C   UNL     1      16.114  16.648   9.794  1.00  0.00    -0.000 C 
BRANCH  11  12
ATOM     12  C   UNL     1      16.638  17.866  10.580  1.00  0.00    -0.000 C 
BRANCH  12  13
ATOM     13  C   UNL     1      16.253  19.237   9.994  1.00  0.00    -0.000 C 
BRANCH  13  14
ATOM     14  C   UNL     1      15.877  20.264  11.077  1.00  0.00    -0.000 C 
BRANCH  14  15
ATOM     15  C   UNL     1      14.878  19.702  12.101  1.00  0.00    -0.000 C 
BRANCH  15  16
ATOM     16  C   UNL     1      13.431  20.133  11.817  1.00  0.00    -0.003 C 
ATOM     17  C   UNL     1      13.254  21.634  12.028  1.00  0.00     0.004 C 
ENDBRANCH  15  16
ENDBRANCH  14  15
ENDBRANCH  13  14
ENDBRANCH  12  13
ENDBRANCH  11  12
ENDBRANCH  10  11
ENDBRANCH   1  10
TORSDOF 13
ENDMDL
MODEL 2
REMARK VINA RESULT:    -3.455      2.776      6.642
REMARK INTER + INTRA:          -7.289
REMARK INTER:                  -6.400
REMARK INTRA:                  -0.889
REMARK UNBOUND:                -1.208
REMARK SMILES CCCCCCCCCCCCCCC(=O)[O-]
REMARK SMILES IDX 9 1 10 2 11 3 12 4 13 5 14 6 15 7 16 8 17 9 8 10 7 11 6 12
REMARK SMILES IDX 5 13 4 14 3 15 2 16 1 17
REMARK H PARENT
REMARK Flexibility Score: inf
ROOT
ATOM      1  C   UNL     1      15.613  16.306   7.419  1.00  0.00     0.000 C 
ENDROOT
BRANCH   1   2
ATOM      2  C   UNL     1      15.594  17.153   8.700  1.00  0.00     0.000 C 
BRANCH   2   3
ATOM      3  C   UNL     1      16.829  18.058   8.780  1.00  0.00     0.000 C 
BRANCH   3   4
ATOM      4  C   UNL     1      16.769  18.961  10.020  1.00  0.00     0.000 C 
BRANCH   4   5
ATOM      5  C   UNL     1      15.349  19.083  10.596  1.00  0.00     0.006 C 
BRANCH   5   6
ATOM      6  C   UNL     1      15.106  20.429  11.289  1.00  0.00     0.053 C 
BRANCH   6   7
ATOM      7  C   UNL     1      13.705  20.502  11.810  1.00  0.00     0.041 C 
ATOM      8  O   UNL     1      13.060  21.581  11.744  1.00  0.00    -0.550 OA
ATOM      9  O   UNL     1      13.130  19.392  12.417  1.00  0.00    -0.550 OA
ENDBRANCH   6   7
ENDBRANCH   5   6
ENDBRANCH   4   5
ENDBRANCH   3   4
ENDBRANCH   2   3
ENDBRANCH   1   2
BRANCH   1  10
ATOM     10  C   UNL     1      16.821  15.356   7.348  1.00  0.00     0.000 C 
BRANCH  10  11
ATOM     11  C   UNL     1      16.520  13.892   7.727  1.00  0.00    -0.000 C 
BRANCH  11  12
ATOM     12  C   UNL     1      15.257  13.292   7.076  1.00  0.00    -0.000 C 
BRANCH  12  13
ATOM     13  C   UNL     1      14.088  13.026   8.041  1.00  0.00    -0.000 C 
BRANCH  13  14
ATOM     14  C   UNL     1      14.498  13.140   9.519  1.00  0.00    -0.000 C 
BRANCH  14  15
ATOM     15  C   UNL     1      14.018  11.944  10.358  1.00  0.00    -0.000 C 
BRANCH  15  16
ATOM     16  C   UNL     1      14.418  12.057  11.837  1.00  0.00    -0.003 C 
ATOM     17  C   UNL     1      13.291  12.667  12.665  1.00  0.00     0.004 C 
ENDBRANCH  15  16
ENDBRANCH  14  15
ENDBRANCH  13  14
ENDBRANCH  12  13
ENDBRANCH  11  12
ENDBRANCH  10  11
ENDBRANCH   1  10
TORSDOF 13
ENDMDL
MODEL 3
REMARK VINA RESULT:    -3.194      1.004      1.496
REMARK INTER + INTRA:          -6.829
REMARK INTER:                  -5.836
REMARK INTRA:                  -0.993
REMARK UNBOUND:                -1.208
REMARK SMILES CCCCCCCCCCCCCCC(=O)[O-]
REMARK SMILES IDX 9 1 10 2 11 3 12 4 13 5 14 6 15 7 16 8 17 9 8 10 7 11 6 12
REMARK SMILES IDX 5 13 4 14 3 15 2 16 1 17
REMARK H PARENT
REMARK Flexibility Score: inf
ROOT
ATOM      1  C   UNL     1      15.748  15.634   7.124  1.00  0.00     0.000 C 
ENDROOT
BRANCH   1   2
ATOM      2  C   UNL     1      15.721  14.099   7.181  1.00  0.00     0.000 C 
BRANCH   2   3
ATOM      3  C   UNL     1      16.660  13.572   8.271  1.00  0.00     0.000 C 
BRANCH   3   4
ATOM      4  C   UNL     1      15.946  13.507   9.628  1.00  0.00     0.000 C 
BRANCH   4   5
ATOM      5  C   UNL     1      14.434  13.264   9.490  1.00  0.00     0.006 C 
BRANCH   5   6
ATOM      6  C   UNL     1      13.979  11.972  10.181  1.00  0.00     0.053 C 
BRANCH   6   7
ATOM      7  C   UNL     1      14.044  12.125  11.668  1.00  0.00     0.041 C 
ATOM      8  O   UNL     1      13.129  12.732  12.283  1.00  0.00    -0.550 OA
ATOM      9  O   UNL     1      15.142  11.643  12.369  1.00  0.00    -0.550 OA
ENDBRANCH   6   7
ENDBRANCH   5   6
ENDBRANCH   4   5
ENDBRANCH   3   4
ENDBRANCH   2   3
ENDBRANCH   1   2
BRANCH   1  10
ATOM     10  C   UNL     1      17.114  16.223   7.518  1.00  0.00     0.000 C 
BRANCH  10  11
ATOM     11  C   UNL     1      17.068  17.280   8.639  1.00  0.00    -0.000 C 
BRANCH  11  12
ATOM     12  C   UNL     1      15.670  17.543   9.235  1.00  0.00    -0.000 C 
BRANCH  12  13
ATOM     13  C   UNL     1      15.665  18.252  10.602  1.00  0.00    -0.000 C 
BRANCH  13  14
ATOM     14  C   UNL     1      15.978  19.755  10.494  1.00  0.00    -0.000 C 
BRANCH  14  15
ATOM     15  C   UNL     1      15.330  20.574  11.622  1.00  0.00    -0.000 C 
BRANCH  15  16
ATOM     16  C   UNL     1      13.800  20.441  11.649  1.00  0.00    -0.003 C 
ATOM     17  C   UNL     1      13.140  21.772  11.995  1.00  0.00     0.004 C 
ENDBRANCH  15  16
ENDBRANCH  14  15
ENDBRANCH  13  14
ENDBRANCH  12  13
ENDBRANCH  11  12
ENDBRANCH  10  11
ENDBRANCH   1  10
TORSDOF 13
ENDMDL
MODEL 4
REMARK VINA RESULT:    -3.186      3.002      6.728
REMARK INTER + INTRA:          -6.816
REMARK INTER:                  -5.329
REMARK INTRA:                  -1.487
REMARK UNBOUND:                -1.208
REMARK SMILES CCCCCCCCCCCCCCC(=O)[O-]
REMARK SMILES IDX 9 1 10 2 11 3 12 4 13 5 14 6 15 7 16 8 17 9 8 10 7 11 6 12
REMARK SMILES IDX 5 13 4 14 3 15 2 16 1 17
REMARK H PARENT
REMARK Flexibility Score: inf
ROOT
ATOM      1  C   UNL     1      16.107  16.494   8.368  1.00  0.00     0.000 C 
ENDROOT
BRANCH   1   2
ATOM      2  C   UNL     1      15.650  17.708   9.191  1.00  0.00     0.000 C 
BRANCH   2   3
ATOM      3  C   UNL     1      16.583  18.904   8.973  1.00  0.00     0.000 C 
BRANCH   3   4
ATOM      4  C   UNL     1      16.910  19.596  10.304  1.00  0.00     0.000 C 
BRANCH   4   5
ATOM      5  C   UNL     1      15.741  19.543  11.301  1.00  0.00     0.006 C 
BRANCH   5   6
ATOM      6  C   UNL     1      15.125  20.923  11.562  1.00  0.00     0.053 C 
BRANCH   6   7
ATOM      7  C   UNL     1      13.660  20.797  11.838  1.00  0.00     0.041 C 
ATOM      8  O   UNL     1      13.160  19.673  12.102  1.00  0.00    -0.550 OA
ATOM      9  O   UNL     1      12.837  21.913  11.752  1.00  0.00    -0.550 OA
ENDBRANCH   6   7
ENDBRANCH   5   6
ENDBRANCH   4   5
ENDBRANCH   3   4
ENDBRANCH   2   3
ENDBRANCH   1   2
BRANCH   1  10
ATOM     10  C   UNL     1      17.054  15.564   9.147  1.00  0.00     0.000 C 
BRANCH  10  11
ATOM     11  C   UNL     1      16.934  15.653  10.682  1.00  0.00    -0.000 C 
BRANCH  11  12
ATOM     12  C   UNL     1      16.102  14.535  11.341  1.00  0.00    -0.000 C 
BRANCH  12  13
ATOM     13  C   UNL     1      16.499  13.103  10.941  1.00  0.00    -0.000 C 
BRANCH  13  14
ATOM     14  C   UNL     1      15.337  12.317  10.308  1.00  0.00    -0.000 C 
BRANCH  14  15
ATOM     15  C   UNL     1      14.288  13.235   9.661  1.00  0.00    -0.000 C 
BRANCH  15  16
ATOM     16  C   UNL     1      13.869  12.763   8.260  1.00  0.00    -0.003 C 
ATOM     17  C   UNL     1      14.870  13.220   7.205  1.00  0.00     0.004 C 
ENDBRANCH  15  16
ENDBRANCH  14  15
ENDBRANCH  13  14
ENDBRANCH  12  13
ENDBRANCH  11  12
ENDBRANCH  10  11
ENDBRANCH   1  10
TORSDOF 13
ENDMDL
MODEL 5
REMARK VINA RESULT:    -3.092      2.635      6.190
REMARK INTER + INTRA:          -6.650
REMARK INTER:                  -5.600
REMARK INTRA:                  -1.050
REMARK UNBOUND:                -1.208
REMARK SMILES CCCCCCCCCCCCCCC(=O)[O-]
REMARK SMILES IDX 9 1 10 2 11 3 12 4 13 5 14 6 15 7 16 8 17 9 8 10 7 11 6 12
REMARK SMILES IDX 5 13 4 14 3 15 2 16 1 17
REMARK H PARENT
REMARK Flexibility Score: inf
ROOT
ATOM      1  C   UNL     1      15.689  15.714   7.236  1.00  0.00     0.000 C 
ENDROOT
BRANCH   1   2
ATOM      2  C   UNL     1      16.467  16.708   8.112  1.00  0.00     0.000 C 
BRANCH   2   3
ATOM      3  C   UNL     1      16.677  16.150   9.524  1.00  0.00     0.000 C 
BRANCH   3   4
ATOM      4  C   UNL     1      16.358  17.211  10.587  1.00  0.00     0.000 C 
BRANCH   4   5
ATOM      5  C   UNL     1      15.445  18.327  10.055  1.00  0.00     0.006 C 
BRANCH   5   6
ATOM      6  C   UNL     1      15.510  19.600  10.907  1.00  0.00     0.053 C 
BRANCH   6   7
ATOM      7  C   UNL     1      14.292  19.714  11.768  1.00  0.00     0.041 C 
ATOM      8  O   UNL     1      14.039  18.831  12.630  1.00  0.00    -0.550 OA
ATOM      9  O   UNL     1      13.406  20.769  11.585  1.00  0.00    -0.550 OA
ENDBRANCH   6   7
ENDBRANCH   5   6
ENDBRANCH   4   5
ENDBRANCH   3   4
ENDBRANCH   2   3
ENDBRANCH   1   2
BRANCH   1  10
ATOM     10  C   UNL     1      16.363  14.333   7.156  1.00  0.00     0.000 C 
BRANCH  10  11
ATOM     11  C   UNL     1      15.396  13.147   6.967  1.00  0.00    -0.000 C 
BRANCH  11  12
ATOM     12  C   UNL     1      14.178  13.138   7.913  1.00  0.00    -0.000 C 
BRANCH  12  13
ATOM     13  C   UNL     1      14.516  13.162   9.414  1.00  0.00    -0.000 C 
BRANCH  13  14
ATOM     14  C   UNL     1      13.989  11.926  10.164  1.00  0.00    -0.000 C 
BRANCH  14  15
ATOM     15  C   UNL     1      14.538  11.827  11.596  1.00  0.00    -0.000 C 
BRANCH  15  16
ATOM     16  C   UNL     1      14.124  13.018  12.474  1.00  0.00    -0.003 C 
ATOM     17  C   UNL     1      15.342  13.824  12.915  1.00  0.00     0.004 C 
ENDBRANCH  15  16
ENDBRANCH  14  15
ENDBRANCH  13  14
ENDBRANCH  12  13
ENDBRANCH  11  12
ENDBRANCH  10  11
ENDBRANCH   1  10
TORSDOF 13
ENDMDL
MODEL 6
REMARK VINA RESULT:    -2.986      0.952      1.642
REMARK INTER + INTRA:          -6.463
REMARK INTER:                  -5.510
REMARK INTRA:                  -0.953
REMARK UNBOUND:                -1.208
REMARK SMILES CCCCCCCCCCCCCCC(=O)[O-]
REMARK SMILES IDX 9 1 10 2 11 3 12 4 13 5 14 6 15 7 16 8 17 9 8 10 7 11 6 12
REMARK SMILES IDX 5 13 4 14 3 15 2 16 1 17
REMARK H PARENT
REMARK Flexibility Score: inf
ROOT
ATOM      1  C   UNL     1      15.499  16.883   8.381  1.00  0.00     0.000 C 
ENDROOT
BRANCH   1   2
ATOM      2  C   UNL     1      16.286  15.965   7.433  1.00  0.00     0.000 C 
BRANCH   2   3
ATOM      3  C   UNL     1      15.579  14.615   7.263  1.00  0.00     0.000 C 
BRANCH   3   4
ATOM      4  C   UNL     1      16.346  13.499   7.987  1.00  0.00     0.000 C 
BRANCH   4   5
ATOM      5  C   UNL     1      15.987  13.408   9.479  1.00  0.00     0.006 C 
BRANCH   5   6
ATOM      6  C   UNL     1      14.473  13.387   9.722  1.00  0.00     0.053 C 
BRANCH   6   7
ATOM      7  C   UNL     1      14.127  12.375  10.769  1.00  0.00     0.041 C 
ATOM      8  O   UNL     1      13.245  12.630  11.630  1.00  0.00    -0.550 OA
ATOM      9  O   UNL     1      14.815  11.169  10.824  1.00  0.00    -0.550 OA
ENDBRANCH   6   7
ENDBRANCH   5   6
ENDBRANCH   4   5
ENDBRANCH   3   4
ENDBRANCH   2   3
ENDBRANCH   1   2
BRANCH   1  10
ATOM     10  C   UNL     1      16.406  17.836   9.179  1.00  0.00     0.000 C 
BRANCH  10  11
ATOM     11  C   UNL     1      16.075  17.943  10.682  1.00  0.00    -0.000 C 
BRANCH  11  12
ATOM     12  C   UNL     1      16.823  19.057  11.441  1.00  0.00    -0.000 C 
BRANCH  12  13
ATOM     13  C   UNL     1      16.431  20.493  11.047  1.00  0.00    -0.000 C 
BRANCH  13  14
ATOM     14  C   UNL     1      15.647  21.222  12.152  1.00  0.00    -0.000 C 
BRANCH  14  15
ATOM     15  C   UNL     1      14.291  21.752  11.661  1.00  0.00    -0.000 C 
BRANCH  15  16
ATOM     16  C   UNL     1      13.105  21.157  12.437  1.00  0.00    -0.003 C 
ATOM     17  C   UNL     1      13.242  19.644  12.573  1.00  0.00     0.004 C 
ENDBRANCH  15  16
ENDBRANCH  14  15
ENDBRANCH  13  14
ENDBRANCH  12  13
ENDBRANCH  11  12
ENDBRANCH  10  11
ENDBRANCH   1  10
TORSDOF 13
ENDMDL
MODEL 7
REMARK VINA RESULT:    -2.970      1.159      1.572
REMARK INTER + INTRA:          -6.435
REMARK INTER:                  -5.631
REMARK INTRA:                  -0.803
REMARK UNBOUND:                -1.208
REMARK SMILES CCCCCCCCCCCCCCC(=O)[O-]
REMARK SMILES IDX 9 1 10 2 11 3 12 4 13 5 14 6 15 7 16 8 17 9 8 10 7 11 6 12
REMARK SMILES IDX 5 13 4 14 3 15 2 16 1 17
REMARK H PARENT
REMARK Flexibility Score: inf
ROOT
ATOM      1  C   UNL     1      16.236  15.812   7.348  1.00  0.00     0.000 C 
ENDROOT
BRANCH   1   2
ATOM      2  C   UNL     1      15.487  14.472   7.417  1.00  0.00     0.000 C 
BRANCH   2   3
ATOM      3  C   UNL     1      16.356  13.389   8.066  1.00  0.00     0.000 C 
BRANCH   3   4
ATOM      4  C   UNL     1      15.985  13.199   9.544  1.00  0.00     0.000 C 
BRANCH   4   5
ATOM      5  C   UNL     1      14.470  13.287   9.789  1.00  0.00     0.006 C 
BRANCH   5   6
ATOM      6  C   UNL     1      13.945  12.140  10.662  1.00  0.00     0.053 C 
BRANCH   6   7
ATOM      7  C   UNL     1      13.756  12.602  12.072  1.00  0.00     0.041 C 
ATOM      8  O   UNL     1      14.752  12.898  12.782  1.00  0.00    -0.550 OA
ATOM      9  O   UNL     1      12.480  12.658  12.620  1.00  0.00    -0.550 OA
ENDBRANCH   6   7
ENDBRANCH   5   6
ENDBRANCH   4   5
ENDBRANCH   3   4
ENDBRANCH   2   3
ENDBRANCH   1   2
BRANCH   1  10
ATOM     10  C   UNL     1      15.643  16.878   8.287  1.00  0.00     0.000 C 
BRANCH  10  11
ATOM     11  C   UNL     1      16.652  17.924   8.802  1.00  0.00    -0.000 C 
BRANCH  11  12
ATOM     12  C   UNL     1      16.061  19.003   9.731  1.00  0.00    -0.000 C 
BRANCH  12  13
ATOM     13  C   UNL     1      15.586  18.494  11.104  1.00  0.00    -0.000 C 
BRANCH  13  14
ATOM     14  C   UNL     1      14.908  19.590  11.944  1.00  0.00    -0.000 C 
BRANCH  14  15
ATOM     15  C   UNL     1      15.524  20.979  11.710  1.00  0.00    -0.000 C 
BRANCH  15  16
ATOM     16  C   UNL     1      14.564  22.123  12.071  1.00  0.00    -0.003 C 
ATOM     17  C   UNL     1      13.112  21.710  11.855  1.00  0.00     0.004 C 
ENDBRANCH  15  16
ENDBRANCH  14  15
ENDBRANCH  13  14
ENDBRANCH  12  13
ENDBRANCH  11  12
ENDBRANCH  10  11
ENDBRANCH   1  10
TORSDOF 13
ENDMDL
MODEL 8
REMARK VINA RESULT:    -2.916      1.484      2.475
REMARK INTER + INTRA:          -6.341
REMARK INTER:                  -4.970
REMARK INTRA:                  -1.371
REMARK UNBOUND:                -1.208
REMARK SMILES CCCCCCCCCCCCCCC(=O)[O-]
REMARK SMILES IDX 9 1 10 2 11 3 12 4 13 5 14 6 15 7 16 8 17 9 8 10 7 11 6 12
REMARK SMILES IDX 5 13 4 14 3 15 2 16 1 17
REMARK H PARENT
REMARK Flexibility Score: inf
ROOT
ATOM      1  C   UNL     1      15.751  14.294   8.765  1.00  0.00     0.000 C 
ENDROOT
BRANCH   1   2
ATOM      2  C   UNL     1      17.048  13.839   9.450  1.00  0.00     0.000 C 
BRANCH   2   3
ATOM      3  C   UNL     1      17.118  14.351  10.893  1.00  0.00     0.000 C 
BRANCH   3   4
ATOM      4  C   UNL     1      15.711  14.565  11.469  1.00  0.00     0.000 C 
BRANCH   4   5
ATOM      5  C   UNL     1      15.373  13.569  12.590  1.00  0.00     0.006 C 
BRANCH   5   6
ATOM      6  C   UNL     1      14.161  12.692  12.254  1.00  0.00     0.053 C 
BRANCH   6   7
ATOM      7  C   UNL     1      14.487  11.761  11.129  1.00  0.00     0.041 C 
ATOM      8  O   UNL     1      13.732  11.693  10.124  1.00  0.00    -0.550 OA
ATOM      9  O   UNL     1      15.598  10.931  11.212  1.00  0.00    -0.550 OA
ENDBRANCH   6   7
ENDBRANCH   5   6
ENDBRANCH   4   5
ENDBRANCH   3   4
ENDBRANCH   2   3
ENDBRANCH   1   2
BRANCH   1  10
ATOM     10  C   UNL     1      15.995  14.949   7.394  1.00  0.00     0.000 C 
BRANCH  10  11
ATOM     11  C   UNL     1      16.615  16.360   7.449  1.00  0.00    -0.000 C 
BRANCH  11  12
ATOM     12  C   UNL     1      16.020  17.296   8.520  1.00  0.00    -0.000 C 
BRANCH  12  13
ATOM     13  C   UNL     1      16.849  18.559   8.816  1.00  0.00    -0.000 C 
BRANCH  13  14
ATOM     14  C   UNL     1      16.593  19.122  10.226  1.00  0.00    -0.000 C 
BRANCH  14  15
ATOM     15  C   UNL     1      15.149  18.892  10.699  1.00  0.00    -0.000 C 
BRANCH  15  16
ATOM     16  C   UNL     1      14.583  20.089  11.479  1.00  0.00    -0.003 C 
ATOM     17  C   UNL     1      13.256  19.733  12.142  1.00  0.00     0.004 C 
ENDBRANCH  15  16
ENDBRANCH  14  15
ENDBRANCH  13  14
ENDBRANCH  12  13
ENDBRANCH  11  12
ENDBRANCH  10  11
ENDBRANCH   1  10
TORSDOF 13
ENDMDL
MODEL 9
REMARK VINA RESULT:    -2.706      3.250      6.904
REMARK INTER + INTRA:          -5.971
REMARK INTER:                  -4.651
REMARK INTRA:                  -1.320
REMARK UNBOUND:                -1.208
REMARK SMILES CCCCCCCCCCCCCCC(=O)[O-]
REMARK SMILES IDX 9 1 10 2 11 3 12 4 13 5 14 6 15 7 16 8 17 9 8 10 7 11 6 12
REMARK SMILES IDX 5 13 4 14 3 15 2 16 1 17
REMARK H PARENT
REMARK Flexibility Score: inf
ROOT
ATOM      1  C   UNL     1      16.258  14.202   9.042  1.00  0.00     0.000 C 
ENDROOT
BRANCH   1   2
ATOM      2  C   UNL     1      16.449  15.650   8.563  1.00  0.00     0.000 C 
BRANCH   2   3
ATOM      3  C   UNL     1      15.690  16.631   9.463  1.00  0.00     0.000 C 
BRANCH   3   4
ATOM      4  C   UNL     1      16.413  16.818  10.805  1.00  0.00     0.000 C 
BRANCH   4   5
ATOM      5  C   UNL     1      15.936  18.067  11.565  1.00  0.00     0.006 C 
BRANCH   5   6
ATOM      6  C   UNL     1      15.199  19.062  10.660  1.00  0.00     0.053 C 
BRANCH   6   7
ATOM      7  C   UNL     1      14.393  20.017  11.484  1.00  0.00     0.041 C 
ATOM      8  O   UNL     1      13.293  19.655  11.977  1.00  0.00    -0.550 OA
ATOM      9  O   UNL     1      14.831  21.323  11.664  1.00  0.00    -0.550 OA
ENDBRANCH   6   7
ENDBRANCH   5   6
ENDBRANCH   4   5
ENDBRANCH   3   4
ENDBRANCH   2   3
ENDBRANCH   1   2
BRANCH   1  10
ATOM     10  C   UNL     1      14.795  13.732   8.954  1.00  0.00     0.000 C 
BRANCH  10  11
ATOM     11  C   UNL     1      14.467  12.471   9.779  1.00  0.00    -0.000 C 
BRANCH  11  12
ATOM     12  C   UNL     1      13.699  12.727  11.091  1.00  0.00    -0.000 C 
BRANCH  12  13
ATOM     13  C   UNL     1      14.441  12.309  12.374  1.00  0.00    -0.000 C 
BRANCH  13  14
ATOM     14  C   UNL     1      15.737  13.108  12.600  1.00  0.00    -0.000 C 
BRANCH  14  15
ATOM     15  C   UNL     1      16.976  12.204  12.708  1.00  0.00    -0.000 C 
BRANCH  15  16
ATOM     16  C   UNL     1      16.627  10.709  12.642  1.00  0.00    -0.003 C 
ATOM     17  C   UNL     1      17.124  10.086  11.341  1.00  0.00     0.004 C 
ENDBRANCH  15  16
ENDBRANCH  14  15
ENDBRANCH  13  14
ENDBRANCH  12  13
ENDBRANCH  11  12
ENDBRANCH  10  11
ENDBRANCH   1  10
TORSDOF 13
ENDMDL
