MODEL 1
REMARK VINA RESULT:    -5.499      0.000      0.000
REMARK INTER + INTRA:         -10.405
REMARK INTER:                  -9.356
REMARK INTRA:                  -1.049
REMARK UNBOUND:                -1.049
REMARK SMILES CCCCCCCCCCCCCC(=O)[O-]
REMARK SMILES IDX 8 1 9 2 10 3 11 4 12 5 13 6 14 7 15 8 16 9 7 10 6 11 5 12
REMARK SMILES IDX 4 13 3 14 2 15 1 16
REMARK H PARENT
REMARK Flexibility Score: inf
ROOT
ATOM      1  C   UNL     1     -14.488  -0.363 -10.586  1.00  0.00     0.000 C 
ENDROOT
BRANCH   1   2
ATOM      2  C   UNL     1     -15.088   0.228  -9.297  1.00  0.00     0.000 C 
BRANCH   2   3
ATOM      3  C   UNL     1     -14.753   1.715  -9.072  1.00  0.00     0.000 C 
BRANCH   3   4
ATOM      4  C   UNL     1     -13.579   2.192  -9.946  1.00  0.00     0.000 C 
BRANCH   4   5
ATOM      5  C   UNL     1     -12.230   2.121  -9.213  1.00  0.00     0.006 C 
BRANCH   5   6
ATOM      6  C   UNL     1     -11.576   3.499  -9.041  1.00  0.00     0.053 C 
BRANCH   6   7
ATOM      7  C   UNL     1     -12.428   4.376  -8.178  1.00  0.00     0.041 C 
ATOM      8  O   UNL     1     -12.276   4.376  -6.929  1.00  0.00    -0.550 OA
ATOM      9  O   UNL     1     -13.355   5.233  -8.759  1.00  0.00    -0.550 OA
ENDBRANCH   6   7
ENDBRANCH   5   6
ENDBRANCH   4   5
ENDBRANCH   3   4
ENDBRANCH   2   3
ENDBRANCH   1   2
BRANCH   1  10
ATOM     10  C   UNL     1     -14.159  -1.861 -10.448  1.00  0.00     0.000 C 
BRANCH  10  11
ATOM     11  C   UNL     1     -12.699  -2.187 -10.813  1.00  0.00    -0.000 C 
BRANCH  11  12
ATOM     12  C   UNL     1     -11.790  -0.960 -11.024  1.00  0.00    -0.000 C 
BRANCH  12  13
ATOM     13  C   UNL     1     -10.448  -0.998 -10.264  1.00  0.00    -0.000 C 
BRANCH  13  14
ATOM     14  C   UNL     1      -9.926  -2.409  -9.942  1.00  0.00    -0.000 C 
BRANCH  14  15
ATOM     15  C   UNL     1      -9.916  -2.712  -8.436  1.00  0.00    -0.003 C 
ATOM     16  C   UNL     1      -9.179  -4.014  -8.142  1.00  0.00     0.004 C 
ENDBRANCH  14  15
ENDBRANCH  13  14
ENDBRANCH  12  13
ENDBRANCH  11  12
ENDBRANCH  10  11
ENDBRANCH   1  10
TORSDOF 12
ENDMDL
MODEL 2
REMARK VINA RESULT:    -5.445      3.169      5.880
REMARK INTER + INTRA:         -10.315
REMARK INTER:                  -9.195
REMARK INTRA:                  -1.119
REMARK UNBOUND:                -1.049
REMARK SMILES CCCCCCCCCCCCCC(=O)[O-]
REMARK SMILES IDX 8 1 9 2 10 3 11 4 12 5 13 6 14 7 15 8 16 9 7 10 6 11 5 12
REMARK SMILES IDX 4 13 3 14 2 15 1 16
REMARK H PARENT
REMARK Flexibility Score: inf
ROOT
ATOM      1  C   UNL     1     -14.619  -0.548 -10.540  1.00  0.00     0.000 C 
ENDROOT
BRANCH   1   2
ATOM      2  C   UNL     1     -14.135  -2.002 -10.386  1.00  0.00     0.000 C 
BRANCH   2   3
ATOM      3  C   UNL     1     -12.686  -2.236 -10.855  1.00  0.00     0.000 C 
BRANCH   3   4
ATOM      4  C   UNL     1     -11.843  -0.949 -10.821  1.00  0.00     0.000 C 
BRANCH   4   5
ATOM      5  C   UNL     1     -10.383  -1.211 -10.413  1.00  0.00     0.006 C 
BRANCH   5   6
ATOM      6  C   UNL     1     -10.226  -1.467  -8.909  1.00  0.00     0.053 C 
BRANCH   6   7
ATOM      7  C   UNL     1      -9.727  -2.857  -8.666  1.00  0.00     0.041 C 
ATOM      8  O   UNL     1     -10.173  -3.531  -7.702  1.00  0.00    -0.550 OA
ATOM      9  O   UNL     1      -8.804  -3.426  -9.535  1.00  0.00    -0.550 OA
ENDBRANCH   6   7
ENDBRANCH   5   6
ENDBRANCH   4   5
ENDBRANCH   3   4
ENDBRANCH   2   3
ENDBRANCH   1   2
BRANCH   1  10
ATOM     10  C   UNL     1     -15.121   0.048  -9.213  1.00  0.00     0.000 C 
BRANCH  10  11
ATOM     11  C   UNL     1     -15.024   1.584  -9.176  1.00  0.00    -0.000 C 
BRANCH  11  12
ATOM     12  C   UNL     1     -13.863   2.185  -9.993  1.00  0.00    -0.000 C 
BRANCH  12  13
ATOM     13  C   UNL     1     -12.477   2.106  -9.321  1.00  0.00    -0.000 C 
BRANCH  13  14
ATOM     14  C   UNL     1     -11.669   3.416  -9.343  1.00  0.00    -0.000 C 
BRANCH  14  15
ATOM     15  C   UNL     1     -12.490   4.630  -8.886  1.00  0.00    -0.003 C 
ATOM     16  C   UNL     1     -12.867   4.517  -7.412  1.00  0.00     0.004 C 
ENDBRANCH  14  15
ENDBRANCH  13  14
ENDBRANCH  12  13
ENDBRANCH  11  12
ENDBRANCH  10  11
ENDBRANCH   1  10
TORSDOF 12
ENDMDL
MODEL 3
REMARK VINA RESULT:    -5.382      1.324      1.996
REMARK INTER + INTRA:         -10.207
REMARK INTER:                  -9.527
REMARK INTRA:                  -0.680
REMARK UNBOUND:                -1.049
REMARK SMILES CCCCCCCCCCCCCC(=O)[O-]
REMARK SMILES IDX 8 1 9 2 10 3 11 4 12 5 13 6 14 7 15 8 16 9 7 10 6 11 5 12
REMARK SMILES IDX 4 13 3 14 2 15 1 16
REMARK H PARENT
REMARK Flexibility Score: inf
ROOT
ATOM      1  C   UNL     1     -12.366   0.523 -10.224  1.00  0.00     0.000 C 
ENDROOT
BRANCH   1   2
ATOM      2  C   UNL     1     -13.816   0.078  -9.955  1.00  0.00     0.000 C 
BRANCH   2   3
ATOM      3  C   UNL     1     -14.745   1.212  -9.483  1.00  0.00     0.000 C 
BRANCH   3   4
ATOM      4  C   UNL     1     -14.074   2.594  -9.567  1.00  0.00     0.000 C 
BRANCH   4   5
ATOM      5  C   UNL     1     -13.810   3.208  -8.182  1.00  0.00     0.006 C 
BRANCH   5   6
ATOM      6  C   UNL     1     -12.909   4.448  -8.246  1.00  0.00     0.053 C 
BRANCH   6   7
ATOM      7  C   UNL     1     -11.613   4.118  -8.917  1.00  0.00     0.041 C 
ATOM      8  O   UNL     1     -11.465   4.329 -10.149  1.00  0.00    -0.550 OA
ATOM      9  O   UNL     1     -10.550   3.624  -8.170  1.00  0.00    -0.550 OA
ENDBRANCH   6   7
ENDBRANCH   5   6
ENDBRANCH   4   5
ENDBRANCH   3   4
ENDBRANCH   2   3
ENDBRANCH   1   2
BRANCH   1  10
ATOM     10  C   UNL     1     -11.578  -0.512 -11.047  1.00  0.00     0.000 C 
BRANCH  10  11
ATOM     11  C   UNL     1     -12.187  -1.924 -10.968  1.00  0.00    -0.000 C 
BRANCH  11  12
ATOM     12  C   UNL     1     -11.472  -2.892 -10.004  1.00  0.00    -0.000 C 
BRANCH  12  13
ATOM     13  C   UNL     1     -10.295  -2.282  -9.215  1.00  0.00    -0.000 C 
BRANCH  13  14
ATOM     14  C   UNL     1      -9.032  -3.159  -9.153  1.00  0.00    -0.000 C 
BRANCH  14  15
ATOM     15  C   UNL     1      -9.200  -4.382  -8.240  1.00  0.00    -0.003 C 
ATOM     16  C   UNL     1      -9.959  -4.018  -6.968  1.00  0.00     0.004 C 
ENDBRANCH  14  15
ENDBRANCH  13  14
ENDBRANCH  12  13
ENDBRANCH  11  12
ENDBRANCH  10  11
ENDBRANCH   1  10
TORSDOF 12
ENDMDL
MODEL 4
REMARK VINA RESULT:    -4.594     14.845     17.482
REMARK INTER + INTRA:          -8.867
REMARK INTER:                  -7.989
REMARK INTRA:                  -0.878
REMARK UNBOUND:                -1.049
REMARK SMILES CCCCCCCCCCCCCC(=O)[O-]
REMARK SMILES IDX 8 1 9 2 10 3 11 4 12 5 13 6 14 7 15 8 16 9 7 10 6 11 5 12
REMARK SMILES IDX 4 13 3 14 2 15 1 16
REMARK H PARENT
REMARK Flexibility Score: inf
ROOT
ATOM      1  C   UNL     1      -9.850   5.723   7.869  1.00  0.00     0.000 C 
ENDROOT
BRANCH   1   2
ATOM      2  C   UNL     1     -10.610   4.397   8.062  1.00  0.00     0.000 C 
BRANCH   2   3
ATOM      3  C   UNL     1     -11.456   3.974   6.847  1.00  0.00     0.000 C 
BRANCH   3   4
ATOM      4  C   UNL     1     -12.855   4.614   6.853  1.00  0.00     0.000 C 
BRANCH   4   5
ATOM      5  C   UNL     1     -12.916   5.906   6.021  1.00  0.00     0.006 C 
BRANCH   5   6
ATOM      6  C   UNL     1     -12.829   5.644   4.512  1.00  0.00     0.053 C 
BRANCH   6   7
ATOM      7  C   UNL     1     -13.940   6.345   3.796  1.00  0.00     0.041 C 
ATOM      8  O   UNL     1     -14.858   5.681   3.246  1.00  0.00    -0.550 OA
ATOM      9  O   UNL     1     -13.990   7.733   3.778  1.00  0.00    -0.550 OA
ENDBRANCH   6   7
ENDBRANCH   5   6
ENDBRANCH   4   5
ENDBRANCH   3   4
ENDBRANCH   2   3
ENDBRANCH   1   2
BRANCH   1  10
ATOM     10  C   UNL     1      -9.179   5.819   6.486  1.00  0.00     0.000 C 
BRANCH  10  11
ATOM     11  C   UNL     1      -9.375   7.195   5.824  1.00  0.00    -0.000 C 
BRANCH  11  12
ATOM     12  C   UNL     1      -8.146   8.125   5.875  1.00  0.00    -0.000 C 
BRANCH  12  13
ATOM     13  C   UNL     1      -8.280   9.435   5.072  1.00  0.00    -0.000 C 
BRANCH  13  14
ATOM     14  C   UNL     1      -7.068  10.378   5.162  1.00  0.00    -0.000 C 
BRANCH  14  15
ATOM     15  C   UNL     1      -6.465  10.441   6.573  1.00  0.00    -0.003 C 
ATOM     16  C   UNL     1      -4.946  10.567   6.517  1.00  0.00     0.004 C 
ENDBRANCH  14  15
ENDBRANCH  13  14
ENDBRANCH  12  13
ENDBRANCH  11  12
ENDBRANCH  10  11
ENDBRANCH   1  10
TORSDOF 12
ENDMDL
MODEL 5
REMARK VINA RESULT:    -4.544     15.296     17.887
REMARK INTER + INTRA:          -8.781
REMARK INTER:                  -8.001
REMARK INTRA:                  -0.780
REMARK UNBOUND:                -1.049
REMARK SMILES CCCCCCCCCCCCCC(=O)[O-]
REMARK SMILES IDX 8 1 9 2 10 3 11 4 12 5 13 6 14 7 15 8 16 9 7 10 6 11 5 12
REMARK SMILES IDX 4 13 3 14 2 15 1 16
REMARK H PARENT
REMARK Flexibility Score: inf
ROOT
ATOM      1  C   UNL     1      -9.122   5.765   6.526  1.00  0.00     0.000 C 
ENDROOT
BRANCH   1   2
ATOM      2  C   UNL     1      -9.323   7.085   5.759  1.00  0.00     0.000 C 
BRANCH   2   3
ATOM      3  C   UNL     1      -8.361   8.211   6.181  1.00  0.00     0.000 C 
BRANCH   3   4
ATOM      4  C   UNL     1      -7.936   9.096   4.997  1.00  0.00     0.000 C 
BRANCH   4   5
ATOM      5  C   UNL     1      -7.826  10.581   5.378  1.00  0.00     0.006 C 
BRANCH   5   6
ATOM      6  C   UNL     1      -6.390  11.114   5.279  1.00  0.00     0.053 C 
BRANCH   6   7
ATOM      7  C   UNL     1      -5.633  10.809   6.533  1.00  0.00     0.041 C 
ATOM      8  O   UNL     1      -4.396  10.580   6.487  1.00  0.00    -0.550 OA
ATOM      9  O   UNL     1      -6.284  10.828   7.760  1.00  0.00    -0.550 OA
ENDBRANCH   6   7
ENDBRANCH   5   6
ENDBRANCH   4   5
ENDBRANCH   3   4
ENDBRANCH   2   3
ENDBRANCH   1   2
BRANCH   1  10
ATOM     10  C   UNL     1     -10.034   5.658   7.761  1.00  0.00     0.000 C 
BRANCH  10  11
ATOM     11  C   UNL     1     -10.655   4.258   7.923  1.00  0.00    -0.000 C 
BRANCH  11  12
ATOM     12  C   UNL     1     -11.683   3.871   6.842  1.00  0.00    -0.000 C 
BRANCH  12  13
ATOM     13  C   UNL     1     -12.773   4.926   6.565  1.00  0.00    -0.000 C 
BRANCH  13  14
ATOM     14  C   UNL     1     -12.678   5.613   5.191  1.00  0.00    -0.000 C 
BRANCH  14  15
ATOM     15  C   UNL     1     -13.974   6.332   4.792  1.00  0.00    -0.003 C 
ATOM     16  C   UNL     1     -14.536   5.771   3.489  1.00  0.00     0.004 C 
ENDBRANCH  14  15
ENDBRANCH  13  14
ENDBRANCH  12  13
ENDBRANCH  11  12
ENDBRANCH  10  11
ENDBRANCH   1  10
TORSDOF 12
ENDMDL
MODEL 6
REMARK VINA RESULT:    -4.367      1.946      3.732
REMARK INTER + INTRA:          -8.480
REMARK INTER:                  -7.834
REMARK INTRA:                  -0.646
REMARK UNBOUND:                -1.049
REMARK SMILES CCCCCCCCCCCCCC(=O)[O-]
REMARK SMILES IDX 8 1 9 2 10 3 11 4 12 5 13 6 14 7 15 8 16 9 7 10 6 11 5 12
REMARK SMILES IDX 4 13 3 14 2 15 1 16
REMARK H PARENT
REMARK Flexibility Score: inf
ROOT
ATOM      1  C   UNL     1     -10.875  -1.957  -9.911  1.00  0.00     0.000 C 
ENDROOT
BRANCH   1   2
ATOM      2  C   UNL     1     -10.741  -0.503 -10.400  1.00  0.00     0.000 C 
BRANCH   2   3
ATOM      3  C   UNL     1     -10.923   0.552  -9.292  1.00  0.00     0.000 C 
BRANCH   3   4
ATOM      4  C   UNL     1     -11.747   1.763  -9.764  1.00  0.00     0.000 C 
BRANCH   4   5
ATOM      5  C   UNL     1     -13.189   1.740  -9.230  1.00  0.00     0.006 C 
BRANCH   5   6
ATOM      6  C   UNL     1     -13.758   3.147  -9.001  1.00  0.00     0.053 C 
BRANCH   6   7
ATOM      7  C   UNL     1     -12.669   4.091  -8.600  1.00  0.00     0.041 C 
ATOM      8  O   UNL     1     -12.067   4.771  -9.472  1.00  0.00    -0.550 OA
ATOM      9  O   UNL     1     -12.355   4.259  -7.257  1.00  0.00    -0.550 OA
ENDBRANCH   6   7
ENDBRANCH   5   6
ENDBRANCH   4   5
ENDBRANCH   3   4
ENDBRANCH   2   3
ENDBRANCH   1   2
BRANCH   1  10
ATOM     10  C   UNL     1     -12.126  -2.654 -10.476  1.00  0.00     0.000 C 
BRANCH  10  11
ATOM     11  C   UNL     1     -13.183  -1.656 -10.985  1.00  0.00    -0.000 C 
BRANCH  11  12
ATOM     12  C   UNL     1     -14.647  -2.076 -10.742  1.00  0.00    -0.000 C 
BRANCH  12  13
ATOM     13  C   UNL     1     -14.875  -3.591 -10.568  1.00  0.00    -0.000 C 
BRANCH  13  14
ATOM     14  C   UNL     1     -15.122  -4.048  -9.119  1.00  0.00    -0.000 C 
BRANCH  14  15
ATOM     15  C   UNL     1     -15.090  -5.575  -8.962  1.00  0.00    -0.003 C 
ATOM     16  C   UNL     1     -14.902  -6.263 -10.310  1.00  0.00     0.004 C 
ENDBRANCH  14  15
ENDBRANCH  13  14
ENDBRANCH  12  13
ENDBRANCH  11  12
ENDBRANCH  10  11
ENDBRANCH   1  10
TORSDOF 12
ENDMDL
MODEL 7
REMARK VINA RESULT:    -4.339     15.999     18.408
REMARK INTER + INTRA:          -8.432
REMARK INTER:                  -7.649
REMARK INTRA:                  -0.783
REMARK UNBOUND:                -1.049
REMARK SMILES CCCCCCCCCCCCCC(=O)[O-]
REMARK SMILES IDX 8 1 9 2 10 3 11 4 12 5 13 6 14 7 15 8 16 9 7 10 6 11 5 12
REMARK SMILES IDX 4 13 3 14 2 15 1 16
REMARK H PARENT
REMARK Flexibility Score: inf
ROOT
ATOM      1  C   UNL     1      -9.212   7.031   5.641  1.00  0.00     0.000 C 
ENDROOT
BRANCH   1   2
ATOM      2  C   UNL     1      -9.142   5.692   6.398  1.00  0.00     0.000 C 
BRANCH   2   3
ATOM      3  C   UNL     1      -9.888   5.691   7.745  1.00  0.00     0.000 C 
BRANCH   3   4
ATOM      4  C   UNL     1     -10.641   4.373   8.000  1.00  0.00     0.000 C 
BRANCH   4   5
ATOM      5  C   UNL     1     -11.596   4.007   6.852  1.00  0.00     0.006 C 
BRANCH   5   6
ATOM      6  C   UNL     1     -12.876   4.854   6.853  1.00  0.00     0.053 C 
BRANCH   6   7
ATOM      7  C   UNL     1     -13.102   5.460   5.504  1.00  0.00     0.041 C 
ATOM      8  O   UNL     1     -12.190   5.438   4.638  1.00  0.00    -0.550 OA
ATOM      9  O   UNL     1     -14.341   6.004   5.186  1.00  0.00    -0.550 OA
ENDBRANCH   6   7
ENDBRANCH   5   6
ENDBRANCH   4   5
ENDBRANCH   3   4
ENDBRANCH   2   3
ENDBRANCH   1   2
BRANCH   1  10
ATOM     10  C   UNL     1      -8.322   8.113   6.277  1.00  0.00     0.000 C 
BRANCH  10  11
ATOM     11  C   UNL     1      -7.849   9.169   5.260  1.00  0.00    -0.000 C 
BRANCH  11  12
ATOM     12  C   UNL     1      -7.938  10.629   5.746  1.00  0.00    -0.000 C 
BRANCH  12  13
ATOM     13  C   UNL     1      -7.145  10.943   7.032  1.00  0.00    -0.000 C 
BRANCH  13  14
ATOM     14  C   UNL     1      -5.627  10.717   6.928  1.00  0.00    -0.000 C 
BRANCH  14  15
ATOM     15  C   UNL     1      -5.007  11.385   5.693  1.00  0.00    -0.003 C 
ATOM     16  C   UNL     1      -3.484  11.389   5.774  1.00  0.00     0.004 C 
ENDBRANCH  14  15
ENDBRANCH  13  14
ENDBRANCH  12  13
ENDBRANCH  11  12
ENDBRANCH  10  11
ENDBRANCH   1  10
TORSDOF 12
ENDMDL
MODEL 8
REMARK VINA RESULT:    -4.284     15.831     17.546
REMARK INTER + INTRA:          -8.338
REMARK INTER:                  -7.125
REMARK INTRA:                  -1.213
REMARK UNBOUND:                -1.049
REMARK SMILES CCCCCCCCCCCCCC(=O)[O-]
REMARK SMILES IDX 8 1 9 2 10 3 11 4 12 5 13 6 14 7 15 8 16 9 7 10 6 11 5 12
REMARK SMILES IDX 4 13 3 14 2 15 1 16
REMARK H PARENT
REMARK Flexibility Score: inf
ROOT
ATOM      1  C   UNL     1     -10.880   4.404   7.908  1.00  0.00     0.000 C 
ENDROOT
BRANCH   1   2
ATOM      2  C   UNL     1     -11.589   4.127   6.569  1.00  0.00     0.000 C 
BRANCH   2   3
ATOM      3  C   UNL     1     -12.838   4.995   6.327  1.00  0.00     0.000 C 
BRANCH   3   4
ATOM      4  C   UNL     1     -12.776   5.753   4.989  1.00  0.00     0.000 C 
BRANCH   4   5
ATOM      5  C   UNL     1     -13.261   7.207   5.111  1.00  0.00     0.006 C 
BRANCH   5   6
ATOM      6  C   UNL     1     -12.432   8.025   6.110  1.00  0.00     0.053 C 
BRANCH   6   7
ATOM      7  C   UNL     1     -12.454   9.475   5.741  1.00  0.00     0.041 C 
ATOM      8  O   UNL     1     -13.509  10.002   5.302  1.00  0.00    -0.550 OA
ATOM      9  O   UNL     1     -11.321  10.257   5.929  1.00  0.00    -0.550 OA
ENDBRANCH   6   7
ENDBRANCH   5   6
ENDBRANCH   4   5
ENDBRANCH   3   4
ENDBRANCH   2   3
ENDBRANCH   1   2
BRANCH   1  10
ATOM     10  C   UNL     1      -9.987   5.656   7.852  1.00  0.00     0.000 C 
BRANCH  10  11
ATOM     11  C   UNL     1      -9.130   5.719   6.575  1.00  0.00    -0.000 C 
BRANCH  11  12
ATOM     12  C   UNL     1      -9.303   7.000   5.734  1.00  0.00    -0.000 C 
BRANCH  12  13
ATOM     13  C   UNL     1      -8.352   8.159   6.100  1.00  0.00    -0.000 C 
BRANCH  13  14
ATOM     14  C   UNL     1      -7.993   9.096   4.933  1.00  0.00    -0.000 C 
BRANCH  14  15
ATOM     15  C   UNL     1      -7.118  10.280   5.368  1.00  0.00    -0.003 C 
ATOM     16  C   UNL     1      -6.800  10.211   6.858  1.00  0.00     0.004 C 
ENDBRANCH  14  15
ENDBRANCH  13  14
ENDBRANCH  12  13
ENDBRANCH  11  12
ENDBRANCH  10  11
ENDBRANCH   1  10
TORSDOF 12
ENDMDL
