MODEL 1
REMARK VINA RESULT:    -2.536      0.000      0.000
REMARK INTER + INTRA:          -3.291
REMARK INTER:                  -2.981
REMARK INTRA:                  -0.310
REMARK UNBOUND:                -0.310
REMARK SMILES O=c1cc(-c2ccc(O)c(O)c2)oc2cc(O)cc(O)c12
REMARK SMILES IDX 4 1 3 2 2 3 1 4 21 5 19 6 18 7 16 8 15 9 14 10 13 11 5 12
REMARK SMILES IDX 6 13 7 14 8 15 12 16 10 17 9 18 11 20 20 22 17 24
REMARK H PARENT 9 19 11 21 20 23 17 25
REMARK Flexibility Score: inf
ROOT
ATOM      1  C   UNL     1     118.881  27.165 118.821  1.00  0.00     0.138 A 
ATOM      2  C   UNL     1     119.238  26.052 118.046  1.00  0.00     0.100 A 
ATOM      3  C   UNL     1     120.551  25.919 117.592  1.00  0.00     0.197 A 
ATOM      4  O   UNL     1     120.825  24.939 116.853  1.00  0.00    -0.289 OA
ATOM      5  C   UNL     1     121.519  26.889 117.944  1.00  0.00     0.107 A 
ATOM      6  C   UNL     1     122.895  26.841 117.566  1.00  0.00     0.134 A 
ATOM      7  C   UNL     1     123.739  27.911 117.892  1.00  0.00     0.093 A 
ATOM      8  C   UNL     1     123.269  28.999 118.631  1.00  0.00     0.123 A 
ATOM      9  C   UNL     1     121.941  29.032 119.048  1.00  0.00     0.094 A 
ATOM     10  C   UNL     1     121.066  27.998 118.709  1.00  0.00     0.146 A 
ATOM     11  O   UNL     1     119.802  28.078 119.111  1.00  0.00    -0.456 OA
ENDROOT
BRANCH   1  12
ATOM     12  C   UNL     1     117.500  27.355 119.333  1.00  0.00     0.021 A 
ATOM     13  C   UNL     1     116.386  26.789 118.686  1.00  0.00     0.016 A 
ATOM     14  C   UNL     1     115.098  26.994 119.187  1.00  0.00     0.051 A 
ATOM     15  C   UNL     1     114.898  27.771 120.335  1.00  0.00     0.157 A 
ATOM     16  C   UNL     1     117.292  28.145 120.478  1.00  0.00     0.062 A 
ATOM     17  C   UNL     1     116.002  28.350 120.982  1.00  0.00     0.158 A 
BRANCH  15  18
ATOM     18  O   UNL     1     113.611  27.972 120.833  1.00  0.00    -0.504 OA
ATOM     19  H   UNL     1     113.402  28.729 121.473  1.00  0.00     0.293 HD
ENDBRANCH  15  18
BRANCH  17  20
ATOM     20  O   UNL     1     115.838  29.133 122.125  1.00  0.00    -0.504 OA
ATOM     21  H   UNL     1     116.596  29.302 122.774  1.00  0.00     0.293 HD
ENDBRANCH  17  20
ENDBRANCH   1  12
BRANCH   6  22
ATOM     22  O   UNL     1     123.487  25.765 116.897  1.00  0.00    -0.507 OA
ATOM     23  H   UNL     1     124.398  25.386 117.102  1.00  0.00     0.293 HD
ENDBRANCH   6  22
BRANCH   8  24
ATOM     24  O   UNL     1     124.120  30.052 118.964  1.00  0.00    -0.508 OA
ATOM     25  H   UNL     1     125.028  30.158 118.527  1.00  0.00     0.293 HD
ENDBRANCH   8  24
TORSDOF 5
ENDMDL
MODEL 2
REMARK VINA RESULT:    -2.494      2.372      7.057
REMARK INTER + INTRA:          -3.242
REMARK INTER:                  -2.966
REMARK INTRA:                  -0.276
REMARK UNBOUND:                -0.310
REMARK SMILES O=c1cc(-c2ccc(O)c(O)c2)oc2cc(O)cc(O)c12
REMARK SMILES IDX 4 1 3 2 2 3 1 4 21 5 19 6 18 7 16 8 15 9 14 10 13 11 5 12
REMARK SMILES IDX 6 13 7 14 8 15 12 16 10 17 9 18 11 20 20 22 17 24
REMARK H PARENT 9 19 11 21 20 23 17 25
REMARK Flexibility Score: inf
ROOT
ATOM      1  C   UNL     1     119.741  27.831 119.042  1.00  0.00     0.138 A 
ATOM      2  C   UNL     1     118.922  28.594 119.886  1.00  0.00     0.100 A 
ATOM      3  C   UNL     1     117.850  27.987 120.542  1.00  0.00     0.197 A 
ATOM      4  O   UNL     1     117.102  28.709 121.248  1.00  0.00    -0.289 OA
ATOM      5  C   UNL     1     117.618  26.600 120.376  1.00  0.00     0.107 A 
ATOM      6  C   UNL     1     116.576  25.866 121.019  1.00  0.00     0.134 A 
ATOM      7  C   UNL     1     116.385  24.515 120.700  1.00  0.00     0.093 A 
ATOM      8  C   UNL     1     117.234  23.859 119.807  1.00  0.00     0.123 A 
ATOM      9  C   UNL     1     118.284  24.553 119.212  1.00  0.00     0.094 A 
ATOM     10  C   UNL     1     118.480  25.910 119.482  1.00  0.00     0.146 A 
ATOM     11  O   UNL     1     119.483  26.539 118.879  1.00  0.00    -0.456 OA
ENDROOT
BRANCH   1  12
ATOM     12  C   UNL     1     120.897  28.426 118.323  1.00  0.00     0.021 A 
ATOM     13  C   UNL     1     121.982  28.999 119.012  1.00  0.00     0.016 A 
ATOM     14  C   UNL     1     123.051  29.559 118.307  1.00  0.00     0.051 A 
ATOM     15  C   UNL     1     123.053  29.564 116.907  1.00  0.00     0.157 A 
ATOM     16  C   UNL     1     120.899  28.446 116.917  1.00  0.00     0.062 A 
ATOM     17  C   UNL     1     121.969  29.006 116.210  1.00  0.00     0.158 A 
BRANCH  15  18
ATOM     18  O   UNL     1     124.121  30.123 116.208  1.00  0.00    -0.504 OA
ATOM     19  H   UNL     1     125.083  29.906 116.447  1.00  0.00     0.293 HD
ENDBRANCH  15  18
BRANCH  17  20
ATOM     20  O   UNL     1     121.937  28.998 114.815  1.00  0.00    -0.504 OA
ATOM     21  H   UNL     1     122.544  28.401 114.266  1.00  0.00     0.293 HD
ENDBRANCH  17  20
ENDBRANCH   1  12
BRANCH   6  22
ATOM     22  O   UNL     1     115.722  26.402 121.988  1.00  0.00    -0.507 OA
ATOM     23  H   UNL     1     114.896  26.947 121.794  1.00  0.00     0.293 HD
ENDBRANCH   6  22
BRANCH   8  24
ATOM     24  O   UNL     1     117.045  22.510 119.508  1.00  0.00    -0.508 OA
ATOM     25  H   UNL     1     116.940  21.816 120.238  1.00  0.00     0.293 HD
ENDBRANCH   8  24
TORSDOF 5
ENDMDL
MODEL 3
REMARK VINA RESULT:    -2.461      1.974      6.776
REMARK INTER + INTRA:          -3.202
REMARK INTER:                  -2.938
REMARK INTRA:                  -0.265
REMARK UNBOUND:                -0.310
REMARK SMILES O=c1cc(-c2ccc(O)c(O)c2)oc2cc(O)cc(O)c12
REMARK SMILES IDX 4 1 3 2 2 3 1 4 21 5 19 6 18 7 16 8 15 9 14 10 13 11 5 12
REMARK SMILES IDX 6 13 7 14 8 15 12 16 10 17 9 18 11 20 20 22 17 24
REMARK H PARENT 9 19 11 21 20 23 17 25
REMARK Flexibility Score: inf
ROOT
ATOM      1  C   UNL     1     119.397  28.005 119.027  1.00  0.00     0.138 A 
ATOM      2  C   UNL     1     119.131  26.630 119.093  1.00  0.00     0.100 A 
ATOM      3  C   UNL     1     117.987  26.179 119.755  1.00  0.00     0.197 A 
ATOM      4  O   UNL     1     117.806  24.939 119.845  1.00  0.00    -0.289 OA
ATOM      5  C   UNL     1     117.090  27.114 120.325  1.00  0.00     0.107 A 
ATOM      6  C   UNL     1     115.876  26.773 120.995  1.00  0.00     0.134 A 
ATOM      7  C   UNL     1     115.117  27.781 121.605  1.00  0.00     0.093 A 
ATOM      8  C   UNL     1     115.498  29.121 121.518  1.00  0.00     0.123 A 
ATOM      9  C   UNL     1     116.654  29.470 120.824  1.00  0.00     0.094 A 
ATOM     10  C   UNL     1     117.451  28.485 120.235  1.00  0.00     0.146 A 
ATOM     11  O   UNL     1     118.555  28.860 119.597  1.00  0.00    -0.456 OA
ENDROOT
BRANCH   1  12
ATOM     12  C   UNL     1     120.597  28.539 118.333  1.00  0.00     0.021 A 
ATOM     13  C   UNL     1     120.615  28.749 116.941  1.00  0.00     0.016 A 
ATOM     14  C   UNL     1     121.762  29.244 116.316  1.00  0.00     0.051 A 
ATOM     15  C   UNL     1     122.911  29.531 117.064  1.00  0.00     0.157 A 
ATOM     16  C   UNL     1     121.757  28.817 119.076  1.00  0.00     0.062 A 
ATOM     17  C   UNL     1     122.907  29.314 118.451  1.00  0.00     0.158 A 
BRANCH  15  18
ATOM     18  O   UNL     1     124.052  30.026 116.435  1.00  0.00    -0.504 OA
ATOM     19  H   UNL     1     124.533  29.498 115.716  1.00  0.00     0.293 HD
ENDBRANCH  15  18
BRANCH  17  20
ATOM     20  O   UNL     1     124.035  29.586 119.225  1.00  0.00    -0.504 OA
ATOM     21  H   UNL     1     124.833  30.089 118.855  1.00  0.00     0.293 HD
ENDBRANCH  17  20
ENDBRANCH   1  12
BRANCH   6  22
ATOM     22  O   UNL     1     115.360  25.475 121.072  1.00  0.00    -0.507 OA
ATOM     23  H   UNL     1     114.707  25.152 121.768  1.00  0.00     0.293 HD
ENDBRANCH   6  22
BRANCH   8  24
ATOM     24  O   UNL     1     114.728  30.119 122.115  1.00  0.00    -0.508 OA
ATOM     25  H   UNL     1     114.553  31.002 121.651  1.00  0.00     0.293 HD
ENDBRANCH   8  24
TORSDOF 5
ENDMDL
MODEL 4
REMARK VINA RESULT:    -2.447      2.232      7.404
REMARK INTER + INTRA:          -3.186
REMARK INTER:                  -2.897
REMARK INTRA:                  -0.288
REMARK UNBOUND:                -0.310
REMARK SMILES O=c1cc(-c2ccc(O)c(O)c2)oc2cc(O)cc(O)c12
REMARK SMILES IDX 4 1 3 2 2 3 1 4 21 5 19 6 18 7 16 8 15 9 14 10 13 11 5 12
REMARK SMILES IDX 6 13 7 14 8 15 12 16 10 17 9 18 11 20 20 22 17 24
REMARK H PARENT 9 19 11 21 20 23 17 25
REMARK Flexibility Score: inf
ROOT
ATOM      1  C   UNL     1     118.763  29.118 118.885  1.00  0.00     0.138 A 
ATOM      2  C   UNL     1     118.548  28.904 120.254  1.00  0.00     0.100 A 
ATOM      3  C   UNL     1     117.250  28.956 120.765  1.00  0.00     0.197 A 
ATOM      4  O   UNL     1     117.095  28.815 122.004  1.00  0.00    -0.289 OA
ATOM      5  C   UNL     1     116.159  29.189 119.893  1.00  0.00     0.107 A 
ATOM      6  C   UNL     1     114.790  29.229 120.294  1.00  0.00     0.134 A 
ATOM      7  C   UNL     1     113.805  29.566 119.356  1.00  0.00     0.093 A 
ATOM      8  C   UNL     1     114.134  29.806 118.021  1.00  0.00     0.123 A 
ATOM      9  C   UNL     1     115.461  29.720 117.608  1.00  0.00     0.094 A 
ATOM     10  C   UNL     1     116.471  29.421 118.526  1.00  0.00     0.146 A 
ATOM     11  O   UNL     1     117.726  29.366 118.093  1.00  0.00    -0.456 OA
ENDROOT
BRANCH   1  12
ATOM     12  C   UNL     1     120.123  29.071 118.288  1.00  0.00     0.021 A 
ATOM     13  C   UNL     1     120.426  29.735 117.085  1.00  0.00     0.016 A 
ATOM     14  C   UNL     1     121.713  29.665 116.543  1.00  0.00     0.051 A 
ATOM     15  C   UNL     1     122.714  28.927 117.187  1.00  0.00     0.157 A 
ATOM     16  C   UNL     1     121.129  28.321 118.922  1.00  0.00     0.062 A 
ATOM     17  C   UNL     1     122.418  28.251 118.381  1.00  0.00     0.158 A 
BRANCH  15  18
ATOM     18  O   UNL     1     123.996  28.860 116.643  1.00  0.00    -0.504 OA
ATOM     19  H   UNL     1     124.488  27.979 116.552  1.00  0.00     0.293 HD
ENDBRANCH  15  18
BRANCH  17  20
ATOM     20  O   UNL     1     123.391  27.504 119.045  1.00  0.00    -0.504 OA
ATOM     21  H   UNL     1     124.111  27.938 119.610  1.00  0.00     0.293 HD
ENDBRANCH  17  20
ENDBRANCH   1  12
BRANCH   6  22
ATOM     22  O   UNL     1     114.342  28.928 121.584  1.00  0.00    -0.507 OA
ATOM     23  H   UNL     1     114.885  28.456 122.290  1.00  0.00     0.293 HD
ENDBRANCH   6  22
BRANCH   8  24
ATOM     24  O   UNL     1     113.145  30.125 117.092  1.00  0.00    -0.508 OA
ATOM     25  H   UNL     1     112.292  29.582 117.018  1.00  0.00     0.293 HD
ENDBRANCH   8  24
TORSDOF 5
ENDMDL
MODEL 5
REMARK VINA RESULT:    -2.383      1.402      7.334
REMARK INTER + INTRA:          -3.111
REMARK INTER:                  -2.817
REMARK INTRA:                  -0.295
REMARK UNBOUND:                -0.310
REMARK SMILES O=c1cc(-c2ccc(O)c(O)c2)oc2cc(O)cc(O)c12
REMARK SMILES IDX 4 1 3 2 2 3 1 4 21 5 19 6 18 7 16 8 15 9 14 10 13 11 5 12
REMARK SMILES IDX 6 13 7 14 8 15 12 16 10 17 9 18 11 20 20 22 17 24
REMARK H PARENT 9 19 11 21 20 23 17 25
REMARK Flexibility Score: inf
ROOT
ATOM      1  C   UNL     1     118.990  27.973 119.368  1.00  0.00     0.138 A 
ATOM      2  C   UNL     1     118.769  29.006 120.290  1.00  0.00     0.100 A 
ATOM      3  C   UNL     1     117.508  29.155 120.870  1.00  0.00     0.197 A 
ATOM      4  O   UNL     1     117.326  30.124 121.649  1.00  0.00    -0.289 OA
ATOM      5  C   UNL     1     116.473  28.244 120.549  1.00  0.00     0.107 A 
ATOM      6  C   UNL     1     115.158  28.277 121.102  1.00  0.00     0.134 A 
ATOM      7  C   UNL     1     114.188  27.380 120.634  1.00  0.00     0.093 A 
ATOM      8  C   UNL     1     114.504  26.415 119.675  1.00  0.00     0.123 A 
ATOM      9  C   UNL     1     115.797  26.341 119.165  1.00  0.00     0.094 A 
ATOM     10  C   UNL     1     116.777  27.243 119.586  1.00  0.00     0.146 A 
ATOM     11  O   UNL     1     117.994  27.149 119.060  1.00  0.00    -0.456 OA
ENDROOT
BRANCH   1  12
ATOM     12  C   UNL     1     120.313  27.766 118.724  1.00  0.00     0.021 A 
ATOM     13  C   UNL     1     120.510  26.783 117.736  1.00  0.00     0.016 A 
ATOM     14  C   UNL     1     121.769  26.606 117.156  1.00  0.00     0.051 A 
ATOM     15  C   UNL     1     122.852  27.400 117.554  1.00  0.00     0.157 A 
ATOM     16  C   UNL     1     121.407  28.550 119.129  1.00  0.00     0.062 A 
ATOM     17  C   UNL     1     122.669  28.375 118.547  1.00  0.00     0.158 A 
BRANCH  15  18
ATOM     18  O   UNL     1     124.105  27.221 116.971  1.00  0.00    -0.504 OA
ATOM     19  H   UNL     1     124.393  27.755 116.159  1.00  0.00     0.293 HD
ENDBRANCH  15  18
BRANCH  17  20
ATOM     20  O   UNL     1     123.727  29.180 118.970  1.00  0.00    -0.504 OA
ATOM     21  H   UNL     1     124.045  29.977 118.432  1.00  0.00     0.293 HD
ENDBRANCH  17  20
ENDBRANCH   1  12
BRANCH   6  22
ATOM     22  O   UNL     1     114.758  29.146 122.122  1.00  0.00    -0.507 OA
ATOM     23  H   UNL     1     114.189  29.968 121.993  1.00  0.00     0.293 HD
ENDBRANCH   6  22
BRANCH   8  24
ATOM     24  O   UNL     1     113.536  25.517 119.227  1.00  0.00    -0.508 OA
ATOM     25  H   UNL     1     112.577  25.805 119.072  1.00  0.00     0.293 HD
ENDBRANCH   8  24
TORSDOF 5
ENDMDL
MODEL 6
REMARK VINA RESULT:    -2.376      2.363      6.612
REMARK INTER + INTRA:          -3.103
REMARK INTER:                  -2.784
REMARK INTRA:                  -0.318
REMARK UNBOUND:                -0.310
REMARK SMILES O=c1cc(-c2ccc(O)c(O)c2)oc2cc(O)cc(O)c12
REMARK SMILES IDX 4 1 3 2 2 3 1 4 21 5 19 6 18 7 16 8 15 9 14 10 13 11 5 12
REMARK SMILES IDX 6 13 7 14 8 15 12 16 10 17 9 18 11 20 20 22 17 24
REMARK H PARENT 9 19 11 21 20 23 17 25
REMARK Flexibility Score: inf
ROOT
ATOM      1  C   UNL     1     120.039  26.377 118.011  1.00  0.00     0.138 A 
ATOM      2  C   UNL     1     119.450  25.168 118.409  1.00  0.00     0.100 A 
ATOM      3  C   UNL     1     118.522  25.163 119.452  1.00  0.00     0.197 A 
ATOM      4  O   UNL     1     118.054  24.057 119.823  1.00  0.00    -0.289 OA
ATOM      5  C   UNL     1     118.158  26.380 120.077  1.00  0.00     0.107 A 
ATOM      6  C   UNL     1     117.200  26.502 121.128  1.00  0.00     0.134 A 
ATOM      7  C   UNL     1     116.995  27.748 121.734  1.00  0.00     0.093 A 
ATOM      8  C   UNL     1     117.670  28.886 121.289  1.00  0.00     0.123 A 
ATOM      9  C   UNL     1     118.571  28.788 120.231  1.00  0.00     0.094 A 
ATOM     10  C   UNL     1     118.824  27.553 119.628  1.00  0.00     0.146 A 
ATOM     11  O   UNL     1     119.704  27.501 118.634  1.00  0.00    -0.456 OA
ENDROOT
BRANCH   1  12
ATOM     12  C   UNL     1     121.029  26.440 116.905  1.00  0.00     0.021 A 
ATOM     13  C   UNL     1     121.451  25.285 116.222  1.00  0.00     0.016 A 
ATOM     14  C   UNL     1     122.391  25.376 115.192  1.00  0.00     0.051 A 
ATOM     15  C   UNL     1     122.931  26.617 114.832  1.00  0.00     0.157 A 
ATOM     16  C   UNL     1     121.584  27.681 116.547  1.00  0.00     0.062 A 
ATOM     17  C   UNL     1     122.525  27.775 115.515  1.00  0.00     0.158 A 
BRANCH  15  18
ATOM     18  O   UNL     1     123.867  26.703 113.803  1.00  0.00    -0.504 OA
ATOM     19  H   UNL     1     123.865  27.477 113.148  1.00  0.00     0.293 HD
ENDBRANCH  15  18
BRANCH  17  20
ATOM     20  O   UNL     1     123.046  29.026 115.184  1.00  0.00    -0.504 OA
ATOM     21  H   UNL     1     124.042  29.207 115.168  1.00  0.00     0.293 HD
ENDBRANCH  17  20
ENDBRANCH   1  12
BRANCH   6  22
ATOM     22  O   UNL     1     116.411  25.446 121.595  1.00  0.00    -0.507 OA
ATOM     23  H   UNL     1     116.687  24.477 121.603  1.00  0.00     0.293 HD
ENDBRANCH   6  22
BRANCH   8  24
ATOM     24  O   UNL     1     117.448  30.125 121.889  1.00  0.00    -0.508 OA
ATOM     25  H   UNL     1     116.866  30.829 121.450  1.00  0.00     0.293 HD
ENDBRANCH   8  24
TORSDOF 5
ENDMDL
MODEL 7
REMARK VINA RESULT:    -2.333      2.557      3.697
REMARK INTER + INTRA:          -3.052
REMARK INTER:                  -2.770
REMARK INTRA:                  -0.282
REMARK UNBOUND:                -0.310
REMARK SMILES O=c1cc(-c2ccc(O)c(O)c2)oc2cc(O)cc(O)c12
REMARK SMILES IDX 4 1 3 2 2 3 1 4 21 5 19 6 18 7 16 8 15 9 14 10 13 11 5 12
REMARK SMILES IDX 6 13 7 14 8 15 12 16 10 17 9 18 11 20 20 22 17 24
REMARK H PARENT 9 19 11 21 20 23 17 25
REMARK Flexibility Score: inf
ROOT
ATOM      1  C   UNL     1     120.027  28.205 118.629  1.00  0.00     0.138 A 
ATOM      2  C   UNL     1     121.200  28.795 119.122  1.00  0.00     0.100 A 
ATOM      3  C   UNL     1     122.201  29.188 118.233  1.00  0.00     0.197 A 
ATOM      4  O   UNL     1     123.263  29.662 118.709  1.00  0.00    -0.289 OA
ATOM      5  C   UNL     1     122.012  29.019 116.840  1.00  0.00     0.107 A 
ATOM      6  C   UNL     1     122.949  29.411 115.837  1.00  0.00     0.134 A 
ATOM      7  C   UNL     1     122.693  29.103 114.494  1.00  0.00     0.093 A 
ATOM      8  C   UNL     1     121.508  28.468 114.114  1.00  0.00     0.123 A 
ATOM      9  C   UNL     1     120.565  28.126 115.079  1.00  0.00     0.094 A 
ATOM     10  C   UNL     1     120.806  28.388 116.430  1.00  0.00     0.146 A 
ATOM     11  O   UNL     1     119.887  28.029 117.320  1.00  0.00    -0.456 OA
ENDROOT
BRANCH   1  12
ATOM     12  C   UNL     1     118.928  27.772 119.530  1.00  0.00     0.021 A 
ATOM     13  C   UNL     1     118.318  28.661 120.435  1.00  0.00     0.016 A 
ATOM     14  C   UNL     1     117.293  28.221 121.277  1.00  0.00     0.051 A 
ATOM     15  C   UNL     1     116.865  26.889 121.236  1.00  0.00     0.157 A 
ATOM     16  C   UNL     1     118.502  26.432 119.504  1.00  0.00     0.062 A 
ATOM     17  C   UNL     1     117.475  25.990 120.346  1.00  0.00     0.158 A 
BRANCH  15  18
ATOM     18  O   UNL     1     115.841  26.455 122.077  1.00  0.00    -0.504 OA
ATOM     19  H   UNL     1     114.900  26.303 121.731  1.00  0.00     0.293 HD
ENDBRANCH  15  18
BRANCH  17  20
ATOM     20  O   UNL     1     117.074  24.656 120.283  1.00  0.00    -0.504 OA
ATOM     21  H   UNL     1     117.078  24.133 119.415  1.00  0.00     0.293 HD
ENDBRANCH  17  20
ENDBRANCH   1  12
BRANCH   6  22
ATOM     22  O   UNL     1     124.125  30.121 116.097  1.00  0.00    -0.507 OA
ATOM     23  H   UNL     1     125.014  29.704 116.325  1.00  0.00     0.293 HD
ENDBRANCH   6  22
BRANCH   8  24
ATOM     24  O   UNL     1     121.255  28.180 112.774  1.00  0.00    -0.508 OA
ATOM     25  H   UNL     1     120.445  28.555 112.294  1.00  0.00     0.293 HD
ENDBRANCH   8  24
TORSDOF 5
ENDMDL
