MODEL 1
REMARK VINA RESULT:    -4.141      0.000      0.000
REMARK INTER + INTRA:          -6.407
REMARK INTER:                  -6.319
REMARK INTRA:                  -0.088
REMARK UNBOUND:                -0.088
REMARK SMILES CC1=CCC[C@@H](C)C(=O)C[C@H](C(C)C)C(=O)C1
REMARK SMILES IDX 8 1 9 2 6 3 7 4 5 5 4 6 3 7 2 8 1 9 10 11 11 12 15 13 16 14
REMARK SMILES IDX 17 15 12 17 13 18 14 19
REMARK H PARENT
REMARK Flexibility Score: 70.00
ROOT
ATOM      1  C   UNL     1     -27.124  18.821 -32.589  1.00  0.00     0.136 C 
ATOM      2  O   UNL     1     -27.726  18.019 -33.291  1.00  0.00    -0.299 OA
ENDROOT
BRANCH   1   3
ATOM      3  C   UNL     1     -26.851  20.221 -33.108  1.00  0.00     0.053 C 
ATOM      4  C   UNL     1     -28.160  20.933 -33.486  1.00  0.00     0.016 C 
BRANCH   3   5
ATOM      5  C   UNL     1     -25.881  20.167 -34.314  1.00  0.00     0.015 C 
BRANCH   5   6
ATOM      6  C   UNL     1     -24.404  20.225 -33.880  1.00  0.00     0.028 C 
BRANCH   6   7
ATOM      7  C   UNL     1     -24.148  21.396 -32.965  1.00  0.00    -0.028 C 
ATOM      8  C   UNL     1     -23.585  21.306 -31.738  1.00  0.00    -0.070 CG0
ATOM      9  C   UNL     1     -23.351  22.582 -30.970  1.00  0.00     0.039 C 
ATOM     10  G   UNL     1     -23.183  19.984 -31.104  1.00  0.00     0.000 G0
ENDBRANCH   6   7
ENDBRANCH   5   6
ENDBRANCH   3   5
ENDBRANCH   1   3
BRANCH   1  11
ATOM     11  C   UNL     1     -26.638  18.379 -31.228  1.00  0.00     0.087 C 
BRANCH  11  12
ATOM     12  C   UNL     1     -25.106  18.147 -31.207  1.00  0.00     0.066 C 
BRANCH  12  13
ATOM     13  C   UNL     1     -24.358  19.261 -30.485  1.00  0.00     0.140 C 
ATOM     14  O   UNL     1     -24.779  19.637 -29.399  1.00  0.00    -0.299 OA
BRANCH  13  15
ATOM     15  C   UNL     1     -23.182  19.985 -31.097  1.00  0.00     0.106 CG0
ATOM     16  G   UNL     1     -23.586  21.300 -31.745  1.00  0.00     0.000 G0
ENDBRANCH  13  15
ENDBRANCH  12  13
BRANCH  12  17
ATOM     17  C   UNL     1     -24.676  16.725 -30.713  1.00  0.00    -0.006 C 
ATOM     18  C   UNL     1     -25.831  15.719 -30.561  1.00  0.00     0.008 C 
ATOM     19  C   UNL     1     -23.593  16.123 -31.625  1.00  0.00     0.008 C 
ENDBRANCH  12  17
ENDBRANCH  11  12
ENDBRANCH   1  11
TORSDOF 1
ENDMDL
MODEL 2
REMARK VINA RESULT:    -3.523     10.752     12.921
REMARK INTER + INTRA:          -5.465
REMARK INTER:                  -5.229
REMARK INTRA:                  -0.236
REMARK UNBOUND:                -0.088
REMARK SMILES CC1=CCC[C@@H](C)C(=O)C[C@H](C(C)C)C(=O)C1
REMARK SMILES IDX 8 1 9 2 6 3 7 4 5 5 4 6 3 7 2 8 1 9 10 11 11 12 15 13 16 14
REMARK SMILES IDX 17 15 12 17 13 18 14 19
REMARK H PARENT
REMARK Flexibility Score: 70.00
ROOT
ATOM      1  C   UNL     1     -12.348  13.979 -30.574  1.00  0.00     0.136 C 
ATOM      2  O   UNL     1     -11.486  14.592 -29.958  1.00  0.00    -0.299 OA
ENDROOT
BRANCH   1   3
ATOM      3  C   UNL     1     -12.753  14.439 -31.962  1.00  0.00     0.053 C 
ATOM      4  C   UNL     1     -11.538  14.490 -32.902  1.00  0.00     0.016 C 
BRANCH   3   5
ATOM      5  C   UNL     1     -13.456  15.818 -31.887  1.00  0.00     0.015 C 
BRANCH   5   6
ATOM      6  C   UNL     1     -14.821  15.741 -31.179  1.00  0.00     0.028 C 
BRANCH   6   7
ATOM      7  C   UNL     1     -15.691  14.667 -31.782  1.00  0.00    -0.028 C 
ATOM      8  C   UNL     1     -16.424  13.781 -31.071  1.00  0.00    -0.070 CG0
ATOM      9  C   UNL     1     -17.283  12.801 -31.829  1.00  0.00     0.039 C 
ATOM     10  G   UNL     1     -16.419  13.728 -29.551  1.00  0.00     0.000 G0
ENDBRANCH   6   7
ENDBRANCH   5   6
ENDBRANCH   3   5
ENDBRANCH   1   3
BRANCH   1  11
ATOM     11  C   UNL     1     -13.012  12.792 -29.915  1.00  0.00     0.087 C 
BRANCH  11  12
ATOM     12  C   UNL     1     -13.945  13.221 -28.754  1.00  0.00     0.066 C 
BRANCH  12  13
ATOM     13  C   UNL     1     -15.390  12.791 -28.979  1.00  0.00     0.140 C 
ATOM     14  O   UNL     1     -15.690  11.624 -28.766  1.00  0.00    -0.299 OA
BRANCH  13  15
ATOM     15  C   UNL     1     -16.438  13.717 -29.548  1.00  0.00     0.106 CG0
ATOM     16  G   UNL     1     -16.408  13.762 -31.067  1.00  0.00     0.000 G0
ENDBRANCH  13  15
ENDBRANCH  12  13
BRANCH  12  17
ATOM     17  C   UNL     1     -13.424  12.831 -27.330  1.00  0.00    -0.006 C 
ATOM     18  C   UNL     1     -12.013  12.218 -27.305  1.00  0.00     0.008 C 
ATOM     19  C   UNL     1     -13.473  14.034 -26.372  1.00  0.00     0.008 C 
ENDBRANCH  12  17
ENDBRANCH  11  12
ENDBRANCH   1  11
TORSDOF 1
ENDMDL
MODEL 3
REMARK VINA RESULT:    -3.476      9.340     11.553
REMARK INTER + INTRA:          -5.393
REMARK INTER:                  -5.682
REMARK INTRA:                   0.290
REMARK UNBOUND:                -0.088
REMARK SMILES CC1=CCC[C@@H](C)C(=O)C[C@H](C(C)C)C(=O)C1
REMARK SMILES IDX 8 1 9 2 6 3 7 4 5 5 4 6 3 7 2 8 1 9 10 11 11 12 15 13 16 14
REMARK SMILES IDX 17 15 12 17 13 18 14 19
REMARK H PARENT
REMARK Flexibility Score: 70.00
ROOT
ATOM      1  C   UNL     1     -18.012  12.198 -28.617  1.00  0.00     0.136 C 
ATOM      2  O   UNL     1     -18.545  11.100 -28.532  1.00  0.00    -0.299 OA
ENDROOT
BRANCH   1   3
ATOM      3  C   UNL     1     -18.340  13.107 -29.788  1.00  0.00     0.053 C 
ATOM      4  C   UNL     1     -19.813  13.542 -29.752  1.00  0.00     0.016 C 
BRANCH   3   5
ATOM      5  C   UNL     1     -18.002  12.402 -31.126  1.00  0.00     0.015 C 
BRANCH   5   6
ATOM      6  C   UNL     1     -16.565  12.698 -31.596  1.00  0.00     0.028 C 
BRANCH   6   7
ATOM      7  C   UNL     1     -16.193  14.138 -31.345  1.00  0.00    -0.028 C 
ATOM      8  C   UNL     1     -15.156  14.543 -30.578  1.00  0.00    -0.070 CG0
ATOM      9  C   UNL     1     -14.888  16.022 -30.471  1.00  0.00     0.039 C 
ATOM     10  G   UNL     1     -14.256  13.578 -29.821  1.00  0.00     0.000 G0
ENDBRANCH   6   7
ENDBRANCH   5   6
ENDBRANCH   3   5
ENDBRANCH   1   3
BRANCH   1  11
ATOM     11  C   UNL     1     -17.011  12.608 -27.562  1.00  0.00     0.087 C 
BRANCH  11  12
ATOM     12  C   UNL     1     -15.567  12.192 -27.941  1.00  0.00     0.066 C 
BRANCH  12  13
ATOM     13  C   UNL     1     -14.716  13.378 -28.380  1.00  0.00     0.140 C 
ATOM     14  O   UNL     1     -14.465  14.250 -27.559  1.00  0.00    -0.299 OA
BRANCH  13  15
ATOM     15  C   UNL     1     -14.255  13.570 -29.805  1.00  0.00     0.106 CG0
ATOM     16  G   UNL     1     -15.149  14.525 -30.579  1.00  0.00     0.000 G0
ENDBRANCH  13  15
ENDBRANCH  12  13
BRANCH  12  17
ATOM     17  C   UNL     1     -14.847  11.308 -26.868  1.00  0.00    -0.006 C 
ATOM     18  C   UNL     1     -13.503  11.868 -26.368  1.00  0.00     0.008 C 
ATOM     19  C   UNL     1     -15.766  11.038 -25.664  1.00  0.00     0.008 C 
ENDBRANCH  12  17
ENDBRANCH  11  12
ENDBRANCH   1  11
TORSDOF 1
ENDMDL
MODEL 4
REMARK VINA RESULT:    -3.398      1.604      4.297
REMARK INTER + INTRA:          -5.274
REMARK INTER:                  -5.640
REMARK INTRA:                   0.366
REMARK UNBOUND:                -0.088
REMARK SMILES CC1=CCC[C@@H](C)C(=O)C[C@H](C(C)C)C(=O)C1
REMARK SMILES IDX 8 1 9 2 6 3 7 4 5 5 4 6 3 7 2 8 1 9 10 11 11 12 15 13 16 14
REMARK SMILES IDX 17 15 12 17 13 18 14 19
REMARK H PARENT
REMARK Flexibility Score: 70.00
ROOT
ATOM      1  C   UNL     1     -26.721  17.997 -31.339  1.00  0.00     0.136 C 
ATOM      2  O   UNL     1     -27.365  17.668 -30.351  1.00  0.00    -0.299 OA
ENDROOT
BRANCH   1   3
ATOM      3  C   UNL     1     -25.206  18.040 -31.272  1.00  0.00     0.053 C 
ATOM      4  C   UNL     1     -24.631  16.667 -30.891  1.00  0.00     0.016 C 
BRANCH   3   5
ATOM      5  C   UNL     1     -24.744  19.131 -30.273  1.00  0.00     0.015 C 
BRANCH   5   6
ATOM      6  C   UNL     1     -23.662  20.050 -30.870  1.00  0.00     0.028 C 
BRANCH   6   7
ATOM      7  C   UNL     1     -23.371  19.691 -32.305  1.00  0.00    -0.028 C 
ATOM      8  C   UNL     1     -24.050  20.172 -33.372  1.00  0.00    -0.070 CG0
ATOM      9  C   UNL     1     -23.598  19.752 -34.748  1.00  0.00     0.039 C 
ATOM     10  G   UNL     1     -25.242  21.107 -33.245  1.00  0.00     0.000 G0
ENDBRANCH   6   7
ENDBRANCH   5   6
ENDBRANCH   3   5
ENDBRANCH   1   3
BRANCH   1  11
ATOM     11  C   UNL     1     -27.463  18.384 -32.597  1.00  0.00     0.087 C 
BRANCH  11  12
ATOM     12  C   UNL     1     -27.564  19.922 -32.761  1.00  0.00     0.066 C 
BRANCH  12  13
ATOM     13  C   UNL     1     -26.522  20.474 -33.727  1.00  0.00     0.140 C 
ATOM     14  O   UNL     1     -26.701  20.318 -34.927  1.00  0.00    -0.299 OA
BRANCH  13  15
ATOM     15  C   UNL     1     -25.236  21.115 -33.262  1.00  0.00     0.106 CG0
ATOM     16  G   UNL     1     -24.048  20.172 -33.367  1.00  0.00     0.000 G0
ENDBRANCH  13  15
ENDBRANCH  12  13
BRANCH  12  17
ATOM     17  C   UNL     1     -29.005  20.444 -33.078  1.00  0.00    -0.006 C 
ATOM     18  C   UNL     1     -30.112  19.869 -32.176  1.00  0.00     0.008 C 
ATOM     19  C   UNL     1     -29.061  21.981 -33.038  1.00  0.00     0.008 C 
ENDBRANCH  12  17
ENDBRANCH  11  12
ENDBRANCH   1  11
TORSDOF 1
ENDMDL
MODEL 5
REMARK VINA RESULT:    -3.299     10.944     13.408
REMARK INTER + INTRA:          -5.122
REMARK INTER:                  -5.150
REMARK INTRA:                   0.028
REMARK UNBOUND:                -0.088
REMARK SMILES CC1=CCC[C@@H](C)C(=O)C[C@H](C(C)C)C(=O)C1
REMARK SMILES IDX 8 1 9 2 6 3 7 4 5 5 4 6 3 7 2 8 1 9 10 11 11 12 15 13 16 14
REMARK SMILES IDX 17 15 12 17 13 18 14 19
REMARK H PARENT
REMARK Flexibility Score: 70.00
ROOT
ATOM      1  C   UNL     1     -12.744  12.054 -27.849  1.00  0.00     0.136 C 
ATOM      2  O   UNL     1     -12.067  11.360 -28.595  1.00  0.00    -0.299 OA
ENDROOT
BRANCH   1   3
ATOM      3  C   UNL     1     -12.100  13.207 -27.101  1.00  0.00     0.053 C 
ATOM      4  C   UNL     1     -12.386  13.115 -25.594  1.00  0.00     0.016 C 
BRANCH   3   5
ATOM      5  C   UNL     1     -12.590  14.560 -27.676  1.00  0.00     0.015 C 
BRANCH   5   6
ATOM      6  C   UNL     1     -12.146  14.770 -29.136  1.00  0.00     0.028 C 
BRANCH   6   7
ATOM      7  C   UNL     1     -13.259  15.357 -29.967  1.00  0.00    -0.028 C 
ATOM      8  C   UNL     1     -14.109  14.637 -30.734  1.00  0.00    -0.070 CG0
ATOM      9  C   UNL     1     -15.202  15.374 -31.465  1.00  0.00     0.039 C 
ATOM     10  G   UNL     1     -14.010  13.128 -30.892  1.00  0.00     0.000 G0
ENDBRANCH   6   7
ENDBRANCH   5   6
ENDBRANCH   3   5
ENDBRANCH   1   3
BRANCH   1  11
ATOM     11  C   UNL     1     -14.207  11.720 -27.668  1.00  0.00     0.087 C 
BRANCH  11  12
ATOM     12  C   UNL     1     -15.121  12.644 -28.512  1.00  0.00     0.066 C 
BRANCH  12  13
ATOM     13  C   UNL     1     -14.997  12.377 -30.008  1.00  0.00     0.140 C 
ATOM     14  O   UNL     1     -15.658  11.470 -30.493  1.00  0.00    -0.299 OA
BRANCH  13  15
ATOM     15  C   UNL     1     -14.022  13.118 -30.891  1.00  0.00     0.106 CG0
ATOM     16  G   UNL     1     -14.114  14.626 -30.718  1.00  0.00     0.000 G0
ENDBRANCH  13  15
ENDBRANCH  12  13
BRANCH  12  17
ATOM     17  C   UNL     1     -16.612  12.685 -28.037  1.00  0.00    -0.006 C 
ATOM     18  C   UNL     1     -16.802  12.682 -26.510  1.00  0.00     0.008 C 
ATOM     19  C   UNL     1     -17.355  13.890 -28.640  1.00  0.00     0.008 C 
ENDBRANCH  12  17
ENDBRANCH  11  12
ENDBRANCH   1  11
TORSDOF 1
ENDMDL
MODEL 6
REMARK VINA RESULT:    -3.207      1.359      4.091
REMARK INTER + INTRA:          -4.982
REMARK INTER:                  -5.279
REMARK INTRA:                   0.297
REMARK UNBOUND:                -0.088
REMARK SMILES CC1=CCC[C@@H](C)C(=O)C[C@H](C(C)C)C(=O)C1
REMARK SMILES IDX 8 1 9 2 6 3 7 4 5 5 4 6 3 7 2 8 1 9 10 11 11 12 15 13 16 14
REMARK SMILES IDX 17 15 12 17 13 18 14 19
REMARK H PARENT
REMARK Flexibility Score: 70.00
ROOT
ATOM      1  C   UNL     1     -26.331  18.226 -31.289  1.00  0.00     0.136 C 
ATOM      2  O   UNL     1     -26.982  18.065 -30.265  1.00  0.00    -0.299 OA
ENDROOT
BRANCH   1   3
ATOM      3  C   UNL     1     -24.817  18.151 -31.239  1.00  0.00     0.053 C 
ATOM      4  C   UNL     1     -24.344  16.708 -31.000  1.00  0.00     0.016 C 
BRANCH   3   5
ATOM      5  C   UNL     1     -24.267  19.103 -30.147  1.00  0.00     0.015 C 
BRANCH   5   6
ATOM      6  C   UNL     1     -23.176  20.045 -30.689  1.00  0.00     0.028 C 
BRANCH   6   7
ATOM      7  C   UNL     1     -23.758  21.369 -31.115  1.00  0.00    -0.028 C 
ATOM      8  C   UNL     1     -24.330  21.608 -32.317  1.00  0.00    -0.070 CG0
ATOM      9  C   UNL     1     -24.912  22.976 -32.566  1.00  0.00     0.039 C 
ATOM     10  G   UNL     1     -24.409  20.565 -33.421  1.00  0.00     0.000 G0
ENDBRANCH   6   7
ENDBRANCH   5   6
ENDBRANCH   3   5
ENDBRANCH   1   3
BRANCH   1  11
ATOM     11  C   UNL     1     -27.061  18.529 -32.577  1.00  0.00     0.087 C 
BRANCH  11  12
ATOM     12  C   UNL     1     -26.975  20.031 -32.952  1.00  0.00     0.066 C 
BRANCH  12  13
ATOM     13  C   UNL     1     -25.822  20.329 -33.903  1.00  0.00     0.140 C 
ATOM     14  O   UNL     1     -26.037  20.294 -35.107  1.00  0.00    -0.299 OA
BRANCH  13  15
ATOM     15  C   UNL     1     -24.409  20.565 -33.426  1.00  0.00     0.106 CG0
ATOM     16  G   UNL     1     -24.340  21.603 -32.316  1.00  0.00     0.000 G0
ENDBRANCH  13  15
ENDBRANCH  12  13
BRANCH  12  17
ATOM     17  C   UNL     1     -28.326  20.651 -33.442  1.00  0.00    -0.006 C 
ATOM     18  C   UNL     1     -29.589  19.969 -32.885  1.00  0.00     0.008 C 
ATOM     19  C   UNL     1     -28.387  22.159 -33.142  1.00  0.00     0.008 C 
ENDBRANCH  12  17
ENDBRANCH  11  12
ENDBRANCH   1  11
TORSDOF 1
ENDMDL
MODEL 7
REMARK VINA RESULT:    -3.060     10.973     13.337
REMARK INTER + INTRA:          -4.758
REMARK INTER:                  -5.125
REMARK INTRA:                   0.367
REMARK UNBOUND:                -0.088
REMARK SMILES CC1=CCC[C@@H](C)C(=O)C[C@H](C(C)C)C(=O)C1
REMARK SMILES IDX 8 1 9 2 6 3 7 4 5 5 4 6 3 7 2 8 1 9 10 11 11 12 15 13 16 14
REMARK SMILES IDX 17 15 12 17 13 18 14 19
REMARK H PARENT
REMARK Flexibility Score: 70.00
ROOT
ATOM      1  C   UNL     1     -15.282  13.803 -31.191  1.00  0.00     0.136 C 
ATOM      2  O   UNL     1     -15.742  14.817 -31.700  1.00  0.00    -0.299 OA
ENDROOT
BRANCH   1   3
ATOM      3  C   UNL     1     -16.218  12.764 -30.602  1.00  0.00     0.053 C 
ATOM      4  C   UNL     1     -17.657  13.299 -30.524  1.00  0.00     0.016 C 
BRANCH   3   5
ATOM      5  C   UNL     1     -15.715  12.319 -29.205  1.00  0.00     0.015 C 
BRANCH   5   6
ATOM      6  C   UNL     1     -15.590  13.500 -28.225  1.00  0.00     0.028 C 
BRANCH   6   7
ATOM      7  C   UNL     1     -14.681  13.160 -27.071  1.00  0.00    -0.028 C 
ATOM      8  C   UNL     1     -13.351  12.937 -27.178  1.00  0.00    -0.070 CG0
ATOM      9  C   UNL     1     -12.575  12.658 -25.916  1.00  0.00     0.039 C 
ATOM     10  G   UNL     1     -12.610  12.954 -28.506  1.00  0.00     0.000 G0
ENDBRANCH   6   7
ENDBRANCH   5   6
ENDBRANCH   3   5
ENDBRANCH   1   3
BRANCH   1  11
ATOM     11  C   UNL     1     -13.782  13.629 -31.137  1.00  0.00     0.087 C 
BRANCH  11  12
ATOM     12  C   UNL     1     -13.091  14.797 -30.388  1.00  0.00     0.066 C 
BRANCH  12  13
ATOM     13  C   UNL     1     -12.438  14.348 -29.086  1.00  0.00     0.140 C 
ATOM     14  O   UNL     1     -11.688  15.126 -28.512  1.00  0.00    -0.299 OA
BRANCH  13  15
ATOM     15  C   UNL     1     -12.600  12.954 -28.529  1.00  0.00     0.106 CG0
ATOM     16  G   UNL     1     -13.333  12.944 -27.197  1.00  0.00     0.000 G0
ENDBRANCH  13  15
ENDBRANCH  12  13
BRANCH  12  17
ATOM     17  C   UNL     1     -12.123  15.650 -31.275  1.00  0.00    -0.006 C 
ATOM     18  C   UNL     1     -11.135  14.829 -32.124  1.00  0.00     0.008 C 
ATOM     19  C   UNL     1     -12.906  16.608 -32.189  1.00  0.00     0.008 C 
ENDBRANCH  12  17
ENDBRANCH  11  12
ENDBRANCH   1  11
TORSDOF 1
ENDMDL
MODEL 8
REMARK VINA RESULT:    -3.057     10.805     13.276
REMARK INTER + INTRA:          -4.753
REMARK INTER:                  -5.279
REMARK INTRA:                   0.526
REMARK UNBOUND:                -0.088
REMARK SMILES CC1=CCC[C@@H](C)C(=O)C[C@H](C(C)C)C(=O)C1
REMARK SMILES IDX 8 1 9 2 6 3 7 4 5 5 4 6 3 7 2 8 1 9 10 11 11 12 15 13 16 14
REMARK SMILES IDX 17 15 12 17 13 18 14 19
REMARK H PARENT
REMARK Flexibility Score: 70.00
ROOT
ATOM      1  C   UNL     1     -13.984  13.293 -27.815  1.00  0.00     0.136 C 
ATOM      2  O   UNL     1     -14.399  14.221 -27.133  1.00  0.00    -0.299 OA
ENDROOT
BRANCH   1   3
ATOM      3  C   UNL     1     -12.609  12.712 -27.541  1.00  0.00     0.053 C 
ATOM      4  C   UNL     1     -12.330  12.647 -26.030  1.00  0.00     0.016 C 
BRANCH   3   5
ATOM      5  C   UNL     1     -11.521  13.538 -28.271  1.00  0.00     0.015 C 
BRANCH   5   6
ATOM      6  C   UNL     1     -12.052  14.897 -28.765  1.00  0.00     0.028 C 
BRANCH   6   7
ATOM      7  C   UNL     1     -11.582  15.190 -30.168  1.00  0.00    -0.028 C 
ATOM      8  C   UNL     1     -12.196  14.755 -31.292  1.00  0.00    -0.070 CG0
ATOM      9  C   UNL     1     -11.626  15.181 -32.621  1.00  0.00     0.039 C 
ATOM     10  G   UNL     1     -13.425  13.860 -31.274  1.00  0.00     0.000 G0
ENDBRANCH   6   7
ENDBRANCH   5   6
ENDBRANCH   3   5
ENDBRANCH   1   3
BRANCH   1  11
ATOM     11  C   UNL     1     -14.847  12.772 -28.941  1.00  0.00     0.087 C 
BRANCH  11  12
ATOM     12  C   UNL     1     -15.557  13.918 -29.705  1.00  0.00     0.066 C 
BRANCH  12  13
ATOM     13  C   UNL     1     -14.681  14.520 -30.797  1.00  0.00     0.140 C 
ATOM     14  O   UNL     1     -15.059  15.546 -31.347  1.00  0.00    -0.299 OA
BRANCH  13  15
ATOM     15  C   UNL     1     -13.422  13.851 -31.296  1.00  0.00     0.106 CG0
ATOM     16  G   UNL     1     -12.220  14.781 -31.259  1.00  0.00     0.000 G0
ENDBRANCH  13  15
ENDBRANCH  12  13
BRANCH  12  17
ATOM     17  C   UNL     1     -16.990  13.557 -30.223  1.00  0.00    -0.006 C 
ATOM     18  C   UNL     1     -17.020  12.541 -31.379  1.00  0.00     0.008 C 
ATOM     19  C   UNL     1     -17.884  13.052 -29.078  1.00  0.00     0.008 C 
ENDBRANCH  12  17
ENDBRANCH  11  12
ENDBRANCH   1  11
TORSDOF 1
ENDMDL
MODEL 9
REMARK VINA RESULT:    -3.003      5.469      8.285
REMARK INTER + INTRA:          -4.670
REMARK INTER:                  -5.506
REMARK INTRA:                   0.836
REMARK UNBOUND:                -0.088
REMARK SMILES CC1=CCC[C@@H](C)C(=O)C[C@H](C(C)C)C(=O)C1
REMARK SMILES IDX 8 1 9 2 6 3 7 4 5 5 4 6 3 7 2 8 1 9 10 11 11 12 15 13 16 14
REMARK SMILES IDX 17 15 12 17 13 18 14 19
REMARK H PARENT
REMARK Flexibility Score: 70.00
ROOT
ATOM      1  C   UNL     1     -28.585  12.946 -29.759  1.00  0.00     0.136 C 
ATOM      2  O   UNL     1     -29.113  12.582 -30.801  1.00  0.00    -0.299 OA
ENDROOT
BRANCH   1   3
ATOM      3  C   UNL     1     -28.801  12.150 -28.485  1.00  0.00     0.053 C 
ATOM      4  C   UNL     1     -30.031  12.660 -27.718  1.00  0.00     0.016 C 
BRANCH   3   5
ATOM      5  C   UNL     1     -27.532  12.203 -27.596  1.00  0.00     0.015 C 
BRANCH   5   6
ATOM      6  C   UNL     1     -26.740  10.883 -27.630  1.00  0.00     0.028 C 
BRANCH   6   7
ATOM      7  C   UNL     1     -25.299  11.119 -28.005  1.00  0.00    -0.028 C 
ATOM      8  C   UNL     1     -24.856  11.334 -29.266  1.00  0.00    -0.070 CG0
ATOM      9  C   UNL     1     -23.387  11.606 -29.465  1.00  0.00     0.039 C 
ATOM     10  G   UNL     1     -25.770  11.312 -30.481  1.00  0.00     0.000 G0
ENDBRANCH   6   7
ENDBRANCH   5   6
ENDBRANCH   3   5
ENDBRANCH   1   3
BRANCH   1  11
ATOM     11  C   UNL     1     -27.751  14.207 -29.765  1.00  0.00     0.087 C 
BRANCH  11  12
ATOM     12  C   UNL     1     -26.268  13.919 -30.110  1.00  0.00     0.066 C 
BRANCH  12  13
ATOM     13  C   UNL     1     -26.107  12.707 -31.022  1.00  0.00     0.140 C 
ATOM     14  O   UNL     1     -26.321  12.847 -32.218  1.00  0.00    -0.299 OA
BRANCH  13  15
ATOM     15  C   UNL     1     -25.794  11.327 -30.497  1.00  0.00     0.106 CG0
ATOM     16  G   UNL     1     -24.863  11.362 -29.295  1.00  0.00     0.000 G0
ENDBRANCH  13  15
ENDBRANCH  12  13
BRANCH  12  17
ATOM     17  C   UNL     1     -25.474  15.164 -30.630  1.00  0.00    -0.006 C 
ATOM     18  C   UNL     1     -25.902  16.506 -30.011  1.00  0.00     0.008 C 
ATOM     19  C   UNL     1     -23.959  14.975 -30.440  1.00  0.00     0.008 C 
ENDBRANCH  12  17
ENDBRANCH  11  12
ENDBRANCH   1  11
TORSDOF 1
ENDMDL
