MODEL 1
REMARK VINA RESULT:    -3.481      0.000      0.000
REMARK INTER + INTRA:         -14.705
REMARK INTER:                  -9.178
REMARK INTRA:                  -5.527
REMARK UNBOUND:                -5.527
REMARK SMILES CCCCCCCCCCCCCCCCCCCCCCCCCCCCCC(=O)[O-]
REMARK SMILES IDX 16 1 17 2 18 3 19 4 20 5 21 6 22 7 23 8 24 9 25 10 26 11
REMARK SMILES IDX 27 12 28 13 29 14 30 15 31 16 32 17 15 18 14 19 13 20 12 21
REMARK SMILES IDX 11 22 10 23 9 24 8 25 7 26 6 27 5 28 4 29 3 30 2 31 1 32
REMARK H PARENT
REMARK Flexibility Score: inf
ROOT
ATOM      1  C   UNL     1      -2.310 -11.590  36.816  1.00  0.00     0.000 C 
ENDROOT
BRANCH   1   2
ATOM      2  C   UNL     1      -3.225 -11.233  38.001  1.00  0.00     0.000 C 
BRANCH   2   3
ATOM      3  C   UNL     1      -4.673 -10.869  37.616  1.00  0.00     0.000 C 
BRANCH   3   4
ATOM      4  C   UNL     1      -5.733 -11.175  38.695  1.00  0.00     0.000 C 
BRANCH   4   5
ATOM      5  C   UNL     1      -5.168 -11.672  40.041  1.00  0.00     0.000 C 
BRANCH   5   6
ATOM      6  C   UNL     1      -5.740 -10.978  41.290  1.00  0.00     0.000 C 
BRANCH   6   7
ATOM      7  C   UNL     1      -4.665 -10.254  42.120  1.00  0.00     0.000 C 
BRANCH   7   8
ATOM      8  C   UNL     1      -3.621  -9.529  41.249  1.00  0.00     0.000 C 
BRANCH   8   9
ATOM      9  C   UNL     1      -2.153  -9.863  41.575  1.00  0.00     0.000 C 
BRANCH   9  10
ATOM     10  C   UNL     1      -1.830 -11.358  41.411  1.00  0.00     0.000 C 
BRANCH  10  11
ATOM     11  C   UNL     1      -0.987 -11.910  42.571  1.00  0.00     0.000 C 
BRANCH  11  12
ATOM     12  C   UNL     1      -1.371 -13.354  42.938  1.00  0.00     0.000 C 
BRANCH  12  13
ATOM     13  C   UNL     1      -2.780 -13.735  42.457  1.00  0.00     0.006 C 
BRANCH  13  14
ATOM     14  C   UNL     1      -3.362 -14.939  43.212  1.00  0.00     0.053 C 
BRANCH  14  15
ATOM     15  C   UNL     1      -4.805 -14.708  43.534  1.00  0.00     0.041 C 
ATOM     16  O   UNL     1      -5.611 -15.674  43.561  1.00  0.00    -0.550 OA
ATOM     17  O   UNL     1      -5.267 -13.418  43.774  1.00  0.00    -0.550 OA
ENDBRANCH  14  15
ENDBRANCH  13  14
ENDBRANCH  12  13
ENDBRANCH  11  12
ENDBRANCH  10  11
ENDBRANCH   9  10
ENDBRANCH   8   9
ENDBRANCH   7   8
ENDBRANCH   6   7
ENDBRANCH   5   6
ENDBRANCH   4   5
ENDBRANCH   3   4
ENDBRANCH   2   3
ENDBRANCH   1   2
BRANCH   1  18
ATOM     18  C   UNL     1      -1.039 -10.725  36.761  1.00  0.00     0.000 C 
BRANCH  18  19
ATOM     19  C   UNL     1      -0.262 -10.730  38.087  1.00  0.00     0.000 C 
BRANCH  19  20
ATOM     20  C   UNL     1       0.053  -9.313  38.589  1.00  0.00     0.000 C 
BRANCH  20  21
ATOM     21  C   UNL     1      -0.762  -8.261  37.823  1.00  0.00     0.000 C 
BRANCH  21  22
ATOM     22  C   UNL     1      -1.853  -7.601  38.687  1.00  0.00     0.000 C 
BRANCH  22  23
ATOM     23  C   UNL     1      -3.259  -7.582  38.058  1.00  0.00     0.000 C 
BRANCH  23  24
ATOM     24  C   UNL     1      -3.552  -6.286  37.287  1.00  0.00    -0.000 C 
BRANCH  24  25
ATOM     25  C   UNL     1      -5.004  -6.260  36.788  1.00  0.00    -0.000 C 
BRANCH  25  26
ATOM     26  C   UNL     1      -5.156  -5.573  35.418  1.00  0.00    -0.000 C 
BRANCH  26  27
ATOM     27  C   UNL     1      -4.034  -4.584  35.051  1.00  0.00    -0.000 C 
BRANCH  27  28
ATOM     28  C   UNL     1      -3.599  -4.689  33.580  1.00  0.00    -0.000 C 
BRANCH  28  29
ATOM     29  C   UNL     1      -3.412  -6.145  33.118  1.00  0.00    -0.000 C 
BRANCH  29  30
ATOM     30  C   UNL     1      -1.970  -6.670  33.300  1.00  0.00    -0.000 C 
BRANCH  30  31
ATOM     31  C   UNL     1      -1.876  -7.712  34.425  1.00  0.00    -0.003 C 
ATOM     32  C   UNL     1      -3.090  -8.636  34.427  1.00  0.00     0.004 C 
ENDBRANCH  30  31
ENDBRANCH  29  30
ENDBRANCH  28  29
ENDBRANCH  27  28
ENDBRANCH  26  27
ENDBRANCH  25  26
ENDBRANCH  24  25
ENDBRANCH  23  24
ENDBRANCH  22  23
ENDBRANCH  21  22
ENDBRANCH  20  21
ENDBRANCH  19  20
ENDBRANCH  18  19
ENDBRANCH   1  18
TORSDOF 28
ENDMDL
MODEL 2
REMARK VINA RESULT:    -3.474      3.000      8.397
REMARK INTER + INTRA:         -14.689
REMARK INTER:                  -8.781
REMARK INTRA:                  -5.908
REMARK UNBOUND:                -5.527
REMARK SMILES CCCCCCCCCCCCCCCCCCCCCCCCCCCCCC(=O)[O-]
REMARK SMILES IDX 16 1 17 2 18 3 19 4 20 5 21 6 22 7 23 8 24 9 25 10 26 11
REMARK SMILES IDX 27 12 28 13 29 14 30 15 31 16 32 17 15 18 14 19 13 20 12 21
REMARK SMILES IDX 11 22 10 23 9 24 8 25 7 26 6 27 5 28 4 29 3 30 2 31 1 32
REMARK H PARENT
REMARK Flexibility Score: inf
ROOT
ATOM      1  C   UNL     1      -0.311 -10.539  38.364  1.00  0.00     0.000 C 
ENDROOT
BRANCH   1   2
ATOM      2  C   UNL     1      -0.518  -9.489  37.257  1.00  0.00     0.000 C 
BRANCH   2   3
ATOM      3  C   UNL     1      -0.925  -8.089  37.759  1.00  0.00     0.000 C 
BRANCH   3   4
ATOM      4  C   UNL     1      -1.846  -7.296  36.809  1.00  0.00     0.000 C 
BRANCH   4   5
ATOM      5  C   UNL     1      -1.779  -7.723  35.329  1.00  0.00     0.000 C 
BRANCH   5   6
ATOM      6  C   UNL     1      -3.069  -8.343  34.764  1.00  0.00     0.000 C 
BRANCH   6   7
ATOM      7  C   UNL     1      -3.290  -8.020  33.276  1.00  0.00     0.000 C 
BRANCH   7   8
ATOM      8  C   UNL     1      -2.415  -6.853  32.778  1.00  0.00     0.000 C 
BRANCH   8   9
ATOM      9  C   UNL     1      -3.155  -5.516  32.590  1.00  0.00     0.000 C 
BRANCH   9  10
ATOM     10  C   UNL     1      -4.675  -5.640  32.792  1.00  0.00     0.000 C 
BRANCH  10  11
ATOM     11  C   UNL     1      -5.216  -4.641  33.827  1.00  0.00     0.000 C 
BRANCH  11  12
ATOM     12  C   UNL     1      -4.258  -4.452  35.015  1.00  0.00     0.000 C 
BRANCH  12  13
ATOM     13  C   UNL     1      -4.918  -4.767  36.367  1.00  0.00     0.006 C 
BRANCH  13  14
ATOM     14  C   UNL     1      -5.397  -6.223  36.472  1.00  0.00     0.053 C 
BRANCH  14  15
ATOM     15  C   UNL     1      -6.865  -6.272  36.756  1.00  0.00     0.041 C 
ATOM     16  O   UNL     1      -7.633  -6.937  36.011  1.00  0.00    -0.550 OA
ATOM     17  O   UNL     1      -7.392  -5.557  37.825  1.00  0.00    -0.550 OA
ENDBRANCH  14  15
ENDBRANCH  13  14
ENDBRANCH  12  13
ENDBRANCH  11  12
ENDBRANCH  10  11
ENDBRANCH   9  10
ENDBRANCH   8   9
ENDBRANCH   7   8
ENDBRANCH   6   7
ENDBRANCH   5   6
ENDBRANCH   4   5
ENDBRANCH   3   4
ENDBRANCH   2   3
ENDBRANCH   1   2
BRANCH   1  18
ATOM     18  C   UNL     1      -0.559  -9.976  39.774  1.00  0.00     0.000 C 
BRANCH  18  19
ATOM     19  C   UNL     1      -1.022 -11.052  40.768  1.00  0.00     0.000 C 
BRANCH  19  20
ATOM     20  C   UNL     1      -1.912 -10.480  41.881  1.00  0.00     0.000 C 
BRANCH  20  21
ATOM     21  C   UNL     1      -2.757  -9.306  41.366  1.00  0.00     0.000 C 
BRANCH  21  22
ATOM     22  C   UNL     1      -4.268  -9.517  41.575  1.00  0.00     0.000 C 
BRANCH  22  23
ATOM     23  C   UNL     1      -5.153  -9.124  40.377  1.00  0.00     0.000 C 
BRANCH  23  24
ATOM     24  C   UNL     1      -4.342  -8.823  39.108  1.00  0.00    -0.000 C 
BRANCH  24  25
ATOM     25  C   UNL     1      -4.663  -9.835  37.998  1.00  0.00    -0.000 C 
BRANCH  25  26
ATOM     26  C   UNL     1      -3.785 -11.098  38.063  1.00  0.00    -0.000 C 
BRANCH  26  27
ATOM     27  C   UNL     1      -4.496 -12.366  38.573  1.00  0.00    -0.000 C 
BRANCH  27  28
ATOM     28  C   UNL     1      -3.865 -12.932  39.856  1.00  0.00    -0.000 C 
BRANCH  28  29
ATOM     29  C   UNL     1      -4.870 -13.038  41.016  1.00  0.00    -0.000 C 
BRANCH  29  30
ATOM     30  C   UNL     1      -4.213 -13.375  42.373  1.00  0.00    -0.000 C 
BRANCH  30  31
ATOM     31  C   UNL     1      -2.819 -13.997  42.199  1.00  0.00    -0.003 C 
ATOM     32  C   UNL     1      -2.582 -15.117  43.208  1.00  0.00     0.004 C 
ENDBRANCH  30  31
ENDBRANCH  29  30
ENDBRANCH  28  29
ENDBRANCH  27  28
ENDBRANCH  26  27
ENDBRANCH  25  26
ENDBRANCH  24  25
ENDBRANCH  23  24
ENDBRANCH  22  23
ENDBRANCH  21  22
ENDBRANCH  20  21
ENDBRANCH  19  20
ENDBRANCH  18  19
ENDBRANCH   1  18
TORSDOF 28
ENDMDL
MODEL 3
REMARK VINA RESULT:    -3.464      3.027      8.034
REMARK INTER + INTRA:         -14.661
REMARK INTER:                  -8.878
REMARK INTRA:                  -5.783
REMARK UNBOUND:                -5.527
REMARK SMILES CCCCCCCCCCCCCCCCCCCCCCCCCCCCCC(=O)[O-]
REMARK SMILES IDX 16 1 17 2 18 3 19 4 20 5 21 6 22 7 23 8 24 9 25 10 26 11
REMARK SMILES IDX 27 12 28 13 29 14 30 15 31 16 32 17 15 18 14 19 13 20 12 21
REMARK SMILES IDX 11 22 10 23 9 24 8 25 7 26 6 27 5 28 4 29 3 30 2 31 1 32
REMARK H PARENT
REMARK Flexibility Score: inf
ROOT
ATOM      1  C   UNL     1      -1.407  -8.235  40.351  1.00  0.00     0.000 C 
ENDROOT
BRANCH   1   2
ATOM      2  C   UNL     1      -0.834  -8.664  38.989  1.00  0.00     0.000 C 
BRANCH   2   3
ATOM      3  C   UNL     1      -1.219  -7.751  37.807  1.00  0.00     0.000 C 
BRANCH   3   4
ATOM      4  C   UNL     1      -0.905  -8.324  36.409  1.00  0.00     0.000 C 
BRANCH   4   5
ATOM      5  C   UNL     1      -1.693  -7.683  35.249  1.00  0.00     0.000 C 
BRANCH   5   6
ATOM      6  C   UNL     1      -2.914  -8.483  34.762  1.00  0.00     0.000 C 
BRANCH   6   7
ATOM      7  C   UNL     1      -2.994  -8.584  33.229  1.00  0.00     0.000 C 
BRANCH   7   8
ATOM      8  C   UNL     1      -4.023  -7.614  32.616  1.00  0.00     0.000 C 
BRANCH   8   9
ATOM      9  C   UNL     1      -3.427  -6.340  31.991  1.00  0.00     0.000 C 
BRANCH   9  10
ATOM     10  C   UNL     1      -3.209  -5.215  33.018  1.00  0.00     0.000 C 
BRANCH  10  11
ATOM     11  C   UNL     1      -4.513  -4.785  33.708  1.00  0.00     0.000 C 
BRANCH  11  12
ATOM     12  C   UNL     1      -4.269  -4.210  35.114  1.00  0.00     0.000 C 
BRANCH  12  13
ATOM     13  C   UNL     1      -4.482  -5.250  36.226  1.00  0.00     0.006 C 
BRANCH  13  14
ATOM     14  C   UNL     1      -5.530  -6.311  35.857  1.00  0.00     0.053 C 
BRANCH  14  15
ATOM     15  C   UNL     1      -6.877  -5.918  36.376  1.00  0.00     0.041 C 
ATOM     16  O   UNL     1      -7.798  -5.606  35.576  1.00  0.00    -0.550 OA
ATOM     17  O   UNL     1      -7.107  -5.864  37.747  1.00  0.00    -0.550 OA
ENDBRANCH  14  15
ENDBRANCH  13  14
ENDBRANCH  12  13
ENDBRANCH  11  12
ENDBRANCH  10  11
ENDBRANCH   9  10
ENDBRANCH   8   9
ENDBRANCH   7   8
ENDBRANCH   6   7
ENDBRANCH   5   6
ENDBRANCH   4   5
ENDBRANCH   3   4
ENDBRANCH   2   3
ENDBRANCH   1   2
BRANCH   1  18
ATOM     18  C   UNL     1      -2.043  -9.402  41.126  1.00  0.00     0.000 C 
BRANCH  18  19
ATOM     19  C   UNL     1      -1.354 -10.746  40.844  1.00  0.00     0.000 C 
BRANCH  19  20
ATOM     20  C   UNL     1      -1.686 -11.810  41.900  1.00  0.00     0.000 C 
BRANCH  20  21
ATOM     21  C   UNL     1      -2.839 -12.711  41.433  1.00  0.00     0.000 C 
BRANCH  21  22
ATOM     22  C   UNL     1      -4.018 -12.737  42.424  1.00  0.00     0.000 C 
BRANCH  22  23
ATOM     23  C   UNL     1      -5.161 -11.756  42.102  1.00  0.00     0.000 C 
BRANCH  23  24
ATOM     24  C   UNL     1      -5.198 -10.548  43.050  1.00  0.00    -0.000 C 
BRANCH  24  25
ATOM     25  C   UNL     1      -5.482  -9.251  42.278  1.00  0.00    -0.000 C 
BRANCH  25  26
ATOM     26  C   UNL     1      -5.881  -9.500  40.811  1.00  0.00    -0.000 C 
BRANCH  26  27
ATOM     27  C   UNL     1      -5.626  -8.321  39.853  1.00  0.00    -0.000 C 
BRANCH  27  28
ATOM     28  C   UNL     1      -4.708  -8.693  38.677  1.00  0.00    -0.000 C 
BRANCH  28  29
ATOM     29  C   UNL     1      -4.764 -10.191  38.329  1.00  0.00    -0.000 C 
BRANCH  29  30
ATOM     30  C   UNL     1      -3.535 -10.687  37.535  1.00  0.00    -0.000 C 
BRANCH  30  31
ATOM     31  C   UNL     1      -3.186 -12.146  37.867  1.00  0.00    -0.003 C 
ATOM     32  C   UNL     1      -4.442 -12.964  38.155  1.00  0.00     0.004 C 
ENDBRANCH  30  31
ENDBRANCH  29  30
ENDBRANCH  28  29
ENDBRANCH  27  28
ENDBRANCH  26  27
ENDBRANCH  25  26
ENDBRANCH  24  25
ENDBRANCH  23  24
ENDBRANCH  22  23
ENDBRANCH  21  22
ENDBRANCH  20  21
ENDBRANCH  19  20
ENDBRANCH  18  19
ENDBRANCH   1  18
TORSDOF 28
ENDMDL
MODEL 4
REMARK VINA RESULT:    -3.459      3.604      7.517
REMARK INTER + INTRA:         -14.647
REMARK INTER:                  -8.978
REMARK INTRA:                  -5.669
REMARK UNBOUND:                -5.527
REMARK SMILES CCCCCCCCCCCCCCCCCCCCCCCCCCCCCC(=O)[O-]
REMARK SMILES IDX 16 1 17 2 18 3 19 4 20 5 21 6 22 7 23 8 24 9 25 10 26 11
REMARK SMILES IDX 27 12 28 13 29 14 30 15 31 16 32 17 15 18 14 19 13 20 12 21
REMARK SMILES IDX 11 22 10 23 9 24 8 25 7 26 6 27 5 28 4 29 3 30 2 31 1 32
REMARK H PARENT
REMARK Flexibility Score: inf
ROOT
ATOM      1  C   UNL     1      -4.847 -12.066  42.990  1.00  0.00     0.000 C 
ENDROOT
BRANCH   1   2
ATOM      2  C   UNL     1      -5.957 -11.022  42.781  1.00  0.00     0.000 C 
BRANCH   2   3
ATOM      3  C   UNL     1      -5.464  -9.565  42.660  1.00  0.00     0.000 C 
BRANCH   3   4
ATOM      4  C   UNL     1      -4.543  -9.285  41.454  1.00  0.00     0.000 C 
BRANCH   4   5
ATOM      5  C   UNL     1      -5.262  -8.769  40.191  1.00  0.00     0.000 C 
BRANCH   5   6
ATOM      6  C   UNL     1      -5.482  -9.817  39.086  1.00  0.00     0.000 C 
BRANCH   6   7
ATOM      7  C   UNL     1      -5.499  -9.207  37.674  1.00  0.00     0.000 C 
BRANCH   7   8
ATOM      8  C   UNL     1      -6.325  -7.909  37.591  1.00  0.00     0.000 C 
BRANCH   8   9
ATOM      9  C   UNL     1      -5.511  -6.635  37.297  1.00  0.00     0.000 C 
BRANCH   9  10
ATOM     10  C   UNL     1      -4.974  -6.587  35.856  1.00  0.00     0.000 C 
BRANCH  10  11
ATOM     11  C   UNL     1      -3.957  -5.455  35.642  1.00  0.00     0.000 C 
BRANCH  11  12
ATOM     12  C   UNL     1      -3.929  -4.962  34.185  1.00  0.00     0.000 C 
BRANCH  12  13
ATOM     13  C   UNL     1      -2.757  -5.548  33.382  1.00  0.00     0.006 C 
BRANCH  13  14
ATOM     14  C   UNL     1      -3.143  -5.904  31.939  1.00  0.00     0.053 C 
BRANCH  14  15
ATOM     15  C   UNL     1      -3.474  -7.360  31.829  1.00  0.00     0.041 C 
ATOM     16  O   UNL     1      -3.682  -8.042  32.867  1.00  0.00    -0.550 OA
ATOM     17  O   UNL     1      -3.522  -7.972  30.581  1.00  0.00    -0.550 OA
ENDBRANCH  14  15
ENDBRANCH  13  14
ENDBRANCH  12  13
ENDBRANCH  11  12
ENDBRANCH  10  11
ENDBRANCH   9  10
ENDBRANCH   8   9
ENDBRANCH   7   8
ENDBRANCH   6   7
ENDBRANCH   5   6
ENDBRANCH   4   5
ENDBRANCH   3   4
ENDBRANCH   2   3
ENDBRANCH   1   2
BRANCH   1  18
ATOM     18  C   UNL     1      -4.650 -12.981  41.769  1.00  0.00     0.000 C 
BRANCH  18  19
ATOM     19  C   UNL     1      -3.280 -12.789  41.100  1.00  0.00     0.000 C 
BRANCH  19  20
ATOM     20  C   UNL     1      -2.135 -12.697  42.120  1.00  0.00     0.000 C 
BRANCH  20  21
ATOM     21  C   UNL     1      -1.261 -11.461  41.860  1.00  0.00     0.000 C 
BRANCH  21  22
ATOM     22  C   UNL     1      -1.523 -10.820  40.485  1.00  0.00     0.000 C 
BRANCH  22  23
ATOM     23  C   UNL     1      -0.262 -10.532  39.650  1.00  0.00     0.000 C 
BRANCH  23  24
ATOM     24  C   UNL     1      -0.154  -9.062  39.217  1.00  0.00    -0.000 C 
BRANCH  24  25
ATOM     25  C   UNL     1      -1.484  -8.326  39.433  1.00  0.00    -0.000 C 
BRANCH  25  26
ATOM     26  C   UNL     1      -2.105  -7.809  38.122  1.00  0.00    -0.000 C 
BRANCH  26  27
ATOM     27  C   UNL     1      -1.095  -7.447  37.016  1.00  0.00    -0.000 C 
BRANCH  27  28
ATOM     28  C   UNL     1      -1.370  -8.178  35.691  1.00  0.00    -0.000 C 
BRANCH  28  29
ATOM     29  C   UNL     1      -2.342  -9.359  35.854  1.00  0.00    -0.000 C 
BRANCH  29  30
ATOM     30  C   UNL     1      -1.781 -10.698  35.327  1.00  0.00    -0.000 C 
BRANCH  30  31
ATOM     31  C   UNL     1      -1.644 -11.745  36.444  1.00  0.00    -0.003 C 
ATOM     32  C   UNL     1      -2.896 -11.789  37.316  1.00  0.00     0.004 C 
ENDBRANCH  30  31
ENDBRANCH  29  30
ENDBRANCH  28  29
ENDBRANCH  27  28
ENDBRANCH  26  27
ENDBRANCH  25  26
ENDBRANCH  24  25
ENDBRANCH  23  24
ENDBRANCH  22  23
ENDBRANCH  21  22
ENDBRANCH  20  21
ENDBRANCH  19  20
ENDBRANCH  18  19
ENDBRANCH   1  18
TORSDOF 28
ENDMDL
MODEL 5
REMARK VINA RESULT:    -3.457      2.829      6.001
REMARK INTER + INTRA:         -14.642
REMARK INTER:                  -8.591
REMARK INTRA:                  -6.050
REMARK UNBOUND:                -5.527
REMARK SMILES CCCCCCCCCCCCCCCCCCCCCCCCCCCCCC(=O)[O-]
REMARK SMILES IDX 16 1 17 2 18 3 19 4 20 5 21 6 22 7 23 8 24 9 25 10 26 11
REMARK SMILES IDX 27 12 28 13 29 14 30 15 31 16 32 17 15 18 14 19 13 20 12 21
REMARK SMILES IDX 11 22 10 23 9 24 8 25 7 26 6 27 5 28 4 29 3 30 2 31 1 32
REMARK H PARENT
REMARK Flexibility Score: inf
ROOT
ATOM      1  C   UNL     1      -3.339  -6.118  37.286  1.00  0.00     0.000 C 
ENDROOT
BRANCH   1   2
ATOM      2  C   UNL     1      -2.334  -7.225  37.650  1.00  0.00     0.000 C 
BRANCH   2   3
ATOM      3  C   UNL     1      -2.509  -7.821  39.061  1.00  0.00     0.000 C 
BRANCH   3   4
ATOM      4  C   UNL     1      -1.195  -8.143  39.803  1.00  0.00     0.000 C 
BRANCH   4   5
ATOM      5  C   UNL     1      -0.359  -9.282  39.183  1.00  0.00     0.000 C 
BRANCH   5   6
ATOM      6  C   UNL     1      -0.858 -10.705  39.492  1.00  0.00     0.000 C 
BRANCH   6   7
ATOM      7  C   UNL     1      -0.954 -10.994  41.000  1.00  0.00     0.000 C 
BRANCH   7   8
ATOM      8  C   UNL     1      -2.381 -11.365  41.450  1.00  0.00     0.000 C 
BRANCH   8   9
ATOM      9  C   UNL     1      -3.291 -10.170  41.786  1.00  0.00     0.000 C 
BRANCH   9  10
ATOM     10  C   UNL     1      -4.713 -10.596  42.190  1.00  0.00     0.000 C 
BRANCH  10  11
ATOM     11  C   UNL     1      -5.627  -9.397  42.487  1.00  0.00     0.000 C 
BRANCH  11  12
ATOM     12  C   UNL     1      -6.699  -9.195  41.402  1.00  0.00     0.000 C 
BRANCH  12  13
ATOM     13  C   UNL     1      -6.193  -8.361  40.215  1.00  0.00     0.006 C 
BRANCH  13  14
ATOM     14  C   UNL     1      -7.220  -8.257  39.078  1.00  0.00     0.053 C 
BRANCH  14  15
ATOM     15  C   UNL     1      -8.083  -7.047  39.261  1.00  0.00     0.041 C 
ATOM     16  O   UNL     1      -9.102  -7.101  39.997  1.00  0.00    -0.550 OA
ATOM     17  O   UNL     1      -7.778  -5.867  38.590  1.00  0.00    -0.550 OA
ENDBRANCH  14  15
ENDBRANCH  13  14
ENDBRANCH  12  13
ENDBRANCH  11  12
ENDBRANCH  10  11
ENDBRANCH   9  10
ENDBRANCH   8   9
ENDBRANCH   7   8
ENDBRANCH   6   7
ENDBRANCH   5   6
ENDBRANCH   4   5
ENDBRANCH   3   4
ENDBRANCH   2   3
ENDBRANCH   1   2
BRANCH   1  18
ATOM     18  C   UNL     1      -4.766  -6.652  37.077  1.00  0.00     0.000 C 
BRANCH  18  19
ATOM     19  C   UNL     1      -5.458  -6.032  35.853  1.00  0.00     0.000 C 
BRANCH  19  20
ATOM     20  C   UNL     1      -5.246  -4.513  35.765  1.00  0.00     0.000 C 
BRANCH  20  21
ATOM     21  C   UNL     1      -4.515  -4.131  34.469  1.00  0.00     0.000 C 
BRANCH  21  22
ATOM     22  C   UNL     1      -4.893  -5.032  33.279  1.00  0.00     0.000 C 
BRANCH  22  23
ATOM     23  C   UNL     1      -3.712  -5.763  32.614  1.00  0.00     0.000 C 
BRANCH  23  24
ATOM     24  C   UNL     1      -2.462  -5.814  33.506  1.00  0.00    -0.000 C 
BRANCH  24  25
ATOM     25  C   UNL     1      -2.156  -7.256  33.940  1.00  0.00    -0.000 C 
BRANCH  25  26
ATOM     26  C   UNL     1      -3.315  -8.229  33.656  1.00  0.00    -0.000 C 
BRANCH  26  27
ATOM     27  C   UNL     1      -3.558  -9.294  34.742  1.00  0.00    -0.000 C 
BRANCH  27  28
ATOM     28  C   UNL     1      -5.047  -9.630  34.929  1.00  0.00    -0.000 C 
BRANCH  28  29
ATOM     29  C   UNL     1      -5.351 -10.236  36.310  1.00  0.00    -0.000 C 
BRANCH  29  30
ATOM     30  C   UNL     1      -4.100 -10.408  37.198  1.00  0.00    -0.000 C 
BRANCH  30  31
ATOM     31  C   UNL     1      -4.383 -11.285  38.427  1.00  0.00    -0.003 C 
ATOM     32  C   UNL     1      -5.854 -11.685  38.495  1.00  0.00     0.004 C 
ENDBRANCH  30  31
ENDBRANCH  29  30
ENDBRANCH  28  29
ENDBRANCH  27  28
ENDBRANCH  26  27
ENDBRANCH  25  26
ENDBRANCH  24  25
ENDBRANCH  23  24
ENDBRANCH  22  23
ENDBRANCH  21  22
ENDBRANCH  20  21
ENDBRANCH  19  20
ENDBRANCH  18  19
ENDBRANCH   1  18
TORSDOF 28
ENDMDL
MODEL 6
REMARK VINA RESULT:    -3.424      3.696      8.442
REMARK INTER + INTRA:         -14.556
REMARK INTER:                  -8.698
REMARK INTRA:                  -5.858
REMARK UNBOUND:                -5.527
REMARK SMILES CCCCCCCCCCCCCCCCCCCCCCCCCCCCCC(=O)[O-]
REMARK SMILES IDX 16 1 17 2 18 3 19 4 20 5 21 6 22 7 23 8 24 9 25 10 26 11
REMARK SMILES IDX 27 12 28 13 29 14 30 15 31 16 32 17 15 18 14 19 13 20 12 21
REMARK SMILES IDX 11 22 10 23 9 24 8 25 7 26 6 27 5 28 4 29 3 30 2 31 1 32
REMARK H PARENT
REMARK Flexibility Score: inf
ROOT
ATOM      1  C   UNL     1      -1.253  -7.752  37.987  1.00  0.00     0.000 C 
ENDROOT
BRANCH   1   2
ATOM      2  C   UNL     1      -0.683  -8.587  39.147  1.00  0.00     0.000 C 
BRANCH   2   3
ATOM      3  C   UNL     1      -1.469  -8.481  40.470  1.00  0.00     0.000 C 
BRANCH   3   4
ATOM      4  C   UNL     1      -1.928  -9.828  41.067  1.00  0.00     0.000 C 
BRANCH   4   5
ATOM      5  C   UNL     1      -1.767 -11.044  40.133  1.00  0.00     0.000 C 
BRANCH   5   6
ATOM      6  C   UNL     1      -3.068 -11.553  39.487  1.00  0.00     0.000 C 
BRANCH   6   7
ATOM      7  C   UNL     1      -3.386 -10.861  38.151  1.00  0.00     0.000 C 
BRANCH   7   8
ATOM      8  C   UNL     1      -2.797 -11.602  36.935  1.00  0.00     0.000 C 
BRANCH   8   9
ATOM      9  C   UNL     1      -1.900 -10.747  36.021  1.00  0.00     0.000 C 
BRANCH   9  10
ATOM     10  C   UNL     1      -2.703  -9.886  35.031  1.00  0.00     0.000 C 
BRANCH  10  11
ATOM     11  C   UNL     1      -1.927  -8.644  34.564  1.00  0.00     0.000 C 
BRANCH  11  12
ATOM     12  C   UNL     1      -2.734  -7.787  33.574  1.00  0.00     0.000 C 
BRANCH  12  13
ATOM     13  C   UNL     1      -2.396  -6.291  33.671  1.00  0.00     0.006 C 
BRANCH  13  14
ATOM     14  C   UNL     1      -3.366  -5.408  32.872  1.00  0.00     0.053 C 
BRANCH  14  15
ATOM     15  C   UNL     1      -4.264  -4.647  33.796  1.00  0.00     0.041 C 
ATOM     16  O   UNL     1      -3.788  -3.768  34.561  1.00  0.00    -0.550 OA
ATOM     17  O   UNL     1      -5.625  -4.931  33.836  1.00  0.00    -0.550 OA
ENDBRANCH  14  15
ENDBRANCH  13  14
ENDBRANCH  12  13
ENDBRANCH  11  12
ENDBRANCH  10  11
ENDBRANCH   9  10
ENDBRANCH   8   9
ENDBRANCH   7   8
ENDBRANCH   6   7
ENDBRANCH   5   6
ENDBRANCH   4   5
ENDBRANCH   3   4
ENDBRANCH   2   3
ENDBRANCH   1   2
BRANCH   1  18
ATOM     18  C   UNL     1      -2.724  -7.358  38.203  1.00  0.00     0.000 C 
BRANCH  18  19
ATOM     19  C   UNL     1      -3.221  -6.335  37.169  1.00  0.00     0.000 C 
BRANCH  19  20
ATOM     20  C   UNL     1      -4.739  -6.412  36.948  1.00  0.00     0.000 C 
BRANCH  20  21
ATOM     21  C   UNL     1      -5.164  -7.822  36.513  1.00  0.00     0.000 C 
BRANCH  21  22
ATOM     22  C   UNL     1      -6.278  -8.412  37.397  1.00  0.00     0.000 C 
BRANCH  22  23
ATOM     23  C   UNL     1      -6.637  -7.573  38.638  1.00  0.00     0.000 C 
BRANCH  23  24
ATOM     24  C   UNL     1      -6.748  -8.416  39.918  1.00  0.00    -0.000 C 
BRANCH  24  25
ATOM     25  C   UNL     1      -5.360  -8.699  40.512  1.00  0.00    -0.000 C 
BRANCH  25  26
ATOM     26  C   UNL     1      -5.424  -9.312  41.923  1.00  0.00    -0.000 C 
BRANCH  26  27
ATOM     27  C   UNL     1      -5.645 -10.836  41.967  1.00  0.00    -0.000 C 
BRANCH  27  28
ATOM     28  C   UNL     1      -4.640 -11.562  42.876  1.00  0.00    -0.000 C 
BRANCH  28  29
ATOM     29  C   UNL     1      -4.775 -13.093  42.809  1.00  0.00    -0.000 C 
BRANCH  29  30
ATOM     30  C   UNL     1      -3.439 -13.819  42.534  1.00  0.00    -0.000 C 
BRANCH  30  31
ATOM     31  C   UNL     1      -3.489 -14.645  41.240  1.00  0.00    -0.003 C 
ATOM     32  C   UNL     1      -3.720 -16.124  41.536  1.00  0.00     0.004 C 
ENDBRANCH  30  31
ENDBRANCH  29  30
ENDBRANCH  28  29
ENDBRANCH  27  28
ENDBRANCH  26  27
ENDBRANCH  25  26
ENDBRANCH  24  25
ENDBRANCH  23  24
ENDBRANCH  22  23
ENDBRANCH  21  22
ENDBRANCH  20  21
ENDBRANCH  19  20
ENDBRANCH  18  19
ENDBRANCH   1  18
TORSDOF 28
ENDMDL
MODEL 7
REMARK VINA RESULT:    -3.417      3.653      7.788
REMARK INTER + INTRA:         -14.538
REMARK INTER:                  -8.280
REMARK INTRA:                  -6.259
REMARK UNBOUND:                -5.527
REMARK SMILES CCCCCCCCCCCCCCCCCCCCCCCCCCCCCC(=O)[O-]
REMARK SMILES IDX 16 1 17 2 18 3 19 4 20 5 21 6 22 7 23 8 24 9 25 10 26 11
REMARK SMILES IDX 27 12 28 13 29 14 30 15 31 16 32 17 15 18 14 19 13 20 12 21
REMARK SMILES IDX 11 22 10 23 9 24 8 25 7 26 6 27 5 28 4 29 3 30 2 31 1 32
REMARK H PARENT
REMARK Flexibility Score: inf
ROOT
ATOM      1  C   UNL     1      -0.353 -10.539  39.652  1.00  0.00     0.000 C 
ENDROOT
BRANCH   1   2
ATOM      2  C   UNL     1      -0.338  -9.071  39.188  1.00  0.00     0.000 C 
BRANCH   2   3
ATOM      3  C   UNL     1      -0.407  -8.874  37.660  1.00  0.00     0.000 C 
BRANCH   3   4
ATOM      4  C   UNL     1      -1.380  -7.774  37.186  1.00  0.00     0.000 C 
BRANCH   4   5
ATOM      5  C   UNL     1      -2.472  -7.386  38.204  1.00  0.00     0.000 C 
BRANCH   5   6
ATOM      6  C   UNL     1      -3.799  -6.904  37.594  1.00  0.00     0.000 C 
BRANCH   6   7
ATOM      7  C   UNL     1      -3.603  -5.878  36.464  1.00  0.00     0.000 C 
BRANCH   7   8
ATOM      8  C   UNL     1      -4.836  -4.980  36.247  1.00  0.00     0.000 C 
BRANCH   8   9
ATOM      9  C   UNL     1      -4.749  -4.032  35.036  1.00  0.00     0.000 C 
BRANCH   9  10
ATOM     10  C   UNL     1      -3.656  -4.442  34.033  1.00  0.00     0.000 C 
BRANCH  10  11
ATOM     11  C   UNL     1      -4.204  -5.301  32.882  1.00  0.00     0.000 C 
BRANCH  11  12
ATOM     12  C   UNL     1      -3.095  -6.081  32.155  1.00  0.00     0.000 C 
BRANCH  12  13
ATOM     13  C   UNL     1      -1.963  -6.521  33.097  1.00  0.00     0.006 C 
BRANCH  13  14
ATOM     14  C   UNL     1      -0.806  -7.209  32.357  1.00  0.00     0.053 C 
BRANCH  14  15
ATOM     15  C   UNL     1      -0.637  -8.615  32.841  1.00  0.00     0.041 C 
ATOM     16  O   UNL     1      -0.136  -8.840  33.974  1.00  0.00    -0.550 OA
ATOM     17  O   UNL     1      -1.004  -9.681  32.026  1.00  0.00    -0.550 OA
ENDBRANCH  14  15
ENDBRANCH  13  14
ENDBRANCH  12  13
ENDBRANCH  11  12
ENDBRANCH  10  11
ENDBRANCH   9  10
ENDBRANCH   8   9
ENDBRANCH   7   8
ENDBRANCH   6   7
ENDBRANCH   5   6
ENDBRANCH   4   5
ENDBRANCH   3   4
ENDBRANCH   2   3
ENDBRANCH   1   2
BRANCH   1  18
ATOM     18  C   UNL     1      -1.236 -10.764  40.891  1.00  0.00     0.000 C 
BRANCH  18  19
ATOM     19  C   UNL     1      -2.099  -9.539  41.234  1.00  0.00     0.000 C 
BRANCH  19  20
ATOM     20  C   UNL     1      -3.562  -9.911  41.516  1.00  0.00     0.000 C 
BRANCH  20  21
ATOM     21  C   UNL     1      -4.501  -9.294  40.470  1.00  0.00     0.000 C 
BRANCH  21  22
ATOM     22  C   UNL     1      -5.169 -10.348  39.567  1.00  0.00     0.000 C 
BRANCH  22  23
ATOM     23  C   UNL     1      -4.492 -10.558  38.200  1.00  0.00     0.000 C 
BRANCH  23  24
ATOM     24  C   UNL     1      -3.385 -11.622  38.238  1.00  0.00    -0.000 C 
BRANCH  24  25
ATOM     25  C   UNL     1      -2.720 -11.773  36.861  1.00  0.00    -0.000 C 
BRANCH  25  26
ATOM     26  C   UNL     1      -3.719 -11.656  35.695  1.00  0.00    -0.000 C 
BRANCH  26  27
ATOM     27  C   UNL     1      -3.294 -10.704  34.560  1.00  0.00    -0.000 C 
BRANCH  27  28
ATOM     28  C   UNL     1      -3.721  -9.248  34.808  1.00  0.00    -0.000 C 
BRANCH  28  29
ATOM     29  C   UNL     1      -4.892  -8.811  33.910  1.00  0.00    -0.000 C 
BRANCH  29  30
ATOM     30  C   UNL     1      -5.976  -8.004  34.657  1.00  0.00    -0.000 C 
BRANCH  30  31
ATOM     31  C   UNL     1      -7.095  -7.533  33.715  1.00  0.00    -0.003 C 
ATOM     32  C   UNL     1      -7.766  -6.268  34.242  1.00  0.00     0.004 C 
ENDBRANCH  30  31
ENDBRANCH  29  30
ENDBRANCH  28  29
ENDBRANCH  27  28
ENDBRANCH  26  27
ENDBRANCH  25  26
ENDBRANCH  24  25
ENDBRANCH  23  24
ENDBRANCH  22  23
ENDBRANCH  21  22
ENDBRANCH  20  21
ENDBRANCH  19  20
ENDBRANCH  18  19
ENDBRANCH   1  18
TORSDOF 28
ENDMDL
MODEL 8
REMARK VINA RESULT:    -3.414      1.692      4.396
REMARK INTER + INTRA:         -14.530
REMARK INTER:                  -9.332
REMARK INTRA:                  -5.198
REMARK UNBOUND:                -5.527
REMARK SMILES CCCCCCCCCCCCCCCCCCCCCCCCCCCCCC(=O)[O-]
REMARK SMILES IDX 16 1 17 2 18 3 19 4 20 5 21 6 22 7 23 8 24 9 25 10 26 11
REMARK SMILES IDX 27 12 28 13 29 14 30 15 31 16 32 17 15 18 14 19 13 20 12 21
REMARK SMILES IDX 11 22 10 23 9 24 8 25 7 26 6 27 5 28 4 29 3 30 2 31 1 32
REMARK H PARENT
REMARK Flexibility Score: inf
ROOT
ATOM      1  C   UNL     1      -3.597  -7.674  37.295  1.00  0.00     0.000 C 
ENDROOT
BRANCH   1   2
ATOM      2  C   UNL     1      -2.237  -7.323  37.924  1.00  0.00     0.000 C 
BRANCH   2   3
ATOM      3  C   UNL     1      -1.010  -7.719  37.078  1.00  0.00     0.000 C 
BRANCH   3   4
ATOM      4  C   UNL     1      -0.176  -8.888  37.642  1.00  0.00     0.000 C 
BRANCH   4   5
ATOM      5  C   UNL     1      -0.329  -9.126  39.158  1.00  0.00     0.000 C 
BRANCH   5   6
ATOM      6  C   UNL     1      -0.740 -10.553  39.561  1.00  0.00     0.000 C 
BRANCH   6   7
ATOM      7  C   UNL     1      -1.665 -10.588  40.790  1.00  0.00     0.000 C 
BRANCH   7   8
ATOM      8  C   UNL     1      -2.417  -9.262  41.013  1.00  0.00     0.000 C 
BRANCH   8   9
ATOM      9  C   UNL     1      -3.928  -9.311  40.719  1.00  0.00     0.000 C 
BRANCH   9  10
ATOM     10  C   UNL     1      -4.772  -9.612  41.970  1.00  0.00     0.000 C 
BRANCH  10  11
ATOM     11  C   UNL     1      -5.388 -11.020  41.941  1.00  0.00     0.000 C 
BRANCH  11  12
ATOM     12  C   UNL     1      -4.801 -11.938  43.027  1.00  0.00     0.000 C 
BRANCH  12  13
ATOM     13  C   UNL     1      -3.878 -13.023  42.451  1.00  0.00     0.006 C 
BRANCH  13  14
ATOM     14  C   UNL     1      -4.168 -14.418  43.023  1.00  0.00     0.053 C 
BRANCH  14  15
ATOM     15  C   UNL     1      -2.892 -15.163  43.260  1.00  0.00     0.041 C 
ATOM     16  O   UNL     1      -1.785 -14.573  43.156  1.00  0.00    -0.550 OA
ATOM     17  O   UNL     1      -2.924 -16.520  43.565  1.00  0.00    -0.550 OA
ENDBRANCH  14  15
ENDBRANCH  13  14
ENDBRANCH  12  13
ENDBRANCH  11  12
ENDBRANCH  10  11
ENDBRANCH   9  10
ENDBRANCH   8   9
ENDBRANCH   7   8
ENDBRANCH   6   7
ENDBRANCH   5   6
ENDBRANCH   4   5
ENDBRANCH   3   4
ENDBRANCH   2   3
ENDBRANCH   1   2
BRANCH   1  18
ATOM     18  C   UNL     1      -3.792  -9.188  37.102  1.00  0.00     0.000 C 
BRANCH  18  19
ATOM     19  C   UNL     1      -4.009  -9.573  35.630  1.00  0.00     0.000 C 
BRANCH  19  20
ATOM     20  C   UNL     1      -4.514  -8.397  34.782  1.00  0.00     0.000 C 
BRANCH  20  21
ATOM     21  C   UNL     1      -3.700  -8.259  33.486  1.00  0.00     0.000 C 
BRANCH  21  22
ATOM     22  C   UNL     1      -2.368  -7.515  33.692  1.00  0.00     0.000 C 
BRANCH  22  23
ATOM     23  C   UNL     1      -2.482  -5.980  33.754  1.00  0.00     0.000 C 
BRANCH  23  24
ATOM     24  C   UNL     1      -3.646  -5.433  32.915  1.00  0.00    -0.000 C 
BRANCH  24  25
ATOM     25  C   UNL     1      -4.590  -4.579  33.775  1.00  0.00    -0.000 C 
BRANCH  25  26
ATOM     26  C   UNL     1      -4.277  -4.667  35.280  1.00  0.00    -0.000 C 
BRANCH  26  27
ATOM     27  C   UNL     1      -5.508  -4.743  36.203  1.00  0.00    -0.000 C 
BRANCH  27  28
ATOM     28  C   UNL     1      -6.688  -5.496  35.567  1.00  0.00    -0.000 C 
BRANCH  28  29
ATOM     29  C   UNL     1      -7.230  -6.620  36.467  1.00  0.00    -0.000 C 
BRANCH  29  30
ATOM     30  C   UNL     1      -7.227  -6.264  37.970  1.00  0.00    -0.000 C 
BRANCH  30  31
ATOM     31  C   UNL     1      -6.680  -7.412  38.832  1.00  0.00    -0.003 C 
ATOM     32  C   UNL     1      -7.390  -7.479  40.181  1.00  0.00     0.004 C 
ENDBRANCH  30  31
ENDBRANCH  29  30
ENDBRANCH  28  29
ENDBRANCH  27  28
ENDBRANCH  26  27
ENDBRANCH  25  26
ENDBRANCH  24  25
ENDBRANCH  23  24
ENDBRANCH  22  23
ENDBRANCH  21  22
ENDBRANCH  20  21
ENDBRANCH  19  20
ENDBRANCH  18  19
ENDBRANCH   1  18
TORSDOF 28
ENDMDL
MODEL 9
REMARK VINA RESULT:    -3.393      2.303      4.287
REMARK INTER + INTRA:         -14.475
REMARK INTER:                  -8.846
REMARK INTRA:                  -5.629
REMARK UNBOUND:                -5.527
REMARK SMILES CCCCCCCCCCCCCCCCCCCCCCCCCCCCCC(=O)[O-]
REMARK SMILES IDX 16 1 17 2 18 3 19 4 20 5 21 6 22 7 23 8 24 9 25 10 26 11
REMARK SMILES IDX 27 12 28 13 29 14 30 15 31 16 32 17 15 18 14 19 13 20 12 21
REMARK SMILES IDX 11 22 10 23 9 24 8 25 7 26 6 27 5 28 4 29 3 30 2 31 1 32
REMARK H PARENT
REMARK Flexibility Score: inf
ROOT
ATOM      1  C   UNL     1      -1.749  -9.253  41.184  1.00  0.00     0.000 C 
ENDROOT
BRANCH   1   2
ATOM      2  C   UNL     1      -1.331 -10.717  40.957  1.00  0.00     0.000 C 
BRANCH   2   3
ATOM      3  C   UNL     1      -1.863 -11.713  42.008  1.00  0.00     0.000 C 
BRANCH   3   4
ATOM      4  C   UNL     1      -2.867 -12.754  41.471  1.00  0.00     0.000 C 
BRANCH   4   5
ATOM      5  C   UNL     1      -4.129 -12.950  42.336  1.00  0.00     0.000 C 
BRANCH   5   6
ATOM      6  C   UNL     1      -5.311 -12.028  41.991  1.00  0.00     0.000 C 
BRANCH   6   7
ATOM      7  C   UNL     1      -5.501 -10.888  43.007  1.00  0.00     0.000 C 
BRANCH   7   8
ATOM      8  C   UNL     1      -5.113  -9.508  42.441  1.00  0.00     0.000 C 
BRANCH   8   9
ATOM      9  C   UNL     1      -6.001  -9.002  41.289  1.00  0.00     0.000 C 
BRANCH   9  10
ATOM     10  C   UNL     1      -5.200  -8.677  40.016  1.00  0.00     0.000 C 
BRANCH  10  11
ATOM     11  C   UNL     1      -5.387  -9.734  38.915  1.00  0.00     0.000 C 
BRANCH  11  12
ATOM     12  C   UNL     1      -4.096 -10.521  38.634  1.00  0.00     0.000 C 
BRANCH  12  13
ATOM     13  C   UNL     1      -4.367 -11.955  38.151  1.00  0.00     0.006 C 
BRANCH  13  14
ATOM     14  C   UNL     1      -5.814 -12.404  38.402  1.00  0.00     0.053 C 
BRANCH  14  15
ATOM     15  C   UNL     1      -6.411 -12.971  37.152  1.00  0.00     0.041 C 
ATOM     16  O   UNL     1      -7.660 -13.075  37.036  1.00  0.00    -0.550 OA
ATOM     17  O   UNL     1      -5.584 -13.415  36.125  1.00  0.00    -0.550 OA
ENDBRANCH  14  15
ENDBRANCH  13  14
ENDBRANCH  12  13
ENDBRANCH  11  12
ENDBRANCH  10  11
ENDBRANCH   9  10
ENDBRANCH   8   9
ENDBRANCH   7   8
ENDBRANCH   6   7
ENDBRANCH   5   6
ENDBRANCH   4   5
ENDBRANCH   3   4
ENDBRANCH   2   3
ENDBRANCH   1   2
BRANCH   1  18
ATOM     18  C   UNL     1      -1.369  -8.336  40.009  1.00  0.00     0.000 C 
BRANCH  18  19
ATOM     19  C   UNL     1      -0.478  -9.038  38.972  1.00  0.00     0.000 C 
BRANCH  19  20
ATOM     20  C   UNL     1      -1.039  -8.933  37.547  1.00  0.00     0.000 C 
BRANCH  20  21
ATOM     21  C   UNL     1      -1.047  -7.475  37.062  1.00  0.00     0.000 C 
BRANCH  21  22
ATOM     22  C   UNL     1      -2.450  -6.987  36.655  1.00  0.00     0.000 C 
BRANCH  22  23
ATOM     23  C   UNL     1      -3.279  -7.996  35.838  1.00  0.00     0.000 C 
BRANCH  23  24
ATOM     24  C   UNL     1      -3.223  -7.730  34.326  1.00  0.00    -0.000 C 
BRANCH  24  25
ATOM     25  C   UNL     1      -2.231  -6.603  34.002  1.00  0.00    -0.000 C 
BRANCH  25  26
ATOM     26  C   UNL     1      -2.909  -5.364  33.386  1.00  0.00    -0.000 C 
BRANCH  26  27
ATOM     27  C   UNL     1      -4.344  -5.589  32.873  1.00  0.00    -0.000 C 
BRANCH  27  28
ATOM     28  C   UNL     1      -5.388  -4.752  33.629  1.00  0.00    -0.000 C 
BRANCH  28  29
ATOM     29  C   UNL     1      -4.806  -4.056  34.872  1.00  0.00    -0.000 C 
BRANCH  29  30
ATOM     30  C   UNL     1      -5.393  -4.575  36.203  1.00  0.00    -0.000 C 
BRANCH  30  31
ATOM     31  C   UNL     1      -6.225  -5.851  36.006  1.00  0.00    -0.003 C 
ATOM     32  C   UNL     1      -6.634  -6.458  37.345  1.00  0.00     0.004 C 
ENDBRANCH  30  31
ENDBRANCH  29  30
ENDBRANCH  28  29
ENDBRANCH  27  28
ENDBRANCH  26  27
ENDBRANCH  25  26
ENDBRANCH  24  25
ENDBRANCH  23  24
ENDBRANCH  22  23
ENDBRANCH  21  22
ENDBRANCH  20  21
ENDBRANCH  19  20
ENDBRANCH  18  19
ENDBRANCH   1  18
TORSDOF 28
ENDMDL
