MODEL 1
REMARK VINA RESULT:    -3.864      0.000      0.000
REMARK INTER + INTRA:         -14.715
REMARK INTER:                 -10.190
REMARK INTRA:                  -4.526
REMARK UNBOUND:                -4.526
REMARK SMILES CCCCCCCCCCCCCCCCCCCCCCCCCCCCCC(=O)[O-]
REMARK SMILES IDX 16 1 17 2 18 3 19 4 20 5 21 6 22 7 23 8 24 9 25 10 26 11
REMARK SMILES IDX 27 12 28 13 29 14 30 15 31 16 32 17 15 18 14 19 13 20 12 21
REMARK SMILES IDX 11 22 10 23 9 24 8 25 7 26 6 27 5 28 4 29 3 30 2 31 1 32
REMARK H PARENT
REMARK Flexibility Score: inf
ROOT
ATOM      1  C   UNL     1     303.658 327.223 644.107  1.00  0.00     0.000 C 
ENDROOT
BRANCH   1   2
ATOM      2  C   UNL     1     303.697 326.079 645.135  1.00  0.00     0.000 C 
BRANCH   2   3
ATOM      3  C   UNL     1     303.519 324.697 644.485  1.00  0.00     0.000 C 
BRANCH   3   4
ATOM      4  C   UNL     1     302.463 324.693 643.366  1.00  0.00     0.000 C 
BRANCH   4   5
ATOM      5  C   UNL     1     301.146 324.005 643.777  1.00  0.00     0.000 C 
BRANCH   5   6
ATOM      6  C   UNL     1     300.006 324.955 644.209  1.00  0.00     0.000 C 
BRANCH   6   7
ATOM      7  C   UNL     1     299.077 324.397 645.310  1.00  0.00     0.000 C 
BRANCH   7   8
ATOM      8  C   UNL     1     299.093 325.204 646.622  1.00  0.00     0.000 C 
BRANCH   8   9
ATOM      9  C   UNL     1     299.836 324.502 647.776  1.00  0.00     0.000 C 
BRANCH   9  10
ATOM     10  C   UNL     1     301.352 324.745 647.720  1.00  0.00     0.000 C 
BRANCH  10  11
ATOM     11  C   UNL     1     302.114 323.421 647.570  1.00  0.00     0.000 C 
BRANCH  11  12
ATOM     12  C   UNL     1     303.471 323.423 648.299  1.00  0.00     0.000 C 
BRANCH  12  13
ATOM     13  C   UNL     1     304.220 322.075 648.285  1.00  0.00     0.006 C 
BRANCH  13  14
ATOM     14  C   UNL     1     305.746 322.187 648.426  1.00  0.00     0.053 C 
BRANCH  14  15
ATOM     15  C   UNL     1     306.179 322.144 649.860  1.00  0.00     0.041 C 
ATOM     16  O   UNL     1     307.400 322.234 650.157  1.00  0.00    -0.550 OA
ATOM     17  O   UNL     1     305.235 321.980 650.866  1.00  0.00    -0.550 OA
ENDBRANCH  14  15
ENDBRANCH  13  14
ENDBRANCH  12  13
ENDBRANCH  11  12
ENDBRANCH  10  11
ENDBRANCH   9  10
ENDBRANCH   8   9
ENDBRANCH   7   8
ENDBRANCH   6   7
ENDBRANCH   5   6
ENDBRANCH   4   5
ENDBRANCH   3   4
ENDBRANCH   2   3
ENDBRANCH   1   2
BRANCH   1  18
ATOM     18  C   UNL     1     302.631 328.314 644.462  1.00  0.00     0.000 C 
BRANCH  18  19
ATOM     19  C   UNL     1     301.583 327.915 645.524  1.00  0.00     0.000 C 
BRANCH  19  20
ATOM     20  C   UNL     1     300.160 328.450 645.282  1.00  0.00     0.000 C 
BRANCH  20  21
ATOM     21  C   UNL     1     300.146 329.869 644.688  1.00  0.00     0.000 C 
BRANCH  21  22
ATOM     22  C   UNL     1     299.294 329.971 643.413  1.00  0.00     0.000 C 
BRANCH  22  23
ATOM     23  C   UNL     1     299.521 331.287 642.649  1.00  0.00     0.000 C 
BRANCH  23  24
ATOM     24  C   UNL     1     299.715 332.495 643.586  1.00  0.00    -0.000 C 
BRANCH  24  25
ATOM     25  C   UNL     1     300.980 333.339 643.323  1.00  0.00    -0.000 C 
BRANCH  25  26
ATOM     26  C   UNL     1     301.027 334.689 644.061  1.00  0.00    -0.000 C 
BRANCH  26  27
ATOM     27  C   UNL     1     300.959 334.532 645.590  1.00  0.00    -0.000 C 
BRANCH  27  28
ATOM     28  C   UNL     1     302.301 334.094 646.196  1.00  0.00    -0.000 C 
BRANCH  28  29
ATOM     29  C   UNL     1     302.214 332.723 646.891  1.00  0.00    -0.000 C 
BRANCH  29  30
ATOM     30  C   UNL     1     302.876 331.605 646.056  1.00  0.00    -0.000 C 
BRANCH  30  31
ATOM     31  C   UNL     1     304.161 332.052 645.339  1.00  0.00    -0.003 C 
ATOM     32  C   UNL     1     304.160 331.725 643.848  1.00  0.00     0.004 C 
ENDBRANCH  30  31
ENDBRANCH  29  30
ENDBRANCH  28  29
ENDBRANCH  27  28
ENDBRANCH  26  27
ENDBRANCH  25  26
ENDBRANCH  24  25
ENDBRANCH  23  24
ENDBRANCH  22  23
ENDBRANCH  21  22
ENDBRANCH  20  21
ENDBRANCH  19  20
ENDBRANCH  18  19
ENDBRANCH   1  18
TORSDOF 28
ENDMDL
MODEL 2
REMARK VINA RESULT:    -3.836      3.398      8.521
REMARK INTER + INTRA:         -14.641
REMARK INTER:                  -9.358
REMARK INTRA:                  -5.283
REMARK UNBOUND:                -4.526
REMARK SMILES CCCCCCCCCCCCCCCCCCCCCCCCCCCCCC(=O)[O-]
REMARK SMILES IDX 16 1 17 2 18 3 19 4 20 5 21 6 22 7 23 8 24 9 25 10 26 11
REMARK SMILES IDX 27 12 28 13 29 14 30 15 31 16 32 17 15 18 14 19 13 20 12 21
REMARK SMILES IDX 11 22 10 23 9 24 8 25 7 26 6 27 5 28 4 29 3 30 2 31 1 32
REMARK H PARENT
REMARK Flexibility Score: inf
ROOT
ATOM      1  C   UNL     1     301.131 324.190 643.852  1.00  0.00     0.000 C 
ENDROOT
BRANCH   1   2
ATOM      2  C   UNL     1     302.569 324.618 644.192  1.00  0.00     0.000 C 
BRANCH   2   3
ATOM      3  C   UNL     1     302.632 326.019 644.823  1.00  0.00     0.000 C 
BRANCH   3   4
ATOM      4  C   UNL     1     303.274 327.065 643.895  1.00  0.00     0.000 C 
BRANCH   4   5
ATOM      5  C   UNL     1     302.553 328.427 643.926  1.00  0.00     0.000 C 
BRANCH   5   6
ATOM      6  C   UNL     1     301.548 328.622 645.084  1.00  0.00     0.000 C 
BRANCH   6   7
ATOM      7  C   UNL     1     300.637 329.862 644.952  1.00  0.00     0.000 C 
BRANCH   7   8
ATOM      8  C   UNL     1     299.314 329.601 644.206  1.00  0.00     0.000 C 
BRANCH   8   9
ATOM      9  C   UNL     1     299.116 330.487 642.960  1.00  0.00     0.000 C 
BRANCH   9  10
ATOM     10  C   UNL     1     300.395 331.249 642.583  1.00  0.00     0.000 C 
BRANCH  10  11
ATOM     11  C   UNL     1     300.144 332.763 642.554  1.00  0.00     0.000 C 
BRANCH  11  12
ATOM     12  C   UNL     1     299.835 333.347 643.945  1.00  0.00     0.000 C 
BRANCH  12  13
ATOM     13  C   UNL     1     301.041 333.985 644.666  1.00  0.00     0.006 C 
BRANCH  13  14
ATOM     14  C   UNL     1     301.357 333.385 646.045  1.00  0.00     0.053 C 
BRANCH  14  15
ATOM     15  C   UNL     1     302.829 333.368 646.323  1.00  0.00     0.041 C 
ATOM     16  O   UNL     1     303.499 332.320 646.131  1.00  0.00    -0.550 OA
ATOM     17  O   UNL     1     303.456 334.505 646.819  1.00  0.00    -0.550 OA
ENDBRANCH  14  15
ENDBRANCH  13  14
ENDBRANCH  12  13
ENDBRANCH  11  12
ENDBRANCH  10  11
ENDBRANCH   9  10
ENDBRANCH   8   9
ENDBRANCH   7   8
ENDBRANCH   6   7
ENDBRANCH   5   6
ENDBRANCH   4   5
ENDBRANCH   3   4
ENDBRANCH   2   3
ENDBRANCH   1   2
BRANCH   1  18
ATOM     18  C   UNL     1     300.132 325.360 643.887  1.00  0.00     0.000 C 
BRANCH  18  19
ATOM     19  C   UNL     1     298.964 325.205 644.885  1.00  0.00     0.000 C 
BRANCH  19  20
ATOM     20  C   UNL     1     298.953 326.208 646.053  1.00  0.00     0.000 C 
BRANCH  20  21
ATOM     21  C   UNL     1     299.792 325.739 647.254  1.00  0.00     0.000 C 
BRANCH  21  22
ATOM     22  C   UNL     1     299.651 324.232 647.525  1.00  0.00     0.000 C 
BRANCH  22  23
ATOM     23  C   UNL     1     301.002 323.496 647.517  1.00  0.00     0.000 C 
BRANCH  23  24
ATOM     24  C   UNL     1     302.172 324.394 647.962  1.00  0.00    -0.000 C 
BRANCH  24  25
ATOM     25  C   UNL     1     303.343 323.661 648.649  1.00  0.00    -0.000 C 
BRANCH  25  26
ATOM     26  C   UNL     1     303.805 322.371 647.948  1.00  0.00    -0.000 C 
BRANCH  26  27
ATOM     27  C   UNL     1     304.494 322.642 646.600  1.00  0.00    -0.000 C 
BRANCH  27  28
ATOM     28  C   UNL     1     305.859 323.329 646.764  1.00  0.00    -0.000 C 
BRANCH  28  29
ATOM     29  C   UNL     1     305.870 324.761 646.200  1.00  0.00    -0.000 C 
BRANCH  29  30
ATOM     30  C   UNL     1     306.004 325.824 647.313  1.00  0.00    -0.000 C 
BRANCH  30  31
ATOM     31  C   UNL     1     305.548 327.227 646.879  1.00  0.00    -0.003 C 
ATOM     32  C   UNL     1     306.392 327.808 645.746  1.00  0.00     0.004 C 
ENDBRANCH  30  31
ENDBRANCH  29  30
ENDBRANCH  28  29
ENDBRANCH  27  28
ENDBRANCH  26  27
ENDBRANCH  25  26
ENDBRANCH  24  25
ENDBRANCH  23  24
ENDBRANCH  22  23
ENDBRANCH  21  22
ENDBRANCH  20  21
ENDBRANCH  19  20
ENDBRANCH  18  19
ENDBRANCH   1  18
TORSDOF 28
ENDMDL
MODEL 3
REMARK VINA RESULT:    -3.797      3.842      8.730
REMARK INTER + INTRA:         -14.537
REMARK INTER:                  -8.567
REMARK INTRA:                  -5.970
REMARK UNBOUND:                -4.526
REMARK SMILES CCCCCCCCCCCCCCCCCCCCCCCCCCCCCC(=O)[O-]
REMARK SMILES IDX 16 1 17 2 18 3 19 4 20 5 21 6 22 7 23 8 24 9 25 10 26 11
REMARK SMILES IDX 27 12 28 13 29 14 30 15 31 16 32 17 15 18 14 19 13 20 12 21
REMARK SMILES IDX 11 22 10 23 9 24 8 25 7 26 6 27 5 28 4 29 3 30 2 31 1 32
REMARK H PARENT
REMARK Flexibility Score: inf
ROOT
ATOM      1  C   UNL     1     300.331 325.999 643.548  1.00  0.00     0.000 C 
ENDROOT
BRANCH   1   2
ATOM      2  C   UNL     1     299.425 325.401 644.638  1.00  0.00     0.000 C 
BRANCH   2   3
ATOM      3  C   UNL     1     299.269 326.333 645.851  1.00  0.00     0.000 C 
BRANCH   3   4
ATOM      4  C   UNL     1     299.594 325.639 647.186  1.00  0.00     0.000 C 
BRANCH   4   5
ATOM      5  C   UNL     1     299.855 324.127 647.036  1.00  0.00     0.000 C 
BRANCH   5   6
ATOM      6  C   UNL     1     301.317 323.679 647.261  1.00  0.00     0.000 C 
BRANCH   6   7
ATOM      7  C   UNL     1     302.204 324.702 648.004  1.00  0.00     0.000 C 
BRANCH   7   8
ATOM      8  C   UNL     1     303.356 325.276 647.156  1.00  0.00     0.000 C 
BRANCH   8   9
ATOM      9  C   UNL     1     303.048 326.655 646.541  1.00  0.00     0.000 C 
BRANCH   9  10
ATOM     10  C   UNL     1     303.564 326.774 645.099  1.00  0.00     0.000 C 
BRANCH  10  11
ATOM     11  C   UNL     1     303.177 328.127 644.487  1.00  0.00     0.000 C 
BRANCH  11  12
ATOM     12  C   UNL     1     303.068 329.251 645.534  1.00  0.00     0.000 C 
BRANCH  12  13
ATOM     13  C   UNL     1     301.877 330.211 645.338  1.00  0.00     0.006 C 
BRANCH  13  14
ATOM     14  C   UNL     1     300.567 329.531 644.909  1.00  0.00     0.053 C 
BRANCH  14  15
ATOM     15  C   UNL     1     299.715 330.437 644.072  1.00  0.00     0.041 C 
ATOM     16  O   UNL     1     299.733 331.681 644.266  1.00  0.00    -0.550 OA
ATOM     17  O   UNL     1     298.883 329.903 643.096  1.00  0.00    -0.550 OA
ENDBRANCH  14  15
ENDBRANCH  13  14
ENDBRANCH  12  13
ENDBRANCH  11  12
ENDBRANCH  10  11
ENDBRANCH   9  10
ENDBRANCH   8   9
ENDBRANCH   7   8
ENDBRANCH   6   7
ENDBRANCH   5   6
ENDBRANCH   4   5
ENDBRANCH   3   4
ENDBRANCH   2   3
ENDBRANCH   1   2
BRANCH   1  18
ATOM     18  C   UNL     1     301.143 324.932 642.791  1.00  0.00     0.000 C 
BRANCH  18  19
ATOM     19  C   UNL     1     301.729 323.802 643.665  1.00  0.00     0.000 C 
BRANCH  19  20
ATOM     20  C   UNL     1     303.102 323.267 643.222  1.00  0.00     0.000 C 
BRANCH  20  21
ATOM     21  C   UNL     1     304.102 323.146 644.385  1.00  0.00     0.000 C 
BRANCH  21  22
ATOM     22  C   UNL     1     304.919 321.845 644.334  1.00  0.00     0.000 C 
BRANCH  22  23
ATOM     23  C   UNL     1     305.307 321.331 645.731  1.00  0.00     0.000 C 
BRANCH  23  24
ATOM     24  C   UNL     1     304.687 322.165 646.868  1.00  0.00    -0.000 C 
BRANCH  24  25
ATOM     25  C   UNL     1     304.869 321.588 648.287  1.00  0.00    -0.000 C 
BRANCH  25  26
ATOM     26  C   UNL     1     305.229 322.621 649.369  1.00  0.00    -0.000 C 
BRANCH  26  27
ATOM     27  C   UNL     1     306.713 322.567 649.771  1.00  0.00    -0.000 C 
BRANCH  27  28
ATOM     28  C   UNL     1     307.589 323.491 648.910  1.00  0.00    -0.000 C 
BRANCH  28  29
ATOM     29  C   UNL     1     306.858 324.783 648.503  1.00  0.00    -0.000 C 
BRANCH  29  30
ATOM     30  C   UNL     1     306.960 325.056 646.986  1.00  0.00    -0.000 C 
BRANCH  30  31
ATOM     31  C   UNL     1     307.996 324.171 646.272  1.00  0.00    -0.003 C 
ATOM     32  C   UNL     1     307.747 324.050 644.771  1.00  0.00     0.004 C 
ENDBRANCH  30  31
ENDBRANCH  29  30
ENDBRANCH  28  29
ENDBRANCH  27  28
ENDBRANCH  26  27
ENDBRANCH  25  26
ENDBRANCH  24  25
ENDBRANCH  23  24
ENDBRANCH  22  23
ENDBRANCH  21  22
ENDBRANCH  20  21
ENDBRANCH  19  20
ENDBRANCH  18  19
ENDBRANCH   1  18
TORSDOF 28
ENDMDL
MODEL 4
REMARK VINA RESULT:    -3.752      3.948      9.311
REMARK INTER + INTRA:         -14.420
REMARK INTER:                  -9.514
REMARK INTRA:                  -4.906
REMARK UNBOUND:                -4.526
REMARK SMILES CCCCCCCCCCCCCCCCCCCCCCCCCCCCCC(=O)[O-]
REMARK SMILES IDX 16 1 17 2 18 3 19 4 20 5 21 6 22 7 23 8 24 9 25 10 26 11
REMARK SMILES IDX 27 12 28 13 29 14 30 15 31 16 32 17 15 18 14 19 13 20 12 21
REMARK SMILES IDX 11 22 10 23 9 24 8 25 7 26 6 27 5 28 4 29 3 30 2 31 1 32
REMARK H PARENT
REMARK Flexibility Score: inf
ROOT
ATOM      1  C   UNL     1     299.968 324.735 647.885  1.00  0.00     0.000 C 
ENDROOT
BRANCH   1   2
ATOM      2  C   UNL     1     301.280 323.995 647.572  1.00  0.00     0.000 C 
BRANCH   2   3
ATOM      3  C   UNL     1     302.491 324.941 647.518  1.00  0.00     0.000 C 
BRANCH   3   4
ATOM      4  C   UNL     1     303.251 324.865 646.183  1.00  0.00     0.000 C 
BRANCH   4   5
ATOM      5  C   UNL     1     303.327 326.219 645.450  1.00  0.00     0.000 C 
BRANCH   5   6
ATOM      6  C   UNL     1     302.389 327.323 645.991  1.00  0.00     0.000 C 
BRANCH   6   7
ATOM      7  C   UNL     1     301.670 328.155 644.906  1.00  0.00     0.000 C 
BRANCH   7   8
ATOM      8  C   UNL     1     300.210 328.511 645.244  1.00  0.00     0.000 C 
BRANCH   8   9
ATOM      9  C   UNL     1     299.319 328.726 644.006  1.00  0.00     0.000 C 
BRANCH   9  10
ATOM     10  C   UNL     1     300.141 329.060 642.752  1.00  0.00     0.000 C 
BRANCH  10  11
ATOM     11  C   UNL     1     299.982 330.538 642.369  1.00  0.00     0.000 C 
BRANCH  11  12
ATOM     12  C   UNL     1     299.403 331.395 643.509  1.00  0.00     0.000 C 
BRANCH  12  13
ATOM     13  C   UNL     1     300.397 332.389 644.146  1.00  0.00     0.006 C 
BRANCH  13  14
ATOM     14  C   UNL     1     299.832 333.798 644.385  1.00  0.00     0.053 C 
BRANCH  14  15
ATOM     15  C   UNL     1     300.740 334.625 645.244  1.00  0.00     0.041 C 
ATOM     16  O   UNL     1     301.424 334.082 646.151  1.00  0.00    -0.550 OA
ATOM     17  O   UNL     1     300.810 336.000 645.058  1.00  0.00    -0.550 OA
ENDBRANCH  14  15
ENDBRANCH  13  14
ENDBRANCH  12  13
ENDBRANCH  11  12
ENDBRANCH  10  11
ENDBRANCH   9  10
ENDBRANCH   8   9
ENDBRANCH   7   8
ENDBRANCH   6   7
ENDBRANCH   5   6
ENDBRANCH   4   5
ENDBRANCH   3   4
ENDBRANCH   2   3
ENDBRANCH   1   2
BRANCH   1  18
ATOM     18  C   UNL     1     299.270 325.275 646.624  1.00  0.00     0.000 C 
BRANCH  18  19
ATOM     19  C   UNL     1     299.328 324.352 645.387  1.00  0.00     0.000 C 
BRANCH  19  20
ATOM     20  C   UNL     1     300.018 324.949 644.147  1.00  0.00     0.000 C 
BRANCH  20  21
ATOM     21  C   UNL     1     301.017 323.979 643.493  1.00  0.00     0.000 C 
BRANCH  21  22
ATOM     22  C   UNL     1     301.766 324.608 642.307  1.00  0.00     0.000 C 
BRANCH  22  23
ATOM     23  C   UNL     1     303.167 324.008 642.102  1.00  0.00     0.000 C 
BRANCH  23  24
ATOM     24  C   UNL     1     303.579 323.052 643.237  1.00  0.00    -0.000 C 
BRANCH  24  25
ATOM     25  C   UNL     1     305.087 322.739 643.325  1.00  0.00    -0.000 C 
BRANCH  25  26
ATOM     26  C   UNL     1     305.649 322.636 644.754  1.00  0.00    -0.000 C 
BRANCH  26  27
ATOM     27  C   UNL     1     306.127 321.217 645.103  1.00  0.00    -0.000 C 
BRANCH  27  28
ATOM     28  C   UNL     1     305.781 320.818 646.547  1.00  0.00    -0.000 C 
BRANCH  28  29
ATOM     29  C   UNL     1     304.778 321.785 647.201  1.00  0.00    -0.000 C 
BRANCH  29  30
ATOM     30  C   UNL     1     304.844 321.738 648.743  1.00  0.00    -0.000 C 
BRANCH  30  31
ATOM     31  C   UNL     1     305.127 323.105 649.388  1.00  0.00    -0.003 C 
ATOM     32  C   UNL     1     306.101 323.959 648.579  1.00  0.00     0.004 C 
ENDBRANCH  30  31
ENDBRANCH  29  30
ENDBRANCH  28  29
ENDBRANCH  27  28
ENDBRANCH  26  27
ENDBRANCH  25  26
ENDBRANCH  24  25
ENDBRANCH  23  24
ENDBRANCH  22  23
ENDBRANCH  21  22
ENDBRANCH  20  21
ENDBRANCH  19  20
ENDBRANCH  18  19
ENDBRANCH   1  18
TORSDOF 28
ENDMDL
MODEL 5
REMARK VINA RESULT:    -3.750      1.326      2.751
REMARK INTER + INTRA:         -14.415
REMARK INTER:                  -9.641
REMARK INTRA:                  -4.774
REMARK UNBOUND:                -4.526
REMARK SMILES CCCCCCCCCCCCCCCCCCCCCCCCCCCCCC(=O)[O-]
REMARK SMILES IDX 16 1 17 2 18 3 19 4 20 5 21 6 22 7 23 8 24 9 25 10 26 11
REMARK SMILES IDX 27 12 28 13 29 14 30 15 31 16 32 17 15 18 14 19 13 20 12 21
REMARK SMILES IDX 11 22 10 23 9 24 8 25 7 26 6 27 5 28 4 29 3 30 2 31 1 32
REMARK H PARENT
REMARK Flexibility Score: inf
ROOT
ATOM      1  C   UNL     1     303.998 325.878 643.239  1.00  0.00     0.000 C 
ENDROOT
BRANCH   1   2
ATOM      2  C   UNL     1     304.053 324.344 643.338  1.00  0.00     0.000 C 
BRANCH   2   3
ATOM      3  C   UNL     1     302.654 323.706 643.368  1.00  0.00     0.000 C 
BRANCH   3   4
ATOM      4  C   UNL     1     301.537 324.724 643.654  1.00  0.00     0.000 C 
BRANCH   4   5
ATOM      5  C   UNL     1     300.310 324.100 644.348  1.00  0.00     0.000 C 
BRANCH   5   6
ATOM      6  C   UNL     1     299.367 325.098 645.057  1.00  0.00     0.000 C 
BRANCH   6   7
ATOM      7  C   UNL     1     299.248 324.908 646.585  1.00  0.00     0.000 C 
BRANCH   7   8
ATOM      8  C   UNL     1     300.174 323.821 647.163  1.00  0.00     0.000 C 
BRANCH   8   9
ATOM      9  C   UNL     1     301.285 324.371 648.078  1.00  0.00     0.000 C 
BRANCH   9  10
ATOM     10  C   UNL     1     302.502 324.861 647.279  1.00  0.00     0.000 C 
BRANCH  10  11
ATOM     11  C   UNL     1     303.423 323.689 646.909  1.00  0.00     0.000 C 
BRANCH  11  12
ATOM     12  C   UNL     1     303.695 322.742 648.092  1.00  0.00     0.000 C 
BRANCH  12  13
ATOM     13  C   UNL     1     304.965 323.065 648.906  1.00  0.00     0.006 C 
BRANCH  13  14
ATOM     14  C   UNL     1     304.962 322.523 650.344  1.00  0.00     0.053 C 
BRANCH  14  15
ATOM     15  C   UNL     1     306.012 321.473 650.548  1.00  0.00     0.041 C 
ATOM     16  O   UNL     1     305.986 320.741 651.571  1.00  0.00    -0.550 OA
ATOM     17  O   UNL     1     307.034 321.323 649.618  1.00  0.00    -0.550 OA
ENDBRANCH  14  15
ENDBRANCH  13  14
ENDBRANCH  12  13
ENDBRANCH  11  12
ENDBRANCH  10  11
ENDBRANCH   9  10
ENDBRANCH   8   9
ENDBRANCH   7   8
ENDBRANCH   6   7
ENDBRANCH   5   6
ENDBRANCH   4   5
ENDBRANCH   3   4
ENDBRANCH   2   3
ENDBRANCH   1   2
BRANCH   1  18
ATOM     18  C   UNL     1     304.808 326.579 644.345  1.00  0.00     0.000 C 
BRANCH  18  19
ATOM     19  C   UNL     1     303.990 327.487 645.289  1.00  0.00     0.000 C 
BRANCH  19  20
ATOM     20  C   UNL     1     302.819 328.241 644.633  1.00  0.00     0.000 C 
BRANCH  20  21
ATOM     21  C   UNL     1     301.479 328.009 645.352  1.00  0.00     0.000 C 
BRANCH  21  22
ATOM     22  C   UNL     1     300.466 329.137 645.098  1.00  0.00     0.000 C 
BRANCH  22  23
ATOM     23  C   UNL     1     299.253 328.673 644.272  1.00  0.00     0.000 C 
BRANCH  23  24
ATOM     24  C   UNL     1     299.624 328.306 642.823  1.00  0.00    -0.000 C 
BRANCH  24  25
ATOM     25  C   UNL     1     300.128 329.476 641.952  1.00  0.00    -0.000 C 
BRANCH  25  26
ATOM     26  C   UNL     1     299.302 330.769 642.059  1.00  0.00    -0.000 C 
BRANCH  26  27
ATOM     27  C   UNL     1     300.180 332.028 642.163  1.00  0.00    -0.000 C 
BRANCH  27  28
ATOM     28  C   UNL     1     301.600 331.714 642.662  1.00  0.00    -0.000 C 
BRANCH  28  29
ATOM     29  C   UNL     1     301.980 332.532 643.909  1.00  0.00    -0.000 C 
BRANCH  29  30
ATOM     30  C   UNL     1     300.743 332.928 644.744  1.00  0.00    -0.000 C 
BRANCH  30  31
ATOM     31  C   UNL     1     300.961 334.183 645.607  1.00  0.00    -0.003 C 
ATOM     32  C   UNL     1     300.596 335.477 644.885  1.00  0.00     0.004 C 
ENDBRANCH  30  31
ENDBRANCH  29  30
ENDBRANCH  28  29
ENDBRANCH  27  28
ENDBRANCH  26  27
ENDBRANCH  25  26
ENDBRANCH  24  25
ENDBRANCH  23  24
ENDBRANCH  22  23
ENDBRANCH  21  22
ENDBRANCH  20  21
ENDBRANCH  19  20
ENDBRANCH  18  19
ENDBRANCH   1  18
TORSDOF 28
ENDMDL
MODEL 6
REMARK VINA RESULT:    -3.745      4.091      6.845
REMARK INTER + INTRA:         -14.400
REMARK INTER:                  -7.968
REMARK INTRA:                  -6.432
REMARK UNBOUND:                -4.526
REMARK SMILES CCCCCCCCCCCCCCCCCCCCCCCCCCCCCC(=O)[O-]
REMARK SMILES IDX 16 1 17 2 18 3 19 4 20 5 21 6 22 7 23 8 24 9 25 10 26 11
REMARK SMILES IDX 27 12 28 13 29 14 30 15 31 16 32 17 15 18 14 19 13 20 12 21
REMARK SMILES IDX 11 22 10 23 9 24 8 25 7 26 6 27 5 28 4 29 3 30 2 31 1 32
REMARK H PARENT
REMARK Flexibility Score: inf
ROOT
ATOM      1  C   UNL     1     305.569 323.040 645.191  1.00  0.00     0.000 C 
ENDROOT
BRANCH   1   2
ATOM      2  C   UNL     1     304.968 321.842 645.945  1.00  0.00     0.000 C 
BRANCH   2   3
ATOM      3  C   UNL     1     306.042 320.865 646.451  1.00  0.00     0.000 C 
BRANCH   3   4
ATOM      4  C   UNL     1     306.033 320.706 647.982  1.00  0.00     0.000 C 
BRANCH   4   5
ATOM      5  C   UNL     1     304.819 321.378 648.655  1.00  0.00     0.000 C 
BRANCH   5   6
ATOM      6  C   UNL     1     305.152 322.534 649.625  1.00  0.00     0.000 C 
BRANCH   6   7
ATOM      7  C   UNL     1     306.503 323.234 649.363  1.00  0.00     0.000 C 
BRANCH   7   8
ATOM      8  C   UNL     1     306.411 324.467 648.443  1.00  0.00     0.000 C 
BRANCH   8   9
ATOM      9  C   UNL     1     307.495 325.529 648.715  1.00  0.00     0.000 C 
BRANCH   9  10
ATOM     10  C   UNL     1     307.868 326.312 647.448  1.00  0.00     0.000 C 
BRANCH  10  11
ATOM     11  C   UNL     1     307.905 325.387 646.223  1.00  0.00     0.000 C 
BRANCH  11  12
ATOM     12  C   UNL     1     309.245 324.644 646.071  1.00  0.00     0.000 C 
BRANCH  12  13
ATOM     13  C   UNL     1     309.153 323.107 646.163  1.00  0.00     0.006 C 
BRANCH  13  14
ATOM     14  C   UNL     1     309.546 322.521 647.528  1.00  0.00     0.053 C 
BRANCH  14  15
ATOM     15  C   UNL     1     310.728 323.228 648.120  1.00  0.00     0.041 C 
ATOM     16  O   UNL     1     310.585 323.963 649.132  1.00  0.00    -0.550 OA
ATOM     17  O   UNL     1     311.982 323.095 647.536  1.00  0.00    -0.550 OA
ENDBRANCH  14  15
ENDBRANCH  13  14
ENDBRANCH  12  13
ENDBRANCH  11  12
ENDBRANCH  10  11
ENDBRANCH   9  10
ENDBRANCH   8   9
ENDBRANCH   7   8
ENDBRANCH   6   7
ENDBRANCH   5   6
ENDBRANCH   4   5
ENDBRANCH   3   4
ENDBRANCH   2   3
ENDBRANCH   1   2
BRANCH   1  18
ATOM     18  C   UNL     1     304.639 323.586 644.092  1.00  0.00     0.000 C 
BRANCH  18  19
ATOM     19  C   UNL     1     303.561 322.601 643.589  1.00  0.00     0.000 C 
BRANCH  19  20
ATOM     20  C   UNL     1     302.305 323.250 642.978  1.00  0.00     0.000 C 
BRANCH  20  21
ATOM     21  C   UNL     1     301.804 324.460 643.784  1.00  0.00     0.000 C 
BRANCH  21  22
ATOM     22  C   UNL     1     300.307 324.369 644.122  1.00  0.00     0.000 C 
BRANCH  22  23
ATOM     23  C   UNL     1     299.754 325.670 644.730  1.00  0.00     0.000 C 
BRANCH  23  24
ATOM     24  C   UNL     1     298.884 325.422 645.977  1.00  0.00    -0.000 C 
BRANCH  24  25
ATOM     25  C   UNL     1     299.247 324.166 646.798  1.00  0.00    -0.000 C 
BRANCH  25  26
ATOM     26  C   UNL     1     300.385 324.360 647.815  1.00  0.00    -0.000 C 
BRANCH  26  27
ATOM     27  C   UNL     1     301.631 323.523 647.478  1.00  0.00    -0.000 C 
BRANCH  27  28
ATOM     28  C   UNL     1     302.906 324.376 647.389  1.00  0.00    -0.000 C 
BRANCH  28  29
ATOM     29  C   UNL     1     302.604 325.859 647.107  1.00  0.00    -0.000 C 
BRANCH  29  30
ATOM     30  C   UNL     1     303.868 326.641 646.686  1.00  0.00    -0.000 C 
BRANCH  30  31
ATOM     31  C   UNL     1     303.799 327.193 645.252  1.00  0.00    -0.003 C 
ATOM     32  C   UNL     1     305.138 327.135 644.522  1.00  0.00     0.004 C 
ENDBRANCH  30  31
ENDBRANCH  29  30
ENDBRANCH  28  29
ENDBRANCH  27  28
ENDBRANCH  26  27
ENDBRANCH  25  26
ENDBRANCH  24  25
ENDBRANCH  23  24
ENDBRANCH  22  23
ENDBRANCH  21  22
ENDBRANCH  20  21
ENDBRANCH  19  20
ENDBRANCH  18  19
ENDBRANCH   1  18
TORSDOF 28
ENDMDL
MODEL 7
REMARK VINA RESULT:    -3.702      5.151      8.346
REMARK INTER + INTRA:         -14.288
REMARK INTER:                  -8.257
REMARK INTRA:                  -6.031
REMARK UNBOUND:                -4.526
REMARK SMILES CCCCCCCCCCCCCCCCCCCCCCCCCCCCCC(=O)[O-]
REMARK SMILES IDX 16 1 17 2 18 3 19 4 20 5 21 6 22 7 23 8 24 9 25 10 26 11
REMARK SMILES IDX 27 12 28 13 29 14 30 15 31 16 32 17 15 18 14 19 13 20 12 21
REMARK SMILES IDX 11 22 10 23 9 24 8 25 7 26 6 27 5 28 4 29 3 30 2 31 1 32
REMARK H PARENT
REMARK Flexibility Score: inf
ROOT
ATOM      1  C   UNL     1     305.141 326.779 645.545  1.00  0.00     0.000 C 
ENDROOT
BRANCH   1   2
ATOM      2  C   UNL     1     304.391 326.279 646.792  1.00  0.00     0.000 C 
BRANCH   2   3
ATOM      3  C   UNL     1     303.278 325.277 646.446  1.00  0.00     0.000 C 
BRANCH   3   4
ATOM      4  C   UNL     1     302.537 324.752 647.689  1.00  0.00     0.000 C 
BRANCH   4   5
ATOM      5  C   UNL     1     301.521 323.640 647.365  1.00  0.00     0.000 C 
BRANCH   5   6
ATOM      6  C   UNL     1     300.049 323.960 647.713  1.00  0.00     0.000 C 
BRANCH   6   7
ATOM      7  C   UNL     1     299.148 324.279 646.500  1.00  0.00     0.000 C 
BRANCH   7   8
ATOM      8  C   UNL     1     299.264 325.727 645.987  1.00  0.00     0.000 C 
BRANCH   8   9
ATOM      9  C   UNL     1     299.340 325.840 644.452  1.00  0.00     0.000 C 
BRANCH   9  10
ATOM     10  C   UNL     1     300.755 325.568 643.921  1.00  0.00     0.000 C 
BRANCH  10  11
ATOM     11  C   UNL     1     300.836 324.185 643.259  1.00  0.00     0.000 C 
BRANCH  11  12
ATOM     12  C   UNL     1     302.189 323.487 643.490  1.00  0.00     0.000 C 
BRANCH  12  13
ATOM     13  C   UNL     1     302.652 322.568 642.340  1.00  0.00     0.006 C 
BRANCH  13  14
ATOM     14  C   UNL     1     301.622 321.514 641.905  1.00  0.00     0.053 C 
BRANCH  14  15
ATOM     15  C   UNL     1     301.049 321.818 640.554  1.00  0.00     0.041 C 
ATOM     16  O   UNL     1     299.803 321.789 640.373  1.00  0.00    -0.550 OA
ATOM     17  O   UNL     1     301.894 322.109 639.490  1.00  0.00    -0.550 OA
ENDBRANCH  14  15
ENDBRANCH  13  14
ENDBRANCH  12  13
ENDBRANCH  11  12
ENDBRANCH  10  11
ENDBRANCH   9  10
ENDBRANCH   8   9
ENDBRANCH   7   8
ENDBRANCH   6   7
ENDBRANCH   5   6
ENDBRANCH   4   5
ENDBRANCH   3   4
ENDBRANCH   2   3
ENDBRANCH   1   2
BRANCH   1  18
ATOM     18  C   UNL     1     304.397 326.470 644.233  1.00  0.00     0.000 C 
BRANCH  18  19
ATOM     19  C   UNL     1     305.199 325.658 643.193  1.00  0.00     0.000 C 
BRANCH  19  20
ATOM     20  C   UNL     1     306.336 324.791 643.763  1.00  0.00     0.000 C 
BRANCH  20  21
ATOM     21  C   UNL     1     305.893 323.351 644.073  1.00  0.00     0.000 C 
BRANCH  21  22
ATOM     22  C   UNL     1     306.106 322.968 645.547  1.00  0.00     0.000 C 
BRANCH  22  23
ATOM     23  C   UNL     1     304.964 322.103 646.108  1.00  0.00     0.000 C 
BRANCH  23  24
ATOM     24  C   UNL     1     305.355 321.367 647.404  1.00  0.00    -0.000 C 
BRANCH  24  25
ATOM     25  C   UNL     1     304.523 321.736 648.650  1.00  0.00    -0.000 C 
BRANCH  25  26
ATOM     26  C   UNL     1     305.229 322.665 649.653  1.00  0.00    -0.000 C 
BRANCH  26  27
ATOM     27  C   UNL     1     306.685 322.249 649.925  1.00  0.00    -0.000 C 
BRANCH  27  28
ATOM     28  C   UNL     1     307.695 323.315 649.472  1.00  0.00    -0.000 C 
BRANCH  28  29
ATOM     29  C   UNL     1     307.028 324.472 648.708  1.00  0.00    -0.000 C 
BRANCH  29  30
ATOM     30  C   UNL     1     308.034 325.588 648.347  1.00  0.00    -0.000 C 
BRANCH  30  31
ATOM     31  C   UNL     1     308.343 325.672 646.843  1.00  0.00    -0.003 C 
ATOM     32  C   UNL     1     309.321 324.598 646.371  1.00  0.00     0.004 C 
ENDBRANCH  30  31
ENDBRANCH  29  30
ENDBRANCH  28  29
ENDBRANCH  27  28
ENDBRANCH  26  27
ENDBRANCH  25  26
ENDBRANCH  24  25
ENDBRANCH  23  24
ENDBRANCH  22  23
ENDBRANCH  21  22
ENDBRANCH  20  21
ENDBRANCH  19  20
ENDBRANCH  18  19
ENDBRANCH   1  18
TORSDOF 28
ENDMDL
MODEL 8
REMARK VINA RESULT:    -3.665      1.683      4.028
REMARK INTER + INTRA:         -14.190
REMARK INTER:                  -8.986
REMARK INTRA:                  -5.204
REMARK UNBOUND:                -4.526
REMARK SMILES CCCCCCCCCCCCCCCCCCCCCCCCCCCCCC(=O)[O-]
REMARK SMILES IDX 16 1 17 2 18 3 19 4 20 5 21 6 22 7 23 8 24 9 25 10 26 11
REMARK SMILES IDX 27 12 28 13 29 14 30 15 31 16 32 17 15 18 14 19 13 20 12 21
REMARK SMILES IDX 11 22 10 23 9 24 8 25 7 26 6 27 5 28 4 29 3 30 2 31 1 32
REMARK H PARENT
REMARK Flexibility Score: inf
ROOT
ATOM      1  C   UNL     1     299.712 330.774 644.498  1.00  0.00     0.000 C 
ENDROOT
BRANCH   1   2
ATOM      2  C   UNL     1     299.193 329.736 643.488  1.00  0.00     0.000 C 
BRANCH   2   3
ATOM      3  C   UNL     1     299.475 328.291 643.932  1.00  0.00     0.000 C 
BRANCH   3   4
ATOM      4  C   UNL     1     300.286 327.494 642.895  1.00  0.00     0.000 C 
BRANCH   4   5
ATOM      5  C   UNL     1     301.696 327.114 643.389  1.00  0.00     0.000 C 
BRANCH   5   6
ATOM      6  C   UNL     1     301.886 325.632 643.784  1.00  0.00     0.000 C 
BRANCH   6   7
ATOM      7  C   UNL     1     300.724 324.697 643.381  1.00  0.00     0.000 C 
BRANCH   7   8
ATOM      8  C   UNL     1     300.011 324.023 644.569  1.00  0.00     0.000 C 
BRANCH   8   9
ATOM      9  C   UNL     1     298.927 324.902 645.224  1.00  0.00     0.000 C 
BRANCH   9  10
ATOM     10  C   UNL     1     299.267 325.249 646.681  1.00  0.00     0.000 C 
BRANCH  10  11
ATOM     11  C   UNL     1     299.713 323.999 647.453  1.00  0.00     0.000 C 
BRANCH  11  12
ATOM     12  C   UNL     1     301.042 324.200 648.204  1.00  0.00     0.000 C 
BRANCH  12  13
ATOM     13  C   UNL     1     302.211 324.711 647.335  1.00  0.00     0.006 C 
BRANCH  13  14
ATOM     14  C   UNL     1     303.095 323.608 646.734  1.00  0.00     0.053 C 
BRANCH  14  15
ATOM     15  C   UNL     1     304.084 323.080 647.728  1.00  0.00     0.041 C 
ATOM     16  O   UNL     1     304.064 321.866 648.060  1.00  0.00    -0.550 OA
ATOM     17  O   UNL     1     305.011 323.938 648.307  1.00  0.00    -0.550 OA
ENDBRANCH  14  15
ENDBRANCH  13  14
ENDBRANCH  12  13
ENDBRANCH  11  12
ENDBRANCH  10  11
ENDBRANCH   9  10
ENDBRANCH   8   9
ENDBRANCH   7   8
ENDBRANCH   6   7
ENDBRANCH   5   6
ENDBRANCH   4   5
ENDBRANCH   3   4
ENDBRANCH   2   3
ENDBRANCH   1   2
BRANCH   1  18
ATOM     18  C   UNL     1     301.133 330.463 645.002  1.00  0.00     0.000 C 
BRANCH  18  19
ATOM     19  C   UNL     1     301.893 331.658 645.618  1.00  0.00     0.000 C 
BRANCH  19  20
ATOM     20  C   UNL     1     303.391 331.740 645.271  1.00  0.00     0.000 C 
BRANCH  20  21
ATOM     21  C   UNL     1     303.932 333.180 645.293  1.00  0.00     0.000 C 
BRANCH  21  22
ATOM     22  C   UNL     1     303.151 334.094 646.250  1.00  0.00     0.000 C 
BRANCH  22  23
ATOM     23  C   UNL     1     303.178 335.570 645.819  1.00  0.00     0.000 C 
BRANCH  23  24
ATOM     24  C   UNL     1     301.899 335.997 645.074  1.00  0.00    -0.000 C 
BRANCH  24  25
ATOM     25  C   UNL     1     300.644 335.150 645.376  1.00  0.00    -0.000 C 
BRANCH  25  26
ATOM     26  C   UNL     1     300.074 334.379 644.172  1.00  0.00    -0.000 C 
BRANCH  26  27
ATOM     27  C   UNL     1     301.109 334.179 643.052  1.00  0.00    -0.000 C 
BRANCH  27  28
ATOM     28  C   UNL     1     300.695 333.081 642.059  1.00  0.00    -0.000 C 
BRANCH  28  29
ATOM     29  C   UNL     1     301.808 332.750 641.049  1.00  0.00    -0.000 C 
BRANCH  29  30
ATOM     30  C   UNL     1     302.879 331.813 641.649  1.00  0.00    -0.000 C 
BRANCH  30  31
ATOM     31  C   UNL     1     302.460 330.333 641.666  1.00  0.00    -0.003 C 
ATOM     32  C   UNL     1     301.675 329.919 640.424  1.00  0.00     0.004 C 
ENDBRANCH  30  31
ENDBRANCH  29  30
ENDBRANCH  28  29
ENDBRANCH  27  28
ENDBRANCH  26  27
ENDBRANCH  25  26
ENDBRANCH  24  25
ENDBRANCH  23  24
ENDBRANCH  22  23
ENDBRANCH  21  22
ENDBRANCH  20  21
ENDBRANCH  19  20
ENDBRANCH  18  19
ENDBRANCH   1  18
TORSDOF 28
ENDMDL
