MODEL 1
REMARK VINA RESULT:    -4.845      0.000      0.000
REMARK INTER + INTRA:          -6.700
REMARK INTER:                  -6.261
REMARK INTRA:                  -0.439
REMARK UNBOUND:                -0.439
REMARK SMILES CCO[C@@H]1O[C@H](CO)[C@@H](O)[C@@H](O)[C@@H]1O
REMARK SMILES IDX 4 1 13 2 11 3 9 4 6 5 5 6 3 7 2 8 1 9 14 10 12 12 7 14 8 15
REMARK SMILES IDX 10 17
REMARK H PARENT 14 11 12 13 8 16 10 18
REMARK Flexibility Score: inf
ROOT
ATOM      1  C   UNL     1      53.263  -3.051   9.776  1.00  0.00     0.281 C 
ATOM      2  C   UNL     1      51.801  -2.871  10.243  1.00  0.00     0.202 C 
ATOM      3  C   UNL     1      51.480  -3.779  11.454  1.00  0.00     0.179 C 
ATOM      4  C   UNL     1      52.759  -4.069  12.280  1.00  0.00     0.177 C 
ATOM      5  C   UNL     1      53.802  -2.923  12.124  1.00  0.00     0.178 C 
ATOM      6  O   UNL     1      54.213  -2.688  10.778  1.00  0.00    -0.341 OA
ENDROOT
BRANCH   1   7
ATOM      7  O   UNL     1      53.476  -4.391   9.368  1.00  0.00    -0.350 OA
BRANCH   7   8
ATOM      8  C   UNL     1      54.477  -4.449   8.372  1.00  0.00     0.160 C 
ATOM      9  C   UNL     1      53.844  -4.172   7.017  1.00  0.00     0.035 C 
ENDBRANCH   7   8
ENDBRANCH   1   7
BRANCH   2  10
ATOM     10  O   UNL     1      50.896  -3.088   9.189  1.00  0.00    -0.385 OA
ATOM     11  H   UNL     1      50.764  -2.224   8.717  1.00  0.00     0.211 HD
ENDBRANCH   2  10
BRANCH   3  12
ATOM     12  O   UNL     1      50.504  -3.162  12.254  1.00  0.00    -0.387 OA
ATOM     13  H   UNL     1      50.779  -3.298  13.199  1.00  0.00     0.211 HD
ENDBRANCH   3  12
BRANCH   5  14
ATOM     14  C   UNL     1      55.058  -3.188  12.971  1.00  0.00     0.191 C 
BRANCH  14  15
ATOM     15  O   UNL     1      54.846  -2.835  14.312  1.00  0.00    -0.394 OA
ATOM     16  H   UNL     1      55.385  -2.019  14.482  1.00  0.00     0.210 HD
ENDBRANCH  14  15
ENDBRANCH   5  14
BRANCH   4  17
ATOM     17  O   UNL     1      52.445  -4.320  13.631  1.00  0.00    -0.387 OA
ATOM     18  H   UNL     1      52.615  -5.283  13.808  1.00  0.00     0.211 HD
ENDBRANCH   4  17
TORSDOF 7
ENDMDL
MODEL 2
REMARK VINA RESULT:    -4.683     12.214     14.461
REMARK INTER + INTRA:          -6.491
REMARK INTER:                  -6.082
REMARK INTRA:                  -0.409
REMARK UNBOUND:                -0.439
REMARK SMILES CCO[C@@H]1O[C@H](CO)[C@@H](O)[C@@H](O)[C@@H]1O
REMARK SMILES IDX 4 1 13 2 11 3 9 4 6 5 5 6 3 7 2 8 1 9 14 10 12 12 7 14 8 15
REMARK SMILES IDX 10 17
REMARK H PARENT 14 11 12 13 8 16 10 18
REMARK Flexibility Score: inf
ROOT
ATOM      1  C   UNL     1      60.575  -3.494  23.045  1.00  0.00     0.281 C 
ATOM      2  C   UNL     1      59.901  -4.035  21.765  1.00  0.00     0.202 C 
ATOM      3  C   UNL     1      60.784  -3.797  20.518  1.00  0.00     0.179 C 
ATOM      4  C   UNL     1      62.284  -3.746  20.906  1.00  0.00     0.177 C 
ATOM      5  C   UNL     1      62.559  -4.572  22.197  1.00  0.00     0.178 C 
ATOM      6  O   UNL     1      61.813  -4.141  23.335  1.00  0.00    -0.341 OA
ENDROOT
BRANCH   1   7
ATOM      7  O   UNL     1      60.774  -2.096  22.930  1.00  0.00    -0.350 OA
BRANCH   7   8
ATOM      8  C   UNL     1      61.421  -1.594  24.081  1.00  0.00     0.160 C 
ATOM      9  C   UNL     1      61.112  -0.111  24.217  1.00  0.00     0.035 C 
ENDBRANCH   7   8
ENDBRANCH   1   7
BRANCH   2  10
ATOM     10  O   UNL     1      58.616  -3.489  21.592  1.00  0.00    -0.385 OA
ATOM     11  H   UNL     1      58.556  -2.669  22.149  1.00  0.00     0.211 HD
ENDBRANCH   2  10
BRANCH   3  12
ATOM     12  O   UNL     1      60.551  -4.815  19.578  1.00  0.00    -0.387 OA
ATOM     13  H   UNL     1      59.988  -5.498  20.029  1.00  0.00     0.211 HD
ENDBRANCH   3  12
BRANCH   5  14
ATOM     14  C   UNL     1      64.051  -4.556  22.566  1.00  0.00     0.191 C 
BRANCH  14  15
ATOM     15  O   UNL     1      64.685  -3.411  22.059  1.00  0.00    -0.394 OA
ATOM     16  H   UNL     1      64.866  -2.818  22.834  1.00  0.00     0.210 HD
ENDBRANCH  14  15
ENDBRANCH   5  14
BRANCH   4  17
ATOM     17  O   UNL     1      63.101  -4.152  19.832  1.00  0.00    -0.387 OA
ATOM     18  H   UNL     1      64.038  -4.186  20.160  1.00  0.00     0.211 HD
ENDBRANCH   4  17
TORSDOF 7
ENDMDL
MODEL 3
REMARK VINA RESULT:    -4.643     12.589     15.045
REMARK INTER + INTRA:          -6.439
REMARK INTER:                  -6.040
REMARK INTRA:                  -0.399
REMARK UNBOUND:                -0.439
REMARK SMILES CCO[C@@H]1O[C@H](CO)[C@@H](O)[C@@H](O)[C@@H]1O
REMARK SMILES IDX 4 1 13 2 11 3 9 4 6 5 5 6 3 7 2 8 1 9 14 10 12 12 7 14 8 15
REMARK SMILES IDX 10 17
REMARK H PARENT 14 11 12 13 8 16 10 18
REMARK Flexibility Score: inf
ROOT
ATOM      1  C   UNL     1      60.966  -3.776  22.449  1.00  0.00     0.281 C 
ATOM      2  C   UNL     1      61.082  -4.199  20.967  1.00  0.00     0.202 C 
ATOM      3  C   UNL     1      62.540  -4.093  20.462  1.00  0.00     0.179 C 
ATOM      4  C   UNL     1      63.543  -4.277  21.629  1.00  0.00     0.177 C 
ATOM      5  C   UNL     1      62.928  -5.144  22.768  1.00  0.00     0.178 C 
ATOM      6  O   UNL     1      61.727  -4.609  23.323  1.00  0.00    -0.341 OA
ENDROOT
BRANCH   1   7
ATOM      7  O   UNL     1      61.367  -2.425  22.596  1.00  0.00    -0.350 OA
BRANCH   7   8
ATOM      8  C   UNL     1      61.317  -2.042  23.955  1.00  0.00     0.160 C 
ATOM      9  C   UNL     1      61.320  -0.523  24.042  1.00  0.00     0.035 C 
ENDBRANCH   7   8
ENDBRANCH   1   7
BRANCH   2  10
ATOM     10  O   UNL     1      60.205  -3.460  20.153  1.00  0.00    -0.385 OA
ATOM     11  H   UNL     1      60.642  -2.593  19.942  1.00  0.00     0.211 HD
ENDBRANCH   2  10
BRANCH   3  12
ATOM     12  O   UNL     1      62.760  -5.058  19.464  1.00  0.00    -0.387 OA
ATOM     13  H   UNL     1      63.455  -5.676  19.811  1.00  0.00     0.211 HD
ENDBRANCH   3  12
BRANCH   5  14
ATOM     14  C   UNL     1      63.932  -5.361  23.912  1.00  0.00     0.191 C 
BRANCH  14  15
ATOM     15  O   UNL     1      64.768  -6.456  23.649  1.00  0.00    -0.394 OA
ATOM     16  H   UNL     1      64.562  -6.759  22.727  1.00  0.00     0.210 HD
ENDBRANCH  14  15
ENDBRANCH   5  14
BRANCH   4  17
ATOM     17  O   UNL     1      64.768  -4.799  21.168  1.00  0.00    -0.387 OA
ATOM     18  H   UNL     1      65.361  -4.033  20.948  1.00  0.00     0.211 HD
ENDBRANCH   4  17
TORSDOF 7
ENDMDL
MODEL 4
REMARK VINA RESULT:    -4.614     12.348     14.918
REMARK INTER + INTRA:          -6.402
REMARK INTER:                  -6.005
REMARK INTRA:                  -0.396
REMARK UNBOUND:                -0.439
REMARK SMILES CCO[C@@H]1O[C@H](CO)[C@@H](O)[C@@H](O)[C@@H]1O
REMARK SMILES IDX 4 1 13 2 11 3 9 4 6 5 5 6 3 7 2 8 1 9 14 10 12 12 7 14 8 15
REMARK SMILES IDX 10 17
REMARK H PARENT 14 11 12 13 8 16 10 18
REMARK Flexibility Score: inf
ROOT
ATOM      1  C   UNL     1      62.184  -3.789  23.526  1.00  0.00     0.281 C 
ATOM      2  C   UNL     1      63.191  -3.730  22.355  1.00  0.00     0.202 C 
ATOM      3  C   UNL     1      62.608  -4.376  21.076  1.00  0.00     0.179 C 
ATOM      4  C   UNL     1      61.061  -4.275  21.062  1.00  0.00     0.177 C 
ATOM      5  C   UNL     1      60.571  -3.050  21.892  1.00  0.00     0.178 C 
ATOM      6  O   UNL     1      60.981  -3.070  23.258  1.00  0.00    -0.341 OA
ENDROOT
BRANCH   1   7
ATOM      7  O   UNL     1      61.882  -5.140  23.833  1.00  0.00    -0.350 OA
BRANCH   7   8
ATOM      8  C   UNL     1      61.002  -5.209  24.936  1.00  0.00     0.160 C 
ATOM      9  C   UNL     1      61.366  -6.415  25.787  1.00  0.00     0.035 C 
ENDBRANCH   7   8
ENDBRANCH   1   7
BRANCH   2  10
ATOM     10  O   UNL     1      64.421  -4.316  22.707  1.00  0.00    -0.385 OA
ATOM     11  H   UNL     1      64.483  -4.321  23.699  1.00  0.00     0.211 HD
ENDBRANCH   2  10
BRANCH   3  12
ATOM     12  O   UNL     1      63.155  -3.747  19.944  1.00  0.00    -0.387 OA
ATOM     13  H   UNL     1      62.856  -4.269  19.154  1.00  0.00     0.211 HD
ENDBRANCH   3  12
BRANCH   5  14
ATOM     14  C   UNL     1      59.039  -2.923  21.851  1.00  0.00     0.191 C 
BRANCH  14  15
ATOM     15  O   UNL     1      58.438  -4.151  21.536  1.00  0.00    -0.394 OA
ATOM     16  H   UNL     1      57.766  -4.330  22.244  1.00  0.00     0.210 HD
ENDBRANCH  14  15
ENDBRANCH   5  14
BRANCH   4  17
ATOM     17  O   UNL     1      60.565  -4.255  19.744  1.00  0.00    -0.387 OA
ATOM     18  H   UNL     1      60.583  -5.187  19.399  1.00  0.00     0.211 HD
ENDBRANCH   4  17
TORSDOF 7
ENDMDL
MODEL 5
REMARK VINA RESULT:    -4.572      1.979      2.790
REMARK INTER + INTRA:          -6.348
REMARK INTER:                  -5.978
REMARK INTRA:                  -0.369
REMARK UNBOUND:                -0.439
REMARK SMILES CCO[C@@H]1O[C@H](CO)[C@@H](O)[C@@H](O)[C@@H]1O
REMARK SMILES IDX 4 1 13 2 11 3 9 4 6 5 5 6 3 7 2 8 1 9 14 10 12 12 7 14 8 15
REMARK SMILES IDX 10 17
REMARK H PARENT 14 11 12 13 8 16 10 18
REMARK Flexibility Score: inf
ROOT
ATOM      1  C   UNL     1      52.073  -3.132  10.180  1.00  0.00     0.281 C 
ATOM      2  C   UNL     1      52.157  -4.026  11.437  1.00  0.00     0.202 C 
ATOM      3  C   UNL     1      53.196  -3.484  12.447  1.00  0.00     0.179 C 
ATOM      4  C   UNL     1      53.352  -1.948  12.308  1.00  0.00     0.177 C 
ATOM      5  C   UNL     1      52.050  -1.299  11.749  1.00  0.00     0.178 C 
ATOM      6  O   UNL     1      51.650  -1.801  10.474  1.00  0.00    -0.341 OA
ENDROOT
BRANCH   1   7
ATOM      7  O   UNL     1      53.328  -3.107   9.523  1.00  0.00    -0.350 OA
BRANCH   7   8
ATOM      8  C   UNL     1      53.158  -3.281   8.131  1.00  0.00     0.160 C 
ATOM      9  C   UNL     1      54.200  -4.266   7.623  1.00  0.00     0.035 C 
ENDBRANCH   7   8
ENDBRANCH   1   7
BRANCH   2  10
ATOM     10  O   UNL     1      52.425  -5.364  11.098  1.00  0.00    -0.385 OA
ATOM     11  H   UNL     1      53.218  -5.658  11.620  1.00  0.00     0.211 HD
ENDBRANCH   2  10
BRANCH   3  12
ATOM     12  O   UNL     1      52.801  -3.824  13.752  1.00  0.00    -0.387 OA
ATOM     13  H   UNL     1      51.808  -3.805  13.765  1.00  0.00     0.211 HD
ENDBRANCH   3  12
BRANCH   5  14
ATOM     14  C   UNL     1      52.186   0.229  11.643  1.00  0.00     0.191 C 
BRANCH  14  15
ATOM     15  O   UNL     1      51.712   0.859  12.803  1.00  0.00    -0.394 OA
ATOM     16  H   UNL     1      51.748   1.836  12.633  1.00  0.00     0.210 HD
ENDBRANCH  14  15
ENDBRANCH   5  14
BRANCH   4  17
ATOM     17  O   UNL     1      53.754  -1.365  13.525  1.00  0.00    -0.387 OA
ATOM     18  H   UNL     1      52.954  -1.301  14.110  1.00  0.00     0.211 HD
ENDBRANCH   4  17
TORSDOF 7
ENDMDL
MODEL 6
REMARK VINA RESULT:    -4.564     12.592     14.813
REMARK INTER + INTRA:          -6.337
REMARK INTER:                  -6.135
REMARK INTRA:                  -0.202
REMARK UNBOUND:                -0.439
REMARK SMILES CCO[C@@H]1O[C@H](CO)[C@@H](O)[C@@H](O)[C@@H]1O
REMARK SMILES IDX 4 1 13 2 11 3 9 4 6 5 5 6 3 7 2 8 1 9 14 10 12 12 7 14 8 15
REMARK SMILES IDX 10 17
REMARK H PARENT 14 11 12 13 8 16 10 18
REMARK Flexibility Score: inf
ROOT
ATOM      1  C   UNL     1      63.353  -4.061  22.081  1.00  0.00     0.281 C 
ATOM      2  C   UNL     1      62.533  -4.185  20.777  1.00  0.00     0.202 C 
ATOM      3  C   UNL     1      61.013  -4.182  21.064  1.00  0.00     0.179 C 
ATOM      4  C   UNL     1      60.698  -3.401  22.364  1.00  0.00     0.177 C 
ATOM      5  C   UNL     1      61.783  -2.319  22.647  1.00  0.00     0.178 C 
ATOM      6  O   UNL     1      63.105  -2.839  22.776  1.00  0.00    -0.341 OA
ENDROOT
BRANCH   1   7
ATOM      7  O   UNL     1      63.080  -5.164  22.928  1.00  0.00    -0.350 OA
BRANCH   7   8
ATOM      8  C   UNL     1      64.265  -5.604  23.560  1.00  0.00     0.160 C 
ATOM      9  C   UNL     1      64.470  -7.080  23.257  1.00  0.00     0.035 C 
ENDBRANCH   7   8
ENDBRANCH   1   7
BRANCH   2  10
ATOM     10  O   UNL     1      62.912  -5.322  20.041  1.00  0.00    -0.385 OA
ATOM     11  H   UNL     1      62.133  -5.938  20.009  1.00  0.00     0.211 HD
ENDBRANCH   2  10
BRANCH   3  12
ATOM     12  O   UNL     1      60.333  -3.619  19.971  1.00  0.00    -0.387 OA
ATOM     13  H   UNL     1      59.376  -3.559  20.229  1.00  0.00     0.211 HD
ENDBRANCH   3  12
BRANCH   5  14
ATOM     14  C   UNL     1      61.456  -1.515  23.916  1.00  0.00     0.191 C 
BRANCH  14  15
ATOM     15  O   UNL     1      61.577  -0.137  23.686  1.00  0.00    -0.394 OA
ATOM     16  H   UNL     1      61.900   0.268  24.533  1.00  0.00     0.210 HD
ENDBRANCH  14  15
ENDBRANCH   5  14
BRANCH   4  17
ATOM     17  O   UNL     1      59.400  -2.854  22.327  1.00  0.00    -0.387 OA
ATOM     18  H   UNL     1      59.473  -1.886  22.539  1.00  0.00     0.211 HD
ENDBRANCH   4  17
TORSDOF 7
ENDMDL
MODEL 7
REMARK VINA RESULT:    -4.539      2.623      4.532
REMARK INTER + INTRA:          -6.305
REMARK INTER:                  -6.053
REMARK INTRA:                  -0.252
REMARK UNBOUND:                -0.439
REMARK SMILES CCO[C@@H]1O[C@H](CO)[C@@H](O)[C@@H](O)[C@@H]1O
REMARK SMILES IDX 4 1 13 2 11 3 9 4 6 5 5 6 3 7 2 8 1 9 14 10 12 12 7 14 8 15
REMARK SMILES IDX 10 17
REMARK H PARENT 14 11 12 13 8 16 10 18
REMARK Flexibility Score: inf
ROOT
ATOM      1  C   UNL     1      51.998  -0.382  11.522  1.00  0.00     0.281 C 
ATOM      2  C   UNL     1      52.071  -0.474   9.981  1.00  0.00     0.202 C 
ATOM      3  C   UNL     1      53.030  -1.600   9.527  1.00  0.00     0.179 C 
ATOM      4  C   UNL     1      53.108  -2.721  10.594  1.00  0.00     0.177 C 
ATOM      5  C   UNL     1      51.802  -2.785  11.440  1.00  0.00     0.178 C 
ATOM      6  O   UNL     1      51.490  -1.573  12.124  1.00  0.00    -0.341 OA
ENDROOT
BRANCH   1   7
ATOM      7  O   UNL     1      53.280  -0.083  12.047  1.00  0.00    -0.350 OA
BRANCH   7   8
ATOM      8  C   UNL     1      53.162   0.696  13.219  1.00  0.00     0.160 C 
ATOM      9  C   UNL     1      52.084   1.748  13.009  1.00  0.00     0.035 C 
ENDBRANCH   7   8
ENDBRANCH   1   7
BRANCH   2  10
ATOM     10  O   UNL     1      52.428   0.761   9.410  1.00  0.00    -0.385 OA
ATOM     11  H   UNL     1      51.591   1.234   9.159  1.00  0.00     0.211 HD
ENDBRANCH   2  10
BRANCH   3  12
ATOM     12  O   UNL     1      52.592  -2.118   8.296  1.00  0.00    -0.387 OA
ATOM     13  H   UNL     1      53.131  -1.673   7.591  1.00  0.00     0.211 HD
ENDBRANCH   3  12
BRANCH   5  14
ATOM     14  C   UNL     1      51.859  -3.920  12.476  1.00  0.00     0.191 C 
BRANCH  14  15
ATOM     15  O   UNL     1      50.674  -4.671  12.468  1.00  0.00    -0.394 OA
ATOM     16  H   UNL     1      50.172  -4.422  13.287  1.00  0.00     0.210 HD
ENDBRANCH  14  15
ENDBRANCH   5  14
BRANCH   4  17
ATOM     17  O   UNL     1      53.420  -3.963  10.005  1.00  0.00    -0.387 OA
ATOM     18  H   UNL     1      53.634  -4.601  10.736  1.00  0.00     0.211 HD
ENDBRANCH   4  17
TORSDOF 7
ENDMDL
MODEL 8
REMARK VINA RESULT:    -4.536     12.640     15.326
REMARK INTER + INTRA:          -6.301
REMARK INTER:                  -5.900
REMARK INTRA:                  -0.401
REMARK UNBOUND:                -0.439
REMARK SMILES CCO[C@@H]1O[C@H](CO)[C@@H](O)[C@@H](O)[C@@H]1O
REMARK SMILES IDX 4 1 13 2 11 3 9 4 6 5 5 6 3 7 2 8 1 9 14 10 12 12 7 14 8 15
REMARK SMILES IDX 10 17
REMARK H PARENT 14 11 12 13 8 16 10 18
REMARK Flexibility Score: inf
ROOT
ATOM      1  C   UNL     1      61.015  -3.463  23.193  1.00  0.00     0.281 C 
ATOM      2  C   UNL     1      61.693  -3.958  24.491  1.00  0.00     0.202 C 
ATOM      3  C   UNL     1      62.563  -5.210  24.231  1.00  0.00     0.179 C 
ATOM      4  C   UNL     1      63.081  -5.229  22.770  1.00  0.00     0.177 C 
ATOM      5  C   UNL     1      63.187  -3.786  22.193  1.00  0.00     0.178 C 
ATOM      6  O   UNL     1      61.956  -3.065  22.196  1.00  0.00    -0.341 OA
ENDROOT
BRANCH   1   7
ATOM      7  O   UNL     1      60.162  -4.472  22.680  1.00  0.00    -0.350 OA
BRANCH   7   8
ATOM      8  C   UNL     1      59.009  -3.894  22.103  1.00  0.00     0.160 C 
ATOM      9  C   UNL     1      58.987  -4.212  20.616  1.00  0.00     0.035 C 
ENDBRANCH   7   8
ENDBRANCH   1   7
BRANCH   2  10
ATOM     10  O   UNL     1      60.746  -4.196  25.504  1.00  0.00    -0.385 OA
ATOM     11  H   UNL     1      60.320  -3.328  25.733  1.00  0.00     0.211 HD
ENDBRANCH   2  10
BRANCH   3  12
ATOM     12  O   UNL     1      63.637  -5.229  25.137  1.00  0.00    -0.387 OA
ATOM     13  H   UNL     1      63.260  -5.022  26.032  1.00  0.00     0.211 HD
ENDBRANCH   3  12
BRANCH   5  14
ATOM     14  C   UNL     1      63.736  -3.795  20.757  1.00  0.00     0.191 C 
BRANCH  14  15
ATOM     15  O   UNL     1      65.139  -3.802  20.752  1.00  0.00    -0.394 OA
ATOM     16  H   UNL     1      65.425  -3.390  19.896  1.00  0.00     0.210 HD
ENDBRANCH  14  15
ENDBRANCH   5  14
BRANCH   4  17
ATOM     17  O   UNL     1      64.299  -5.930  22.672  1.00  0.00    -0.387 OA
ATOM     18  H   UNL     1      64.456  -6.133  21.712  1.00  0.00     0.211 HD
ENDBRANCH   4  17
TORSDOF 7
ENDMDL
MODEL 9
REMARK VINA RESULT:    -4.531      1.492      2.028
REMARK INTER + INTRA:          -6.295
REMARK INTER:                  -5.978
REMARK INTRA:                  -0.317
REMARK UNBOUND:                -0.439
REMARK SMILES CCO[C@@H]1O[C@H](CO)[C@@H](O)[C@@H](O)[C@@H]1O
REMARK SMILES IDX 4 1 13 2 11 3 9 4 6 5 5 6 3 7 2 8 1 9 14 10 12 12 7 14 8 15
REMARK SMILES IDX 10 17
REMARK H PARENT 14 11 12 13 8 16 10 18
REMARK Flexibility Score: inf
ROOT
ATOM      1  C   UNL     1      54.407  -3.229   9.161  1.00  0.00     0.281 C 
ATOM      2  C   UNL     1      52.982  -2.850   8.698  1.00  0.00     0.202 C 
ATOM      3  C   UNL     1      51.918  -3.785   9.322  1.00  0.00     0.179 C 
ATOM      4  C   UNL     1      52.405  -4.343  10.683  1.00  0.00     0.177 C 
ATOM      5  C   UNL     1      53.421  -3.373  11.358  1.00  0.00     0.178 C 
ATOM      6  O   UNL     1      54.581  -3.105  10.572  1.00  0.00    -0.341 OA
ENDROOT
BRANCH   1   7
ATOM      7  O   UNL     1      54.711  -4.550   8.749  1.00  0.00    -0.350 OA
BRANCH   7   8
ATOM      8  C   UNL     1      55.678  -4.534   7.719  1.00  0.00     0.160 C 
ATOM      9  C   UNL     1      57.064  -4.476   8.342  1.00  0.00     0.035 C 
ENDBRANCH   7   8
ENDBRANCH   1   7
BRANCH   2  10
ATOM     10  O   UNL     1      52.887  -2.834   7.295  1.00  0.00    -0.385 OA
ATOM     11  H   UNL     1      51.947  -2.618   7.055  1.00  0.00     0.211 HD
ENDBRANCH   2  10
BRANCH   3  12
ATOM     12  O   UNL     1      50.712  -3.081   9.479  1.00  0.00    -0.387 OA
ATOM     13  H   UNL     1      50.111  -3.660  10.017  1.00  0.00     0.211 HD
ENDBRANCH   3  12
BRANCH   5  14
ATOM     14  C   UNL     1      53.879  -3.904  12.726  1.00  0.00     0.191 C 
BRANCH  14  15
ATOM     15  O   UNL     1      53.000  -3.503  13.744  1.00  0.00    -0.394 OA
ATOM     16  H   UNL     1      52.490  -2.727  13.392  1.00  0.00     0.210 HD
ENDBRANCH  14  15
ENDBRANCH   5  14
BRANCH   4  17
ATOM     17  O   UNL     1      51.318  -4.643  11.527  1.00  0.00    -0.387 OA
ATOM     18  H   UNL     1      51.685  -4.931  12.405  1.00  0.00     0.211 HD
ENDBRANCH   4  17
TORSDOF 7
ENDMDL
