MODEL 1
REMARK VINA RESULT:    -3.768      0.000      0.000
REMARK INTER + INTRA:          -4.271
REMARK INTER:                  -4.208
REMARK INTRA:                  -0.063
REMARK UNBOUND:                -0.063
REMARK SMILES COc1ccc(C(=O)[O-])cc1
REMARK SMILES IDX 6 1 5 2 10 3 4 4 11 5 3 6 7 7 8 8 9 9 2 10 1 11
REMARK H PARENT
REMARK Flexibility Score: inf
ROOT
ATOM      1  C   UNL     1      42.365 183.699 172.673  1.00  0.00    -0.003 A 
ATOM      2  C   UNL     1      41.275 183.275 171.893  1.00  0.00     0.014 A 
ATOM      3  C   UNL     1      42.324 184.973 173.264  1.00  0.00     0.014 A 
ATOM      4  C   UNL     1      40.168 184.108 171.710  1.00  0.00     0.047 A 
ATOM      5  C   UNL     1      41.215 185.805 173.080  1.00  0.00     0.047 A 
ATOM      6  C   UNL     1      40.127 185.377 172.298  1.00  0.00     0.118 A 
ENDROOT
BRANCH   1   7
ATOM      7  C   UNL     1      43.536 182.814 172.865  1.00  0.00     0.071 C 
ATOM      8  O   UNL     1      44.274 182.507 171.891  1.00  0.00    -0.545 OA
ATOM      9  O   UNL     1      43.837 182.308 174.125  1.00  0.00    -0.545 OA
ENDBRANCH   1   7
BRANCH   6  10
ATOM     10  O   UNL     1      38.993 186.174 172.084  1.00  0.00    -0.497 OA
ATOM     11  C   UNL     1      37.871 185.782 171.299  1.00  0.00     0.278 C 
ENDBRANCH   6  10
TORSDOF 2
ENDMDL
MODEL 2
REMARK VINA RESULT:    -3.616      1.852      5.020
REMARK INTER + INTRA:          -4.102
REMARK INTER:                  -4.048
REMARK INTRA:                  -0.054
REMARK UNBOUND:                -0.063
REMARK SMILES COc1ccc(C(=O)[O-])cc1
REMARK SMILES IDX 6 1 5 2 10 3 4 4 11 5 3 6 7 7 8 8 9 9 2 10 1 11
REMARK H PARENT
REMARK Flexibility Score: inf
ROOT
ATOM      1  C   UNL     1      39.121 184.772 171.248  1.00  0.00    -0.003 A 
ATOM      2  C   UNL     1      39.203 185.500 172.448  1.00  0.00     0.014 A 
ATOM      3  C   UNL     1      40.231 184.017 170.833  1.00  0.00     0.014 A 
ATOM      4  C   UNL     1      40.370 185.471 173.215  1.00  0.00     0.047 A 
ATOM      5  C   UNL     1      41.399 183.990 171.603  1.00  0.00     0.047 A 
ATOM      6  C   UNL     1      41.476 184.720 172.803  1.00  0.00     0.118 A 
ENDROOT
BRANCH   1   7
ATOM      7  C   UNL     1      37.883 184.803 170.438  1.00  0.00     0.071 C 
ATOM      8  O   UNL     1      36.811 184.315 170.886  1.00  0.00    -0.545 OA
ATOM      9  O   UNL     1      37.886 185.371 169.168  1.00  0.00    -0.545 OA
ENDBRANCH   1   7
BRANCH   6  10
ATOM     10  O   UNL     1      42.624 184.725 173.608  1.00  0.00    -0.497 OA
ATOM     11  C   UNL     1      43.248 183.554 174.125  1.00  0.00     0.278 C 
ENDBRANCH   6  10
TORSDOF 2
ENDMDL
MODEL 3
REMARK VINA RESULT:    -3.612      1.752      4.770
REMARK INTER + INTRA:          -4.097
REMARK INTER:                  -4.040
REMARK INTRA:                  -0.057
REMARK UNBOUND:                -0.063
REMARK SMILES COc1ccc(C(=O)[O-])cc1
REMARK SMILES IDX 6 1 5 2 10 3 4 4 11 5 3 6 7 7 8 8 9 9 2 10 1 11
REMARK H PARENT
REMARK Flexibility Score: inf
ROOT
ATOM      1  C   UNL     1      39.199 184.812 171.464  1.00  0.00    -0.003 A 
ATOM      2  C   UNL     1      40.312 184.055 171.058  1.00  0.00     0.014 A 
ATOM      3  C   UNL     1      39.263 185.520 172.677  1.00  0.00     0.014 A 
ATOM      4  C   UNL     1      41.464 184.009 171.848  1.00  0.00     0.047 A 
ATOM      5  C   UNL     1      40.417 185.473 173.466  1.00  0.00     0.047 A 
ATOM      6  C   UNL     1      41.528 184.714 173.055  1.00  0.00     0.118 A 
ENDROOT
BRANCH   1   7
ATOM      7  C   UNL     1      37.981 184.859 170.625  1.00  0.00     0.071 C 
ATOM      8  O   UNL     1      37.962 185.533 169.561  1.00  0.00    -0.545 OA
ATOM      9  O   UNL     1      36.839 184.161 171.002  1.00  0.00    -0.545 OA
ENDBRANCH   1   7
BRANCH   6  10
ATOM     10  O   UNL     1      42.707 184.635 173.811  1.00  0.00    -0.497 OA
ATOM     11  C   UNL     1      43.380 183.420 174.125  1.00  0.00     0.278 C 
ENDBRANCH   6  10
TORSDOF 2
ENDMDL
MODEL 4
REMARK VINA RESULT:    -3.590      2.514      5.446
REMARK INTER + INTRA:          -4.073
REMARK INTER:                  -4.011
REMARK INTRA:                  -0.062
REMARK UNBOUND:                -0.063
REMARK SMILES COc1ccc(C(=O)[O-])cc1
REMARK SMILES IDX 6 1 5 2 10 3 4 4 11 5 3 6 7 7 8 8 9 9 2 10 1 11
REMARK H PARENT
REMARK Flexibility Score: inf
ROOT
ATOM      1  C   UNL     1      38.336 184.794 170.048  1.00  0.00    -0.003 A 
ATOM      2  C   UNL     1      39.702 184.468 170.052  1.00  0.00     0.014 A 
ATOM      3  C   UNL     1      37.598 184.654 171.236  1.00  0.00     0.014 A 
ATOM      4  C   UNL     1      40.318 184.012 171.221  1.00  0.00     0.047 A 
ATOM      5  C   UNL     1      38.217 184.198 172.405  1.00  0.00     0.047 A 
ATOM      6  C   UNL     1      39.585 183.872 172.404  1.00  0.00     0.118 A 
ENDROOT
BRANCH   1   7
ATOM      7  C   UNL     1      37.686 185.277 168.808  1.00  0.00     0.071 C 
ATOM      8  O   UNL     1      37.051 184.482 168.066  1.00  0.00    -0.545 OA
ATOM      9  O   UNL     1      37.770 186.617 168.445  1.00  0.00    -0.545 OA
ENDBRANCH   1   7
BRANCH   6  10
ATOM     10  O   UNL     1      40.250 183.410 173.550  1.00  0.00    -0.497 OA
ATOM     11  C   UNL     1      41.636 183.089 173.599  1.00  0.00     0.278 C 
ENDBRANCH   6  10
TORSDOF 2
ENDMDL
MODEL 5
REMARK VINA RESULT:    -3.543      1.242      4.896
REMARK INTER + INTRA:          -4.021
REMARK INTER:                  -3.961
REMARK INTRA:                  -0.060
REMARK UNBOUND:                -0.063
REMARK SMILES COc1ccc(C(=O)[O-])cc1
REMARK SMILES IDX 6 1 5 2 10 3 4 4 11 5 3 6 7 7 8 8 9 9 2 10 1 11
REMARK H PARENT
REMARK Flexibility Score: inf
ROOT
ATOM      1  C   UNL     1      41.063 184.980 172.765  1.00  0.00    -0.003 A 
ATOM      2  C   UNL     1      42.177 185.070 173.618  1.00  0.00     0.014 A 
ATOM      3  C   UNL     1      40.851 183.791 172.047  1.00  0.00     0.014 A 
ATOM      4  C   UNL     1      43.057 183.993 173.750  1.00  0.00     0.047 A 
ATOM      5  C   UNL     1      41.733 182.714 172.180  1.00  0.00     0.047 A 
ATOM      6  C   UNL     1      42.847 182.809 173.035  1.00  0.00     0.118 A 
ENDROOT
BRANCH   1   7
ATOM      7  C   UNL     1      40.132 186.122 172.628  1.00  0.00     0.071 C 
ATOM      8  O   UNL     1      39.001 185.966 172.095  1.00  0.00    -0.545 OA
ATOM      9  O   UNL     1      40.494 187.385 173.085  1.00  0.00    -0.545 OA
ENDBRANCH   1   7
BRANCH   6  10
ATOM     10  O   UNL     1      43.760 181.758 173.202  1.00  0.00    -0.497 OA
ATOM     11  C   UNL     1      43.588 180.682 174.120  1.00  0.00     0.278 C 
ENDBRANCH   6  10
TORSDOF 2
ENDMDL
MODEL 6
REMARK VINA RESULT:    -3.535      1.908      2.369
REMARK INTER + INTRA:          -4.011
REMARK INTER:                  -3.956
REMARK INTRA:                  -0.055
REMARK UNBOUND:                -0.063
REMARK SMILES COc1ccc(C(=O)[O-])cc1
REMARK SMILES IDX 6 1 5 2 10 3 4 4 11 5 3 6 7 7 8 8 9 9 2 10 1 11
REMARK H PARENT
REMARK Flexibility Score: inf
ROOT
ATOM      1  C   UNL     1      40.867 183.823 172.348  1.00  0.00    -0.003 A 
ATOM      2  C   UNL     1      40.532 184.292 171.066  1.00  0.00     0.014 A 
ATOM      3  C   UNL     1      39.836 183.518 173.253  1.00  0.00     0.014 A 
ATOM      4  C   UNL     1      39.193 184.450 170.698  1.00  0.00     0.047 A 
ATOM      5  C   UNL     1      38.497 183.677 172.882  1.00  0.00     0.047 A 
ATOM      6  C   UNL     1      38.166 184.146 171.598  1.00  0.00     0.118 A 
ENDROOT
BRANCH   1   7
ATOM      7  C   UNL     1      42.286 183.657 172.735  1.00  0.00     0.071 C 
ATOM      8  O   UNL     1      42.996 182.765 172.198  1.00  0.00    -0.545 OA
ATOM      9  O   UNL     1      42.855 184.482 173.700  1.00  0.00    -0.545 OA
ENDBRANCH   1   7
BRANCH   6  10
ATOM     10  O   UNL     1      36.839 184.322 171.179  1.00  0.00    -0.497 OA
ATOM     11  C   UNL     1      35.789 183.390 171.421  1.00  0.00     0.278 C 
ENDBRANCH   6  10
TORSDOF 2
ENDMDL
MODEL 7
REMARK VINA RESULT:    -3.501      1.034      4.886
REMARK INTER + INTRA:          -3.974
REMARK INTER:                  -3.915
REMARK INTRA:                  -0.058
REMARK UNBOUND:                -0.063
REMARK SMILES COc1ccc(C(=O)[O-])cc1
REMARK SMILES IDX 6 1 5 2 10 3 4 4 11 5 3 6 7 7 8 8 9 9 2 10 1 11
REMARK H PARENT
REMARK Flexibility Score: inf
ROOT
ATOM      1  C   UNL     1      39.822 185.580 172.358  1.00  0.00    -0.003 A 
ATOM      2  C   UNL     1      39.815 184.362 171.656  1.00  0.00     0.014 A 
ATOM      3  C   UNL     1      40.984 185.957 173.054  1.00  0.00     0.014 A 
ATOM      4  C   UNL     1      40.945 183.541 171.650  1.00  0.00     0.047 A 
ATOM      5  C   UNL     1      42.114 185.134 173.046  1.00  0.00     0.047 A 
ATOM      6  C   UNL     1      42.102 183.916 172.342  1.00  0.00     0.118 A 
ENDROOT
BRANCH   1   7
ATOM      7  C   UNL     1      38.623 186.448 172.363  1.00  0.00     0.071 C 
ATOM      8  O   UNL     1      38.266 187.041 173.415  1.00  0.00    -0.545 OA
ATOM      9  O   UNL     1      37.873 186.619 171.204  1.00  0.00    -0.545 OA
ENDBRANCH   1   7
BRANCH   6  10
ATOM     10  O   UNL     1      43.210 183.056 172.304  1.00  0.00    -0.497 OA
ATOM     11  C   UNL     1      43.937 182.632 173.453  1.00  0.00     0.278 C 
ENDBRANCH   6  10
TORSDOF 2
ENDMDL
MODEL 8
REMARK VINA RESULT:    -3.382     22.781     23.411
REMARK INTER + INTRA:          -3.841
REMARK INTER:                  -3.781
REMARK INTRA:                  -0.060
REMARK UNBOUND:                -0.063
REMARK SMILES COc1ccc(C(=O)[O-])cc1
REMARK SMILES IDX 6 1 5 2 10 3 4 4 11 5 3 6 7 7 8 8 9 9 2 10 1 11
REMARK H PARENT
REMARK Flexibility Score: inf
ROOT
ATOM      1  C   UNL     1      33.436 169.520 156.578  1.00  0.00    -0.003 A 
ATOM      2  C   UNL     1      32.063 169.740 156.784  1.00  0.00     0.014 A 
ATOM      3  C   UNL     1      34.054 170.081 155.448  1.00  0.00     0.014 A 
ATOM      4  C   UNL     1      31.326 170.508 155.879  1.00  0.00     0.047 A 
ATOM      5  C   UNL     1      33.314 170.850 154.543  1.00  0.00     0.047 A 
ATOM      6  C   UNL     1      31.940 171.068 154.753  1.00  0.00     0.118 A 
ENDROOT
BRANCH   1   7
ATOM      7  C   UNL     1      34.215 168.706 157.539  1.00  0.00     0.071 C 
ATOM      8  O   UNL     1      33.738 168.420 158.669  1.00  0.00    -0.545 OA
ATOM      9  O   UNL     1      35.485 168.248 157.206  1.00  0.00    -0.545 OA
ENDBRANCH   1   7
BRANCH   6  10
ATOM     10  O   UNL     1      31.156 171.830 153.875  1.00  0.00    -0.497 OA
ATOM     11  C   UNL     1      30.926 173.229 154.011  1.00  0.00     0.278 C 
ENDBRANCH   6  10
TORSDOF 2
ENDMDL
