MODEL 1
REMARK VINA RESULT:    -5.296      0.000      0.000
REMARK INTER + INTRA:         -11.826
REMARK INTER:                  -9.940
REMARK INTRA:                  -1.886
REMARK UNBOUND:                -1.886
REMARK SMILES O=C([O-])CCCCCCCCCCCCCCC(=O)[O-]
REMARK SMILES IDX 10 1 9 2 8 3 7 4 6 5 5 6 4 7 2 8 1 9 3 10 11 11 12 12 13 13
REMARK SMILES IDX 14 14 15 15 16 16 17 17 18 18 19 19 20 20
REMARK H PARENT
REMARK Flexibility Score: inf
ROOT
ATOM      1  C   UNL     1     111.837 -82.600  21.891  1.00  0.00     0.000 C 
ENDROOT
BRANCH   1   2
ATOM      2  C   UNL     1     113.123 -83.429  21.721  1.00  0.00     0.000 C 
BRANCH   2   3
ATOM      3  C   UNL     1     113.587 -83.523  20.259  1.00  0.00     0.000 C 
BRANCH   3   4
ATOM      4  C   UNL     1     115.103 -83.320  20.150  1.00  0.00     0.000 C 
BRANCH   4   5
ATOM      5  C   UNL     1     115.754 -83.275  21.537  1.00  0.00     0.000 C 
BRANCH   5   6
ATOM      6  C   UNL     1     116.972 -82.340  21.546  1.00  0.00     0.006 C 
BRANCH   6   7
ATOM      7  C   UNL     1     118.297 -83.111  21.480  1.00  0.00     0.053 C 
BRANCH   7   8
ATOM      8  C   UNL     1     119.219 -82.727  22.595  1.00  0.00     0.041 C 
ATOM      9  O   UNL     1     119.640 -81.544  22.692  1.00  0.00    -0.550 OA
ATOM     10  O   UNL     1     119.587 -83.667  23.549  1.00  0.00    -0.550 OA
ENDBRANCH   7   8
ENDBRANCH   6   7
ENDBRANCH   5   6
ENDBRANCH   4   5
ENDBRANCH   3   4
ENDBRANCH   2   3
ENDBRANCH   1   2
BRANCH   1  11
ATOM     11  C   UNL     1     111.619 -81.503  20.833  1.00  0.00     0.000 C 
BRANCH  11  12
ATOM     12  C   UNL     1     112.113 -80.121  21.292  1.00  0.00     0.000 C 
BRANCH  12  13
ATOM     13  C   UNL     1     112.921 -79.393  20.205  1.00  0.00     0.000 C 
BRANCH  13  14
ATOM     14  C   UNL     1     114.434 -79.636  20.324  1.00  0.00     0.000 C 
BRANCH  14  15
ATOM     15  C   UNL     1     114.942 -79.252  21.722  1.00  0.00     0.000 C 
BRANCH  15  16
ATOM     16  C   UNL     1     116.361 -78.655  21.700  1.00  0.00     0.006 C 
BRANCH  16  17
ATOM     17  C   UNL     1     116.599 -77.550  22.743  1.00  0.00     0.053 C 
BRANCH  17  18
ATOM     18  C   UNL     1     117.048 -78.106  24.059  1.00  0.00     0.041 C 
ATOM     19  O   UNL     1     118.009 -78.917  24.109  1.00  0.00    -0.550 OA
ATOM     20  O   UNL     1     116.427 -77.701  25.234  1.00  0.00    -0.550 OA
ENDBRANCH  17  18
ENDBRANCH  16  17
ENDBRANCH  15  16
ENDBRANCH  14  15
ENDBRANCH  13  14
ENDBRANCH  12  13
ENDBRANCH  11  12
ENDBRANCH   1  11
TORSDOF 15
ENDMDL
MODEL 2
REMARK VINA RESULT:    -5.195      9.460     11.860
REMARK INTER + INTRA:         -11.637
REMARK INTER:                  -9.988
REMARK INTRA:                  -1.649
REMARK UNBOUND:                -1.886
REMARK SMILES O=C([O-])CCCCCCCCCCCCCCC(=O)[O-]
REMARK SMILES IDX 10 1 9 2 8 3 7 4 6 5 5 6 4 7 2 8 1 9 3 10 11 11 12 12 13 13
REMARK SMILES IDX 14 14 15 15 16 16 17 17 18 18 19 19 20 20
REMARK H PARENT
REMARK Flexibility Score: inf
ROOT
ATOM      1  C   UNL     1     105.027 -83.227  19.708  1.00  0.00     0.000 C 
ENDROOT
BRANCH   1   2
ATOM      2  C   UNL     1     105.673 -82.197  18.764  1.00  0.00     0.000 C 
BRANCH   2   3
ATOM      3  C   UNL     1     105.394 -80.745  19.179  1.00  0.00     0.000 C 
BRANCH   3   4
ATOM      4  C   UNL     1     106.147 -80.385  20.465  1.00  0.00     0.000 C 
BRANCH   4   5
ATOM      5  C   UNL     1     106.174 -78.868  20.681  1.00  0.00     0.000 C 
BRANCH   5   6
ATOM      6  C   UNL     1     105.398 -78.139  19.573  1.00  0.00     0.006 C 
BRANCH   6   7
ATOM      7  C   UNL     1     104.236 -77.306  20.130  1.00  0.00     0.053 C 
BRANCH   7   8
ATOM      8  C   UNL     1     104.295 -75.886  19.659  1.00  0.00     0.041 C 
ATOM      9  O   UNL     1     103.286 -75.140  19.765  1.00  0.00    -0.550 OA
ATOM     10  O   UNL     1     105.476 -75.376  19.134  1.00  0.00    -0.550 OA
ENDBRANCH   7   8
ENDBRANCH   6   7
ENDBRANCH   5   6
ENDBRANCH   4   5
ENDBRANCH   3   4
ENDBRANCH   2   3
ENDBRANCH   1   2
BRANCH   1  11
ATOM     11  C   UNL     1     103.530 -83.492  19.465  1.00  0.00     0.000 C 
BRANCH  11  12
ATOM     12  C   UNL     1     102.674 -83.299  20.729  1.00  0.00     0.000 C 
BRANCH  12  13
ATOM     13  C   UNL     1     103.073 -82.047  21.525  1.00  0.00     0.000 C 
BRANCH  13  14
ATOM     14  C   UNL     1     103.348 -82.346  23.007  1.00  0.00     0.000 C 
BRANCH  14  15
ATOM     15  C   UNL     1     104.799 -82.004  23.375  1.00  0.00     0.000 C 
BRANCH  15  16
ATOM     16  C   UNL     1     105.722 -83.236  23.376  1.00  0.00     0.006 C 
BRANCH  16  17
ATOM     17  C   UNL     1     106.442 -83.486  24.712  1.00  0.00     0.053 C 
BRANCH  17  18
ATOM     18  C   UNL     1     107.114 -82.252  25.230  1.00  0.00     0.041 C 
ATOM     19  O   UNL     1     106.766 -81.759  26.334  1.00  0.00    -0.550 OA
ATOM     20  O   UNL     1     108.147 -81.667  24.509  1.00  0.00    -0.550 OA
ENDBRANCH  17  18
ENDBRANCH  16  17
ENDBRANCH  15  16
ENDBRANCH  14  15
ENDBRANCH  13  14
ENDBRANCH  12  13
ENDBRANCH  11  12
ENDBRANCH   1  11
TORSDOF 15
ENDMDL
MODEL 3
REMARK VINA RESULT:    -5.156      2.825      4.832
REMARK INTER + INTRA:         -11.564
REMARK INTER:                 -10.030
REMARK INTRA:                  -1.534
REMARK UNBOUND:                -1.886
REMARK SMILES O=C([O-])CCCCCCCCCCCCCCC(=O)[O-]
REMARK SMILES IDX 10 1 9 2 8 3 7 4 6 5 5 6 4 7 2 8 1 9 3 10 11 11 12 12 13 13
REMARK SMILES IDX 14 14 15 15 16 16 17 17 18 18 19 19 20 20
REMARK H PARENT
REMARK Flexibility Score: inf
ROOT
ATOM      1  C   UNL     1     119.083 -80.731  21.179  1.00  0.00     0.000 C 
ENDROOT
BRANCH   1   2
ATOM      2  C   UNL     1     118.916 -81.505  22.499  1.00  0.00     0.000 C 
BRANCH   2   3
ATOM      3  C   UNL     1     118.736 -83.016  22.289  1.00  0.00     0.000 C 
BRANCH   3   4
ATOM      4  C   UNL     1     117.716 -83.300  21.180  1.00  0.00     0.000 C 
BRANCH   4   5
ATOM      5  C   UNL     1     116.290 -83.344  21.743  1.00  0.00     0.000 C 
BRANCH   5   6
ATOM      6  C   UNL     1     115.250 -83.327  20.613  1.00  0.00     0.006 C 
BRANCH   6   7
ATOM      7  C   UNL     1     114.223 -82.200  20.785  1.00  0.00     0.053 C 
BRANCH   7   8
ATOM      8  C   UNL     1     112.858 -82.734  21.090  1.00  0.00     0.041 C 
ATOM      9  O   UNL     1     112.714 -83.670  21.921  1.00  0.00    -0.550 OA
ATOM     10  O   UNL     1     111.741 -82.176  20.482  1.00  0.00    -0.550 OA
ENDBRANCH   7   8
ENDBRANCH   6   7
ENDBRANCH   5   6
ENDBRANCH   4   5
ENDBRANCH   3   4
ENDBRANCH   2   3
ENDBRANCH   1   2
BRANCH   1  11
ATOM     11  C   UNL     1     118.222 -79.460  21.050  1.00  0.00     0.000 C 
BRANCH  11  12
ATOM     12  C   UNL     1     116.739 -79.767  20.778  1.00  0.00     0.000 C 
BRANCH  12  13
ATOM     13  C   UNL     1     115.794 -78.798  21.507  1.00  0.00     0.000 C 
BRANCH  13  14
ATOM     14  C   UNL     1     116.505 -77.975  22.592  1.00  0.00     0.000 C 
BRANCH  14  15
ATOM     15  C   UNL     1     115.646 -77.886  23.862  1.00  0.00     0.000 C 
BRANCH  15  16
ATOM     16  C   UNL     1     116.374 -77.194  25.029  1.00  0.00     0.006 C 
BRANCH  16  17
ATOM     17  C   UNL     1     117.390 -78.088  25.760  1.00  0.00     0.053 C 
BRANCH  17  18
ATOM     18  C   UNL     1     118.799 -77.625  25.553  1.00  0.00     0.041 C 
ATOM     19  O   UNL     1     119.487 -78.097  24.610  1.00  0.00    -0.550 OA
ATOM     20  O   UNL     1     119.340 -76.649  26.379  1.00  0.00    -0.550 OA
ENDBRANCH  17  18
ENDBRANCH  16  17
ENDBRANCH  15  16
ENDBRANCH  14  15
ENDBRANCH  13  14
ENDBRANCH  12  13
ENDBRANCH  11  12
ENDBRANCH   1  11
TORSDOF 15
ENDMDL
MODEL 4
REMARK VINA RESULT:    -5.154      9.349     11.002
REMARK INTER + INTRA:         -11.560
REMARK INTER:                  -9.696
REMARK INTRA:                  -1.864
REMARK UNBOUND:                -1.886
REMARK SMILES O=C([O-])CCCCCCCCCCCCCCC(=O)[O-]
REMARK SMILES IDX 10 1 9 2 8 3 7 4 6 5 5 6 4 7 2 8 1 9 3 10 11 11 12 12 13 13
REMARK SMILES IDX 14 14 15 15 16 16 17 17 18 18 19 19 20 20
REMARK H PARENT
REMARK Flexibility Score: inf
ROOT
ATOM      1  C   UNL     1     102.562 -82.952  19.655  1.00  0.00     0.000 C 
ENDROOT
BRANCH   1   2
ATOM      2  C   UNL     1     102.027 -82.539  21.038  1.00  0.00     0.000 C 
BRANCH   2   3
ATOM      3  C   UNL     1     101.889 -83.723  22.007  1.00  0.00     0.000 C 
BRANCH   3   4
ATOM      4  C   UNL     1     102.880 -83.600  23.170  1.00  0.00     0.000 C 
BRANCH   4   5
ATOM      5  C   UNL     1     103.782 -82.373  22.997  1.00  0.00     0.000 C 
BRANCH   5   6
ATOM      6  C   UNL     1     105.265 -82.756  23.114  1.00  0.00     0.006 C 
BRANCH   6   7
ATOM      7  C   UNL     1     106.044 -81.791  24.017  1.00  0.00     0.053 C 
BRANCH   7   8
ATOM      8  C   UNL     1     107.317 -82.403  24.515  1.00  0.00     0.041 C 
ATOM      9  O   UNL     1     107.784 -82.072  25.637  1.00  0.00    -0.550 OA
ATOM     10  O   UNL     1     107.970 -83.364  23.754  1.00  0.00    -0.550 OA
ENDBRANCH   7   8
ENDBRANCH   6   7
ENDBRANCH   5   6
ENDBRANCH   4   5
ENDBRANCH   3   4
ENDBRANCH   2   3
ENDBRANCH   1   2
BRANCH   1  11
ATOM     11  C   UNL     1     103.597 -84.093  19.666  1.00  0.00     0.000 C 
BRANCH  11  12
ATOM     12  C   UNL     1     105.004 -83.629  19.251  1.00  0.00     0.000 C 
BRANCH  12  13
ATOM     13  C   UNL     1     105.053 -82.131  18.906  1.00  0.00     0.000 C 
BRANCH  13  14
ATOM     14  C   UNL     1     105.894 -81.318  19.903  1.00  0.00     0.000 C 
BRANCH  14  15
ATOM     15  C   UNL     1     105.146 -80.051  20.344  1.00  0.00     0.000 C 
BRANCH  15  16
ATOM     16  C   UNL     1     106.067 -78.822  20.458  1.00  0.00     0.006 C 
BRANCH  16  17
ATOM     17  C   UNL     1     105.518 -77.556  19.779  1.00  0.00     0.053 C 
BRANCH  17  18
ATOM     18  C   UNL     1     106.591 -76.542  19.527  1.00  0.00     0.041 C 
ATOM     19  O   UNL     1     107.770 -76.761  19.909  1.00  0.00    -0.550 OA
ATOM     20  O   UNL     1     106.296 -75.371  18.841  1.00  0.00    -0.550 OA
ENDBRANCH  17  18
ENDBRANCH  16  17
ENDBRANCH  15  16
ENDBRANCH  14  15
ENDBRANCH  13  14
ENDBRANCH  12  13
ENDBRANCH  11  12
ENDBRANCH   1  11
TORSDOF 15
ENDMDL
MODEL 5
REMARK VINA RESULT:    -5.149      2.659      6.037
REMARK INTER + INTRA:         -11.551
REMARK INTER:                  -9.716
REMARK INTRA:                  -1.835
REMARK UNBOUND:                -1.886
REMARK SMILES O=C([O-])CCCCCCCCCCCCCCC(=O)[O-]
REMARK SMILES IDX 10 1 9 2 8 3 7 4 6 5 5 6 4 7 2 8 1 9 3 10 11 11 12 12 13 13
REMARK SMILES IDX 14 14 15 15 16 16 17 17 18 18 19 19 20 20
REMARK H PARENT
REMARK Flexibility Score: inf
ROOT
ATOM      1  C   UNL     1     116.899 -79.779  20.990  1.00  0.00     0.000 C 
ENDROOT
BRANCH   1   2
ATOM      2  C   UNL     1     115.513 -79.833  20.323  1.00  0.00     0.000 C 
BRANCH   2   3
ATOM      3  C   UNL     1     114.364 -79.548  21.303  1.00  0.00     0.000 C 
BRANCH   3   4
ATOM      4  C   UNL     1     114.244 -78.046  21.588  1.00  0.00     0.000 C 
BRANCH   4   5
ATOM      5  C   UNL     1     114.600 -77.733  23.046  1.00  0.00     0.000 C 
BRANCH   5   6
ATOM      6  C   UNL     1     115.807 -76.787  23.129  1.00  0.00     0.006 C 
BRANCH   6   7
ATOM      7  C   UNL     1     116.267 -76.559  24.575  1.00  0.00     0.053 C 
BRANCH   7   8
ATOM      8  C   UNL     1     117.001 -77.746  25.117  1.00  0.00     0.041 C 
ATOM      9  O   UNL     1     117.852 -78.345  24.408  1.00  0.00    -0.550 OA
ATOM     10  O   UNL     1     116.771 -78.170  26.420  1.00  0.00    -0.550 OA
ENDBRANCH   7   8
ENDBRANCH   6   7
ENDBRANCH   5   6
ENDBRANCH   4   5
ENDBRANCH   3   4
ENDBRANCH   2   3
ENDBRANCH   1   2
BRANCH   1  11
ATOM     11  C   UNL     1     117.160 -80.863  22.051  1.00  0.00     0.000 C 
BRANCH  11  12
ATOM     12  C   UNL     1     118.116 -81.964  21.560  1.00  0.00     0.000 C 
BRANCH  12  13
ATOM     13  C   UNL     1     117.414 -83.321  21.388  1.00  0.00     0.000 C 
BRANCH  13  14
ATOM     14  C   UNL     1     115.893 -83.234  21.588  1.00  0.00     0.000 C 
BRANCH  14  15
ATOM     15  C   UNL     1     115.149 -83.588  20.291  1.00  0.00     0.000 C 
BRANCH  15  16
ATOM     16  C   UNL     1     113.642 -83.281  20.364  1.00  0.00     0.006 C 
BRANCH  16  17
ATOM     17  C   UNL     1     113.035 -83.419  21.770  1.00  0.00     0.053 C 
BRANCH  17  18
ATOM     18  C   UNL     1     111.783 -82.612  21.925  1.00  0.00     0.041 C 
ATOM     19  O   UNL     1     111.031 -82.795  22.918  1.00  0.00    -0.550 OA
ATOM     20  O   UNL     1     111.464 -81.635  20.990  1.00  0.00    -0.550 OA
ENDBRANCH  17  18
ENDBRANCH  16  17
ENDBRANCH  15  16
ENDBRANCH  14  15
ENDBRANCH  13  14
ENDBRANCH  12  13
ENDBRANCH  11  12
ENDBRANCH   1  11
TORSDOF 15
ENDMDL
MODEL 6
REMARK VINA RESULT:    -5.146      1.224      4.353
REMARK INTER + INTRA:         -11.546
REMARK INTER:                  -9.397
REMARK INTRA:                  -2.149
REMARK UNBOUND:                -1.886
REMARK SMILES O=C([O-])CCCCCCCCCCCCCCC(=O)[O-]
REMARK SMILES IDX 10 1 9 2 8 3 7 4 6 5 5 6 4 7 2 8 1 9 3 10 11 11 12 12 13 13
REMARK SMILES IDX 14 14 15 15 16 16 17 17 18 18 19 19 20 20
REMARK H PARENT
REMARK Flexibility Score: inf
ROOT
ATOM      1  C   UNL     1     111.675 -80.339  20.643  1.00  0.00     0.000 C 
ENDROOT
BRANCH   1   2
ATOM      2  C   UNL     1     112.925 -79.818  21.375  1.00  0.00     0.000 C 
BRANCH   2   3
ATOM      3  C   UNL     1     114.042 -79.378  20.418  1.00  0.00     0.000 C 
BRANCH   3   4
ATOM      4  C   UNL     1     115.133 -78.601  21.164  1.00  0.00     0.000 C 
BRANCH   4   5
ATOM      5  C   UNL     1     114.871 -78.599  22.675  1.00  0.00     0.000 C 
BRANCH   5   6
ATOM      6  C   UNL     1     116.187 -78.536  23.464  1.00  0.00     0.006 C 
BRANCH   6   7
ATOM      7  C   UNL     1     117.121 -77.433  22.948  1.00  0.00     0.053 C 
BRANCH   7   8
ATOM      8  C   UNL     1     118.525 -77.622  23.433  1.00  0.00     0.041 C 
ATOM      9  O   UNL     1     119.385 -78.167  22.691  1.00  0.00    -0.550 OA
ATOM     10  O   UNL     1     118.893 -77.167  24.693  1.00  0.00    -0.550 OA
ENDBRANCH   7   8
ENDBRANCH   6   7
ENDBRANCH   5   6
ENDBRANCH   4   5
ENDBRANCH   3   4
ENDBRANCH   2   3
ENDBRANCH   1   2
BRANCH   1  11
ATOM     11  C   UNL     1     111.541 -81.871  20.583  1.00  0.00     0.000 C 
BRANCH  11  12
ATOM     12  C   UNL     1     111.849 -82.553  21.928  1.00  0.00     0.000 C 
BRANCH  12  13
ATOM     13  C   UNL     1     113.087 -83.461  21.858  1.00  0.00     0.000 C 
BRANCH  13  14
ATOM     14  C   UNL     1     113.626 -83.625  20.429  1.00  0.00     0.000 C 
BRANCH  14  15
ATOM     15  C   UNL     1     115.068 -83.105  20.325  1.00  0.00     0.000 C 
BRANCH  15  16
ATOM     16  C   UNL     1     115.574 -82.480  21.637  1.00  0.00     0.006 C 
BRANCH  16  17
ATOM     17  C   UNL     1     117.015 -82.870  22.009  1.00  0.00     0.053 C 
BRANCH  17  18
ATOM     18  C   UNL     1     117.912 -81.676  22.117  1.00  0.00     0.041 C 
ATOM     19  O   UNL     1     117.854 -80.762  21.253  1.00  0.00    -0.550 OA
ATOM     20  O   UNL     1     118.788 -81.557  23.188  1.00  0.00    -0.550 OA
ENDBRANCH  17  18
ENDBRANCH  16  17
ENDBRANCH  15  16
ENDBRANCH  14  15
ENDBRANCH  13  14
ENDBRANCH  12  13
ENDBRANCH  11  12
ENDBRANCH   1  11
TORSDOF 15
ENDMDL
MODEL 7
REMARK VINA RESULT:    -5.130      1.279      4.364
REMARK INTER + INTRA:         -11.516
REMARK INTER:                  -9.630
REMARK INTRA:                  -1.886
REMARK UNBOUND:                -1.886
REMARK SMILES O=C([O-])CCCCCCCCCCCCCCC(=O)[O-]
REMARK SMILES IDX 10 1 9 2 8 3 7 4 6 5 5 6 4 7 2 8 1 9 3 10 11 11 12 12 13 13
REMARK SMILES IDX 14 14 15 15 16 16 17 17 18 18 19 19 20 20
REMARK H PARENT
REMARK Flexibility Score: inf
ROOT
ATOM      1  C   UNL     1     113.073 -82.755  21.535  1.00  0.00     0.000 C 
ENDROOT
BRANCH   1   2
ATOM      2  C   UNL     1     112.386 -81.507  20.950  1.00  0.00     0.000 C 
BRANCH   2   3
ATOM      3  C   UNL     1     112.970 -80.193  21.489  1.00  0.00     0.000 C 
BRANCH   3   4
ATOM      4  C   UNL     1     113.702 -79.421  20.384  1.00  0.00     0.000 C 
BRANCH   4   5
ATOM      5  C   UNL     1     115.219 -79.459  20.600  1.00  0.00     0.000 C 
BRANCH   5   6
ATOM      6  C   UNL     1     115.575 -79.173  22.066  1.00  0.00     0.006 C 
BRANCH   6   7
ATOM      7  C   UNL     1     116.224 -77.793  22.248  1.00  0.00     0.053 C 
BRANCH   7   8
ATOM      8  C   UNL     1     117.354 -77.836  23.228  1.00  0.00     0.041 C 
ATOM      9  O   UNL     1     118.532 -77.604  22.850  1.00  0.00    -0.550 OA
ATOM     10  O   UNL     1     117.102 -78.100  24.569  1.00  0.00    -0.550 OA
ENDBRANCH   7   8
ENDBRANCH   6   7
ENDBRANCH   5   6
ENDBRANCH   4   5
ENDBRANCH   3   4
ENDBRANCH   2   3
ENDBRANCH   1   2
BRANCH   1  11
ATOM     11  C   UNL     1     113.766 -83.665  20.505  1.00  0.00     0.000 C 
BRANCH  11  12
ATOM     12  C   UNL     1     115.296 -83.498  20.490  1.00  0.00     0.000 C 
BRANCH  12  13
ATOM     13  C   UNL     1     115.815 -82.720  21.710  1.00  0.00     0.000 C 
BRANCH  13  14
ATOM     14  C   UNL     1     117.174 -83.236  22.210  1.00  0.00     0.000 C 
BRANCH  14  15
ATOM     15  C   UNL     1     118.295 -82.868  21.226  1.00  0.00     0.000 C 
BRANCH  15  16
ATOM     16  C   UNL     1     118.941 -81.506  21.538  1.00  0.00     0.006 C 
BRANCH  16  17
ATOM     17  C   UNL     1     118.962 -81.143  23.032  1.00  0.00     0.053 C 
BRANCH  17  18
ATOM     18  C   UNL     1     120.338 -80.790  23.506  1.00  0.00     0.041 C 
ATOM     19  O   UNL     1     120.806 -81.327  24.544  1.00  0.00    -0.550 OA
ATOM     20  O   UNL     1     121.117 -79.895  22.783  1.00  0.00    -0.550 OA
ENDBRANCH  17  18
ENDBRANCH  16  17
ENDBRANCH  15  16
ENDBRANCH  14  15
ENDBRANCH  13  14
ENDBRANCH  12  13
ENDBRANCH  11  12
ENDBRANCH   1  11
TORSDOF 15
ENDMDL
MODEL 8
REMARK VINA RESULT:    -5.130      3.967      6.685
REMARK INTER + INTRA:         -11.515
REMARK INTER:                 -10.390
REMARK INTRA:                  -1.126
REMARK UNBOUND:                -1.886
REMARK SMILES O=C([O-])CCCCCCCCCCCCCCC(=O)[O-]
REMARK SMILES IDX 10 1 9 2 8 3 7 4 6 5 5 6 4 7 2 8 1 9 3 10 11 11 12 12 13 13
REMARK SMILES IDX 14 14 15 15 16 16 17 17 18 18 19 19 20 20
REMARK H PARENT
REMARK Flexibility Score: inf
ROOT
ATOM      1  C   UNL     1     113.640 -83.756  20.439  1.00  0.00     0.000 C 
ENDROOT
BRANCH   1   2
ATOM      2  C   UNL     1     112.657 -83.138  21.450  1.00  0.00     0.000 C 
BRANCH   2   3
ATOM      3  C   UNL     1     111.817 -82.000  20.851  1.00  0.00     0.000 C 
BRANCH   3   4
ATOM      4  C   UNL     1     110.921 -81.358  21.917  1.00  0.00     0.000 C 
BRANCH   4   5
ATOM      5  C   UNL     1     110.747 -82.289  23.122  1.00  0.00     0.000 C 
BRANCH   5   6
ATOM      6  C   UNL     1     109.264 -82.437  23.496  1.00  0.00     0.006 C 
BRANCH   6   7
ATOM      7  C   UNL     1     108.958 -81.876  24.892  1.00  0.00     0.053 C 
BRANCH   7   8
ATOM      8  C   UNL     1     107.592 -82.269  25.361  1.00  0.00     0.041 C 
ATOM      9  O   UNL     1     107.083 -81.714  26.370  1.00  0.00    -0.550 OA
ATOM     10  O   UNL     1     106.866 -83.226  24.663  1.00  0.00    -0.550 OA
ENDBRANCH   7   8
ENDBRANCH   6   7
ENDBRANCH   5   6
ENDBRANCH   4   5
ENDBRANCH   3   4
ENDBRANCH   2   3
ENDBRANCH   1   2
BRANCH   1  11
ATOM     11  C   UNL     1     115.076 -83.204  20.498  1.00  0.00     0.000 C 
BRANCH  11  12
ATOM     12  C   UNL     1     115.260 -82.127  21.582  1.00  0.00     0.000 C 
BRANCH  12  13
ATOM     13  C   UNL     1     115.713 -80.778  21.002  1.00  0.00     0.000 C 
BRANCH  13  14
ATOM     14  C   UNL     1     116.415 -79.889  22.040  1.00  0.00     0.000 C 
BRANCH  14  15
ATOM     15  C   UNL     1     117.741 -79.344  21.486  1.00  0.00     0.000 C 
BRANCH  15  16
ATOM     16  C   UNL     1     118.763 -80.455  21.182  1.00  0.00     0.006 C 
BRANCH  16  17
ATOM     17  C   UNL     1     119.253 -81.221  22.423  1.00  0.00     0.053 C 
BRANCH  17  18
ATOM     18  C   UNL     1     119.006 -82.694  22.309  1.00  0.00     0.041 C 
ATOM     19  O   UNL     1     119.135 -83.437  23.317  1.00  0.00    -0.550 OA
ATOM     20  O   UNL     1     118.601 -83.241  21.098  1.00  0.00    -0.550 OA
ENDBRANCH  17  18
ENDBRANCH  16  17
ENDBRANCH  15  16
ENDBRANCH  14  15
ENDBRANCH  13  14
ENDBRANCH  12  13
ENDBRANCH  11  12
ENDBRANCH   1  11
TORSDOF 15
ENDMDL
MODEL 9
REMARK VINA RESULT:    -5.107      7.540     10.523
REMARK INTER + INTRA:         -11.472
REMARK INTER:                  -9.357
REMARK INTRA:                  -2.114
REMARK UNBOUND:                -1.886
REMARK SMILES O=C([O-])CCCCCCCCCCCCCCC(=O)[O-]
REMARK SMILES IDX 10 1 9 2 8 3 7 4 6 5 5 6 4 7 2 8 1 9 3 10 11 11 12 12 13 13
REMARK SMILES IDX 14 14 15 15 16 16 17 17 18 18 19 19 20 20
REMARK H PARENT
REMARK Flexibility Score: inf
ROOT
ATOM      1  C   UNL     1     108.813 -82.929  23.475  1.00  0.00     0.000 C 
ENDROOT
BRANCH   1   2
ATOM      2  C   UNL     1     110.263 -82.601  23.074  1.00  0.00     0.000 C 
BRANCH   2   3
ATOM      3  C   UNL     1     110.527 -81.092  22.959  1.00  0.00     0.000 C 
BRANCH   3   4
ATOM      4  C   UNL     1     109.774 -80.492  21.765  1.00  0.00     0.000 C 
BRANCH   4   5
ATOM      5  C   UNL     1     109.197 -79.116  22.116  1.00  0.00     0.000 C 
BRANCH   5   6
ATOM      6  C   UNL     1     107.671 -79.183  22.279  1.00  0.00     0.006 C 
BRANCH   6   7
ATOM      7  C   UNL     1     106.931 -78.560  21.087  1.00  0.00     0.053 C 
BRANCH   7   8
ATOM      8  C   UNL     1     106.930 -77.064  21.155  1.00  0.00     0.041 C 
ATOM      9  O   UNL     1     106.870 -76.479  22.269  1.00  0.00    -0.550 OA
ATOM     10  O   UNL     1     107.031 -76.316  19.989  1.00  0.00    -0.550 OA
ENDBRANCH   7   8
ENDBRANCH   6   7
ENDBRANCH   5   6
ENDBRANCH   4   5
ENDBRANCH   3   4
ENDBRANCH   2   3
ENDBRANCH   1   2
BRANCH   1  11
ATOM     11  C   UNL     1     108.276 -82.149  24.689  1.00  0.00     0.000 C 
BRANCH  11  12
ATOM     12  C   UNL     1     106.812 -82.489  25.020  1.00  0.00     0.000 C 
BRANCH  12  13
ATOM     13  C   UNL     1     106.351 -83.803  24.368  1.00  0.00     0.000 C 
BRANCH  13  14
ATOM     14  C   UNL     1     105.225 -83.596  23.343  1.00  0.00     0.000 C 
BRANCH  14  15
ATOM     15  C   UNL     1     104.920 -82.102  23.159  1.00  0.00     0.000 C 
BRANCH  15  16
ATOM     16  C   UNL     1     104.910 -81.671  21.681  1.00  0.00     0.006 C 
BRANCH  16  17
ATOM     17  C   UNL     1     106.055 -82.262  20.842  1.00  0.00     0.053 C 
BRANCH  17  18
ATOM     18  C   UNL     1     105.568 -82.832  19.546  1.00  0.00     0.041 C 
ATOM     19  O   UNL     1     104.528 -83.540  19.518  1.00  0.00    -0.550 OA
ATOM     20  O   UNL     1     106.243 -82.553  18.364  1.00  0.00    -0.550 OA
ENDBRANCH  17  18
ENDBRANCH  16  17
ENDBRANCH  15  16
ENDBRANCH  14  15
ENDBRANCH  13  14
ENDBRANCH  12  13
ENDBRANCH  11  12
ENDBRANCH   1  11
TORSDOF 15
ENDMDL
