MODEL 1
REMARK VINA RESULT:    -3.806      0.000      0.000
REMARK INTER + INTRA:          -6.637
REMARK INTER:                  -5.808
REMARK INTRA:                  -0.830
REMARK UNBOUND:                -0.830
REMARK SMILES O=C([O-])CCCCCCCCC(=O)[O-]
REMARK SMILES IDX 7 1 6 2 5 3 4 4 2 5 1 6 3 7 8 8 9 9 10 10 11 11 12 12 13 13
REMARK SMILES IDX 14 14
REMARK H PARENT
REMARK Flexibility Score: inf
ROOT
ATOM      1  C   UNL     1      -0.853  -9.211 -42.271  1.00  0.00     0.000 C 
ENDROOT
BRANCH   1   2
ATOM      2  C   UNL     1      -2.271  -8.767 -41.896  1.00  0.00     0.000 C 
BRANCH   2   3
ATOM      3  C   UNL     1      -2.435  -8.676 -40.372  1.00  0.00     0.006 C 
BRANCH   3   4
ATOM      4  C   UNL     1      -1.107  -8.387 -39.660  1.00  0.00     0.053 C 
BRANCH   4   5
ATOM      5  C   UNL     1      -0.869  -9.334 -38.524  1.00  0.00     0.041 C 
ATOM      6  O   UNL     1      -0.326  -8.928 -37.463  1.00  0.00    -0.550 OA
ATOM      7  O   UNL     1      -1.278 -10.657 -38.625  1.00  0.00    -0.550 OA
ENDBRANCH   4   5
ENDBRANCH   3   4
ENDBRANCH   2   3
ENDBRANCH   1   2
BRANCH   1   8
ATOM      8  C   UNL     1      -0.741 -10.742 -42.286  1.00  0.00     0.000 C 
BRANCH   8   9
ATOM      9  C   UNL     1       0.520 -11.260 -41.568  1.00  0.00     0.000 C 
BRANCH   9  10
ATOM     10  C   UNL     1       1.766 -10.371 -41.722  1.00  0.00     0.006 C 
BRANCH  10  11
ATOM     11  C   UNL     1       2.895 -11.052 -42.506  1.00  0.00     0.053 C 
BRANCH  11  12
ATOM     12  C   UNL     1       2.464 -11.319 -43.914  1.00  0.00     0.041 C 
ATOM     13  O   UNL     1       2.253 -10.362 -44.705  1.00  0.00    -0.550 OA
ATOM     14  O   UNL     1       2.250 -12.623 -44.340  1.00  0.00    -0.550 OA
ENDBRANCH  11  12
ENDBRANCH  10  11
ENDBRANCH   9  10
ENDBRANCH   8   9
ENDBRANCH   1   8
TORSDOF 9
ENDMDL
MODEL 2
REMARK VINA RESULT:    -3.631      1.853      5.837
REMARK INTER + INTRA:          -6.371
REMARK INTER:                  -5.785
REMARK INTRA:                  -0.587
REMARK UNBOUND:                -0.830
REMARK SMILES O=C([O-])CCCCCCCCC(=O)[O-]
REMARK SMILES IDX 7 1 6 2 5 3 4 4 2 5 1 6 3 7 8 8 9 9 10 10 11 11 12 12 13 13
REMARK SMILES IDX 14 14
REMARK H PARENT
REMARK Flexibility Score: inf
ROOT
ATOM      1  C   UNL     1      -1.547  -9.759 -41.825  1.00  0.00     0.000 C 
ENDROOT
BRANCH   1   2
ATOM      2  C   UNL     1      -0.226  -9.515 -42.562  1.00  0.00     0.000 C 
BRANCH   2   3
ATOM      3  C   UNL     1       0.976  -9.813 -41.653  1.00  0.00     0.006 C 
BRANCH   3   4
ATOM      4  C   UNL     1       2.238 -10.162 -42.453  1.00  0.00     0.053 C 
BRANCH   4   5
ATOM      5  C   UNL     1       3.069 -11.194 -41.755  1.00  0.00     0.041 C 
ATOM      6  O   UNL     1       2.585 -12.327 -41.493  1.00  0.00    -0.550 OA
ATOM      7  O   UNL     1       4.388 -10.915 -41.422  1.00  0.00    -0.550 OA
ENDBRANCH   4   5
ENDBRANCH   3   4
ENDBRANCH   2   3
ENDBRANCH   1   2
BRANCH   1   8
ATOM      8  C   UNL     1      -2.212  -8.432 -41.432  1.00  0.00     0.000 C 
BRANCH   8   9
ATOM      9  C   UNL     1      -2.358  -8.261 -39.908  1.00  0.00     0.000 C 
BRANCH   9  10
ATOM     10  C   UNL     1      -1.030  -8.186 -39.133  1.00  0.00     0.006 C 
BRANCH  10  11
ATOM     11  C   UNL     1      -0.882  -9.300 -38.089  1.00  0.00     0.053 C 
BRANCH  11  12
ATOM     12  C   UNL     1      -0.679  -8.715 -36.728  1.00  0.00     0.041 C 
ATOM     13  O   UNL     1      -1.055  -7.539 -36.480  1.00  0.00    -0.550 OA
ATOM     14  O   UNL     1      -0.032  -9.451 -35.745  1.00  0.00    -0.550 OA
ENDBRANCH  11  12
ENDBRANCH  10  11
ENDBRANCH   9  10
ENDBRANCH   8   9
ENDBRANCH   1   8
TORSDOF 9
ENDMDL
MODEL 3
REMARK VINA RESULT:    -3.631      1.748      2.423
REMARK INTER + INTRA:          -6.371
REMARK INTER:                  -5.921
REMARK INTRA:                  -0.450
REMARK UNBOUND:                -0.830
REMARK SMILES O=C([O-])CCCCCCCCC(=O)[O-]
REMARK SMILES IDX 7 1 6 2 5 3 4 4 2 5 1 6 3 7 8 8 9 9 10 10 11 11 12 12 13 13
REMARK SMILES IDX 14 14
REMARK H PARENT
REMARK Flexibility Score: inf
ROOT
ATOM      1  C   UNL     1      -2.181  -8.492 -41.070  1.00  0.00     0.000 C 
ENDROOT
BRANCH   1   2
ATOM      2  C   UNL     1      -1.152  -8.561 -39.936  1.00  0.00     0.000 C 
BRANCH   2   3
ATOM      3  C   UNL     1      -1.526  -7.606 -38.793  1.00  0.00     0.006 C 
BRANCH   3   4
ATOM      4  C   UNL     1      -0.371  -7.405 -37.803  1.00  0.00     0.053 C 
BRANCH   4   5
ATOM      5  C   UNL     1      -0.717  -7.914 -36.437  1.00  0.00     0.041 C 
ATOM      6  O   UNL     1      -0.179  -8.964 -35.996  1.00  0.00    -0.550 OA
ATOM      7  O   UNL     1      -1.610  -7.211 -35.638  1.00  0.00    -0.550 OA
ENDBRANCH   4   5
ENDBRANCH   3   4
ENDBRANCH   2   3
ENDBRANCH   1   2
BRANCH   1   8
ATOM      8  C   UNL     1      -1.737  -9.342 -42.269  1.00  0.00     0.000 C 
BRANCH   8   9
ATOM      9  C   UNL     1      -0.240  -9.184 -42.597  1.00  0.00     0.000 C 
BRANCH   9  10
ATOM     10  C   UNL     1       0.583 -10.482 -42.510  1.00  0.00     0.006 C 
BRANCH  10  11
ATOM     11  C   UNL     1       1.754 -10.383 -41.524  1.00  0.00     0.053 C 
BRANCH  11  12
ATOM     12  C   UNL     1       3.019 -10.853 -42.168  1.00  0.00     0.041 C 
ATOM     13  O   UNL     1       4.089 -10.900 -41.505  1.00  0.00    -0.550 OA
ATOM     14  O   UNL     1       3.029 -11.194 -43.514  1.00  0.00    -0.550 OA
ENDBRANCH  11  12
ENDBRANCH  10  11
ENDBRANCH   9  10
ENDBRANCH   8   9
ENDBRANCH   1   8
TORSDOF 9
ENDMDL
MODEL 4
REMARK VINA RESULT:    -3.593      1.566      2.548
REMARK INTER + INTRA:          -6.312
REMARK INTER:                  -5.756
REMARK INTRA:                  -0.557
REMARK UNBOUND:                -0.830
REMARK SMILES O=C([O-])CCCCCCCCC(=O)[O-]
REMARK SMILES IDX 7 1 6 2 5 3 4 4 2 5 1 6 3 7 8 8 9 9 10 10 11 11 12 12 13 13
REMARK SMILES IDX 14 14
REMARK H PARENT
REMARK Flexibility Score: inf
ROOT
ATOM      1  C   UNL     1      -1.960  -8.894 -39.817  1.00  0.00     0.000 C 
ENDROOT
BRANCH   1   2
ATOM      2  C   UNL     1      -1.498  -7.675 -39.011  1.00  0.00     0.000 C 
BRANCH   2   3
ATOM      3  C   UNL     1      -0.450  -8.073 -37.962  1.00  0.00     0.006 C 
BRANCH   3   4
ATOM      4  C   UNL     1      -0.712  -9.467 -37.377  1.00  0.00     0.053 C 
BRANCH   4   5
ATOM      5  C   UNL     1      -0.707  -9.450 -35.879  1.00  0.00     0.041 C 
ATOM      6  O   UNL     1      -1.507  -8.707 -35.251  1.00  0.00    -0.550 OA
ATOM      7  O   UNL     1       0.159 -10.278 -35.177  1.00  0.00    -0.550 OA
ENDBRANCH   4   5
ENDBRANCH   3   4
ENDBRANCH   2   3
ENDBRANCH   1   2
BRANCH   1   8
ATOM      8  C   UNL     1      -2.267  -8.508 -41.272  1.00  0.00     0.000 C 
BRANCH   8   9
ATOM      9  C   UNL     1      -1.439  -9.311 -42.294  1.00  0.00     0.000 C 
BRANCH   9  10
ATOM     10  C   UNL     1       0.023  -9.566 -41.887  1.00  0.00     0.006 C 
BRANCH  10  11
ATOM     11  C   UNL     1       0.479 -11.004 -42.165  1.00  0.00     0.053 C 
BRANCH  11  12
ATOM     12  C   UNL     1       1.440 -11.035 -43.310  1.00  0.00     0.041 C 
ATOM     13  O   UNL     1       1.821  -9.961 -43.847  1.00  0.00    -0.550 OA
ATOM     14  O   UNL     1       1.880 -12.251 -43.816  1.00  0.00    -0.550 OA
ENDBRANCH  11  12
ENDBRANCH  10  11
ENDBRANCH   9  10
ENDBRANCH   8   9
ENDBRANCH   1   8
TORSDOF 9
ENDMDL
MODEL 5
REMARK VINA RESULT:    -3.574      1.931      5.944
REMARK INTER + INTRA:          -6.284
REMARK INTER:                  -5.814
REMARK INTRA:                  -0.470
REMARK UNBOUND:                -0.830
REMARK SMILES O=C([O-])CCCCCCCCC(=O)[O-]
REMARK SMILES IDX 7 1 6 2 5 3 4 4 2 5 1 6 3 7 8 8 9 9 10 10 11 11 12 12 13 13
REMARK SMILES IDX 14 14
REMARK H PARENT
REMARK Flexibility Score: inf
ROOT
ATOM      1  C   UNL     1      -1.586  -9.246 -40.986  1.00  0.00     0.000 C 
ENDROOT
BRANCH   1   2
ATOM      2  C   UNL     1      -0.863  -9.299 -42.337  1.00  0.00     0.000 C 
BRANCH   2   3
ATOM      3  C   UNL     1       0.631  -9.600 -42.152  1.00  0.00     0.006 C 
BRANCH   3   4
ATOM      4  C   UNL     1       0.992 -11.032 -42.566  1.00  0.00     0.053 C 
BRANCH   4   5
ATOM      5  C   UNL     1       2.195 -11.536 -41.830  1.00  0.00     0.041 C 
ATOM      6  O   UNL     1       2.236 -12.728 -41.423  1.00  0.00    -0.550 OA
ATOM      7  O   UNL     1       3.284 -10.700 -41.621  1.00  0.00    -0.550 OA
ENDBRANCH   4   5
ENDBRANCH   3   4
ENDBRANCH   2   3
ENDBRANCH   1   2
BRANCH   1   8
ATOM      8  C   UNL     1      -0.603  -8.937 -39.847  1.00  0.00     0.000 C 
BRANCH   8   9
ATOM      9  C   UNL     1      -1.121  -7.851 -38.885  1.00  0.00     0.000 C 
BRANCH   9  10
ATOM     10  C   UNL     1      -0.323  -7.709 -37.577  1.00  0.00     0.006 C 
BRANCH  10  11
ATOM     11  C   UNL     1      -1.084  -8.231 -36.352  1.00  0.00     0.053 C 
BRANCH  11  12
ATOM     12  C   UNL     1      -0.820  -9.690 -36.156  1.00  0.00     0.041 C 
ATOM     13  O   UNL     1      -1.521 -10.547 -36.755  1.00  0.00    -0.550 OA
ATOM     14  O   UNL     1       0.170 -10.104 -35.274  1.00  0.00    -0.550 OA
ENDBRANCH  11  12
ENDBRANCH  10  11
ENDBRANCH   9  10
ENDBRANCH   8   9
ENDBRANCH   1   8
TORSDOF 9
ENDMDL
MODEL 6
REMARK VINA RESULT:    -3.555      1.308      5.668
REMARK INTER + INTRA:          -6.255
REMARK INTER:                  -5.591
REMARK INTRA:                  -0.665
REMARK UNBOUND:                -0.830
REMARK SMILES O=C([O-])CCCCCCCCC(=O)[O-]
REMARK SMILES IDX 7 1 6 2 5 3 4 4 2 5 1 6 3 7 8 8 9 9 10 10 11 11 12 12 13 13
REMARK SMILES IDX 14 14
REMARK H PARENT
REMARK Flexibility Score: inf
ROOT
ATOM      1  C   UNL     1      -2.355  -9.428 -42.575  1.00  0.00     0.000 C 
ENDROOT
BRANCH   1   2
ATOM      2  C   UNL     1      -2.028 -10.779 -41.930  1.00  0.00     0.000 C 
BRANCH   2   3
ATOM      3  C   UNL     1      -0.742 -11.376 -42.520  1.00  0.00     0.006 C 
BRANCH   3   4
ATOM      4  C   UNL     1       0.520 -10.708 -41.958  1.00  0.00     0.053 C 
BRANCH   4   5
ATOM      5  C   UNL     1       1.338 -10.070 -43.038  1.00  0.00     0.041 C 
ATOM      6  O   UNL     1       1.364  -8.816 -43.157  1.00  0.00    -0.550 OA
ATOM      7  O   UNL     1       2.096 -10.858 -43.894  1.00  0.00    -0.550 OA
ENDBRANCH   4   5
ENDBRANCH   3   4
ENDBRANCH   2   3
ENDBRANCH   1   2
BRANCH   1   8
ATOM      8  C   UNL     1      -2.597  -8.351 -41.507  1.00  0.00     0.000 C 
BRANCH   8   9
ATOM      9  C   UNL     1      -2.269  -8.835 -40.082  1.00  0.00     0.000 C 
BRANCH   9  10
ATOM     10  C   UNL     1      -0.922  -8.342 -39.523  1.00  0.00     0.006 C 
BRANCH  10  11
ATOM     11  C   UNL     1      -1.078  -7.448 -38.286  1.00  0.00     0.053 C 
BRANCH  11  12
ATOM     12  C   UNL     1      -0.636  -8.176 -37.057  1.00  0.00     0.041 C 
ATOM     13  O   UNL     1      -0.332  -7.537 -36.016  1.00  0.00    -0.550 OA
ATOM     14  O   UNL     1      -0.516  -9.560 -37.075  1.00  0.00    -0.550 OA
ENDBRANCH  11  12
ENDBRANCH  10  11
ENDBRANCH   9  10
ENDBRANCH   8   9
ENDBRANCH   1   8
TORSDOF 9
ENDMDL
MODEL 7
REMARK VINA RESULT:    -3.516      2.137      3.156
REMARK INTER + INTRA:          -6.196
REMARK INTER:                  -5.578
REMARK INTRA:                  -0.618
REMARK UNBOUND:                -0.830
REMARK SMILES O=C([O-])CCCCCCCCC(=O)[O-]
REMARK SMILES IDX 7 1 6 2 5 3 4 4 2 5 1 6 3 7 8 8 9 9 10 10 11 11 12 12 13 13
REMARK SMILES IDX 14 14
REMARK H PARENT
REMARK Flexibility Score: inf
ROOT
ATOM      1  C   UNL     1      -1.462  -7.668 -38.970  1.00  0.00     0.000 C 
ENDROOT
BRANCH   1   2
ATOM      2  C   UNL     1      -0.379  -7.883 -37.908  1.00  0.00     0.000 C 
BRANCH   2   3
ATOM      3  C   UNL     1      -1.000  -8.277 -36.559  1.00  0.00     0.006 C 
BRANCH   3   4
ATOM      4  C   UNL     1      -0.335  -9.521 -35.955  1.00  0.00     0.053 C 
BRANCH   4   5
ATOM      5  C   UNL     1      -1.216 -10.727 -36.062  1.00  0.00     0.041 C 
ATOM      6  O   UNL     1      -1.851 -10.957 -37.125  1.00  0.00    -0.550 OA
ATOM      7  O   UNL     1      -1.312 -11.615 -34.998  1.00  0.00    -0.550 OA
ENDBRANCH   4   5
ENDBRANCH   3   4
ENDBRANCH   2   3
ENDBRANCH   1   2
BRANCH   1   8
ATOM      8  C   UNL     1      -1.291  -8.650 -40.138  1.00  0.00     0.000 C 
BRANCH   8   9
ATOM      9  C   UNL     1      -0.130  -9.639 -39.926  1.00  0.00     0.000 C 
BRANCH   9  10
ATOM     10  C   UNL     1       0.303 -10.412 -41.185  1.00  0.00     0.006 C 
BRANCH  10  11
ATOM     11  C   UNL     1       1.656  -9.946 -41.738  1.00  0.00     0.053 C 
BRANCH  11  12
ATOM     12  C   UNL     1       2.643 -11.069 -41.715  1.00  0.00     0.041 C 
ATOM     13  O   UNL     1       3.879 -10.828 -41.730  1.00  0.00    -0.550 OA
ATOM     14  O   UNL     1       2.199 -12.385 -41.725  1.00  0.00    -0.550 OA
ENDBRANCH  11  12
ENDBRANCH  10  11
ENDBRANCH   9  10
ENDBRANCH   8   9
ENDBRANCH   1   8
TORSDOF 9
ENDMDL
MODEL 8
REMARK VINA RESULT:    -3.508      2.875      6.568
REMARK INTER + INTRA:          -6.183
REMARK INTER:                  -5.587
REMARK INTRA:                  -0.596
REMARK UNBOUND:                -0.830
REMARK SMILES O=C([O-])CCCCCCCCC(=O)[O-]
REMARK SMILES IDX 7 1 6 2 5 3 4 4 2 5 1 6 3 7 8 8 9 9 10 10 11 11 12 12 13 13
REMARK SMILES IDX 14 14
REMARK H PARENT
REMARK Flexibility Score: inf
ROOT
ATOM      1  C   UNL     1      -1.324  -7.252 -38.625  1.00  0.00     0.000 C 
ENDROOT
BRANCH   1   2
ATOM      2  C   UNL     1      -1.534  -8.387 -39.633  1.00  0.00     0.000 C 
BRANCH   2   3
ATOM      3  C   UNL     1      -0.413  -9.431 -39.529  1.00  0.00     0.006 C 
BRANCH   3   4
ATOM      4  C   UNL     1       0.238  -9.722 -40.888  1.00  0.00     0.053 C 
BRANCH   4   5
ATOM      5  C   UNL     1      -0.044 -11.119 -41.349  1.00  0.00     0.041 C 
ATOM      6  O   UNL     1       0.015 -12.080 -40.537  1.00  0.00    -0.550 OA
ATOM      7  O   UNL     1      -0.403 -11.356 -42.670  1.00  0.00    -0.550 OA
ENDBRANCH   4   5
ENDBRANCH   3   4
ENDBRANCH   2   3
ENDBRANCH   1   2
BRANCH   1   8
ATOM      8  C   UNL     1      -0.359  -7.677 -37.509  1.00  0.00     0.000 C 
BRANCH   8   9
ATOM      9  C   UNL     1      -0.945  -7.476 -36.098  1.00  0.00     0.000 C 
BRANCH   9  10
ATOM     10  C   UNL     1      -1.315  -8.774 -35.358  1.00  0.00     0.006 C 
BRANCH  10  11
ATOM     11  C   UNL     1      -0.314  -9.910 -35.606  1.00  0.00     0.053 C 
BRANCH  11  12
ATOM     12  C   UNL     1      -0.434 -10.953 -34.540  1.00  0.00     0.041 C 
ATOM     13  O   UNL     1      -0.994 -10.679 -33.446  1.00  0.00    -0.550 OA
ATOM     14  O   UNL     1       0.116 -12.213 -34.736  1.00  0.00    -0.550 OA
ENDBRANCH  11  12
ENDBRANCH  10  11
ENDBRANCH   9  10
ENDBRANCH   8   9
ENDBRANCH   1   8
TORSDOF 9
ENDMDL
MODEL 9
REMARK VINA RESULT:    -3.466      2.952      3.869
REMARK INTER + INTRA:          -6.118
REMARK INTER:                  -5.464
REMARK INTRA:                  -0.654
REMARK UNBOUND:                -0.830
REMARK SMILES O=C([O-])CCCCCCCCC(=O)[O-]
REMARK SMILES IDX 7 1 6 2 5 3 4 4 2 5 1 6 3 7 8 8 9 9 10 10 11 11 12 12 13 13
REMARK SMILES IDX 14 14
REMARK H PARENT
REMARK Flexibility Score: inf
ROOT
ATOM      1  C   UNL     1      -2.562  -8.359 -40.610  1.00  0.00     0.000 C 
ENDROOT
BRANCH   1   2
ATOM      2  C   UNL     1      -1.336  -8.400 -39.692  1.00  0.00     0.000 C 
BRANCH   2   3
ATOM      3  C   UNL     1      -1.432  -7.330 -38.594  1.00  0.00     0.006 C 
BRANCH   3   4
ATOM      4  C   UNL     1      -0.324  -7.474 -37.542  1.00  0.00     0.053 C 
BRANCH   4   5
ATOM      5  C   UNL     1      -0.725  -8.407 -36.441  1.00  0.00     0.041 C 
ATOM      6  O   UNL     1      -0.354  -9.610 -36.461  1.00  0.00    -0.550 OA
ATOM      7  O   UNL     1      -1.482  -7.938 -35.374  1.00  0.00    -0.550 OA
ENDBRANCH   4   5
ENDBRANCH   3   4
ENDBRANCH   2   3
ENDBRANCH   1   2
BRANCH   1   8
ATOM      8  C   UNL     1      -2.215  -8.873 -42.015  1.00  0.00     0.000 C 
BRANCH   8   9
ATOM      9  C   UNL     1      -0.790  -9.451 -42.109  1.00  0.00     0.000 C 
BRANCH   9  10
ATOM     10  C   UNL     1      -0.720 -10.965 -42.376  1.00  0.00     0.006 C 
BRANCH  10  11
ATOM     11  C   UNL     1      -2.097 -11.641 -42.357  1.00  0.00     0.053 C 
BRANCH  11  12
ATOM     12  C   UNL     1      -2.262 -12.454 -41.112  1.00  0.00     0.041 C 
ATOM     13  O   UNL     1      -2.744 -13.616 -41.172  1.00  0.00    -0.550 OA
ATOM     14  O   UNL     1      -1.928 -11.911 -39.879  1.00  0.00    -0.550 OA
ENDBRANCH  11  12
ENDBRANCH  10  11
ENDBRANCH   9  10
ENDBRANCH   8   9
ENDBRANCH   1   8
TORSDOF 9
ENDMDL
