MODEL 1
REMARK VINA RESULT:    -3.491      0.000      0.000
REMARK INTER + INTRA:          -3.797
REMARK INTER:                  -3.797
REMARK INTRA:                   0.000
REMARK UNBOUND:                 0.000
REMARK SMILES Oc1cccc(O)c1O
REMARK SMILES IDX 4 1 5 2 6 3 8 4 2 5 3 6 7 7 1 9 9 11
REMARK H PARENT 7 8 1 10 9 12
REMARK Flexibility Score: inf
ROOT
ATOM      1  C   UNL     1     134.158 118.595 106.799  1.00  0.00     0.008 A 
ATOM      2  C   UNL     1     133.044 119.431 106.870  1.00  0.00     0.050 A 
ATOM      3  C   UNL     1     131.929 119.055 107.631  1.00  0.00     0.161 A 
ATOM      4  C   UNL     1     131.927 117.836 108.328  1.00  0.00     0.200 A 
ATOM      5  C   UNL     1     133.062 116.990 108.254  1.00  0.00     0.161 A 
ATOM      6  C   UNL     1     134.166 117.382 107.488  1.00  0.00     0.050 A 
ENDROOT
BRANCH   3   7
ATOM      7  O   UNL     1     130.815 119.890 107.701  1.00  0.00    -0.504 OA
ATOM      8  H   UNL     1     130.345 120.076 108.580  1.00  0.00     0.293 HD
ENDBRANCH   3   7
BRANCH   5   9
ATOM      9  O   UNL     1     133.132 115.763 108.919  1.00  0.00    -0.504 OA
ATOM     10  H   UNL     1     132.894 115.632 109.891  1.00  0.00     0.293 HD
ENDBRANCH   5   9
BRANCH   4  11
ATOM     11  O   UNL     1     130.792 117.507 109.073  1.00  0.00    -0.502 OA
ATOM     12  H   UNL     1     129.849 117.542 108.711  1.00  0.00     0.293 HD
ENDBRANCH   4  11
TORSDOF 3
ENDMDL
MODEL 2
REMARK VINA RESULT:    -3.480     13.555     14.621
REMARK INTER + INTRA:          -3.785
REMARK INTER:                  -3.785
REMARK INTRA:                   0.000
REMARK UNBOUND:                 0.000
REMARK SMILES Oc1cccc(O)c1O
REMARK SMILES IDX 4 1 5 2 6 3 8 4 2 5 3 6 7 7 1 9 9 11
REMARK H PARENT 7 8 1 10 9 12
REMARK Flexibility Score: inf
ROOT
ATOM      1  C   UNL     1     117.108 114.879 108.404  1.00  0.00     0.008 A 
ATOM      2  C   UNL     1     117.799 114.916 107.193  1.00  0.00     0.050 A 
ATOM      3  C   UNL     1     118.696 115.959 106.926  1.00  0.00     0.161 A 
ATOM      4  C   UNL     1     118.906 116.971 107.876  1.00  0.00     0.200 A 
ATOM      5  C   UNL     1     118.203 116.929 109.106  1.00  0.00     0.161 A 
ATOM      6  C   UNL     1     117.310 115.881 109.355  1.00  0.00     0.050 A 
ENDROOT
BRANCH   3   7
ATOM      7  O   UNL     1     119.386 115.996 105.716  1.00  0.00    -0.504 OA
ATOM      8  H   UNL     1     119.800 116.853 105.366  1.00  0.00     0.293 HD
ENDBRANCH   3   7
BRANCH   5   9
ATOM      9  O   UNL     1     118.360 117.900 110.098  1.00  0.00    -0.504 OA
ATOM     10  H   UNL     1     119.055 117.856 110.828  1.00  0.00     0.293 HD
ENDBRANCH   5   9
BRANCH   4  11
ATOM     11  O   UNL     1     119.811 117.989 107.563  1.00  0.00    -0.502 OA
ATOM     12  H   UNL     1     119.567 118.967 107.517  1.00  0.00     0.293 HD
ENDBRANCH   4  11
TORSDOF 3
ENDMDL
MODEL 3
REMARK VINA RESULT:    -3.477      0.154      2.819
REMARK INTER + INTRA:          -3.782
REMARK INTER:                  -3.782
REMARK INTRA:                   0.000
REMARK UNBOUND:                 0.000
REMARK SMILES Oc1cccc(O)c1O
REMARK SMILES IDX 4 1 5 2 6 3 8 4 2 5 3 6 7 7 1 9 9 11
REMARK H PARENT 7 8 1 10 9 12
REMARK Flexibility Score: inf
ROOT
ATOM      1  C   UNL     1     134.210 118.634 106.692  1.00  0.00     0.008 A 
ATOM      2  C   UNL     1     134.278 117.419 107.374  1.00  0.00     0.050 A 
ATOM      3  C   UNL     1     133.204 116.998 108.170  1.00  0.00     0.161 A 
ATOM      4  C   UNL     1     132.054 117.795 108.284  1.00  0.00     0.200 A 
ATOM      5  C   UNL     1     131.989 119.029 107.589  1.00  0.00     0.161 A 
ATOM      6  C   UNL     1     133.072 119.433 106.800  1.00  0.00     0.050 A 
ENDROOT
BRANCH   3   7
ATOM      7  O   UNL     1     133.272 115.784 108.851  1.00  0.00    -0.504 OA
ATOM      8  H   UNL     1     132.441 115.329 109.212  1.00  0.00     0.293 HD
ENDBRANCH   3   7
BRANCH   5   9
ATOM      9  O   UNL     1     130.879 119.874 107.656  1.00  0.00    -0.504 OA
ATOM     10  H   UNL     1     130.118 119.862 106.992  1.00  0.00     0.293 HD
ENDBRANCH   5   9
BRANCH   4  11
ATOM     11  O   UNL     1     131.011 117.331 109.090  1.00  0.00    -0.502 OA
ATOM     12  H   UNL     1     130.257 117.911 109.428  1.00  0.00     0.293 HD
ENDBRANCH   4  11
TORSDOF 3
ENDMDL
MODEL 4
REMARK VINA RESULT:    -3.467     19.185     20.766
REMARK INTER + INTRA:          -3.771
REMARK INTER:                  -3.771
REMARK INTRA:                   0.000
REMARK UNBOUND:                 0.000
REMARK SMILES Oc1cccc(O)c1O
REMARK SMILES IDX 4 1 5 2 6 3 8 4 2 5 3 6 7 7 1 9 9 11
REMARK H PARENT 7 8 1 10 9 12
REMARK Flexibility Score: inf
ROOT
ATOM      1  C   UNL     1     114.875 130.481 106.846  1.00  0.00     0.008 A 
ATOM      2  C   UNL     1     114.883 131.693 107.536  1.00  0.00     0.050 A 
ATOM      3  C   UNL     1     116.003 132.065 108.292  1.00  0.00     0.161 A 
ATOM      4  C   UNL     1     117.123 131.222 108.358  1.00  0.00     0.200 A 
ATOM      5  C   UNL     1     117.111 129.991 107.655  1.00  0.00     0.161 A 
ATOM      6  C   UNL     1     115.983 129.635 106.906  1.00  0.00     0.050 A 
ENDROOT
BRANCH   3   7
ATOM      7  O   UNL     1     116.010 133.276 108.981  1.00  0.00    -0.504 OA
ATOM      8  H   UNL     1     115.709 134.139 108.543  1.00  0.00     0.293 HD
ENDBRANCH   3   7
BRANCH   5   9
ATOM      9  O   UNL     1     118.188 129.101 107.674  1.00  0.00    -0.504 OA
ATOM     10  H   UNL     1     119.147 129.370 107.512  1.00  0.00     0.293 HD
ENDBRANCH   5   9
BRANCH   4  11
ATOM     11  O   UNL     1     118.214 131.638 109.125  1.00  0.00    -0.502 OA
ATOM     12  H   UNL     1     118.147 131.937 110.087  1.00  0.00     0.293 HD
ENDBRANCH   4  11
TORSDOF 3
ENDMDL
MODEL 5
REMARK VINA RESULT:    -3.465      1.415      2.325
REMARK INTER + INTRA:          -3.769
REMARK INTER:                  -3.769
REMARK INTRA:                   0.000
REMARK UNBOUND:                 0.000
REMARK SMILES Oc1cccc(O)c1O
REMARK SMILES IDX 4 1 5 2 6 3 8 4 2 5 3 6 7 7 1 9 9 11
REMARK H PARENT 7 8 1 10 9 12
REMARK Flexibility Score: inf
ROOT
ATOM      1  C   UNL     1     134.140 117.148 108.431  1.00  0.00     0.008 A 
ATOM      2  C   UNL     1     134.094 117.815 107.207  1.00  0.00     0.050 A 
ATOM      3  C   UNL     1     133.037 118.689 106.921  1.00  0.00     0.161 A 
ATOM      4  C   UNL     1     132.019 118.900 107.864  1.00  0.00     0.200 A 
ATOM      5  C   UNL     1     132.069 118.220 109.107  1.00  0.00     0.161 A 
ATOM      6  C   UNL     1     133.132 117.350 109.375  1.00  0.00     0.050 A 
ENDROOT
BRANCH   3   7
ATOM      7  O   UNL     1     132.991 119.356 105.698  1.00  0.00    -0.504 OA
ATOM      8  H   UNL     1     132.146 119.810 105.371  1.00  0.00     0.293 HD
ENDBRANCH   3   7
BRANCH   5   9
ATOM      9  O   UNL     1     131.093 118.379 110.094  1.00  0.00    -0.504 OA
ATOM     10  H   UNL     1     131.201 118.965 110.908  1.00  0.00     0.293 HD
ENDBRANCH   5   9
BRANCH   4  11
ATOM     11  O   UNL     1     130.987 119.781 107.532  1.00  0.00    -0.502 OA
ATOM     12  H   UNL     1     130.060 119.743 107.931  1.00  0.00     0.293 HD
ENDBRANCH   4  11
TORSDOF 3
ENDMDL
MODEL 6
REMARK VINA RESULT:    -3.459     13.742     14.900
REMARK INTER + INTRA:          -3.762
REMARK INTER:                  -3.762
REMARK INTRA:                   0.000
REMARK UNBOUND:                 0.000
REMARK SMILES Oc1cccc(O)c1O
REMARK SMILES IDX 4 1 5 2 6 3 8 4 2 5 3 6 7 7 1 9 9 11
REMARK H PARENT 7 8 1 10 9 12
REMARK Flexibility Score: inf
ROOT
ATOM      1  C   UNL     1     130.296 134.344 106.975  1.00  0.00     0.008 A 
ATOM      2  C   UNL     1     129.476 133.216 106.976  1.00  0.00     0.050 A 
ATOM      3  C   UNL     1     129.901 132.037 107.604  1.00  0.00     0.161 A 
ATOM      4  C   UNL     1     131.153 131.985 108.236  1.00  0.00     0.200 A 
ATOM      5  C   UNL     1     131.983 133.134 108.233  1.00  0.00     0.161 A 
ATOM      6  C   UNL     1     131.542 134.302 107.600  1.00  0.00     0.050 A 
ENDROOT
BRANCH   3   7
ATOM      7  O   UNL     1     129.081 130.910 107.605  1.00  0.00    -0.504 OA
ATOM      8  H   UNL     1     128.405 130.745 108.342  1.00  0.00     0.293 HD
ENDBRANCH   3   7
BRANCH   5   9
ATOM      9  O   UNL     1     133.241 133.157 108.841  1.00  0.00    -0.504 OA
ATOM     10  H   UNL     1     134.060 132.702 108.465  1.00  0.00     0.293 HD
ENDBRANCH   5   9
BRANCH   4  11
ATOM     11  O   UNL     1     131.531 130.787 108.848  1.00  0.00    -0.502 OA
ATOM     12  H   UNL     1     130.910 130.002 108.984  1.00  0.00     0.293 HD
ENDBRANCH   4  11
TORSDOF 3
ENDMDL
MODEL 7
REMARK VINA RESULT:    -3.455     19.168     20.902
REMARK INTER + INTRA:          -3.758
REMARK INTER:                  -3.758
REMARK INTRA:                   0.000
REMARK UNBOUND:                 0.000
REMARK SMILES Oc1cccc(O)c1O
REMARK SMILES IDX 4 1 5 2 6 3 8 4 2 5 3 6 7 7 1 9 9 11
REMARK H PARENT 7 8 1 10 9 12
REMARK Flexibility Score: inf
ROOT
ATOM      1  C   UNL     1     114.879 130.490 106.879  1.00  0.00     0.008 A 
ATOM      2  C   UNL     1     115.972 129.625 106.930  1.00  0.00     0.050 A 
ATOM      3  C   UNL     1     117.112 129.974 107.668  1.00  0.00     0.161 A 
ATOM      4  C   UNL     1     117.159 131.194 108.361  1.00  0.00     0.200 A 
ATOM      5  C   UNL     1     116.046 132.070 108.307  1.00  0.00     0.161 A 
ATOM      6  C   UNL     1     114.917 131.705 107.564  1.00  0.00     0.050 A 
ENDROOT
BRANCH   3   7
ATOM      7  O   UNL     1     118.204 129.110 107.719  1.00  0.00    -0.504 OA
ATOM      8  H   UNL     1     118.929 129.128 107.012  1.00  0.00     0.293 HD
ENDBRANCH   3   7
BRANCH   5   9
ATOM      9  O   UNL     1     116.021 133.300 108.969  1.00  0.00    -0.504 OA
ATOM     10  H   UNL     1     115.531 133.465 109.836  1.00  0.00     0.293 HD
ENDBRANCH   5   9
BRANCH   4  11
ATOM     11  O   UNL     1     118.317 131.495 109.082  1.00  0.00    -0.502 OA
ATOM     12  H   UNL     1     118.645 130.960 109.873  1.00  0.00     0.293 HD
ENDBRANCH   4  11
TORSDOF 3
ENDMDL
MODEL 8
REMARK VINA RESULT:    -3.448     13.785     14.934
REMARK INTER + INTRA:          -3.750
REMARK INTER:                  -3.750
REMARK INTRA:                   0.000
REMARK UNBOUND:                 0.000
REMARK SMILES Oc1cccc(O)c1O
REMARK SMILES IDX 4 1 5 2 6 3 8 4 2 5 3 6 7 7 1 9 9 11
REMARK H PARENT 7 8 1 10 9 12
REMARK Flexibility Score: inf
ROOT
ATOM      1  C   UNL     1     130.265 134.332 106.958  1.00  0.00     0.008 A 
ATOM      2  C   UNL     1     131.513 134.325 107.579  1.00  0.00     0.050 A 
ATOM      3  C   UNL     1     131.974 133.168 108.221  1.00  0.00     0.161 A 
ATOM      4  C   UNL     1     131.183 132.009 108.241  1.00  0.00     0.200 A 
ATOM      5  C   UNL     1     129.914 132.019 107.609  1.00  0.00     0.161 A 
ATOM      6  C   UNL     1     129.470 133.185 106.974  1.00  0.00     0.050 A 
ENDROOT
BRANCH   3   7
ATOM      7  O   UNL     1     133.222 133.161 108.841  1.00  0.00    -0.504 OA
ATOM      8  H   UNL     1     133.556 132.354 109.355  1.00  0.00     0.293 HD
ENDBRANCH   3   7
BRANCH   5   9
ATOM      9  O   UNL     1     129.072 130.905 107.588  1.00  0.00    -0.504 OA
ATOM     10  H   UNL     1     129.342 129.986 107.906  1.00  0.00     0.293 HD
ENDBRANCH   5   9
BRANCH   4  11
ATOM     11  O   UNL     1     131.687 130.880 108.893  1.00  0.00    -0.502 OA
ATOM     12  H   UNL     1     132.671 130.671 108.980  1.00  0.00     0.293 HD
ENDBRANCH   4  11
TORSDOF 3
ENDMDL
MODEL 9
REMARK VINA RESULT:    -3.423     13.509     14.477
REMARK INTER + INTRA:          -3.723
REMARK INTER:                  -3.723
REMARK INTRA:                   0.000
REMARK UNBOUND:                 0.000
REMARK SMILES Oc1cccc(O)c1O
REMARK SMILES IDX 4 1 5 2 6 3 8 4 2 5 3 6 7 7 1 9 9 11
REMARK H PARENT 7 8 1 10 9 12
REMARK Flexibility Score: inf
ROOT
ATOM      1  C   UNL     1     117.240 114.948 108.501  1.00  0.00     0.008 A 
ATOM      2  C   UNL     1     117.447 115.976 109.421  1.00  0.00     0.050 A 
ATOM      3  C   UNL     1     118.307 117.037 109.108  1.00  0.00     0.161 A 
ATOM      4  C   UNL     1     118.964 117.073 107.868  1.00  0.00     0.200 A 
ATOM      5  C   UNL     1     118.751 116.026 106.936  1.00  0.00     0.161 A 
ATOM      6  C   UNL     1     117.889 114.974 107.266  1.00  0.00     0.050 A 
ENDROOT
BRANCH   3   7
ATOM      7  O   UNL     1     118.514 118.064 110.027  1.00  0.00    -0.504 OA
ATOM      8  H   UNL     1     119.438 118.440 110.206  1.00  0.00     0.293 HD
ENDBRANCH   3   7
BRANCH   5   9
ATOM      9  O   UNL     1     119.369 115.993 105.684  1.00  0.00    -0.504 OA
ATOM     10  H   UNL     1     119.162 116.635 104.933  1.00  0.00     0.293 HD
ENDBRANCH   5   9
BRANCH   4  11
ATOM     11  O   UNL     1     119.811 118.152 107.604  1.00  0.00    -0.502 OA
ATOM     12  H   UNL     1     119.502 119.031 107.216  1.00  0.00     0.293 HD
ENDBRANCH   4  11
TORSDOF 3
ENDMDL
