MODEL 1
REMARK VINA RESULT:    12.056      0.000      0.000
REMARK INTER + INTRA:          17.576
REMARK INTER:                  18.400
REMARK INTRA:                  -0.824
REMARK UNBOUND:                -0.824
REMARK SMILES CC(=O)CCC=C(C)CCC=C(C)CCC=C(C)C
REMARK SMILES IDX 10 1 11 2 12 3 13 4 14 5 15 6 16 7 18 8 17 9 19 10 9 11 7 12
REMARK SMILES IDX 6 13 8 14 5 15 4 16 2 17 3 18 1 19
REMARK H PARENT
REMARK Flexibility Score: inf
ROOT
ATOM      1  C   UNL     1      34.077   8.727  40.003  1.00  0.00     0.032 C 
ENDROOT
BRANCH   1   2
ATOM      2  C   UNL     1      33.371   7.465  40.432  1.00  0.00    -0.028 C 
ATOM      3  C   UNL     1      33.976   6.423  41.048  1.00  0.00    -0.077 C 
ATOM      4  C   UNL     1      35.460   6.413  41.331  1.00  0.00     0.039 C 
BRANCH   3   5
ATOM      5  C   UNL     1      33.155   5.205  41.420  1.00  0.00     0.034 C 
BRANCH   5   6
ATOM      6  C   UNL     1      31.843   5.141  40.628  1.00  0.00     0.032 C 
BRANCH   6   7
ATOM      7  C   UNL     1      30.673   4.813  41.526  1.00  0.00    -0.028 C 
ATOM      8  C   UNL     1      29.602   7.063  41.258  1.00  0.00     0.039 C 
ATOM      9  C   UNL     1      29.672   5.672  41.832  1.00  0.00    -0.080 C 
ATOM     10  C   UNL     1      28.594   5.250  42.797  1.00  0.00     0.039 C 
ENDBRANCH   6   7
ENDBRANCH   5   6
ENDBRANCH   3   5
ENDBRANCH   1   2
BRANCH   1  11
ATOM     11  C   UNL     1      33.071   9.858  39.762  1.00  0.00     0.034 C 
BRANCH  11  12
ATOM     12  C   UNL     1      33.365  11.038  40.662  1.00  0.00    -0.077 C 
ATOM     13  C   UNL     1      34.191  12.013  40.222  1.00  0.00    -0.028 C 
ATOM     14  C   UNL     1      32.738  11.098  42.035  1.00  0.00     0.039 C 
BRANCH  13  15
ATOM     15  C   UNL     1      34.545  13.228  41.046  1.00  0.00     0.035 C 
BRANCH  15  16
ATOM     16  C   UNL     1      35.485  12.857  42.203  1.00  0.00     0.079 C 
BRANCH  16  17
ATOM     17  C   UNL     1      35.891  14.024  43.076  1.00  0.00     0.130 C 
ATOM     18  O   UNL     1      36.979  13.983  43.629  1.00  0.00    -0.300 OA
ATOM     19  C   UNL     1      35.016  15.229  43.292  1.00  0.00     0.087 C 
ENDBRANCH  16  17
ENDBRANCH  15  16
ENDBRANCH  13  15
ENDBRANCH  11  12
ENDBRANCH   1  11
TORSDOF 9
ENDMDL
MODEL 2
REMARK VINA RESULT:    12.182      2.789      8.250
REMARK INTER + INTRA:          17.767
REMARK INTER:                  18.567
REMARK INTRA:                  -0.799
REMARK UNBOUND:                -0.824
REMARK SMILES CC(=O)CCC=C(C)CCC=C(C)CCC=C(C)C
REMARK SMILES IDX 10 1 11 2 12 3 13 4 14 5 15 6 16 7 18 8 17 9 19 10 9 11 7 12
REMARK SMILES IDX 6 13 8 14 5 15 4 16 2 17 3 18 1 19
REMARK H PARENT
REMARK Flexibility Score: inf
ROOT
ATOM      1  C   UNL     1      33.246   8.820  39.927  1.00  0.00     0.032 C 
ENDROOT
BRANCH   1   2
ATOM      2  C   UNL     1      33.809  10.216  39.841  1.00  0.00    -0.028 C 
ATOM      3  C   UNL     1      33.534  11.207  40.720  1.00  0.00    -0.077 C 
ATOM      4  C   UNL     1      32.580  11.010  41.874  1.00  0.00     0.039 C 
BRANCH   3   5
ATOM      5  C   UNL     1      34.159  12.572  40.516  1.00  0.00     0.034 C 
BRANCH   5   6
ATOM      6  C   UNL     1      35.218  12.878  41.583  1.00  0.00     0.032 C 
BRANCH   6   7
ATOM      7  C   UNL     1      34.859  14.112  42.377  1.00  0.00    -0.028 C 
ATOM      8  C   UNL     1      37.027  14.156  43.633  1.00  0.00     0.039 C 
ATOM      9  C   UNL     1      35.652  14.683  43.313  1.00  0.00    -0.080 C 
ATOM     10  C   UNL     1      35.153  15.874  44.091  1.00  0.00     0.039 C 
ENDBRANCH   6   7
ENDBRANCH   5   6
ENDBRANCH   3   5
ENDBRANCH   1   2
BRANCH   1  11
ATOM     11  C   UNL     1      34.371   7.779  39.965  1.00  0.00     0.034 C 
BRANCH  11  12
ATOM     12  C   UNL     1      33.938   6.548  40.730  1.00  0.00    -0.077 C 
ATOM     13  C   UNL     1      32.632   6.201  40.736  1.00  0.00    -0.028 C 
ATOM     14  C   UNL     1      34.970   5.739  41.479  1.00  0.00     0.039 C 
BRANCH  13  15
ATOM     15  C   UNL     1      32.102   4.993  41.470  1.00  0.00     0.035 C 
BRANCH  15  16
ATOM     16  C   UNL     1      30.616   4.764  41.159  1.00  0.00     0.079 C 
BRANCH  16  17
ATOM     17  C   UNL     1      29.673   5.680  41.908  1.00  0.00     0.130 C 
ATOM     18  O   UNL     1      29.221   5.299  42.976  1.00  0.00    -0.300 OA
ATOM     19  C   UNL     1      29.269   7.036  41.395  1.00  0.00     0.087 C 
ENDBRANCH  16  17
ENDBRANCH  15  16
ENDBRANCH  13  15
ENDBRANCH  11  12
ENDBRANCH   1  11
TORSDOF 9
ENDMDL
MODEL 3
REMARK VINA RESULT:    12.395      3.916      7.415
REMARK INTER + INTRA:          18.093
REMARK INTER:                  19.005
REMARK INTRA:                  -0.913
REMARK UNBOUND:                -0.824
REMARK SMILES CC(=O)CCC=C(C)CCC=C(C)CCC=C(C)C
REMARK SMILES IDX 10 1 11 2 12 3 13 4 14 5 15 6 16 7 18 8 17 9 19 10 9 11 7 12
REMARK SMILES IDX 6 13 8 14 5 15 4 16 2 17 3 18 1 19
REMARK H PARENT
REMARK Flexibility Score: inf
ROOT
ATOM      1  C   UNL     1      35.191  16.105  43.779  1.00  0.00     0.032 C 
ENDROOT
BRANCH   1   2
ATOM      2  C   UNL     1      34.927  14.814  43.047  1.00  0.00    -0.028 C 
ATOM      3  C   UNL     1      35.779  13.762  43.020  1.00  0.00    -0.077 C 
ATOM      4  C   UNL     1      37.125  13.806  43.704  1.00  0.00     0.039 C 
BRANCH   3   5
ATOM      5  C   UNL     1      35.398  12.522  42.238  1.00  0.00     0.034 C 
BRANCH   5   6
ATOM      6  C   UNL     1      34.481  12.855  41.055  1.00  0.00     0.032 C 
BRANCH   6   7
ATOM      7  C   UNL     1      34.134  11.617  40.261  1.00  0.00    -0.028 C 
ATOM      8  C   UNL     1      32.260  10.945  41.783  1.00  0.00     0.039 C 
ATOM      9  C   UNL     1      33.154  10.742  40.587  1.00  0.00    -0.080 C 
ATOM     10  C   UNL     1      32.949   9.504  39.753  1.00  0.00     0.039 C 
ENDBRANCH   6   7
ENDBRANCH   5   6
ENDBRANCH   3   5
ENDBRANCH   1   2
BRANCH   1  11
ATOM     11  C   UNL     1      34.082  17.126  43.501  1.00  0.00     0.034 C 
BRANCH  11  12
ATOM     12  C   UNL     1      34.391  17.931  42.258  1.00  0.00    -0.077 C 
ATOM     13  C   UNL     1      33.671  17.714  41.136  1.00  0.00    -0.028 C 
ATOM     14  C   UNL     1      35.505  18.951  42.293  1.00  0.00     0.039 C 
BRANCH  13  15
ATOM     15  C   UNL     1      33.905  18.465  39.848  1.00  0.00     0.035 C 
BRANCH  15  16
ATOM     16  C   UNL     1      33.259  17.740  38.658  1.00  0.00     0.079 C 
BRANCH  16  17
ATOM     17  C   UNL     1      31.975  18.370  38.164  1.00  0.00     0.130 C 
ATOM     18  O   UNL     1      31.727  19.518  38.499  1.00  0.00    -0.300 OA
ATOM     19  C   UNL     1      30.994  17.646  37.283  1.00  0.00     0.087 C 
ENDBRANCH  16  17
ENDBRANCH  15  16
ENDBRANCH  13  15
ENDBRANCH  11  12
ENDBRANCH   1  11
TORSDOF 9
ENDMDL
MODEL 4
REMARK VINA RESULT:    12.425      4.023      9.637
REMARK INTER + INTRA:          18.138
REMARK INTER:                  18.657
REMARK INTRA:                  -0.519
REMARK UNBOUND:                -0.824
REMARK SMILES CC(=O)CCC=C(C)CCC=C(C)CCC=C(C)C
REMARK SMILES IDX 10 1 11 2 12 3 13 4 14 5 15 6 16 7 18 8 17 9 19 10 9 11 7 12
REMARK SMILES IDX 6 13 8 14 5 15 4 16 2 17 3 18 1 19
REMARK H PARENT
REMARK Flexibility Score: inf
ROOT
ATOM      1  C   UNL     1      34.003  16.191  43.391  1.00  0.00     0.032 C 
ENDROOT
BRANCH   1   2
ATOM      2  C   UNL     1      34.088  16.717  41.980  1.00  0.00    -0.028 C 
ATOM      3  C   UNL     1      34.639  17.905  41.639  1.00  0.00    -0.077 C 
ATOM      4  C   UNL     1      35.195  18.855  42.674  1.00  0.00     0.039 C 
BRANCH   3   5
ATOM      5  C   UNL     1      34.654  18.323  40.183  1.00  0.00     0.034 C 
BRANCH   5   6
ATOM      6  C   UNL     1      33.475  17.722  39.408  1.00  0.00     0.032 C 
BRANCH   6   7
ATOM      7  C   UNL     1      32.463  18.781  39.035  1.00  0.00    -0.028 C 
ATOM      8  C   UNL     1      31.437  17.415  37.202  1.00  0.00     0.039 C 
ATOM      9  C   UNL     1      31.558  18.664  38.036  1.00  0.00    -0.080 C 
ATOM     10  C   UNL     1      30.646  19.820  37.714  1.00  0.00     0.039 C 
ENDBRANCH   6   7
ENDBRANCH   5   6
ENDBRANCH   3   5
ENDBRANCH   1   2
BRANCH   1  11
ATOM     11  C   UNL     1      35.368  15.676  43.864  1.00  0.00     0.034 C 
BRANCH  11  12
ATOM     12  C   UNL     1      35.730  14.389  43.157  1.00  0.00    -0.077 C 
ATOM     13  C   UNL     1      34.798  13.765  42.404  1.00  0.00    -0.028 C 
ATOM     14  C   UNL     1      37.121  13.822  43.316  1.00  0.00     0.039 C 
BRANCH  13  15
ATOM     15  C   UNL     1      35.063  12.477  41.662  1.00  0.00     0.035 C 
BRANCH  15  16
ATOM     16  C   UNL     1      33.981  12.215  40.604  1.00  0.00     0.079 C 
BRANCH  16  17
ATOM     17  C   UNL     1      33.131  10.992  40.870  1.00  0.00     0.130 C 
ATOM     18  O   UNL     1      32.426  10.982  41.867  1.00  0.00    -0.300 OA
ATOM     19  C   UNL     1      33.115   9.792  39.962  1.00  0.00     0.087 C 
ENDBRANCH  16  17
ENDBRANCH  15  16
ENDBRANCH  13  15
ENDBRANCH  11  12
ENDBRANCH   1  11
TORSDOF 9
ENDMDL
MODEL 5
REMARK VINA RESULT:    12.641      2.657      4.986
REMARK INTER + INTRA:          18.468
REMARK INTER:                  19.139
REMARK INTRA:                  -0.672
REMARK UNBOUND:                -0.824
REMARK SMILES CC(=O)CCC=C(C)CCC=C(C)CCC=C(C)C
REMARK SMILES IDX 10 1 11 2 12 3 13 4 14 5 15 6 16 7 18 8 17 9 19 10 9 11 7 12
REMARK SMILES IDX 6 13 8 14 5 15 4 16 2 17 3 18 1 19
REMARK H PARENT
REMARK Flexibility Score: inf
ROOT
ATOM      1  C   UNL     1      34.499  13.074  40.955  1.00  0.00     0.032 C 
ENDROOT
BRANCH   1   2
ATOM      2  C   UNL     1      34.058  11.755  40.374  1.00  0.00    -0.028 C 
ATOM      3  C   UNL     1      33.089  10.972  40.903  1.00  0.00    -0.077 C 
ATOM      4  C   UNL     1      32.373  11.340  42.181  1.00  0.00     0.039 C 
BRANCH   3   5
ATOM      5  C   UNL     1      32.744   9.662  40.225  1.00  0.00     0.034 C 
BRANCH   5   6
ATOM      6  C   UNL     1      33.971   9.026  39.561  1.00  0.00     0.032 C 
BRANCH   6   7
ATOM      7  C   UNL     1      34.972   8.552  40.589  1.00  0.00    -0.028 C 
ATOM      8  C   UNL     1      34.123   6.194  40.595  1.00  0.00     0.039 C 
ATOM      9  C   UNL     1      35.038   7.291  41.076  1.00  0.00    -0.080 C 
ATOM     10  C   UNL     1      36.037   6.956  42.153  1.00  0.00     0.039 C 
ENDBRANCH   6   7
ENDBRANCH   5   6
ENDBRANCH   3   5
ENDBRANCH   1   2
BRANCH   1  11
ATOM     11  C   UNL     1      35.750  12.895  41.824  1.00  0.00     0.034 C 
BRANCH  11  12
ATOM     12  C   UNL     1      35.830  13.977  42.878  1.00  0.00    -0.077 C 
ATOM     13  C   UNL     1      34.877  14.934  42.915  1.00  0.00    -0.028 C 
ATOM     14  C   UNL     1      36.979  13.973  43.860  1.00  0.00     0.039 C 
BRANCH  13  15
ATOM     15  C   UNL     1      34.871  16.054  43.927  1.00  0.00     0.035 C 
BRANCH  15  16
ATOM     16  C   UNL     1      36.027  17.034  43.675  1.00  0.00     0.079 C 
BRANCH  16  17
ATOM     17  C   UNL     1      35.603  18.479  43.535  1.00  0.00     0.130 C 
ATOM     18  O   UNL     1      35.269  19.085  44.541  1.00  0.00    -0.300 OA
ATOM     19  C   UNL     1      35.573  19.199  42.214  1.00  0.00     0.087 C 
ENDBRANCH  16  17
ENDBRANCH  15  16
ENDBRANCH  13  15
ENDBRANCH  11  12
ENDBRANCH   1  11
TORSDOF 9
ENDMDL
MODEL 6
REMARK VINA RESULT:    13.248      3.116      8.707
REMARK INTER + INTRA:          19.394
REMARK INTER:                  19.800
REMARK INTRA:                  -0.406
REMARK UNBOUND:                -0.824
REMARK SMILES CC(=O)CCC=C(C)CCC=C(C)CCC=C(C)C
REMARK SMILES IDX 10 1 11 2 12 3 13 4 14 5 15 6 16 7 18 8 17 9 19 10 9 11 7 12
REMARK SMILES IDX 6 13 8 14 5 15 4 16 2 17 3 18 1 19
REMARK H PARENT
REMARK Flexibility Score: inf
ROOT
ATOM      1  C   UNL     1      33.039  11.504  41.976  1.00  0.00     0.032 C 
ENDROOT
BRANCH   1   2
ATOM      2  C   UNL     1      34.380  12.054  42.389  1.00  0.00    -0.028 C 
ATOM      3  C   UNL     1      35.083  12.969  41.682  1.00  0.00    -0.077 C 
ATOM      4  C   UNL     1      34.591  13.505  40.358  1.00  0.00     0.039 C 
BRANCH   3   5
ATOM      5  C   UNL     1      36.427  13.435  42.202  1.00  0.00     0.034 C 
BRANCH   5   6
ATOM      6  C   UNL     1      36.328  13.963  43.639  1.00  0.00     0.032 C 
BRANCH   6   7
ATOM      7  C   UNL     1      36.465  15.467  43.684  1.00  0.00    -0.028 C 
ATOM      8  C   UNL     1      33.993  15.877  43.685  1.00  0.00     0.039 C 
ATOM      9  C   UNL     1      35.428  16.337  43.685  1.00  0.00    -0.080 C 
ATOM     10  C   UNL     1      35.695  17.820  43.661  1.00  0.00     0.039 C 
ENDBRANCH   6   7
ENDBRANCH   5   6
ENDBRANCH   3   5
ENDBRANCH   1   2
BRANCH   1  11
ATOM     11  C   UNL     1      33.031  11.151  40.484  1.00  0.00     0.034 C 
BRANCH  11  12
ATOM     12  C   UNL     1      32.630   9.707  40.276  1.00  0.00    -0.077 C 
ATOM     13  C   UNL     1      31.416   9.293  40.701  1.00  0.00    -0.028 C 
ATOM     14  C   UNL     1      33.596   8.757  39.609  1.00  0.00     0.039 C 
BRANCH  13  15
ATOM     15  C   UNL     1      30.926   7.874  40.541  1.00  0.00     0.035 C 
BRANCH  15  16
ATOM     16  C   UNL     1      29.611   7.653  41.302  1.00  0.00     0.079 C 
BRANCH  16  17
ATOM     17  C   UNL     1      29.415   6.242  41.814  1.00  0.00     0.130 C 
ATOM     18  O   UNL     1      28.312   5.925  42.231  1.00  0.00    -0.300 OA
ATOM     19  C   UNL     1      30.516   5.217  41.832  1.00  0.00     0.087 C 
ENDBRANCH  16  17
ENDBRANCH  15  16
ENDBRANCH  13  15
ENDBRANCH  11  12
ENDBRANCH   1  11
TORSDOF 9
ENDMDL
MODEL 7
REMARK VINA RESULT:    13.769      3.138      8.238
REMARK INTER + INTRA:          20.190
REMARK INTER:                  19.067
REMARK INTRA:                   1.122
REMARK UNBOUND:                -0.824
REMARK SMILES CC(=O)CCC=C(C)CCC=C(C)CCC=C(C)C
REMARK SMILES IDX 10 1 11 2 12 3 13 4 14 5 15 6 16 7 18 8 17 9 19 10 9 11 7 12
REMARK SMILES IDX 6 13 8 14 5 15 4 16 2 17 3 18 1 19
REMARK H PARENT
REMARK Flexibility Score: inf
ROOT
ATOM      1  C   UNL     1      33.890   9.287  40.015  1.00  0.00     0.032 C 
ENDROOT
BRANCH   1   2
ATOM      2  C   UNL     1      34.774  10.464  40.337  1.00  0.00    -0.028 C 
ATOM      3  C   UNL     1      34.391  11.759  40.235  1.00  0.00    -0.077 C 
ATOM      4  C   UNL     1      33.019  12.149  39.736  1.00  0.00     0.039 C 
BRANCH   3   5
ATOM      5  C   UNL     1      35.380  12.853  40.580  1.00  0.00     0.034 C 
BRANCH   5   6
ATOM      6  C   UNL     1      35.643  12.925  42.089  1.00  0.00     0.032 C 
BRANCH   6   7
ATOM      7  C   UNL     1      35.059  14.181  42.691  1.00  0.00    -0.028 C 
ATOM      8  C   UNL     1      37.125  14.736  43.996  1.00  0.00     0.039 C 
ATOM      9  C   UNL     1      35.705  14.991  43.562  1.00  0.00    -0.080 C 
ATOM     10  C   UNL     1      34.989  16.181  44.149  1.00  0.00     0.039 C 
ENDBRANCH   6   7
ENDBRANCH   5   6
ENDBRANCH   3   5
ENDBRANCH   1   2
BRANCH   1  11
ATOM     11  C   UNL     1      32.485   9.752  39.617  1.00  0.00     0.034 C 
BRANCH  11  12
ATOM     12  C   UNL     1      31.500   9.506  40.739  1.00  0.00    -0.077 C 
ATOM     13  C   UNL     1      30.629   8.479  40.638  1.00  0.00    -0.028 C 
ATOM     14  C   UNL     1      31.503  10.419  41.942  1.00  0.00     0.039 C 
BRANCH  13  15
ATOM     15  C   UNL     1      29.609   8.154  41.703  1.00  0.00     0.035 C 
BRANCH  15  16
ATOM     16  C   UNL     1      28.882   6.838  41.390  1.00  0.00     0.079 C 
BRANCH  16  17
ATOM     17  C   UNL     1      29.518   5.611  42.006  1.00  0.00     0.130 C 
ATOM     18  O   UNL     1      28.937   5.055  42.924  1.00  0.00    -0.300 OA
ATOM     19  C   UNL     1      30.833   5.048  41.537  1.00  0.00     0.087 C 
ENDBRANCH  16  17
ENDBRANCH  15  16
ENDBRANCH  13  15
ENDBRANCH  11  12
ENDBRANCH   1  11
TORSDOF 9
ENDMDL
MODEL 8
REMARK VINA RESULT:    13.906      3.013      8.214
REMARK INTER + INTRA:          20.398
REMARK INTER:                  21.780
REMARK INTRA:                  -1.381
REMARK UNBOUND:                -0.824
REMARK SMILES CC(=O)CCC=C(C)CCC=C(C)CCC=C(C)C
REMARK SMILES IDX 10 1 11 2 12 3 13 4 14 5 15 6 16 7 18 8 17 9 19 10 9 11 7 12
REMARK SMILES IDX 6 13 8 14 5 15 4 16 2 17 3 18 1 19
REMARK H PARENT
REMARK Flexibility Score: inf
ROOT
ATOM      1  C   UNL     1      34.364  13.084  39.741  1.00  0.00     0.032 C 
ENDROOT
BRANCH   1   2
ATOM      2  C   UNL     1      34.726  13.568  41.122  1.00  0.00    -0.028 C 
ATOM      3  C   UNL     1      35.918  13.345  41.723  1.00  0.00    -0.077 C 
ATOM      4  C   UNL     1      37.007  12.534  41.062  1.00  0.00     0.039 C 
BRANCH   3   5
ATOM      5  C   UNL     1      36.153  13.879  43.121  1.00  0.00     0.034 C 
BRANCH   5   6
ATOM      6  C   UNL     1      34.988  14.755  43.599  1.00  0.00     0.032 C 
BRANCH   6   7
ATOM      7  C   UNL     1      35.459  16.139  43.979  1.00  0.00    -0.028 C 
ATOM      8  C   UNL     1      34.144  17.280  42.177  1.00  0.00     0.039 C 
ATOM      9  C   UNL     1      35.104  17.277  43.338  1.00  0.00    -0.080 C 
ATOM     10  C   UNL     1      35.696  18.594  43.768  1.00  0.00     0.039 C 
ENDBRANCH   6   7
ENDBRANCH   5   6
ENDBRANCH   3   5
ENDBRANCH   1   2
BRANCH   1  11
ATOM     11  C   UNL     1      33.013  12.359  39.754  1.00  0.00     0.034 C 
BRANCH  11  12
ATOM     12  C   UNL     1      33.112  11.054  40.512  1.00  0.00    -0.077 C 
ATOM     13  C   UNL     1      33.674   9.982  39.911  1.00  0.00    -0.028 C 
ATOM     14  C   UNL     1      32.571  10.971  41.920  1.00  0.00     0.039 C 
BRANCH  13  15
ATOM     15  C   UNL     1      33.816   8.638  40.584  1.00  0.00     0.035 C 
BRANCH  15  16
ATOM     16  C   UNL     1      35.290   8.317  40.873  1.00  0.00     0.079 C 
BRANCH  16  17
ATOM     17  C   UNL     1      35.520   6.970  41.523  1.00  0.00     0.130 C 
ATOM     18  O   UNL     1      36.455   6.853  42.299  1.00  0.00    -0.300 OA
ATOM     19  C   UNL     1      34.649   5.772  41.255  1.00  0.00     0.087 C 
ENDBRANCH  16  17
ENDBRANCH  15  16
ENDBRANCH  13  15
ENDBRANCH  11  12
ENDBRANCH   1  11
TORSDOF 9
ENDMDL
MODEL 9
REMARK VINA RESULT:    14.197      1.752      3.333
REMARK INTER + INTRA:          20.842
REMARK INTER:                  21.395
REMARK INTRA:                  -0.553
REMARK UNBOUND:                -0.824
REMARK SMILES CC(=O)CCC=C(C)CCC=C(C)CCC=C(C)C
REMARK SMILES IDX 10 1 11 2 12 3 13 4 14 5 15 6 16 7 18 8 17 9 19 10 9 11 7 12
REMARK SMILES IDX 6 13 8 14 5 15 4 16 2 17 3 18 1 19
REMARK H PARENT
REMARK Flexibility Score: inf
ROOT
ATOM      1  C   UNL     1      33.975  11.671  40.521  1.00  0.00     0.032 C 
ENDROOT
BRANCH   1   2
ATOM      2  C   UNL     1      32.652  11.071  40.920  1.00  0.00    -0.028 C 
ATOM      3  C   UNL     1      32.272   9.802  40.640  1.00  0.00    -0.077 C 
ATOM      4  C   UNL     1      33.148   8.862  39.846  1.00  0.00     0.039 C 
BRANCH   3   5
ATOM      5  C   UNL     1      30.907   9.322  41.090  1.00  0.00     0.034 C 
BRANCH   5   6
ATOM      6  C   UNL     1      30.600   7.913  40.567  1.00  0.00     0.032 C 
BRANCH   6   7
ATOM      7  C   UNL     1      29.562   7.222  41.422  1.00  0.00    -0.028 C 
ATOM      8  C   UNL     1      30.830   5.065  41.541  1.00  0.00     0.039 C 
ATOM      9  C   UNL     1      29.644   5.941  41.849  1.00  0.00    -0.080 C 
ATOM     10  C   UNL     1      28.509   5.342  42.638  1.00  0.00     0.039 C 
ENDBRANCH   6   7
ENDBRANCH   5   6
ENDBRANCH   3   5
ENDBRANCH   1   2
BRANCH   1  11
ATOM     11  C   UNL     1      34.900  11.809  41.736  1.00  0.00     0.034 C 
BRANCH  11  12
ATOM     12  C   UNL     1      35.255  13.259  41.978  1.00  0.00    -0.077 C 
ATOM     13  C   UNL     1      35.959  13.590  43.083  1.00  0.00    -0.028 C 
ATOM     14  C   UNL     1      34.806  14.308  40.988  1.00  0.00     0.039 C 
BRANCH  13  15
ATOM     15  C   UNL     1      36.360  15.008  43.412  1.00  0.00     0.035 C 
BRANCH  15  16
ATOM     16  C   UNL     1      35.164  15.812  43.944  1.00  0.00     0.079 C 
BRANCH  16  17
ATOM     17  C   UNL     1      34.958  17.148  43.266  1.00  0.00     0.130 C 
ATOM     18  O   UNL     1      34.114  17.228  42.387  1.00  0.00    -0.300 OA
ATOM     19  C   UNL     1      35.745  18.379  43.625  1.00  0.00     0.087 C 
ENDBRANCH  16  17
ENDBRANCH  15  16
ENDBRANCH  13  15
ENDBRANCH  11  12
ENDBRANCH   1  11
TORSDOF 9
ENDMDL
