MODEL 1
REMARK VINA RESULT:    -2.787      0.000      0.000
REMARK INTER + INTRA:          -3.311
REMARK INTER:                  -3.276
REMARK INTRA:                  -0.035
REMARK UNBOUND:                -0.035
REMARK SMILES O=C([O-])CCC(=O)[O-]
REMARK SMILES IDX 4 1 2 2 1 3 3 4 5 5 6 6 7 7 8 8
REMARK H PARENT
REMARK Flexibility Score: inf
ROOT
ATOM      1  C   UNL     1      57.908  18.074  50.657  1.00  0.00     0.059 C 
ENDROOT
BRANCH   1   2
ATOM      2  C   UNL     1      56.536  18.265  51.227  1.00  0.00     0.042 C 
ATOM      3  O   UNL     1      55.568  18.536  50.469  1.00  0.00    -0.550 OA
ATOM      4  O   UNL     1      56.335  18.185  52.599  1.00  0.00    -0.550 OA
ENDBRANCH   1   2
BRANCH   1   5
ATOM      5  C   UNL     1      58.249  16.590  50.488  1.00  0.00     0.059 C 
BRANCH   5   6
ATOM      6  C   UNL     1      59.015  16.339  49.225  1.00  0.00     0.042 C 
ATOM      7  O   UNL     1      58.406  16.024  48.168  1.00  0.00    -0.550 OA
ATOM      8  O   UNL     1      60.402  16.412  49.224  1.00  0.00    -0.550 OA
ENDBRANCH   5   6
ENDBRANCH   1   5
TORSDOF 3
ENDMDL
MODEL 2
REMARK VINA RESULT:    -2.784      0.145      4.206
REMARK INTER + INTRA:          -3.307
REMARK INTER:                  -3.277
REMARK INTRA:                  -0.030
REMARK UNBOUND:                -0.035
REMARK SMILES O=C([O-])CCC(=O)[O-]
REMARK SMILES IDX 4 1 2 2 1 3 3 4 5 5 6 6 7 7 8 8
REMARK H PARENT
REMARK Flexibility Score: inf
ROOT
ATOM      1  C   UNL     1      58.362  16.637  50.461  1.00  0.00     0.059 C 
ENDROOT
BRANCH   1   2
ATOM      2  C   UNL     1      59.112  16.297  49.210  1.00  0.00     0.042 C 
ATOM      3  O   UNL     1      60.371  16.329  49.197  1.00  0.00    -0.550 OA
ATOM      4  O   UNL     1      58.420  15.985  48.046  1.00  0.00    -0.550 OA
ENDBRANCH   1   2
BRANCH   1   5
ATOM      5  C   UNL     1      57.878  18.091  50.452  1.00  0.00     0.059 C 
BRANCH   5   6
ATOM      6  C   UNL     1      56.584  18.247  51.190  1.00  0.00     0.042 C 
ATOM      7  O   UNL     1      55.537  18.576  50.570  1.00  0.00    -0.550 OA
ATOM      8  O   UNL     1      56.540  18.070  52.567  1.00  0.00    -0.550 OA
ENDBRANCH   5   6
ENDBRANCH   1   5
TORSDOF 3
ENDMDL
MODEL 3
REMARK VINA RESULT:    -2.725     21.754     22.477
REMARK INTER + INTRA:          -3.239
REMARK INTER:                  -3.207
REMARK INTRA:                  -0.031
REMARK UNBOUND:                -0.035
REMARK SMILES O=C([O-])CCC(=O)[O-]
REMARK SMILES IDX 4 1 2 2 1 3 3 4 5 5 6 6 7 7 8 8
REMARK H PARENT
REMARK Flexibility Score: inf
ROOT
ATOM      1  C   UNL     1      72.340  31.942  60.571  1.00  0.00     0.059 C 
ENDROOT
BRANCH   1   2
ATOM      2  C   UNL     1      71.549  33.113  60.076  1.00  0.00     0.042 C 
ATOM      3  O   UNL     1      71.230  34.041  60.865  1.00  0.00    -0.550 OA
ATOM      4  O   UNL     1      71.126  33.159  58.753  1.00  0.00    -0.550 OA
ENDBRANCH   1   2
BRANCH   1   5
ATOM      5  C   UNL     1      71.679  30.612  60.194  1.00  0.00     0.059 C 
BRANCH   5   6
ATOM      6  C   UNL     1      71.585  29.688  61.370  1.00  0.00     0.042 C 
ATOM      7  O   UNL     1      70.483  29.161  61.673  1.00  0.00    -0.550 OA
ATOM      8  O   UNL     1      72.705  29.443  62.154  1.00  0.00    -0.550 OA
ENDBRANCH   5   6
ENDBRANCH   1   5
TORSDOF 3
ENDMDL
MODEL 4
REMARK VINA RESULT:    -2.719     21.728     22.534
REMARK INTER + INTRA:          -3.232
REMARK INTER:                  -3.201
REMARK INTRA:                  -0.030
REMARK UNBOUND:                -0.035
REMARK SMILES O=C([O-])CCC(=O)[O-]
REMARK SMILES IDX 4 1 2 2 1 3 3 4 5 5 6 6 7 7 8 8
REMARK H PARENT
REMARK Flexibility Score: inf
ROOT
ATOM      1  C   UNL     1      71.595  30.611  60.175  1.00  0.00     0.059 C 
ENDROOT
BRANCH   1   2
ATOM      2  C   UNL     1      71.508  29.661  61.329  1.00  0.00     0.042 C 
ATOM      3  O   UNL     1      70.403  29.146  61.643  1.00  0.00    -0.550 OA
ATOM      4  O   UNL     1      72.639  29.378  62.085  1.00  0.00    -0.550 OA
ENDBRANCH   1   2
BRANCH   1   5
ATOM      5  C   UNL     1      72.323  31.904  60.559  1.00  0.00     0.059 C 
BRANCH   5   6
ATOM      6  C   UNL     1      71.594  33.116  60.068  1.00  0.00     0.042 C 
ATOM      7  O   UNL     1      71.218  34.002  60.881  1.00  0.00    -0.550 OA
ATOM      8  O   UNL     1      71.294  33.250  58.718  1.00  0.00    -0.550 OA
ENDBRANCH   5   6
ENDBRANCH   1   5
TORSDOF 3
ENDMDL
MODEL 5
REMARK VINA RESULT:    -2.715     21.640     22.359
REMARK INTER + INTRA:          -3.226
REMARK INTER:                  -3.107
REMARK INTRA:                  -0.119
REMARK UNBOUND:                -0.035
REMARK SMILES O=C([O-])CCC(=O)[O-]
REMARK SMILES IDX 4 1 2 2 1 3 3 4 5 5 6 6 7 7 8 8
REMARK H PARENT
REMARK Flexibility Score: inf
ROOT
ATOM      1  C   UNL     1      72.138  32.110  60.577  1.00  0.00     0.059 C 
ENDROOT
BRANCH   1   2
ATOM      2  C   UNL     1      71.361  32.412  59.333  1.00  0.00     0.042 C 
ATOM      3  O   UNL     1      71.375  33.572  58.845  1.00  0.00    -0.550 OA
ATOM      4  O   UNL     1      70.589  31.424  58.736  1.00  0.00    -0.550 OA
ENDBRANCH   1   2
BRANCH   1   5
ATOM      5  C   UNL     1      72.832  30.746  60.494  1.00  0.00     0.059 C 
BRANCH   5   6
ATOM      6  C   UNL     1      72.332  29.806  61.547  1.00  0.00     0.042 C 
ATOM      7  O   UNL     1      73.123  29.348  62.414  1.00  0.00    -0.550 OA
ATOM      8  O   UNL     1      71.003  29.402  61.548  1.00  0.00    -0.550 OA
ENDBRANCH   5   6
ENDBRANCH   1   5
TORSDOF 3
ENDMDL
MODEL 6
REMARK VINA RESULT:    -2.612     17.701     18.861
REMARK INTER + INTRA:          -3.105
REMARK INTER:                  -2.996
REMARK INTRA:                  -0.109
REMARK UNBOUND:                -0.035
REMARK SMILES O=C([O-])CCC(=O)[O-]
REMARK SMILES IDX 4 1 2 2 1 3 3 4 5 5 6 6 7 7 8 8
REMARK H PARENT
REMARK Flexibility Score: inf
ROOT
ATOM      1  C   UNL     1      62.279  31.155  60.302  1.00  0.00     0.059 C 
ENDROOT
BRANCH   1   2
ATOM      2  C   UNL     1      61.872  30.358  61.503  1.00  0.00     0.042 C 
ATOM      3  O   UNL     1      60.832  30.663  62.143  1.00  0.00    -0.550 OA
ATOM      4  O   UNL     1      62.664  29.304  61.941  1.00  0.00    -0.550 OA
ENDBRANCH   1   2
BRANCH   1   5
ATOM      5  C   UNL     1      62.700  32.578  60.684  1.00  0.00     0.059 C 
BRANCH   5   6
ATOM      6  C   UNL     1      64.186  32.695  60.831  1.00  0.00     0.042 C 
ATOM      7  O   UNL     1      64.934  31.745  60.477  1.00  0.00    -0.550 OA
ATOM      8  O   UNL     1      64.744  33.835  61.396  1.00  0.00    -0.550 OA
ENDBRANCH   5   6
ENDBRANCH   1   5
TORSDOF 3
ENDMDL
MODEL 7
REMARK VINA RESULT:    -2.596      9.280     10.156
REMARK INTER + INTRA:          -3.086
REMARK INTER:                  -3.025
REMARK INTRA:                  -0.061
REMARK UNBOUND:                -0.035
REMARK SMILES O=C([O-])CCC(=O)[O-]
REMARK SMILES IDX 4 1 2 2 1 3 3 4 5 5 6 6 7 7 8 8
REMARK H PARENT
REMARK Flexibility Score: inf
ROOT
ATOM      1  C   UNL     1      57.279  27.651  50.723  1.00  0.00     0.059 C 
ENDROOT
BRANCH   1   2
ATOM      2  C   UNL     1      56.123  26.748  50.420  1.00  0.00     0.042 C 
ATOM      3  O   UNL     1      56.299  25.506  50.320  1.00  0.00    -0.550 OA
ATOM      4  O   UNL     1      54.859  27.283  50.208  1.00  0.00    -0.550 OA
ENDBRANCH   1   2
BRANCH   1   5
ATOM      5  C   UNL     1      58.620  26.928  50.555  1.00  0.00     0.059 C 
BRANCH   5   6
ATOM      6  C   UNL     1      59.578  27.725  49.724  1.00  0.00     0.042 C 
ATOM      7  O   UNL     1      59.232  28.843  49.258  1.00  0.00    -0.550 OA
ATOM      8  O   UNL     1      60.836  27.216  49.428  1.00  0.00    -0.550 OA
ENDBRANCH   5   6
ENDBRANCH   1   5
TORSDOF 3
ENDMDL
MODEL 8
REMARK VINA RESULT:    -2.562     17.887     19.207
REMARK INTER + INTRA:          -3.046
REMARK INTER:                  -2.981
REMARK INTRA:                  -0.066
REMARK UNBOUND:                -0.035
REMARK SMILES O=C([O-])CCC(=O)[O-]
REMARK SMILES IDX 4 1 2 2 1 3 3 4 5 5 6 6 7 7 8 8
REMARK H PARENT
REMARK Flexibility Score: inf
ROOT
ATOM      1  C   UNL     1      62.291  32.657  60.509  1.00  0.00     0.059 C 
ENDROOT
BRANCH   1   2
ATOM      2  C   UNL     1      63.337  33.656  60.896  1.00  0.00     0.042 C 
ATOM      3  O   UNL     1      64.550  33.321  60.932  1.00  0.00    -0.550 OA
ATOM      4  O   UNL     1      62.969  34.946  61.257  1.00  0.00    -0.550 OA
ENDBRANCH   1   2
BRANCH   1   5
ATOM      5  C   UNL     1      62.825  31.222  60.581  1.00  0.00     0.059 C 
BRANCH   5   6
ATOM      6  C   UNL     1      62.016  30.377  61.517  1.00  0.00     0.042 C 
ATOM      7  O   UNL     1      60.886  30.773  61.911  1.00  0.00    -0.550 OA
ATOM      8  O   UNL     1      62.526  29.174  61.988  1.00  0.00    -0.550 OA
ENDBRANCH   5   6
ENDBRANCH   1   5
TORSDOF 3
ENDMDL
MODEL 9
REMARK VINA RESULT:    -2.560      9.280     10.638
REMARK INTER + INTRA:          -3.045
REMARK INTER:                  -2.983
REMARK INTRA:                  -0.062
REMARK UNBOUND:                -0.035
REMARK SMILES O=C([O-])CCC(=O)[O-]
REMARK SMILES IDX 4 1 2 2 1 3 3 4 5 5 6 6 7 7 8 8
REMARK H PARENT
REMARK Flexibility Score: inf
ROOT
ATOM      1  C   UNL     1      58.578  26.849  50.455  1.00  0.00     0.059 C 
ENDROOT
BRANCH   1   2
ATOM      2  C   UNL     1      59.585  27.635  49.674  1.00  0.00     0.042 C 
ATOM      3  O   UNL     1      59.273  28.751  49.182  1.00  0.00    -0.550 OA
ATOM      4  O   UNL     1      60.855  27.117  49.454  1.00  0.00    -0.550 OA
ENDBRANCH   1   2
BRANCH   1   5
ATOM      5  C   UNL     1      57.294  27.651  50.692  1.00  0.00     0.059 C 
BRANCH   5   6
ATOM      6  C   UNL     1      56.071  26.840  50.391  1.00  0.00     0.042 C 
ATOM      7  O   UNL     1      56.167  25.599  50.198  1.00  0.00    -0.550 OA
ATOM      8  O   UNL     1      54.832  27.459  50.284  1.00  0.00    -0.550 OA
ENDBRANCH   5   6
ENDBRANCH   1   5
TORSDOF 3
ENDMDL
