MODEL 1
REMARK VINA RESULT:    -6.188      0.000      0.000
REMARK INTER + INTRA:          -9.583
REMARK INTER:                  -8.359
REMARK INTRA:                  -1.224
REMARK UNBOUND:                -1.224
REMARK SMILES O=c1c(-c2ccc(O)cc2)coc2c([C@@H]3O[C@H](CO)[C@@H](O)[C@@H](O)[C@H]3O)c(O)ccc12
REMARK SMILES IDX 3 1 11 2 12 3 13 4 30 5 2 6 1 7 29 8 28 9 26 10 14 11 4 12
REMARK SMILES IDX 5 13 6 14 7 15 10 16 9 17 8 18 15 20 24 21 16 22 22 23 17 24
REMARK SMILES IDX 20 25 25 26 23 28 18 30 19 31 21 33 27 35
REMARK H PARENT 8 19 25 27 23 29 19 32 21 34 27 36
REMARK Flexibility Score: inf
ROOT
ATOM      1  C   UNL     1      -5.716  84.068  -9.381  1.00  0.00     0.065 A 
ATOM      2  C   UNL     1      -6.372  82.907  -9.035  1.00  0.00     0.208 A 
ATOM      3  O   UNL     1      -7.680  82.974  -8.704  1.00  0.00    -0.463 OA
ATOM      4  C   UNL     1      -8.402  84.101  -8.539  1.00  0.00     0.147 A 
ATOM      5  C   UNL     1      -7.835  85.352  -8.911  1.00  0.00     0.066 A 
ATOM      6  C   UNL     1      -6.531  85.321  -9.557  1.00  0.00     0.200 A 
ATOM      7  O   UNL     1      -6.249  86.166 -10.433  1.00  0.00    -0.288 OA
ATOM      8  C   UNL     1      -8.660  86.471  -9.124  1.00  0.00     0.020 A 
ATOM      9  C   UNL     1     -10.051  86.330  -8.976  1.00  0.00     0.047 A 
ATOM     10  C   UNL     1     -10.494  85.297  -8.140  1.00  0.00     0.125 A 
ATOM     11  C   UNL     1      -9.767  84.057  -8.188  1.00  0.00     0.069 A 
ENDROOT
BRANCH   1  12
ATOM     12  C   UNL     1      -4.260  84.140  -9.370  1.00  0.00    -0.011 A 
ATOM     13  C   UNL     1      -3.668  85.143  -8.618  1.00  0.00     0.013 A 
ATOM     14  C   UNL     1      -3.149  84.846  -7.383  1.00  0.00     0.047 A 
ATOM     15  C   UNL     1      -2.994  83.517  -7.070  1.00  0.00     0.115 A 
ATOM     16  C   UNL     1      -3.599  82.910  -9.295  1.00  0.00     0.013 A 
ATOM     17  C   UNL     1      -3.092  82.521  -8.093  1.00  0.00     0.047 A 
BRANCH  15  18
ATOM     18  O   UNL     1      -2.928  83.214  -5.652  1.00  0.00    -0.508 OA
ATOM     19  H   UNL     1      -2.010  83.392  -5.200  1.00  0.00     0.293 HD
ENDBRANCH  15  18
ENDBRANCH   1  12
BRANCH  11  20
ATOM     20  C   UNL     1     -10.606  82.896  -8.808  1.00  0.00     0.188 C 
ATOM     21  C   UNL     1     -11.040  81.768  -7.650  1.00  0.00     0.179 C 
ATOM     22  O   UNL     1     -11.615  83.504  -9.606  1.00  0.00    -0.362 OA
ATOM     23  C   UNL     1     -12.605  81.348  -7.873  1.00  0.00     0.177 C 
ATOM     24  C   UNL     1     -12.933  82.917  -9.727  1.00  0.00     0.176 C 
ATOM     25  C   UNL     1     -13.528  82.421  -8.431  1.00  0.00     0.177 C 
BRANCH  21  26
ATOM     26  O   UNL     1     -10.105  80.688  -7.534  1.00  0.00    -0.387 OA
ATOM     27  H   UNL     1      -9.207  81.042  -7.275  1.00  0.00     0.211 HD
ENDBRANCH  21  26
BRANCH  23  28
ATOM     28  O   UNL     1     -12.574  80.146  -8.616  1.00  0.00    -0.387 OA
ATOM     29  H   UNL     1     -13.470  79.756  -8.736  1.00  0.00     0.211 HD
ENDBRANCH  23  28
BRANCH  24  30
ATOM     30  C   UNL     1     -13.870  83.832 -10.690  1.00  0.00     0.191 C 
BRANCH  30  31
ATOM     31  O   UNL     1     -14.437  83.042 -11.638  1.00  0.00    -0.394 OA
ATOM     32  H   UNL     1     -13.980  83.337 -12.473  1.00  0.00     0.210 HD
ENDBRANCH  30  31
ENDBRANCH  24  30
BRANCH  25  33
ATOM     33  O   UNL     1     -14.729  81.777  -8.618  1.00  0.00    -0.388 OA
ATOM     34  H   UNL     1     -15.134  82.316  -9.417  1.00  0.00     0.211 HD
ENDBRANCH  25  33
ENDBRANCH  11  20
BRANCH  10  35
ATOM     35  O   UNL     1     -11.799  85.505  -7.578  1.00  0.00    -0.507 OA
ATOM     36  H   UNL     1     -12.332  84.746  -7.118  1.00  0.00     0.293 HD
ENDBRANCH  10  35
TORSDOF 9
ENDMDL
MODEL 2
REMARK VINA RESULT:    -6.057      2.049      3.968
REMARK INTER + INTRA:          -9.405
REMARK INTER:                  -8.301
REMARK INTRA:                  -1.104
REMARK UNBOUND:                -1.224
REMARK SMILES O=c1c(-c2ccc(O)cc2)coc2c([C@@H]3O[C@H](CO)[C@@H](O)[C@@H](O)[C@H]3O)c(O)ccc12
REMARK SMILES IDX 3 1 11 2 12 3 13 4 30 5 2 6 1 7 29 8 28 9 26 10 14 11 4 12
REMARK SMILES IDX 5 13 6 14 7 15 10 16 9 17 8 18 15 20 24 21 16 22 22 23 17 24
REMARK SMILES IDX 20 25 25 26 23 28 18 30 19 31 21 33 27 35
REMARK H PARENT 8 19 25 27 23 29 19 32 21 34 27 36
REMARK Flexibility Score: inf
ROOT
ATOM      1  C   UNL     1      -8.379  84.119  -7.833  1.00  0.00     0.065 A 
ATOM      2  C   UNL     1      -9.265  83.948  -8.874  1.00  0.00     0.208 A 
ATOM      3  O   UNL     1     -10.150  82.929  -8.813  1.00  0.00    -0.463 OA
ATOM      4  C   UNL     1     -10.173  81.951  -7.885  1.00  0.00     0.147 A 
ATOM      5  C   UNL     1      -9.329  82.053  -6.744  1.00  0.00     0.066 A 
ATOM      6  C   UNL     1      -8.562  83.281  -6.597  1.00  0.00     0.200 A 
ATOM      7  O   UNL     1      -8.330  83.738  -5.458  1.00  0.00    -0.288 OA
ATOM      8  C   UNL     1      -9.594  81.288  -5.594  1.00  0.00     0.020 A 
ATOM      9  C   UNL     1     -10.711  80.434  -5.587  1.00  0.00     0.047 A 
ATOM     10  C   UNL     1     -11.169  79.985  -6.832  1.00  0.00     0.125 A 
ATOM     11  C   UNL     1     -11.144  80.928  -7.918  1.00  0.00     0.069 A 
ENDROOT
BRANCH   1  12
ATOM     12  C   UNL     1      -7.175  84.925  -7.997  1.00  0.00    -0.011 A 
ATOM     13  C   UNL     1      -5.981  84.410  -7.515  1.00  0.00     0.013 A 
ATOM     14  C   UNL     1      -5.092  83.833  -8.387  1.00  0.00     0.047 A 
ATOM     15  C   UNL     1      -5.303  84.042  -9.728  1.00  0.00     0.115 A 
ATOM     16  C   UNL     1      -7.054  85.581  -9.226  1.00  0.00     0.013 A 
ATOM     17  C   UNL     1      -6.223  85.048 -10.164  1.00  0.00     0.047 A 
BRANCH  15  18
ATOM     18  O   UNL     1      -4.695  83.066 -10.614  1.00  0.00    -0.508 OA
ATOM     19  H   UNL     1      -4.597  83.362 -11.605  1.00  0.00     0.293 HD
ENDBRANCH  15  18
ENDBRANCH   1  12
BRANCH  11  20
ATOM     20  C   UNL     1     -12.573  81.342  -8.386  1.00  0.00     0.188 C 
ATOM     21  C   UNL     1     -13.067  82.767  -7.661  1.00  0.00     0.179 C 
ATOM     22  O   UNL     1     -12.583  81.238  -9.805  1.00  0.00    -0.362 OA
ATOM     23  C   UNL     1     -13.780  83.720  -8.784  1.00  0.00     0.177 C 
ATOM     24  C   UNL     1     -13.354  82.153 -10.621  1.00  0.00     0.176 C 
ATOM     25  C   UNL     1     -13.259  83.603 -10.209  1.00  0.00     0.177 C 
BRANCH  21  26
ATOM     26  O   UNL     1     -13.802  82.560  -6.448  1.00  0.00    -0.387 OA
ATOM     27  H   UNL     1     -14.728  82.250  -6.662  1.00  0.00     0.211 HD
ENDBRANCH  21  26
BRANCH  23  28
ATOM     28  O   UNL     1     -15.168  83.503  -8.639  1.00  0.00    -0.387 OA
ATOM     29  H   UNL     1     -15.502  82.794  -9.235  1.00  0.00     0.211 HD
ENDBRANCH  23  28
BRANCH  24  30
ATOM     30  C   UNL     1     -13.165  81.798 -12.196  1.00  0.00     0.191 C 
BRANCH  30  31
ATOM     31  O   UNL     1     -14.250  82.240 -12.883  1.00  0.00    -0.394 OA
ATOM     32  H   UNL     1     -14.070  83.215 -12.977  1.00  0.00     0.210 HD
ENDBRANCH  30  31
ENDBRANCH  24  30
BRANCH  25  33
ATOM     33  O   UNL     1     -14.093  84.413 -10.946  1.00  0.00    -0.388 OA
ATOM     34  H   UNL     1     -14.690  83.708 -11.435  1.00  0.00     0.211 HD
ENDBRANCH  25  33
ENDBRANCH  11  20
BRANCH  10  35
ATOM     35  O   UNL     1     -11.896  78.748  -6.789  1.00  0.00    -0.507 OA
ATOM     36  H   UNL     1     -12.622  78.555  -6.076  1.00  0.00     0.293 HD
ENDBRANCH  10  35
TORSDOF 9
ENDMDL
MODEL 3
REMARK VINA RESULT:    -5.990      1.664      1.884
REMARK INTER + INTRA:          -9.315
REMARK INTER:                  -7.959
REMARK INTRA:                  -1.355
REMARK UNBOUND:                -1.224
REMARK SMILES O=c1c(-c2ccc(O)cc2)coc2c([C@@H]3O[C@H](CO)[C@@H](O)[C@@H](O)[C@H]3O)c(O)ccc12
REMARK SMILES IDX 3 1 11 2 12 3 13 4 30 5 2 6 1 7 29 8 28 9 26 10 14 11 4 12
REMARK SMILES IDX 5 13 6 14 7 15 10 16 9 17 8 18 15 20 24 21 16 22 22 23 17 24
REMARK SMILES IDX 20 25 25 26 23 28 18 30 19 31 21 33 27 35
REMARK H PARENT 8 19 25 27 23 29 19 32 21 34 27 36
REMARK Flexibility Score: inf
ROOT
ATOM      1  C   UNL     1      -5.296  84.139  -8.687  1.00  0.00     0.065 A 
ATOM      2  C   UNL     1      -6.142  83.241  -9.298  1.00  0.00     0.208 A 
ATOM      3  O   UNL     1      -7.465  83.312  -9.033  1.00  0.00    -0.463 OA
ATOM      4  C   UNL     1      -8.050  84.098  -8.107  1.00  0.00     0.147 A 
ATOM      5  C   UNL     1      -7.274  85.093  -7.448  1.00  0.00     0.066 A 
ATOM      6  C   UNL     1      -5.903  85.271  -7.904  1.00  0.00     0.200 A 
ATOM      7  O   UNL     1      -5.385  86.408  -7.889  1.00  0.00    -0.288 OA
ATOM      8  C   UNL     1      -7.903  86.163  -6.788  1.00  0.00     0.020 A 
ATOM      9  C   UNL     1      -9.307  86.239  -6.800  1.00  0.00     0.047 A 
ATOM     10  C   UNL     1     -10.002  85.037  -6.980  1.00  0.00     0.125 A 
ATOM     11  C   UNL     1      -9.446  84.091  -7.909  1.00  0.00     0.069 A 
ENDROOT
BRANCH   1  12
ATOM     12  C   UNL     1      -3.861  83.889  -8.616  1.00  0.00    -0.011 A 
ATOM     13  C   UNL     1      -3.241  84.030  -7.384  1.00  0.00     0.013 A 
ATOM     14  C   UNL     1      -2.951  82.914  -6.641  1.00  0.00     0.047 A 
ATOM     15  C   UNL     1      -3.038  81.698  -7.275  1.00  0.00     0.115 A 
ATOM     16  C   UNL     1      -3.404  82.797  -9.359  1.00  0.00     0.013 A 
ATOM     17  C   UNL     1      -3.134  81.635  -8.701  1.00  0.00     0.047 A 
BRANCH  15  18
ATOM     18  O   UNL     1      -3.218  80.551  -6.403  1.00  0.00    -0.508 OA
ATOM     19  H   UNL     1      -3.317  79.636  -6.883  1.00  0.00     0.293 HD
ENDBRANCH  15  18
ENDBRANCH   1  12
BRANCH  11  20
ATOM     20  C   UNL     1     -10.327  83.916  -9.185  1.00  0.00     0.188 C 
ATOM     21  C   UNL     1     -10.827  82.330  -9.372  1.00  0.00     0.179 C 
ATOM     22  O   UNL     1     -11.297  84.956  -9.155  1.00  0.00    -0.362 OA
ATOM     23  C   UNL     1     -12.406  82.313  -9.799  1.00  0.00     0.177 C 
ATOM     24  C   UNL     1     -12.638  84.749  -9.660  1.00  0.00     0.176 C 
ATOM     25  C   UNL     1     -13.272  83.440  -9.256  1.00  0.00     0.177 C 
BRANCH  21  26
ATOM     26  O   UNL     1      -9.943  81.551 -10.188  1.00  0.00    -0.387 OA
ATOM     27  H   UNL     1     -10.161  81.690 -11.154  1.00  0.00     0.211 HD
ENDBRANCH  21  26
BRANCH  23  28
ATOM     28  O   UNL     1     -12.418  82.179 -11.205  1.00  0.00    -0.387 OA
ATOM     29  H   UNL     1     -12.067  81.308 -11.503  1.00  0.00     0.211 HD
ENDBRANCH  23  28
BRANCH  24  30
ATOM     30  C   UNL     1     -13.520  86.104  -9.487  1.00  0.00     0.191 C 
BRANCH  30  31
ATOM     31  O   UNL     1     -14.658  85.989 -10.219  1.00  0.00    -0.394 OA
ATOM     32  H   UNL     1     -14.613  85.050 -10.550  1.00  0.00     0.210 HD
ENDBRANCH  30  31
ENDBRANCH  24  30
BRANCH  25  33
ATOM     33  O   UNL     1     -14.498  83.245  -9.849  1.00  0.00    -0.388 OA
ATOM     34  H   UNL     1     -15.049  84.042  -9.457  1.00  0.00     0.211 HD
ENDBRANCH  25  33
ENDBRANCH  11  20
BRANCH  10  35
ATOM     35  O   UNL     1     -11.339  85.038  -6.454  1.00  0.00    -0.507 OA
ATOM     36  H   UNL     1     -11.750  84.213  -5.981  1.00  0.00     0.293 HD
ENDBRANCH  10  35
TORSDOF 9
ENDMDL
MODEL 4
REMARK VINA RESULT:    -5.921      5.544      8.680
REMARK INTER + INTRA:          -9.222
REMARK INTER:                  -8.213
REMARK INTRA:                  -1.009
REMARK UNBOUND:                -1.224
REMARK SMILES O=c1c(-c2ccc(O)cc2)coc2c([C@@H]3O[C@H](CO)[C@@H](O)[C@@H](O)[C@H]3O)c(O)ccc12
REMARK SMILES IDX 3 1 11 2 12 3 13 4 30 5 2 6 1 7 29 8 28 9 26 10 14 11 4 12
REMARK SMILES IDX 5 13 6 14 7 15 10 16 9 17 8 18 15 20 24 21 16 22 22 23 17 24
REMARK SMILES IDX 20 25 25 26 23 28 18 30 19 31 21 33 27 35
REMARK H PARENT 8 19 25 27 23 29 19 32 21 34 27 36
REMARK Flexibility Score: inf
ROOT
ATOM      1  C   UNL     1      -4.468  92.047  -9.081  1.00  0.00     0.065 A 
ATOM      2  C   UNL     1      -4.155  91.164  -8.071  1.00  0.00     0.208 A 
ATOM      3  O   UNL     1      -4.612  89.895  -8.154  1.00  0.00    -0.463 OA
ATOM      4  C   UNL     1      -5.478  89.420  -9.072  1.00  0.00     0.147 A 
ATOM      5  C   UNL     1      -5.831  90.235 -10.183  1.00  0.00     0.066 A 
ATOM      6  C   UNL     1      -5.140  91.509 -10.315  1.00  0.00     0.200 A 
ATOM      7  O   UNL     1      -4.885  91.966 -11.449  1.00  0.00    -0.288 OA
ATOM      8  C   UNL     1      -6.398  89.661 -11.335  1.00  0.00     0.020 A 
ATOM      9  C   UNL     1      -6.597  88.269 -11.374  1.00  0.00     0.047 A 
ATOM     10  C   UNL     1      -6.731  87.617 -10.141  1.00  0.00     0.125 A 
ATOM     11  C   UNL     1      -5.893  88.072  -9.064  1.00  0.00     0.069 A 
ENDROOT
BRANCH   1  12
ATOM     12  C   UNL     1      -4.350  93.487  -8.882  1.00  0.00    -0.011 A 
ATOM     13  C   UNL     1      -3.246  94.126  -9.424  1.00  0.00     0.013 A 
ATOM     14  C   UNL     1      -3.374  94.819 -10.601  1.00  0.00     0.047 A 
ATOM     15  C   UNL     1      -4.650  95.077 -11.041  1.00  0.00     0.115 A 
ATOM     16  C   UNL     1      -5.540  94.210  -9.006  1.00  0.00     0.013 A 
ATOM     17  C   UNL     1      -5.765  94.891 -10.164  1.00  0.00     0.047 A 
BRANCH  15  18
ATOM     18  O   UNL     1      -4.777  95.347 -12.462  1.00  0.00    -0.508 OA
ATOM     19  H   UNL     1      -4.211  96.141 -12.818  1.00  0.00     0.293 HD
ENDBRANCH  15  18
ENDBRANCH   1  12
BRANCH  11  20
ATOM     20  C   UNL     1      -4.821  87.017  -8.652  1.00  0.00     0.188 C 
ATOM     21  C   UNL     1      -4.787  86.793  -6.994  1.00  0.00     0.179 C 
ATOM     22  O   UNL     1      -5.005  85.894  -9.507  1.00  0.00    -0.362 OA
ATOM     23  C   UNL     1      -4.677  85.192  -6.673  1.00  0.00     0.177 C 
ATOM     24  C   UNL     1      -4.779  84.544  -9.035  1.00  0.00     0.176 C 
ATOM     25  C   UNL     1      -5.342  84.249  -7.665  1.00  0.00     0.177 C 
BRANCH  21  26
ATOM     26  O   UNL     1      -3.840  87.637  -6.328  1.00  0.00    -0.387 OA
ATOM     27  H   UNL     1      -4.179  88.578  -6.309  1.00  0.00     0.211 HD
ENDBRANCH  21  26
BRANCH  23  28
ATOM     28  O   UNL     1      -3.306  84.943  -6.444  1.00  0.00    -0.387 OA
ATOM     29  H   UNL     1      -3.057  84.009  -6.631  1.00  0.00     0.211 HD
ENDBRANCH  23  28
BRANCH  24  30
ATOM     30  C   UNL     1      -5.077  83.476 -10.223  1.00  0.00     0.191 C 
BRANCH  30  31
ATOM     31  O   UNL     1      -4.096  82.536 -10.230  1.00  0.00    -0.394 OA
ATOM     32  H   UNL     1      -4.095  82.212  -9.288  1.00  0.00     0.210 HD
ENDBRANCH  30  31
ENDBRANCH  24  30
BRANCH  25  33
ATOM     33  O   UNL     1      -5.006  82.991  -7.220  1.00  0.00    -0.388 OA
ATOM     34  H   UNL     1      -4.234  82.736  -7.877  1.00  0.00     0.211 HD
ENDBRANCH  25  33
ENDBRANCH  11  20
BRANCH  10  35
ATOM     35  O   UNL     1      -7.455  86.378 -10.199  1.00  0.00    -0.507 OA
ATOM     36  H   UNL     1      -8.488  86.335 -10.135  1.00  0.00     0.293 HD
ENDBRANCH  10  35
TORSDOF 9
ENDMDL
MODEL 5
REMARK VINA RESULT:    -5.828      5.792      9.060
REMARK INTER + INTRA:          -9.096
REMARK INTER:                  -7.704
REMARK INTRA:                  -1.393
REMARK UNBOUND:                -1.224
REMARK SMILES O=c1c(-c2ccc(O)cc2)coc2c([C@@H]3O[C@H](CO)[C@@H](O)[C@@H](O)[C@H]3O)c(O)ccc12
REMARK SMILES IDX 3 1 11 2 12 3 13 4 30 5 2 6 1 7 29 8 28 9 26 10 14 11 4 12
REMARK SMILES IDX 5 13 6 14 7 15 10 16 9 17 8 18 15 20 24 21 16 22 22 23 17 24
REMARK SMILES IDX 20 25 25 26 23 28 18 30 19 31 21 33 27 35
REMARK H PARENT 8 19 25 27 23 29 19 32 21 34 27 36
REMARK Flexibility Score: inf
ROOT
ATOM      1  C   UNL     1     -16.137  87.861  -9.624  1.00  0.00     0.065 A 
ATOM      2  C   UNL     1     -15.111  87.077 -10.102  1.00  0.00     0.208 A 
ATOM      3  O   UNL     1     -14.752  85.979  -9.401  1.00  0.00    -0.463 OA
ATOM      4  C   UNL     1     -15.208  85.630  -8.181  1.00  0.00     0.147 A 
ATOM      5  C   UNL     1     -16.299  86.347  -7.614  1.00  0.00     0.066 A 
ATOM      6  C   UNL     1     -16.931  87.357  -8.449  1.00  0.00     0.200 A 
ATOM      7  O   UNL     1     -18.160  87.564  -8.354  1.00  0.00    -0.288 OA
ATOM      8  C   UNL     1     -17.043  85.790  -6.559  1.00  0.00     0.020 A 
ATOM      9  C   UNL     1     -16.700  84.512  -6.084  1.00  0.00     0.047 A 
ATOM     10  C   UNL     1     -15.377  84.099  -6.287  1.00  0.00     0.125 A 
ATOM     11  C   UNL     1     -14.761  84.458  -7.536  1.00  0.00     0.069 A 
ENDROOT
BRANCH   1  12
ATOM     12  C   UNL     1     -16.318  89.229 -10.094  1.00  0.00    -0.011 A 
ATOM     13  C   UNL     1     -15.226  90.082 -10.039  1.00  0.00     0.013 A 
ATOM     14  C   UNL     1     -14.505  90.332 -11.179  1.00  0.00     0.047 A 
ATOM     15  C   UNL     1     -15.064  89.946 -12.373  1.00  0.00     0.115 A 
ATOM     16  C   UNL     1     -17.088  89.370 -11.252  1.00  0.00     0.013 A 
ATOM     17  C   UNL     1     -16.446  89.577 -12.435  1.00  0.00     0.047 A 
BRANCH  15  18
ATOM     18  O   UNL     1     -14.130  89.760 -13.468  1.00  0.00    -0.508 OA
ATOM     19  H   UNL     1     -14.530  89.866 -14.420  1.00  0.00     0.293 HD
ENDBRANCH  15  18
ENDBRANCH   1  12
BRANCH  11  20
ATOM     20  C   UNL     1     -14.491  83.222  -8.448  1.00  0.00     0.188 C 
ATOM     21  C   UNL     1     -12.875  83.109  -8.866  1.00  0.00     0.179 C 
ATOM     22  O   UNL     1     -15.134  82.113  -7.831  1.00  0.00    -0.362 OA
ATOM     23  C   UNL     1     -12.396  81.550  -8.737  1.00  0.00     0.177 C 
ATOM     24  C   UNL     1     -14.568  80.781  -7.901  1.00  0.00     0.176 C 
ATOM     25  C   UNL     1     -13.079  80.712  -7.665  1.00  0.00     0.177 C 
BRANCH  21  26
ATOM     26  O   UNL     1     -12.562  83.767 -10.100  1.00  0.00    -0.387 OA
ATOM     27  H   UNL     1     -12.284  84.710  -9.922  1.00  0.00     0.211 HD
ENDBRANCH  21  26
BRANCH  23  28
ATOM     28  O   UNL     1     -12.473  81.020 -10.044  1.00  0.00    -0.387 OA
ATOM     29  H   UNL     1     -12.538  81.722 -10.731  1.00  0.00     0.211 HD
ENDBRANCH  23  28
BRANCH  24  30
ATOM     30  C   UNL     1     -15.512  79.727  -7.101  1.00  0.00     0.191 C 
BRANCH  30  31
ATOM     31  O   UNL     1     -14.767  79.090  -6.160  1.00  0.00    -0.394 OA
ATOM     32  H   UNL     1     -13.835  79.336  -6.414  1.00  0.00     0.210 HD
ENDBRANCH  30  31
ENDBRANCH  24  30
BRANCH  25  33
ATOM     33  O   UNL     1     -12.577  79.445  -7.850  1.00  0.00    -0.388 OA
ATOM     34  H   UNL     1     -13.148  78.893  -7.170  1.00  0.00     0.211 HD
ENDBRANCH  25  33
ENDBRANCH  11  20
BRANCH  10  35
ATOM     35  O   UNL     1     -14.915  83.104  -5.358  1.00  0.00    -0.507 OA
ATOM     36  H   UNL     1     -15.445  82.236  -5.167  1.00  0.00     0.293 HD
ENDBRANCH  10  35
TORSDOF 9
ENDMDL
MODEL 6
REMARK VINA RESULT:    -5.761      6.825     10.811
REMARK INTER + INTRA:          -9.006
REMARK INTER:                  -8.310
REMARK INTRA:                  -0.696
REMARK UNBOUND:                -1.224
REMARK SMILES O=c1c(-c2ccc(O)cc2)coc2c([C@@H]3O[C@H](CO)[C@@H](O)[C@@H](O)[C@H]3O)c(O)ccc12
REMARK SMILES IDX 3 1 11 2 12 3 13 4 30 5 2 6 1 7 29 8 28 9 26 10 14 11 4 12
REMARK SMILES IDX 5 13 6 14 7 15 10 16 9 17 8 18 15 20 24 21 16 22 22 23 17 24
REMARK SMILES IDX 20 25 25 26 23 28 18 30 19 31 21 33 27 35
REMARK H PARENT 8 19 25 27 23 29 19 32 21 34 27 36
REMARK Flexibility Score: inf
ROOT
ATOM      1  C   UNL     1      -6.384  89.160 -10.917  1.00  0.00     0.065 A 
ATOM      2  C   UNL     1      -5.565  90.197 -10.526  1.00  0.00     0.208 A 
ATOM      3  O   UNL     1      -4.857  90.855 -11.470  1.00  0.00    -0.463 OA
ATOM      4  C   UNL     1      -4.755  90.514 -12.770  1.00  0.00     0.147 A 
ATOM      5  C   UNL     1      -5.591  89.486 -13.288  1.00  0.00     0.066 A 
ATOM      6  C   UNL     1      -6.595  88.935 -12.390  1.00  0.00     0.200 A 
ATOM      7  O   UNL     1      -7.697  88.559 -12.842  1.00  0.00    -0.288 OA
ATOM      8  C   UNL     1      -5.799  89.369 -14.674  1.00  0.00     0.020 A 
ATOM      9  C   UNL     1      -5.178  90.291 -15.536  1.00  0.00     0.047 A 
ATOM     10  C   UNL     1      -4.012  90.908 -15.063  1.00  0.00     0.125 A 
ATOM     11  C   UNL     1      -3.981  91.274 -13.673  1.00  0.00     0.069 A 
ENDROOT
BRANCH   1  12
ATOM     12  C   UNL     1      -6.864  88.178  -9.952  1.00  0.00    -0.011 A 
ATOM     13  C   UNL     1      -7.133  86.898 -10.411  1.00  0.00     0.013 A 
ATOM     14  C   UNL     1      -6.218  85.897 -10.201  1.00  0.00     0.047 A 
ATOM     15  C   UNL     1      -5.208  86.149  -9.304  1.00  0.00     0.115 A 
ATOM     16  C   UNL     1      -6.240  88.211  -8.701  1.00  0.00     0.013 A 
ATOM     17  C   UNL     1      -5.288  87.278  -8.428  1.00  0.00     0.047 A 
BRANCH  15  18
ATOM     18  O   UNL     1      -4.021  85.327  -9.456  1.00  0.00    -0.508 OA
ATOM     19  H   UNL     1      -3.557  85.045  -8.572  1.00  0.00     0.293 HD
ENDBRANCH  15  18
ENDBRANCH   1  12
BRANCH  11  20
ATOM     20  C   UNL     1      -3.984  92.819 -13.460  1.00  0.00     0.188 C 
ATOM     21  C   UNL     1      -5.408  93.510 -14.002  1.00  0.00     0.179 C 
ATOM     22  O   UNL     1      -3.562  93.045 -12.119  1.00  0.00    -0.362 OA
ATOM     23  C   UNL     1      -5.919  94.613 -12.907  1.00  0.00     0.177 C 
ATOM     24  C   UNL     1      -4.095  94.142 -11.338  1.00  0.00     0.176 C 
ATOM     25  C   UNL     1      -5.589  94.331 -11.448  1.00  0.00     0.177 C 
BRANCH  21  26
ATOM     26  O   UNL     1      -5.338  93.956 -15.362  1.00  0.00    -0.387 OA
ATOM     27  H   UNL     1      -6.226  94.315 -15.648  1.00  0.00     0.211 HD
ENDBRANCH  21  26
BRANCH  23  28
ATOM     28  O   UNL     1      -5.467  95.863 -13.386  1.00  0.00    -0.387 OA
ATOM     29  H   UNL     1      -4.766  95.771 -14.072  1.00  0.00     0.211 HD
ENDBRANCH  23  28
BRANCH  24  30
ATOM     30  C   UNL     1      -3.438  94.144  -9.851  1.00  0.00     0.191 C 
BRANCH  30  31
ATOM     31  O   UNL     1      -4.301  93.553  -8.984  1.00  0.00    -0.394 OA
ATOM     32  H   UNL     1      -3.929  93.806  -8.095  1.00  0.00     0.210 HD
ENDBRANCH  30  31
ENDBRANCH  24  30
BRANCH  25  33
ATOM     33  O   UNL     1      -6.027  95.448 -10.775  1.00  0.00    -0.388 OA
ATOM     34  H   UNL     1      -5.397  96.186 -11.162  1.00  0.00     0.211 HD
ENDBRANCH  25  33
ENDBRANCH  11  20
BRANCH  10  35
ATOM     35  O   UNL     1      -3.129  91.379 -16.093  1.00  0.00    -0.507 OA
ATOM     36  H   UNL     1      -2.791  90.767 -16.857  1.00  0.00     0.293 HD
ENDBRANCH  10  35
TORSDOF 9
ENDMDL
MODEL 7
REMARK VINA RESULT:    -5.690      5.884      9.172
REMARK INTER + INTRA:          -8.909
REMARK INTER:                  -7.783
REMARK INTRA:                  -1.126
REMARK UNBOUND:                -1.224
REMARK SMILES O=c1c(-c2ccc(O)cc2)coc2c([C@@H]3O[C@H](CO)[C@@H](O)[C@@H](O)[C@H]3O)c(O)ccc12
REMARK SMILES IDX 3 1 11 2 12 3 13 4 30 5 2 6 1 7 29 8 28 9 26 10 14 11 4 12
REMARK SMILES IDX 5 13 6 14 7 15 10 16 9 17 8 18 15 20 24 21 16 22 22 23 17 24
REMARK SMILES IDX 20 25 25 26 23 28 18 30 19 31 21 33 27 35
REMARK H PARENT 8 19 25 27 23 29 19 32 21 34 27 36
REMARK Flexibility Score: inf
ROOT
ATOM      1  C   UNL     1      -4.688  89.127  -8.148  1.00  0.00     0.065 A 
ATOM      2  C   UNL     1      -5.366  88.993  -9.339  1.00  0.00     0.208 A 
ATOM      3  O   UNL     1      -5.765  90.109  -9.989  1.00  0.00    -0.463 OA
ATOM      4  C   UNL     1      -5.692  91.371  -9.520  1.00  0.00     0.147 A 
ATOM      5  C   UNL     1      -4.973  91.626  -8.318  1.00  0.00     0.066 A 
ATOM      6  C   UNL     1      -4.261  90.505  -7.723  1.00  0.00     0.200 A 
ATOM      7  O   UNL     1      -3.180  90.699  -7.127  1.00  0.00    -0.288 OA
ATOM      8  C   UNL     1      -4.544  92.930  -8.010  1.00  0.00     0.020 A 
ATOM      9  C   UNL     1      -4.827  93.970  -8.913  1.00  0.00     0.047 A 
ATOM     10  C   UNL     1      -5.929  93.789  -9.758  1.00  0.00     0.125 A 
ATOM     11  C   UNL     1      -6.143  92.468 -10.283  1.00  0.00     0.069 A 
ENDROOT
BRANCH   1  12
ATOM     12  C   UNL     1      -4.572  88.008  -7.221  1.00  0.00    -0.011 A 
ATOM     13  C   UNL     1      -5.579  87.054  -7.229  1.00  0.00     0.013 A 
ATOM     14  C   UNL     1      -5.379  85.865  -7.882  1.00  0.00     0.047 A 
ATOM     15  C   UNL     1      -4.093  85.565  -8.261  1.00  0.00     0.115 A 
ATOM     16  C   UNL     1      -3.288  87.474  -7.081  1.00  0.00     0.013 A 
ATOM     17  C   UNL     1      -2.994  86.316  -7.734  1.00  0.00     0.047 A 
BRANCH  15  18
ATOM     18  O   UNL     1      -3.969  84.602  -9.340  1.00  0.00    -0.508 OA
ATOM     19  H   UNL     1      -3.168  84.753  -9.983  1.00  0.00     0.293 HD
ENDBRANCH  15  18
ENDBRANCH   1  12
BRANCH  11  20
ATOM     20  C   UNL     1      -5.904  92.388 -11.822  1.00  0.00     0.188 C 
ATOM     21  C   UNL     1      -4.286  92.155 -12.180  1.00  0.00     0.179 C 
ATOM     22  O   UNL     1      -6.873  91.482 -12.338  1.00  0.00    -0.362 OA
ATOM     23  C   UNL     1      -4.156  91.030 -13.361  1.00  0.00     0.177 C 
ATOM     24  C   UNL     1      -6.569  90.613 -13.456  1.00  0.00     0.176 C 
ATOM     25  C   UNL     1      -5.219  89.941 -13.388  1.00  0.00     0.177 C 
BRANCH  21  26
ATOM     26  O   UNL     1      -3.571  93.379 -12.391  1.00  0.00    -0.387 OA
ATOM     27  H   UNL     1      -2.588  93.215 -12.312  1.00  0.00     0.211 HD
ENDBRANCH  21  26
BRANCH  23  28
ATOM     28  O   UNL     1      -4.020  91.757 -14.565  1.00  0.00    -0.387 OA
ATOM     29  H   UNL     1      -3.301  92.429 -14.519  1.00  0.00     0.211 HD
ENDBRANCH  23  28
BRANCH  24  30
ATOM     30  C   UNL     1      -7.858  89.689 -13.815  1.00  0.00     0.191 C 
BRANCH  30  31
ATOM     31  O   UNL     1      -7.735  88.492 -13.184  1.00  0.00    -0.394 OA
ATOM     32  H   UNL     1      -8.374  88.577 -12.424  1.00  0.00     0.210 HD
ENDBRANCH  30  31
ENDBRANCH  24  30
BRANCH  25  33
ATOM     33  O   UNL     1      -4.937  89.215 -14.521  1.00  0.00    -0.388 OA
ATOM     34  H   UNL     1      -4.604  88.312 -14.114  1.00  0.00     0.211 HD
ENDBRANCH  25  33
ENDBRANCH  11  20
BRANCH  10  35
ATOM     35  O   UNL     1      -6.515  95.009 -10.241  1.00  0.00    -0.507 OA
ATOM     36  H   UNL     1      -6.319  95.928  -9.808  1.00  0.00     0.293 HD
ENDBRANCH  10  35
TORSDOF 9
ENDMDL
MODEL 8
REMARK VINA RESULT:    -5.641      4.025      7.062
REMARK INTER + INTRA:          -8.843
REMARK INTER:                  -7.810
REMARK INTRA:                  -1.033
REMARK UNBOUND:                -1.224
REMARK SMILES O=c1c(-c2ccc(O)cc2)coc2c([C@@H]3O[C@H](CO)[C@@H](O)[C@@H](O)[C@H]3O)c(O)ccc12
REMARK SMILES IDX 3 1 11 2 12 3 13 4 30 5 2 6 1 7 29 8 28 9 26 10 14 11 4 12
REMARK SMILES IDX 5 13 6 14 7 15 10 16 9 17 8 18 15 20 24 21 16 22 22 23 17 24
REMARK SMILES IDX 20 25 25 26 23 28 18 30 19 31 21 33 27 35
REMARK H PARENT 8 19 25 27 23 29 19 32 21 34 27 36
REMARK Flexibility Score: inf
ROOT
ATOM      1  C   UNL     1      -6.263  89.221 -10.790  1.00  0.00     0.065 A 
ATOM      2  C   UNL     1      -6.151  87.851 -10.871  1.00  0.00     0.208 A 
ATOM      3  O   UNL     1      -5.647  87.177  -9.814  1.00  0.00    -0.463 OA
ATOM      4  C   UNL     1      -5.099  87.724  -8.710  1.00  0.00     0.147 A 
ATOM      5  C   UNL     1      -5.200  89.129  -8.505  1.00  0.00     0.066 A 
ATOM      6  C   UNL     1      -5.996  89.881  -9.464  1.00  0.00     0.200 A 
ATOM      7  O   UNL     1      -6.648  90.877  -9.087  1.00  0.00    -0.288 OA
ATOM      8  C   UNL     1      -5.002  89.676  -7.225  1.00  0.00     0.020 A 
ATOM      9  C   UNL     1      -4.716  88.813  -6.153  1.00  0.00     0.047 A 
ATOM     10  C   UNL     1      -4.129  87.582  -6.473  1.00  0.00     0.125 A 
ATOM     11  C   UNL     1      -4.597  86.923  -7.663  1.00  0.00     0.069 A 
ENDROOT
BRANCH   1  12
ATOM     12  C   UNL     1      -6.423  90.033 -11.990  1.00  0.00    -0.011 A 
ATOM     13  C   UNL     1      -5.624  91.159 -12.121  1.00  0.00     0.013 A 
ATOM     14  C   UNL     1      -4.514  91.110 -12.926  1.00  0.00     0.047 A 
ATOM     15  C   UNL     1      -4.403  90.038 -13.778  1.00  0.00     0.115 A 
ATOM     16  C   UNL     1      -6.596  89.320 -13.180  1.00  0.00     0.013 A 
ATOM     17  C   UNL     1      -5.529  89.188 -14.015  1.00  0.00     0.047 A 
BRANCH  15  18
ATOM     18  O   UNL     1      -3.057  89.742 -14.234  1.00  0.00    -0.508 OA
ATOM     19  H   UNL     1      -2.676  90.389 -14.951  1.00  0.00     0.293 HD
ENDBRANCH  15  18
ENDBRANCH   1  12
BRANCH  11  20
ATOM     20  C   UNL     1      -5.384  85.613  -7.352  1.00  0.00     0.188 C 
ATOM     21  C   UNL     1      -7.037  85.855  -7.443  1.00  0.00     0.179 C 
ATOM     22  O   UNL     1      -4.783  84.583  -8.129  1.00  0.00    -0.362 OA
ATOM     23  C   UNL     1      -7.720  84.597  -8.236  1.00  0.00     0.177 C 
ATOM     24  C   UNL     1      -5.572  83.504  -8.686  1.00  0.00     0.176 C 
ATOM     25  C   UNL     1      -6.877  83.931  -9.314  1.00  0.00     0.177 C 
BRANCH  21  26
ATOM     26  O   UNL     1      -7.628  86.204  -6.185  1.00  0.00    -0.387 OA
ATOM     27  H   UNL     1      -8.469  86.724  -6.337  1.00  0.00     0.211 HD
ENDBRANCH  21  26
BRANCH  23  28
ATOM     28  O   UNL     1      -8.194  83.726  -7.230  1.00  0.00    -0.387 OA
ATOM     29  H   UNL     1      -9.086  83.364  -7.436  1.00  0.00     0.211 HD
ENDBRANCH  23  28
BRANCH  24  30
ATOM     30  C   UNL     1      -4.621  82.490  -9.528  1.00  0.00     0.191 C 
BRANCH  30  31
ATOM     31  O   UNL     1      -4.636  82.853 -10.837  1.00  0.00    -0.394 OA
ATOM     32  H   UNL     1      -5.446  83.430 -10.897  1.00  0.00     0.210 HD
ENDBRANCH  30  31
ENDBRANCH  24  30
BRANCH  25  33
ATOM     33  O   UNL     1      -7.635  82.860  -9.729  1.00  0.00    -0.388 OA
ATOM     34  H   UNL     1      -8.501  82.983  -9.157  1.00  0.00     0.211 HD
ENDBRANCH  25  33
ENDBRANCH  11  20
BRANCH  10  35
ATOM     35  O   UNL     1      -3.368  86.991  -5.409  1.00  0.00    -0.507 OA
ATOM     36  H   UNL     1      -2.342  86.865  -5.464  1.00  0.00     0.293 HD
ENDBRANCH  10  35
TORSDOF 9
ENDMDL
MODEL 9
REMARK VINA RESULT:    -5.564      5.385      8.882
REMARK INTER + INTRA:          -8.739
REMARK INTER:                  -7.862
REMARK INTRA:                  -0.877
REMARK UNBOUND:                -1.224
REMARK SMILES O=c1c(-c2ccc(O)cc2)coc2c([C@@H]3O[C@H](CO)[C@@H](O)[C@@H](O)[C@H]3O)c(O)ccc12
REMARK SMILES IDX 3 1 11 2 12 3 13 4 30 5 2 6 1 7 29 8 28 9 26 10 14 11 4 12
REMARK SMILES IDX 5 13 6 14 7 15 10 16 9 17 8 18 15 20 24 21 16 22 22 23 17 24
REMARK SMILES IDX 20 25 25 26 23 28 18 30 19 31 21 33 27 35
REMARK H PARENT 8 19 25 27 23 29 19 32 21 34 27 36
REMARK Flexibility Score: inf
ROOT
ATOM      1  C   UNL     1      -4.939  85.887  -8.410  1.00  0.00     0.065 A 
ATOM      2  C   UNL     1      -5.626  86.459  -9.458  1.00  0.00     0.208 A 
ATOM      3  O   UNL     1      -5.673  87.807  -9.545  1.00  0.00    -0.463 OA
ATOM      4  C   UNL     1      -5.226  88.680  -8.620  1.00  0.00     0.147 A 
ATOM      5  C   UNL     1      -4.464  88.198  -7.519  1.00  0.00     0.066 A 
ATOM      6  C   UNL     1      -4.120  86.784  -7.522  1.00  0.00     0.200 A 
ATOM      7  O   UNL     1      -3.031  86.407  -7.039  1.00  0.00    -0.288 OA
ATOM      8  C   UNL     1      -3.666  89.079  -6.767  1.00  0.00     0.020 A 
ATOM      9  C   UNL     1      -3.625  90.437  -7.129  1.00  0.00     0.047 A 
ATOM     10  C   UNL     1      -4.731  90.937  -7.829  1.00  0.00     0.125 A 
ATOM     11  C   UNL     1      -5.330  90.073  -8.811  1.00  0.00     0.069 A 
ENDROOT
BRANCH   1  12
ATOM     12  C   UNL     1      -5.163  84.496  -8.036  1.00  0.00    -0.011 A 
ATOM     13  C   UNL     1      -6.019  83.744  -8.826  1.00  0.00     0.013 A 
ATOM     14  C   UNL     1      -5.499  82.875  -9.750  1.00  0.00     0.047 A 
ATOM     15  C   UNL     1      -4.158  82.588  -9.657  1.00  0.00     0.115 A 
ATOM     16  C   UNL     1      -4.029  83.799  -7.608  1.00  0.00     0.013 A 
ATOM     17  C   UNL     1      -3.426  82.947  -8.482  1.00  0.00     0.047 A 
BRANCH  15  18
ATOM     18  O   UNL     1      -3.540  82.096 -10.875  1.00  0.00    -0.508 OA
ATOM     19  H   UNL     1      -2.734  81.456 -10.739  1.00  0.00     0.293 HD
ENDBRANCH  15  18
ENDBRANCH   1  12
BRANCH  11  20
ATOM     20  C   UNL     1      -5.124  90.591 -10.268  1.00  0.00     0.188 C 
ATOM     21  C   UNL     1      -6.557  90.572 -11.133  1.00  0.00     0.179 C 
ATOM     22  O   UNL     1      -4.383  91.802 -10.169  1.00  0.00    -0.362 OA
ATOM     23  C   UNL     1      -6.685  91.961 -11.988  1.00  0.00     0.177 C 
ATOM     24  C   UNL     1      -4.606  92.898 -11.089  1.00  0.00     0.176 C 
ATOM     25  C   UNL     1      -6.057  93.203 -11.372  1.00  0.00     0.177 C 
BRANCH  21  26
ATOM     26  O   UNL     1      -6.758  89.357 -11.867  1.00  0.00    -0.387 OA
ATOM     27  H   UNL     1      -7.160  88.663 -11.270  1.00  0.00     0.211 HD
ENDBRANCH  21  26
BRANCH  23  28
ATOM     28  O   UNL     1      -6.231  91.650 -13.289  1.00  0.00    -0.387 OA
ATOM     29  H   UNL     1      -5.309  91.305 -13.293  1.00  0.00     0.211 HD
ENDBRANCH  23  28
BRANCH  24  30
ATOM     30  C   UNL     1      -3.626  94.143 -10.727  1.00  0.00     0.191 C 
BRANCH  30  31
ATOM     31  O   UNL     1      -3.285  94.787 -11.874  1.00  0.00    -0.394 OA
ATOM     32  H   UNL     1      -3.180  95.731 -11.573  1.00  0.00     0.210 HD
ENDBRANCH  30  31
ENDBRANCH  24  30
BRANCH  25  33
ATOM     33  O   UNL     1      -6.211  94.177 -12.331  1.00  0.00    -0.388 OA
ATOM     34  H   UNL     1      -6.100  93.623 -13.211  1.00  0.00     0.211 HD
ENDBRANCH  25  33
ENDBRANCH  11  20
BRANCH  10  35
ATOM     35  O   UNL     1      -4.926  92.354  -7.700  1.00  0.00    -0.507 OA
ATOM     36  H   UNL     1      -5.860  92.794  -7.771  1.00  0.00     0.293 HD
ENDBRANCH  10  35
TORSDOF 9
ENDMDL
