MODEL 1
REMARK VINA RESULT:    -2.542      0.000      0.000
REMARK INTER + INTRA:          -5.500
REMARK INTER:                  -4.028
REMARK INTRA:                  -1.472
REMARK UNBOUND:                -1.472
REMARK SMILES CCCCCCCCCCCC(=O)[O-]
REMARK SMILES IDX 7 1 8 2 9 3 10 4 11 5 12 6 13 7 14 8 6 9 5 10 4 11 3 12 2 13
REMARK SMILES IDX 1 14
REMARK H PARENT
REMARK Flexibility Score: inf
ROOT
ATOM      1  C   UNL     1     -22.799  29.005 -18.044  1.00  0.00     0.000 C 
ENDROOT
BRANCH   1   2
ATOM      2  C   UNL     1     -22.836  27.526 -18.457  1.00  0.00     0.000 C 
BRANCH   2   3
ATOM      3  C   UNL     1     -21.652  27.182 -19.372  1.00  0.00     0.000 C 
BRANCH   3   4
ATOM      4  C   UNL     1     -20.661  28.347 -19.543  1.00  0.00     0.006 C 
BRANCH   4   5
ATOM      5  C   UNL     1     -20.161  28.534 -20.987  1.00  0.00     0.053 C 
BRANCH   5   6
ATOM      6  C   UNL     1     -18.700  28.862 -21.056  1.00  0.00     0.041 C 
ATOM      7  O   UNL     1     -18.232  29.825 -20.394  1.00  0.00    -0.550 OA
ATOM      8  O   UNL     1     -17.860  28.121 -21.879  1.00  0.00    -0.550 OA
ENDBRANCH   5   6
ENDBRANCH   4   5
ENDBRANCH   3   4
ENDBRANCH   2   3
ENDBRANCH   1   2
BRANCH   1   9
ATOM      9  C   UNL     1     -24.151  29.710 -18.241  1.00  0.00     0.000 C 
BRANCH   9  10
ATOM     10  C   UNL     1     -24.873  29.258 -19.519  1.00  0.00    -0.000 C 
BRANCH  10  11
ATOM     11  C   UNL     1     -24.629  30.246 -20.666  1.00  0.00    -0.000 C 
BRANCH  11  12
ATOM     12  C   UNL     1     -23.728  29.626 -21.744  1.00  0.00    -0.000 C 
BRANCH  12  13
ATOM     13  C   UNL     1     -24.029  28.139 -21.982  1.00  0.00    -0.003 C 
ATOM     14  C   UNL     1     -23.319  27.582 -23.216  1.00  0.00     0.004 C 
ENDBRANCH  12  13
ENDBRANCH  11  12
ENDBRANCH  10  11
ENDBRANCH   9  10
ENDBRANCH   1   9
TORSDOF 10
ENDMDL
MODEL 2
REMARK VINA RESULT:    -2.432     14.326     15.688
REMARK INTER + INTRA:          -5.326
REMARK INTER:                  -4.305
REMARK INTRA:                  -1.021
REMARK UNBOUND:                -1.472
REMARK SMILES CCCCCCCCCCCC(=O)[O-]
REMARK SMILES IDX 7 1 8 2 9 3 10 4 11 5 12 6 13 7 14 8 6 9 5 10 4 11 3 12 2 13
REMARK SMILES IDX 1 14
REMARK H PARENT
REMARK Flexibility Score: inf
ROOT
ATOM      1  C   UNL     1     -18.813  15.196 -22.699  1.00  0.00     0.000 C 
ENDROOT
BRANCH   1   2
ATOM      2  C   UNL     1     -19.732  15.368 -21.481  1.00  0.00     0.000 C 
BRANCH   2   3
ATOM      3  C   UNL     1     -18.963  15.134 -20.173  1.00  0.00     0.000 C 
BRANCH   3   4
ATOM      4  C   UNL     1     -19.519  13.961 -19.346  1.00  0.00     0.006 C 
BRANCH   4   5
ATOM      5  C   UNL     1     -21.041  14.021 -19.122  1.00  0.00     0.053 C 
BRANCH   5   6
ATOM      6  C   UNL     1     -21.486  13.201 -17.949  1.00  0.00     0.041 C 
ATOM      7  O   UNL     1     -22.536  13.503 -17.323  1.00  0.00    -0.550 OA
ATOM      8  O   UNL     1     -20.722  12.120 -17.527  1.00  0.00    -0.550 OA
ENDBRANCH   5   6
ENDBRANCH   4   5
ENDBRANCH   3   4
ENDBRANCH   2   3
ENDBRANCH   1   2
BRANCH   1   9
ATOM      9  C   UNL     1     -18.289  13.758 -22.847  1.00  0.00     0.000 C 
BRANCH   9  10
ATOM     10  C   UNL     1     -18.653  13.133 -24.202  1.00  0.00    -0.000 C 
BRANCH  10  11
ATOM     11  C   UNL     1     -19.894  13.805 -24.802  1.00  0.00    -0.000 C 
BRANCH  11  12
ATOM     12  C   UNL     1     -21.117  12.880 -24.715  1.00  0.00    -0.000 C 
BRANCH  12  13
ATOM     13  C   UNL     1     -22.026  13.213 -23.522  1.00  0.00    -0.003 C 
ATOM     14  C   UNL     1     -22.599  14.629 -23.592  1.00  0.00     0.004 C 
ENDBRANCH  12  13
ENDBRANCH  11  12
ENDBRANCH  10  11
ENDBRANCH   9  10
ENDBRANCH   1   9
TORSDOF 10
ENDMDL
MODEL 3
REMARK VINA RESULT:    -2.432     14.275     15.872
REMARK INTER + INTRA:          -5.325
REMARK INTER:                  -4.357
REMARK INTRA:                  -0.968
REMARK UNBOUND:                -1.472
REMARK SMILES CCCCCCCCCCCC(=O)[O-]
REMARK SMILES IDX 7 1 8 2 9 3 10 4 11 5 12 6 13 7 14 8 6 9 5 10 4 11 3 12 2 13
REMARK SMILES IDX 1 14
REMARK H PARENT
REMARK Flexibility Score: inf
ROOT
ATOM      1  C   UNL     1     -21.359  13.807 -22.446  1.00  0.00     0.000 C 
ENDROOT
BRANCH   1   2
ATOM      2  C   UNL     1     -21.654  15.259 -22.043  1.00  0.00     0.000 C 
BRANCH   2   3
ATOM      3  C   UNL     1     -21.213  15.529 -20.597  1.00  0.00     0.000 C 
BRANCH   3   4
ATOM      4  C   UNL     1     -20.511  14.325 -19.944  1.00  0.00     0.006 C 
BRANCH   4   5
ATOM      5  C   UNL     1     -21.226  13.790 -18.690  1.00  0.00     0.053 C 
BRANCH   5   6
ATOM      6  C   UNL     1     -20.392  12.806 -17.924  1.00  0.00     0.041 C 
ATOM      7  O   UNL     1     -20.916  12.085 -17.035  1.00  0.00    -0.550 OA
ATOM      8  O   UNL     1     -19.029  12.710 -18.171  1.00  0.00    -0.550 OA
ENDBRANCH   5   6
ENDBRANCH   4   5
ENDBRANCH   3   4
ENDBRANCH   2   3
ENDBRANCH   1   2
BRANCH   1   9
ATOM      9  C   UNL     1     -22.003  13.420 -23.787  1.00  0.00     0.000 C 
BRANCH   9  10
ATOM     10  C   UNL     1     -20.986  12.862 -24.793  1.00  0.00    -0.000 C 
BRANCH  10  11
ATOM     11  C   UNL     1     -19.681  13.668 -24.759  1.00  0.00    -0.000 C 
BRANCH  11  12
ATOM     12  C   UNL     1     -18.494  12.777 -24.363  1.00  0.00    -0.000 C 
BRANCH  12  13
ATOM     13  C   UNL     1     -17.539  13.469 -23.379  1.00  0.00    -0.003 C 
ATOM     14  C   UNL     1     -17.944  14.913 -23.079  1.00  0.00     0.004 C 
ENDBRANCH  12  13
ENDBRANCH  11  12
ENDBRANCH  10  11
ENDBRANCH   9  10
ENDBRANCH   1   9
TORSDOF 10
ENDMDL
MODEL 4
REMARK VINA RESULT:    -2.396      1.486      3.183
REMARK INTER + INTRA:          -5.269
REMARK INTER:                  -4.039
REMARK INTRA:                  -1.230
REMARK UNBOUND:                -1.472
REMARK SMILES CCCCCCCCCCCC(=O)[O-]
REMARK SMILES IDX 7 1 8 2 9 3 10 4 11 5 12 6 13 7 14 8 6 9 5 10 4 11 3 12 2 13
REMARK SMILES IDX 1 14
REMARK H PARENT
REMARK Flexibility Score: inf
ROOT
ATOM      1  C   UNL     1     -23.331  28.110 -22.166  1.00  0.00     0.000 C 
ENDROOT
BRANCH   1   2
ATOM      2  C   UNL     1     -21.980  27.637 -21.610  1.00  0.00     0.000 C 
BRANCH   2   3
ATOM      3  C   UNL     1     -21.248  28.783 -20.895  1.00  0.00     0.000 C 
BRANCH   3   4
ATOM      4  C   UNL     1     -19.757  28.490 -20.654  1.00  0.00     0.006 C 
BRANCH   4   5
ATOM      5  C   UNL     1     -19.421  28.116 -19.199  1.00  0.00     0.053 C 
BRANCH   5   6
ATOM      6  C   UNL     1     -18.725  29.221 -18.463  1.00  0.00     0.041 C 
ATOM      7  O   UNL     1     -19.391  30.135 -17.909  1.00  0.00    -0.550 OA
ATOM      8  O   UNL     1     -17.337  29.259 -18.417  1.00  0.00    -0.550 OA
ENDBRANCH   5   6
ENDBRANCH   4   5
ENDBRANCH   3   4
ENDBRANCH   2   3
ENDBRANCH   1   2
BRANCH   1   9
ATOM      9  C   UNL     1     -23.633  29.578 -21.824  1.00  0.00     0.000 C 
BRANCH   9  10
ATOM     10  C   UNL     1     -25.011  29.763 -21.172  1.00  0.00    -0.000 C 
BRANCH  10  11
ATOM     11  C   UNL     1     -25.065  29.082 -19.799  1.00  0.00    -0.000 C 
BRANCH  11  12
ATOM     12  C   UNL     1     -24.265  29.881 -18.758  1.00  0.00    -0.000 C 
BRANCH  12  13
ATOM     13  C   UNL     1     -23.746  29.001 -17.610  1.00  0.00    -0.003 C 
ATOM     14  C   UNL     1     -23.278  27.626 -18.085  1.00  0.00     0.004 C 
ENDBRANCH  12  13
ENDBRANCH  11  12
ENDBRANCH  10  11
ENDBRANCH   9  10
ENDBRANCH   1   9
TORSDOF 10
ENDMDL
MODEL 5
REMARK VINA RESULT:    -2.380     14.489     15.989
REMARK INTER + INTRA:          -5.243
REMARK INTER:                  -4.202
REMARK INTRA:                  -1.041
REMARK UNBOUND:                -1.472
REMARK SMILES CCCCCCCCCCCC(=O)[O-]
REMARK SMILES IDX 7 1 8 2 9 3 10 4 11 5 12 6 13 7 14 8 6 9 5 10 4 11 3 12 2 13
REMARK SMILES IDX 1 14
REMARK H PARENT
REMARK Flexibility Score: inf
ROOT
ATOM      1  C   UNL     1     -20.204  15.498 -21.150  1.00  0.00     0.000 C 
ENDROOT
BRANCH   1   2
ATOM      2  C   UNL     1     -19.566  14.233 -20.556  1.00  0.00     0.000 C 
BRANCH   2   3
ATOM      3  C   UNL     1     -19.883  14.109 -19.059  1.00  0.00     0.000 C 
BRANCH   3   4
ATOM      4  C   UNL     1     -21.245  13.449 -18.782  1.00  0.00     0.006 C 
BRANCH   4   5
ATOM      5  C   UNL     1     -21.725  13.593 -17.326  1.00  0.00     0.053 C 
BRANCH   5   6
ATOM      6  C   UNL     1     -21.592  12.321 -16.544  1.00  0.00     0.041 C 
ATOM      7  O   UNL     1     -20.746  11.452 -16.882  1.00  0.00    -0.550 OA
ATOM      8  O   UNL     1     -22.428  12.081 -15.460  1.00  0.00    -0.550 OA
ENDBRANCH   5   6
ENDBRANCH   4   5
ENDBRANCH   3   4
ENDBRANCH   2   3
ENDBRANCH   1   2
BRANCH   1   9
ATOM      9  C   UNL     1     -21.059  15.203 -22.394  1.00  0.00     0.000 C 
BRANCH   9  10
ATOM     10  C   UNL     1     -21.427  13.718 -22.521  1.00  0.00    -0.000 C 
BRANCH  10  11
ATOM     11  C   UNL     1     -21.352  13.256 -23.981  1.00  0.00    -0.000 C 
BRANCH  11  12
ATOM     12  C   UNL     1     -20.077  13.780 -24.660  1.00  0.00    -0.000 C 
BRANCH  12  13
ATOM     13  C   UNL     1     -18.858  12.884 -24.397  1.00  0.00    -0.003 C 
ATOM     14  C   UNL     1     -17.704  13.635 -23.734  1.00  0.00     0.004 C 
ENDBRANCH  12  13
ENDBRANCH  11  12
ENDBRANCH  10  11
ENDBRANCH   9  10
ENDBRANCH   1   9
TORSDOF 10
ENDMDL
MODEL 6
REMARK VINA RESULT:    -2.378      1.648      3.339
REMARK INTER + INTRA:          -5.240
REMARK INTER:                  -4.448
REMARK INTRA:                  -0.792
REMARK UNBOUND:                -1.472
REMARK SMILES CCCCCCCCCCCC(=O)[O-]
REMARK SMILES IDX 7 1 8 2 9 3 10 4 11 5 12 6 13 7 14 8 6 9 5 10 4 11 3 12 2 13
REMARK SMILES IDX 1 14
REMARK H PARENT
REMARK Flexibility Score: inf
ROOT
ATOM      1  C   UNL     1     -21.183  28.510 -20.945  1.00  0.00     0.000 C 
ENDROOT
BRANCH   1   2
ATOM      2  C   UNL     1     -19.975  27.821 -20.294  1.00  0.00     0.000 C 
BRANCH   2   3
ATOM      3  C   UNL     1     -18.681  28.144 -21.055  1.00  0.00     0.000 C 
BRANCH   3   4
ATOM      4  C   UNL     1     -18.448  29.655 -21.236  1.00  0.00     0.006 C 
BRANCH   4   5
ATOM      5  C   UNL     1     -16.962  30.059 -21.260  1.00  0.00     0.053 C 
BRANCH   5   6
ATOM      6  C   UNL     1     -16.246  29.557 -22.478  1.00  0.00     0.041 C 
ATOM      7  O   UNL     1     -15.097  29.051 -22.377  1.00  0.00    -0.550 OA
ATOM      8  O   UNL     1     -16.835  29.679 -23.730  1.00  0.00    -0.550 OA
ENDBRANCH   5   6
ENDBRANCH   4   5
ENDBRANCH   3   4
ENDBRANCH   2   3
ENDBRANCH   1   2
BRANCH   1   9
ATOM      9  C   UNL     1     -22.079  27.530 -21.720  1.00  0.00     0.000 C 
BRANCH   9  10
ATOM     10  C   UNL     1     -23.363  28.189 -22.244  1.00  0.00    -0.000 C 
BRANCH  10  11
ATOM     11  C   UNL     1     -23.436  29.662 -21.821  1.00  0.00    -0.000 C 
BRANCH  11  12
ATOM     12  C   UNL     1     -24.766  29.967 -21.116  1.00  0.00    -0.000 C 
BRANCH  12  13
ATOM     13  C   UNL     1     -24.943  29.167 -19.817  1.00  0.00    -0.003 C 
ATOM     14  C   UNL     1     -24.052  29.674 -18.684  1.00  0.00     0.004 C 
ENDBRANCH  12  13
ENDBRANCH  11  12
ENDBRANCH  10  11
ENDBRANCH   9  10
ENDBRANCH   1   9
TORSDOF 10
ENDMDL
MODEL 7
REMARK VINA RESULT:    -2.357      1.227      2.974
REMARK INTER + INTRA:          -5.207
REMARK INTER:                  -4.213
REMARK INTRA:                  -0.994
REMARK UNBOUND:                -1.472
REMARK SMILES CCCCCCCCCCCC(=O)[O-]
REMARK SMILES IDX 7 1 8 2 9 3 10 4 11 5 12 6 13 7 14 8 6 9 5 10 4 11 3 12 2 13
REMARK SMILES IDX 1 14
REMARK H PARENT
REMARK Flexibility Score: inf
ROOT
ATOM      1  C   UNL     1     -22.611  29.218 -21.584  1.00  0.00     0.000 C 
ENDROOT
BRANCH   1   2
ATOM      2  C   UNL     1     -21.691  28.031 -21.265  1.00  0.00     0.000 C 
BRANCH   2   3
ATOM      3  C   UNL     1     -20.534  28.462 -20.351  1.00  0.00     0.000 C 
BRANCH   3   4
ATOM      4  C   UNL     1     -19.150  28.279 -20.999  1.00  0.00     0.006 C 
BRANCH   4   5
ATOM      5  C   UNL     1     -18.445  29.602 -21.350  1.00  0.00     0.053 C 
BRANCH   5   6
ATOM      6  C   UNL     1     -17.088  29.392 -21.952  1.00  0.00     0.041 C 
ATOM      7  O   UNL     1     -16.082  29.978 -21.472  1.00  0.00    -0.550 OA
ATOM      8  O   UNL     1     -16.940  28.572 -23.064  1.00  0.00    -0.550 OA
ENDBRANCH   5   6
ENDBRANCH   4   5
ENDBRANCH   3   4
ENDBRANCH   2   3
ENDBRANCH   1   2
BRANCH   1   9
ATOM      9  C   UNL     1     -24.063  28.789 -21.847  1.00  0.00     0.000 C 
BRANCH   9  10
ATOM     10  C   UNL     1     -25.073  29.556 -20.981  1.00  0.00    -0.000 C 
BRANCH  10  11
ATOM     11  C   UNL     1     -25.125  28.984 -19.559  1.00  0.00    -0.000 C 
BRANCH  11  12
ATOM     12  C   UNL     1     -24.432  29.924 -18.561  1.00  0.00    -0.000 C 
BRANCH  12  13
ATOM     13  C   UNL     1     -23.238  29.263 -17.858  1.00  0.00    -0.003 C 
ATOM     14  C   UNL     1     -23.313  27.736 -17.875  1.00  0.00     0.004 C 
ENDBRANCH  12  13
ENDBRANCH  11  12
ENDBRANCH  10  11
ENDBRANCH   9  10
ENDBRANCH   1   9
TORSDOF 10
ENDMDL
MODEL 8
REMARK VINA RESULT:    -2.333     13.417     15.048
REMARK INTER + INTRA:          -5.168
REMARK INTER:                  -3.768
REMARK INTRA:                  -1.400
REMARK UNBOUND:                -1.472
REMARK SMILES CCCCCCCCCCCC(=O)[O-]
REMARK SMILES IDX 7 1 8 2 9 3 10 4 11 5 12 6 13 7 14 8 6 9 5 10 4 11 3 12 2 13
REMARK SMILES IDX 1 14
REMARK H PARENT
REMARK Flexibility Score: inf
ROOT
ATOM      1  C   UNL     1     -17.761  15.056 -23.565  1.00  0.00     0.000 C 
ENDROOT
BRANCH   1   2
ATOM      2  C   UNL     1     -17.866  15.638 -22.148  1.00  0.00     0.000 C 
BRANCH   2   3
ATOM      3  C   UNL     1     -19.312  15.580 -21.635  1.00  0.00     0.000 C 
BRANCH   3   4
ATOM      4  C   UNL     1     -19.565  14.408 -20.671  1.00  0.00     0.006 C 
BRANCH   4   5
ATOM      5  C   UNL     1     -20.947  14.443 -19.994  1.00  0.00     0.053 C 
BRANCH   5   6
ATOM      6  C   UNL     1     -21.294  15.799 -19.457  1.00  0.00     0.041 C 
ATOM      7  O   UNL     1     -20.720  16.241 -18.427  1.00  0.00    -0.550 OA
ATOM      8  O   UNL     1     -22.277  16.561 -20.076  1.00  0.00    -0.550 OA
ENDBRANCH   5   6
ENDBRANCH   4   5
ENDBRANCH   3   4
ENDBRANCH   2   3
ENDBRANCH   1   2
BRANCH   1   9
ATOM      9  C   UNL     1     -17.521  13.537 -23.567  1.00  0.00     0.000 C 
BRANCH   9  10
ATOM     10  C   UNL     1     -18.606  12.768 -24.335  1.00  0.00    -0.000 C 
BRANCH  10  11
ATOM     11  C   UNL     1     -19.641  13.728 -24.933  1.00  0.00    -0.000 C 
BRANCH  11  12
ATOM     12  C   UNL     1     -21.052  13.123 -24.875  1.00  0.00    -0.000 C 
BRANCH  12  13
ATOM     13  C   UNL     1     -21.735  13.345 -23.517  1.00  0.00    -0.003 C 
ATOM     14  C   UNL     1     -22.454  14.691 -23.431  1.00  0.00     0.004 C 
ENDBRANCH  12  13
ENDBRANCH  11  12
ENDBRANCH  10  11
ENDBRANCH   9  10
ENDBRANCH   1   9
TORSDOF 10
ENDMDL
MODEL 9
REMARK VINA RESULT:    -2.242      2.628      5.500
REMARK INTER + INTRA:          -5.025
REMARK INTER:                  -4.116
REMARK INTRA:                  -0.909
REMARK UNBOUND:                -1.472
REMARK SMILES CCCCCCCCCCCC(=O)[O-]
REMARK SMILES IDX 7 1 8 2 9 3 10 4 11 5 12 6 13 7 14 8 6 9 5 10 4 11 3 12 2 13
REMARK SMILES IDX 1 14
REMARK H PARENT
REMARK Flexibility Score: inf
ROOT
ATOM      1  C   UNL     1     -21.885  27.539 -21.296  1.00  0.00     0.000 C 
ENDROOT
BRANCH   1   2
ATOM      2  C   UNL     1     -23.069  28.180 -22.033  1.00  0.00     0.000 C 
BRANCH   2   3
ATOM      3  C   UNL     1     -23.446  29.528 -21.401  1.00  0.00     0.000 C 
BRANCH   3   4
ATOM      4  C   UNL     1     -24.664  29.437 -20.464  1.00  0.00     0.006 C 
BRANCH   4   5
ATOM      5  C   UNL     1     -24.399  29.964 -19.042  1.00  0.00     0.053 C 
BRANCH   5   6
ATOM      6  C   UNL     1     -23.606  29.004 -18.207  1.00  0.00     0.041 C 
ATOM      7  O   UNL     1     -23.790  27.764 -18.316  1.00  0.00    -0.550 OA
ATOM      8  O   UNL     1     -22.684  29.484 -17.284  1.00  0.00    -0.550 OA
ENDBRANCH   5   6
ENDBRANCH   4   5
ENDBRANCH   3   4
ENDBRANCH   2   3
ENDBRANCH   1   2
BRANCH   1   9
ATOM      9  C   UNL     1     -20.794  28.558 -20.927  1.00  0.00     0.000 C 
BRANCH   9  10
ATOM     10  C   UNL     1     -20.198  28.308 -19.534  1.00  0.00    -0.000 C 
BRANCH  10  11
ATOM     11  C   UNL     1     -19.025  29.257 -19.260  1.00  0.00    -0.000 C 
BRANCH  11  12
ATOM     12  C   UNL     1     -18.156  29.436 -20.514  1.00  0.00    -0.000 C 
BRANCH  12  13
ATOM     13  C   UNL     1     -17.454  30.801 -20.557  1.00  0.00    -0.003 C 
ATOM     14  C   UNL     1     -16.332  30.856 -21.595  1.00  0.00     0.004 C 
ENDBRANCH  12  13
ENDBRANCH  11  12
ENDBRANCH  10  11
ENDBRANCH   9  10
ENDBRANCH   1   9
TORSDOF 10
ENDMDL
