MODEL 1
REMARK VINA RESULT:    -2.453      0.000      0.000
REMARK INTER + INTRA:          -2.453
REMARK INTER:                  -2.453
REMARK INTRA:                   0.000
REMARK UNBOUND:                 0.000
REMARK SMILES CC(=O)[O-]
REMARK SMILES IDX 1 1 2 2 3 3 4 4
REMARK H PARENT
REMARK Flexibility Score: inf
ROOT
ATOM      1  C   UNL     1     -16.638 -31.028  23.435  1.00  0.00     0.063 C 
ATOM      2  C   UNL     1     -18.104 -31.026  23.703  1.00  0.00     0.038 C 
ATOM      3  O   UNL     1     -18.850 -31.875  23.147  1.00  0.00    -0.550 OA
ATOM      4  O   UNL     1     -18.645 -30.122  24.609  1.00  0.00    -0.550 OA
ENDROOT
TORSDOF 0
ENDMDL
MODEL 2
REMARK VINA RESULT:    -2.432      0.145      1.623
REMARK INTER + INTRA:          -2.432
REMARK INTER:                  -2.432
REMARK INTRA:                   0.000
REMARK UNBOUND:                 0.000
REMARK SMILES CC(=O)[O-]
REMARK SMILES IDX 1 1 2 2 3 3 4 4
REMARK H PARENT
REMARK Flexibility Score: inf
ROOT
ATOM      1  C   UNL     1     -16.584 -30.992  23.293  1.00  0.00     0.063 C 
ATOM      2  C   UNL     1     -18.022 -31.021  23.686  1.00  0.00     0.038 C 
ATOM      3  O   UNL     1     -18.472 -30.174  24.501  1.00  0.00    -0.550 OA
ATOM      4  O   UNL     1     -18.881 -31.951  23.113  1.00  0.00    -0.550 OA
ENDROOT
TORSDOF 0
ENDMDL
MODEL 3
REMARK VINA RESULT:    -2.277      1.344      2.154
REMARK INTER + INTRA:          -2.277
REMARK INTER:                  -2.277
REMARK INTRA:                   0.000
REMARK UNBOUND:                 0.000
REMARK SMILES CC(=O)[O-]
REMARK SMILES IDX 1 1 2 2 3 3 4 4
REMARK H PARENT
REMARK Flexibility Score: inf
ROOT
ATOM      1  C   UNL     1     -18.835 -29.913  24.539  1.00  0.00     0.063 C 
ATOM      2  C   UNL     1     -18.051 -30.907  23.752  1.00  0.00     0.038 C 
ATOM      3  O   UNL     1     -16.793 -30.877  23.770  1.00  0.00    -0.550 OA
ATOM      4  O   UNL     1     -18.707 -31.904  23.039  1.00  0.00    -0.550 OA
ENDROOT
TORSDOF 0
ENDMDL
MODEL 4
REMARK VINA RESULT:    -2.242      1.963      2.242
REMARK INTER + INTRA:          -2.242
REMARK INTER:                  -2.242
REMARK INTRA:                   0.000
REMARK UNBOUND:                 0.000
REMARK SMILES CC(=O)[O-]
REMARK SMILES IDX 1 1 2 2 3 3 4 4
REMARK H PARENT
REMARK Flexibility Score: inf
ROOT
ATOM      1  C   UNL     1     -19.148 -29.894  24.700  1.00  0.00     0.063 C 
ATOM      2  C   UNL     1     -19.523 -31.045  23.831  1.00  0.00     0.038 C 
ATOM      3  O   UNL     1     -20.734 -31.341  23.662  1.00  0.00    -0.550 OA
ATOM      4  O   UNL     1     -18.538 -31.762  23.161  1.00  0.00    -0.550 OA
ENDROOT
TORSDOF 0
ENDMDL
MODEL 5
REMARK VINA RESULT:    -2.227     10.005     10.543
REMARK INTER + INTRA:          -2.227
REMARK INTER:                  -2.227
REMARK INTRA:                   0.000
REMARK UNBOUND:                 0.000
REMARK SMILES CC(=O)[O-]
REMARK SMILES IDX 1 1 2 2 3 3 4 4
REMARK H PARENT
REMARK Flexibility Score: inf
ROOT
ATOM      1  C   UNL     1     -28.093 -33.634  22.842  1.00  0.00     0.063 C 
ATOM      2  C   UNL     1     -28.233 -32.306  22.180  1.00  0.00     0.038 C 
ATOM      3  O   UNL     1     -27.209 -31.649  21.857  1.00  0.00    -0.550 OA
ATOM      4  O   UNL     1     -29.495 -31.813  21.869  1.00  0.00    -0.550 OA
ENDROOT
TORSDOF 0
ENDMDL
MODEL 6
REMARK VINA RESULT:    -2.212      1.855      2.111
REMARK INTER + INTRA:          -2.212
REMARK INTER:                  -2.212
REMARK INTRA:                   0.000
REMARK UNBOUND:                 0.000
REMARK SMILES CC(=O)[O-]
REMARK SMILES IDX 1 1 2 2 3 3 4 4
REMARK H PARENT
REMARK Flexibility Score: inf
ROOT
ATOM      1  C   UNL     1     -18.892 -31.031  23.718  1.00  0.00     0.063 C 
ATOM      2  C   UNL     1     -17.562 -30.431  23.418  1.00  0.00     0.038 C 
ATOM      3  O   UNL     1     -16.508 -31.067  23.680  1.00  0.00    -0.550 OA
ATOM      4  O   UNL     1     -17.482 -29.190  22.797  1.00  0.00    -0.550 OA
ENDROOT
TORSDOF 0
ENDMDL
MODEL 7
REMARK VINA RESULT:    -2.163     10.039     10.605
REMARK INTER + INTRA:          -2.163
REMARK INTER:                  -2.163
REMARK INTRA:                   0.000
REMARK UNBOUND:                 0.000
REMARK SMILES CC(=O)[O-]
REMARK SMILES IDX 1 1 2 2 3 3 4 4
REMARK H PARENT
REMARK Flexibility Score: inf
ROOT
ATOM      1  C   UNL     1     -29.589 -31.670  22.123  1.00  0.00     0.063 C 
ATOM      2  C   UNL     1     -28.269 -32.361  22.179  1.00  0.00     0.038 C 
ATOM      3  O   UNL     1     -28.207 -33.581  22.483  1.00  0.00    -0.550 OA
ATOM      4  O   UNL     1     -27.109 -31.674  21.843  1.00  0.00    -0.550 OA
ENDROOT
TORSDOF 0
ENDMDL
MODEL 8
REMARK VINA RESULT:    -2.158      2.217      2.799
REMARK INTER + INTRA:          -2.158
REMARK INTER:                  -2.158
REMARK INTRA:                   0.000
REMARK UNBOUND:                 0.000
REMARK SMILES CC(=O)[O-]
REMARK SMILES IDX 1 1 2 2 3 3 4 4
REMARK H PARENT
REMARK Flexibility Score: inf
ROOT
ATOM      1  C   UNL     1     -16.697 -31.097  23.542  1.00  0.00     0.063 C 
ATOM      2  C   UNL     1     -16.937 -30.237  22.348  1.00  0.00     0.038 C 
ATOM      3  O   UNL     1     -17.300 -29.041  22.494  1.00  0.00    -0.550 OA
ATOM      4  O   UNL     1     -16.710 -30.738  21.072  1.00  0.00    -0.550 OA
ENDROOT
TORSDOF 0
ENDMDL
MODEL 9
REMARK VINA RESULT:    -2.157      8.950      9.081
REMARK INTER + INTRA:          -2.157
REMARK INTER:                  -2.157
REMARK INTRA:                   0.000
REMARK UNBOUND:                 0.000
REMARK SMILES CC(=O)[O-]
REMARK SMILES IDX 1 1 2 2 3 3 4 4
REMARK H PARENT
REMARK Flexibility Score: inf
ROOT
ATOM      1  C   UNL     1     -18.801 -27.709  13.880  1.00  0.00     0.063 C 
ATOM      2  C   UNL     1     -18.812 -27.954  15.351  1.00  0.00     0.038 C 
ATOM      3  O   UNL     1     -19.629 -28.771  15.849  1.00  0.00    -0.550 OA
ATOM      4  O   UNL     1     -17.885 -27.320  16.169  1.00  0.00    -0.550 OA
ENDROOT
TORSDOF 0
ENDMDL
