MODEL 1
REMARK VINA RESULT:     4.312      0.000      0.000
REMARK INTER + INTRA:           4.683
REMARK INTER:                   4.816
REMARK INTRA:                  -0.133
REMARK UNBOUND:                -0.133
REMARK SMILES O=C([O-])C=Cc1ccccc1
REMARK SMILES IDX 4 1 5 2 2 3 1 4 3 5 6 6 7 7 11 8 8 9 10 10 9 11
REMARK H PARENT
REMARK Flexibility Score: inf
ROOT
ATOM      1  C   UNL     1     103.861 103.244 106.281  1.00  0.00     0.025 C 
ATOM      2  C   UNL     1     103.443 102.865 105.064  1.00  0.00     0.010 C 
ENDROOT
BRANCH   1   3
ATOM      3  C   UNL     1     103.529 102.473 107.490  1.00  0.00     0.064 C 
ATOM      4  O   UNL     1     103.549 101.214 107.449  1.00  0.00    -0.545 OA
ATOM      5  O   UNL     1     103.195 103.110 108.680  1.00  0.00    -0.545 OA
ENDBRANCH   1   3
BRANCH   2   6
ATOM      6  C   UNL     1     103.739 103.592 103.799  1.00  0.00    -0.026 A 
ATOM      7  C   UNL     1     103.406 102.969 102.582  1.00  0.00     0.008 A 
ATOM      8  C   UNL     1     104.337 104.872 103.761  1.00  0.00     0.008 A 
ATOM      9  C   UNL     1     103.660 103.602 101.362  1.00  0.00     0.001 A 
ATOM     10  C   UNL     1     104.588 105.499 102.536  1.00  0.00     0.001 A 
ATOM     11  C   UNL     1     104.250 104.866 101.339  1.00  0.00     0.000 A 
ENDBRANCH   2   6
TORSDOF 2
ENDMDL
MODEL 2
REMARK VINA RESULT:     4.331      1.881      2.823
REMARK INTER + INTRA:           4.704
REMARK INTER:                   4.837
REMARK INTRA:                  -0.133
REMARK UNBOUND:                -0.133
REMARK SMILES O=C([O-])C=Cc1ccccc1
REMARK SMILES IDX 4 1 5 2 2 3 1 4 3 5 6 6 7 7 11 8 8 9 10 10 9 11
REMARK H PARENT
REMARK Flexibility Score: inf
ROOT
ATOM      1  C   UNL     1     104.105 105.015 106.287  1.00  0.00     0.025 C 
ATOM      2  C   UNL     1     104.555 105.373 105.076  1.00  0.00     0.010 C 
ENDROOT
BRANCH   1   3
ATOM      3  C   UNL     1     104.437 105.785 107.497  1.00  0.00     0.064 C 
ATOM      4  O   UNL     1     104.438 107.043 107.452  1.00  0.00    -0.545 OA
ATOM      5  O   UNL     1     104.749 105.145 108.692  1.00  0.00    -0.545 OA
ENDBRANCH   1   3
BRANCH   2   6
ATOM      6  C   UNL     1     104.261 104.647 103.810  1.00  0.00    -0.026 A 
ATOM      7  C   UNL     1     104.587 105.275 102.593  1.00  0.00     0.008 A 
ATOM      8  C   UNL     1     103.672 103.363 103.771  1.00  0.00     0.008 A 
ATOM      9  C   UNL     1     104.335 104.642 101.373  1.00  0.00     0.001 A 
ATOM     10  C   UNL     1     103.423 102.736 102.545  1.00  0.00     0.001 A 
ATOM     11  C   UNL     1     103.754 103.374 101.349  1.00  0.00     0.000 A 
ENDBRANCH   2   6
TORSDOF 2
ENDMDL
MODEL 3
REMARK VINA RESULT:     4.403      3.921      5.523
REMARK INTER + INTRA:           4.785
REMARK INTER:                   4.917
REMARK INTRA:                  -0.132
REMARK UNBOUND:                -0.133
REMARK SMILES O=C([O-])C=Cc1ccccc1
REMARK SMILES IDX 4 1 5 2 2 3 1 4 3 5 6 6 7 7 11 8 8 9 10 10 9 11
REMARK H PARENT
REMARK Flexibility Score: inf
ROOT
ATOM      1  C   UNL     1     104.135 104.921 101.488  1.00  0.00     0.025 C 
ATOM      2  C   UNL     1     104.503 105.356 100.274  1.00  0.00     0.010 C 
ENDROOT
BRANCH   1   3
ATOM      3  C   UNL     1     104.440 105.683 102.710  1.00  0.00     0.064 C 
ATOM      4  O   UNL     1     104.733 105.069 103.768  1.00  0.00    -0.545 OA
ATOM      5  O   UNL     1     104.410 107.074 102.716  1.00  0.00    -0.545 OA
ENDBRANCH   1   3
BRANCH   2   6
ATOM      6  C   UNL     1     104.230 104.642  98.997  1.00  0.00    -0.026 A 
ATOM      7  C   UNL     1     104.559 105.289  97.791  1.00  0.00     0.008 A 
ATOM      8  C   UNL     1     103.659 103.350  98.936  1.00  0.00     0.008 A 
ATOM      9  C   UNL     1     104.327 104.668  96.560  1.00  0.00     0.001 A 
ATOM     10  C   UNL     1     103.429 102.735  97.700  1.00  0.00     0.001 A 
ATOM     11  C   UNL     1     103.763 103.393  96.515  1.00  0.00     0.000 A 
ENDBRANCH   2   6
TORSDOF 2
ENDMDL
MODEL 4
REMARK VINA RESULT:     4.405      3.384      4.897
REMARK INTER + INTRA:           4.787
REMARK INTER:                   4.919
REMARK INTRA:                  -0.132
REMARK UNBOUND:                -0.133
REMARK SMILES O=C([O-])C=Cc1ccccc1
REMARK SMILES IDX 4 1 5 2 2 3 1 4 3 5 6 6 7 7 11 8 8 9 10 10 9 11
REMARK H PARENT
REMARK Flexibility Score: inf
ROOT
ATOM      1  C   UNL     1     103.847 103.298 101.495  1.00  0.00     0.025 C 
ATOM      2  C   UNL     1     103.450 102.891 100.281  1.00  0.00     0.010 C 
ENDROOT
BRANCH   1   3
ATOM      3  C   UNL     1     103.519 102.541 102.714  1.00  0.00     0.064 C 
ATOM      4  O   UNL     1     103.202 103.160 103.763  1.00  0.00    -0.545 OA
ATOM      5  O   UNL     1     103.553 101.151 102.727  1.00  0.00    -0.545 OA
ENDBRANCH   1   3
BRANCH   2   6
ATOM      6  C   UNL     1     103.744 103.602  99.007  1.00  0.00    -0.026 A 
ATOM      7  C   UNL     1     103.426 102.956  97.798  1.00  0.00     0.008 A 
ATOM      8  C   UNL     1     104.325 104.889  98.953  1.00  0.00     0.008 A 
ATOM      9  C   UNL     1     103.678 103.574  96.570  1.00  0.00     0.001 A 
ATOM     10  C   UNL     1     104.575 105.501  97.720  1.00  0.00     0.001 A 
ATOM     11  C   UNL     1     104.251 104.846  96.531  1.00  0.00     0.000 A 
ENDBRANCH   2   6
TORSDOF 2
ENDMDL
