MODEL 1
REMARK VINA RESULT:    56.759      0.000      0.000
REMARK INTER + INTRA:          89.391
REMARK INTER:                  89.940
REMARK INTRA:                  -0.549
REMARK UNBOUND:                -0.549
REMARK SMILES C[C@H]1O[C@H](O[C@H]2[C@H](Oc3cc(O)c4c(c3)O[C@@H](c3ccc(O)cc3)CC4=O)O[C@H](CO)[C@@H](O)[C@H]2O)[C@@H](O)[C@H](O)[C@H]1O
REMARK SMILES IDX 6 1 34 2 32 3 29 4 28 5 7 6 5 7 4 8 1 9 2 10 40 11 3 12
REMARK SMILES IDX 38 13 36 14 41 15 39 17 37 19 35 21 8 23 9 24 10 25 15 26
REMARK SMILES IDX 11 27 14 28 13 29 16 30 26 31 17 32 27 33 25 34 12 35 18 37
REMARK SMILES IDX 19 38 24 39 20 40 23 41 21 42 22 43 33 45 30 47 31 48
REMARK H PARENT 41 16 39 18 37 20 35 22 12 36 22 44 33 46 31 49
REMARK Flexibility Score: inf
ROOT
ATOM      1  C   UNL     1      85.186  14.646 108.874  1.00  0.00     0.221 C 
ATOM      2  C   UNL     1      83.834  14.059 109.310  1.00  0.00     0.181 C 
ATOM      3  C   UNL     1      83.180  13.303 108.144  1.00  0.00     0.177 C 
ATOM      4  C   UNL     1      83.111  14.197 106.885  1.00  0.00     0.179 C 
ATOM      5  O   UNL     1      84.372  14.762 106.533  1.00  0.00    -0.332 OA
ATOM      6  C   UNL     1      85.010  15.473 107.589  1.00  0.00     0.339 C 
ENDROOT
BRANCH   1   7
ATOM      7  O   UNL     1      86.105  13.588 108.625  1.00  0.00    -0.337 OA
BRANCH   7   8
ATOM      8  C   UNL     1      86.781  13.738 107.391  1.00  0.00     0.282 C 
ATOM      9  C   UNL     1      87.381  15.547 105.058  1.00  0.00     0.041 C 
ATOM     10  C   UNL     1      88.314  15.102 106.206  1.00  0.00     0.150 C 
ATOM     11  C   UNL     1      89.221  13.896 105.860  1.00  0.00     0.174 C 
ATOM     12  O   UNL     1      87.611  14.892 107.423  1.00  0.00    -0.344 OA
ATOM     13  C   UNL     1      88.423  12.583 105.869  1.00  0.00     0.179 C 
ATOM     14  C   UNL     1      87.627  12.474 107.176  1.00  0.00     0.202 C 
BRANCH  11  15
ATOM     15  O   UNL     1      89.831  14.068 104.606  1.00  0.00    -0.388 OA
ATOM     16  H   UNL     1      90.774  14.348 104.783  1.00  0.00     0.211 HD
ENDBRANCH  11  15
BRANCH  13  17
ATOM     17  O   UNL     1      89.324  11.509 105.763  1.00  0.00    -0.387 OA
ATOM     18  H   UNL     1      90.241  11.892 105.802  1.00  0.00     0.211 HD
ENDBRANCH  13  17
BRANCH  14  19
ATOM     19  O   UNL     1      86.791  11.346 107.144  1.00  0.00    -0.385 OA
ATOM     20  H   UNL     1      85.859  11.679 107.133  1.00  0.00     0.211 HD
ENDBRANCH  14  19
ENDBRANCH   7   8
ENDBRANCH   1   7
BRANCH   2  21
ATOM     21  O   UNL     1      84.027  13.189 110.400  1.00  0.00    -0.387 OA
ATOM     22  H   UNL     1      84.783  12.592 110.152  1.00  0.00     0.211 HD
ENDBRANCH   2  21
BRANCH   6  23
ATOM     23  O   UNL     1      84.330  16.699 107.879  1.00  0.00    -0.462 OA
BRANCH  23  24
ATOM     24  C   UNL     1      84.938  17.959 107.961  1.00  0.00     0.130 A 
ATOM     25  C   UNL     1      84.548  18.941 107.041  1.00  0.00     0.093 A 
ATOM     26  C   UNL     1      85.887  18.272 108.947  1.00  0.00     0.094 A 
ATOM     27  C   UNL     1      85.056  20.247 107.119  1.00  0.00     0.133 A 
ATOM     28  C   UNL     1      86.365  19.580 109.069  1.00  0.00     0.138 A 
ATOM     29  C   UNL     1      85.936  20.590 108.181  1.00  0.00     0.102 A 
ATOM     30  O   UNL     1      87.264  19.878 110.105  1.00  0.00    -0.484 OA
ATOM     31  C   UNL     1      86.406  21.976 108.460  1.00  0.00     0.174 C 
ATOM     32  C   UNL     1      87.434  21.213 110.583  1.00  0.00     0.211 C 
ATOM     33  O   UNL     1      85.816  22.977 107.977  1.00  0.00    -0.294 OA
ATOM     34  C   UNL     1      87.557  22.192 109.403  1.00  0.00     0.131 C 
BRANCH  27  35
ATOM     35  O   UNL     1      84.669  21.144 106.123  1.00  0.00    -0.507 OA
ATOM     36  H   UNL     1      84.984  21.100 105.166  1.00  0.00     0.293 HD
ENDBRANCH  27  35
BRANCH  32  37
ATOM     37  C   UNL     1      88.634  21.291 111.496  1.00  0.00    -0.007 A 
ATOM     38  C   UNL     1      89.224  20.118 112.010  1.00  0.00     0.011 A 
ATOM     39  C   UNL     1      89.202  22.540 111.806  1.00  0.00     0.011 A 
ATOM     40  C   UNL     1      90.377  20.202 112.794  1.00  0.00     0.046 A 
ATOM     41  C   UNL     1      90.351  22.615 112.600  1.00  0.00     0.046 A 
ATOM     42  C   UNL     1      90.949  21.448 113.086  1.00  0.00     0.115 A 
BRANCH  42  43
ATOM     43  O   UNL     1      92.112  21.538 113.847  1.00  0.00    -0.508 OA
ATOM     44  H   UNL     1      92.116  22.005 114.756  1.00  0.00     0.293 HD
ENDBRANCH  42  43
ENDBRANCH  32  37
ENDBRANCH  23  24
ENDBRANCH   6  23
BRANCH   3  45
ATOM     45  O   UNL     1      83.917  12.141 107.854  1.00  0.00    -0.387 OA
ATOM     46  H   UNL     1      83.457  11.693 107.089  1.00  0.00     0.211 HD
ENDBRANCH   3  45
BRANCH   4  47
ATOM     47  C   UNL     1      81.978  15.243 106.919  1.00  0.00     0.191 C 
BRANCH  47  48
ATOM     48  O   UNL     1      80.881  14.726 107.627  1.00  0.00    -0.394 OA
ATOM     49  H   UNL     1      80.251  15.485 107.760  1.00  0.00     0.210 HD
ENDBRANCH  47  48
ENDBRANCH   4  47
TORSDOF 14
ENDMDL
