MODEL 1
REMARK VINA RESULT:    -4.340      0.000      0.000
REMARK INTER + INTRA:          -4.972
REMARK INTER:                  -4.721
REMARK INTRA:                  -0.251
REMARK UNBOUND:                -0.251
REMARK SMILES O=C([O-])c1ccccc1O
REMARK SMILES IDX 4 1 9 2 5 3 8 4 6 5 7 6 2 7 1 8 3 9 10 10
REMARK H PARENT 10 11
REMARK Flexibility Score: inf
ROOT
ATOM      1  C   UNL     1      -8.190   2.794  -5.795  1.00  0.00     0.039 A 
ATOM      2  C   UNL     1      -6.811   2.576  -6.055  1.00  0.00     0.124 A 
ATOM      3  C   UNL     1      -8.831   3.889  -6.403  1.00  0.00     0.014 A 
ATOM      4  C   UNL     1      -6.106   3.483  -6.856  1.00  0.00     0.047 A 
ATOM      5  C   UNL     1      -8.117   4.773  -7.215  1.00  0.00     0.001 A 
ATOM      6  C   UNL     1      -6.755   4.577  -7.433  1.00  0.00     0.004 A 
ENDROOT
BRANCH   1   7
ATOM      7  C   UNL     1      -8.980   1.936  -4.883  1.00  0.00     0.075 C 
ATOM      8  O   UNL     1     -10.124   1.526  -5.210  1.00  0.00    -0.545 OA
ATOM      9  O   UNL     1      -8.433   1.518  -3.675  1.00  0.00    -0.545 OA
ENDBRANCH   1   7
BRANCH   2  10
ATOM     10  O   UNL     1      -6.119   1.463  -5.573  1.00  0.00    -0.507 OA
ATOM     11  H   UNL     1      -5.111   1.395  -5.561  1.00  0.00     0.293 HD
ENDBRANCH   2  10
TORSDOF 2
ENDMDL
MODEL 2
REMARK VINA RESULT:    -4.285     13.217     14.561
REMARK INTER + INTRA:          -4.911
REMARK INTER:                  -4.666
REMARK INTRA:                  -0.246
REMARK UNBOUND:                -0.251
REMARK SMILES O=C([O-])c1ccccc1O
REMARK SMILES IDX 4 1 9 2 5 3 8 4 6 5 7 6 2 7 1 8 3 9 10 10
REMARK H PARENT 10 11
REMARK Flexibility Score: inf
ROOT
ATOM      1  C   UNL     1       4.785   8.552  -2.636  1.00  0.00     0.039 A 
ATOM      2  C   UNL     1       5.684   7.620  -3.218  1.00  0.00     0.124 A 
ATOM      3  C   UNL     1       5.273   9.810  -2.239  1.00  0.00     0.014 A 
ATOM      4  C   UNL     1       7.043   7.945  -3.327  1.00  0.00     0.047 A 
ATOM      5  C   UNL     1       6.628  10.125  -2.373  1.00  0.00     0.001 A 
ATOM      6  C   UNL     1       7.512   9.190  -2.907  1.00  0.00     0.004 A 
ENDROOT
BRANCH   1   7
ATOM      7  C   UNL     1       3.357   8.246  -2.397  1.00  0.00     0.075 C 
ATOM      8  O   UNL     1       3.005   7.141  -1.908  1.00  0.00    -0.545 OA
ATOM      9  O   UNL     1       2.388   9.211  -2.650  1.00  0.00    -0.545 OA
ENDBRANCH   1   7
BRANCH   2  10
ATOM     10  O   UNL     1       5.270   6.387  -3.726  1.00  0.00    -0.507 OA
ATOM     11  H   UNL     1       4.632   6.290  -4.504  1.00  0.00     0.293 HD
ENDBRANCH   2  10
TORSDOF 2
ENDMDL
MODEL 3
REMARK VINA RESULT:    -4.245      2.069      2.325
REMARK INTER + INTRA:          -4.868
REMARK INTER:                  -4.615
REMARK INTRA:                  -0.253
REMARK UNBOUND:                -0.251
REMARK SMILES O=C([O-])c1ccccc1O
REMARK SMILES IDX 4 1 9 2 5 3 8 4 6 5 7 6 2 7 1 8 3 9 10 10
REMARK H PARENT 10 11
REMARK Flexibility Score: inf
ROOT
ATOM      1  C   UNL     1      -8.284   1.007  -6.210  1.00  0.00     0.039 A 
ATOM      2  C   UNL     1      -7.056   1.642  -6.534  1.00  0.00     0.124 A 
ATOM      3  C   UNL     1      -9.176   0.683  -7.249  1.00  0.00     0.014 A 
ATOM      4  C   UNL     1      -6.785   1.987  -7.864  1.00  0.00     0.047 A 
ATOM      5  C   UNL     1      -8.880   1.017  -8.573  1.00  0.00     0.001 A 
ATOM      6  C   UNL     1      -7.692   1.677  -8.879  1.00  0.00     0.004 A 
ENDROOT
BRANCH   1   7
ATOM      7  C   UNL     1      -8.686   0.700  -4.819  1.00  0.00     0.075 C 
ATOM      8  O   UNL     1      -9.233  -0.397  -4.531  1.00  0.00    -0.545 OA
ATOM      9  O   UNL     1      -8.402   1.600  -3.798  1.00  0.00    -0.545 OA
ENDBRANCH   1   7
BRANCH   2  10
ATOM     10  O   UNL     1      -6.073   1.914  -5.580  1.00  0.00    -0.507 OA
ATOM     11  H   UNL     1      -6.263   2.354  -4.691  1.00  0.00     0.293 HD
ENDBRANCH   2  10
TORSDOF 2
ENDMDL
MODEL 4
REMARK VINA RESULT:    -4.234     13.164     14.583
REMARK INTER + INTRA:          -4.856
REMARK INTER:                  -4.604
REMARK INTRA:                  -0.252
REMARK UNBOUND:                -0.251
REMARK SMILES O=C([O-])c1ccccc1O
REMARK SMILES IDX 4 1 9 2 5 3 8 4 6 5 7 6 2 7 1 8 3 9 10 10
REMARK H PARENT 10 11
REMARK Flexibility Score: inf
ROOT
ATOM      1  C   UNL     1       4.899   7.992  -2.697  1.00  0.00     0.039 A 
ATOM      2  C   UNL     1       5.641   8.617  -3.734  1.00  0.00     0.124 A 
ATOM      3  C   UNL     1       5.513   6.980  -1.937  1.00  0.00     0.014 A 
ATOM      4  C   UNL     1       6.940   8.175  -4.019  1.00  0.00     0.047 A 
ATOM      5  C   UNL     1       6.816   6.565  -2.222  1.00  0.00     0.001 A 
ATOM      6  C   UNL     1       7.525   7.154  -3.267  1.00  0.00     0.004 A 
ENDROOT
BRANCH   1   7
ATOM      7  C   UNL     1       3.491   8.335  -2.400  1.00  0.00     0.075 C 
ATOM      8  O   UNL     1       2.655   7.441  -2.107  1.00  0.00    -0.545 OA
ATOM      9  O   UNL     1       3.089   9.666  -2.376  1.00  0.00    -0.545 OA
ENDBRANCH   1   7
BRANCH   2  10
ATOM     10  O   UNL     1       5.146   9.692  -4.474  1.00  0.00    -0.507 OA
ATOM     11  H   UNL     1       5.549  10.002  -5.348  1.00  0.00     0.293 HD
ENDBRANCH   2  10
TORSDOF 2
ENDMDL
MODEL 5
REMARK VINA RESULT:    -4.177      1.881      3.574
REMARK INTER + INTRA:          -4.794
REMARK INTER:                  -4.580
REMARK INTRA:                  -0.213
REMARK UNBOUND:                -0.251
REMARK SMILES O=C([O-])c1ccccc1O
REMARK SMILES IDX 4 1 9 2 5 3 8 4 6 5 7 6 2 7 1 8 3 9 10 10
REMARK H PARENT 10 11
REMARK Flexibility Score: inf
ROOT
ATOM      1  C   UNL     1      -7.289   3.586  -6.685  1.00  0.00     0.039 A 
ATOM      2  C   UNL     1      -7.238   2.397  -5.910  1.00  0.00     0.124 A 
ATOM      3  C   UNL     1      -8.528   4.227  -6.866  1.00  0.00     0.014 A 
ATOM      4  C   UNL     1      -8.423   1.855  -5.396  1.00  0.00     0.047 A 
ATOM      5  C   UNL     1      -9.698   3.683  -6.330  1.00  0.00     0.001 A 
ATOM      6  C   UNL     1      -9.647   2.494  -5.605  1.00  0.00     0.004 A 
ENDROOT
BRANCH   1   7
ATOM      7  C   UNL     1      -6.096   4.166  -7.342  1.00  0.00     0.075 C 
ATOM      8  O   UNL     1      -4.941   3.743  -7.076  1.00  0.00    -0.545 OA
ATOM      9  O   UNL     1      -6.247   5.145  -8.317  1.00  0.00    -0.545 OA
ENDBRANCH   1   7
BRANCH   2  10
ATOM     10  O   UNL     1      -6.041   1.749  -5.599  1.00  0.00    -0.507 OA
ATOM     11  H   UNL     1      -5.962   1.029  -4.894  1.00  0.00     0.293 HD
ENDBRANCH   2  10
TORSDOF 2
ENDMDL
MODEL 6
REMARK VINA RESULT:    -4.156     13.544     14.447
REMARK INTER + INTRA:          -4.771
REMARK INTER:                  -4.528
REMARK INTRA:                  -0.243
REMARK UNBOUND:                -0.251
REMARK SMILES O=C([O-])c1ccccc1O
REMARK SMILES IDX 4 1 9 2 5 3 8 4 6 5 7 6 2 7 1 8 3 9 10 10
REMARK H PARENT 10 11
REMARK Flexibility Score: inf
ROOT
ATOM      1  C   UNL     1      -2.773   1.797   7.269  1.00  0.00     0.039 A 
ATOM      2  C   UNL     1      -2.173   2.949   6.698  1.00  0.00     0.124 A 
ATOM      3  C   UNL     1      -2.552   1.519   8.630  1.00  0.00     0.014 A 
ATOM      4  C   UNL     1      -1.328   3.749   7.478  1.00  0.00     0.047 A 
ATOM      5  C   UNL     1      -1.723   2.339   9.400  1.00  0.00     0.001 A 
ATOM      6  C   UNL     1      -1.104   3.446   8.823  1.00  0.00     0.004 A 
ENDROOT
BRANCH   1   7
ATOM      7  C   UNL     1      -3.598   0.850   6.485  1.00  0.00     0.075 C 
ATOM      8  O   UNL     1      -4.557   1.258   5.779  1.00  0.00    -0.545 OA
ATOM      9  O   UNL     1      -3.276  -0.503   6.469  1.00  0.00    -0.545 OA
ENDBRANCH   1   7
BRANCH   2  10
ATOM     10  O   UNL     1      -2.413   3.353   5.382  1.00  0.00    -0.507 OA
ATOM     11  H   UNL     1      -2.476   2.711   4.604  1.00  0.00     0.293 HD
ENDBRANCH   2  10
TORSDOF 2
ENDMDL
MODEL 7
REMARK VINA RESULT:    -4.132     11.758     12.017
REMARK INTER + INTRA:          -4.746
REMARK INTER:                  -4.522
REMARK INTRA:                  -0.224
REMARK UNBOUND:                -0.251
REMARK SMILES O=C([O-])c1ccccc1O
REMARK SMILES IDX 4 1 9 2 5 3 8 4 6 5 7 6 2 7 1 8 3 9 10 10
REMARK H PARENT 10 11
REMARK Flexibility Score: inf
ROOT
ATOM      1  C   UNL     1      -4.729  -8.340  -3.987  1.00  0.00     0.039 A 
ATOM      2  C   UNL     1      -3.526  -8.543  -4.712  1.00  0.00     0.124 A 
ATOM      3  C   UNL     1      -5.959  -8.517  -4.647  1.00  0.00     0.014 A 
ATOM      4  C   UNL     1      -3.584  -8.853  -6.077  1.00  0.00     0.047 A 
ATOM      5  C   UNL     1      -5.999  -8.846  -6.005  1.00  0.00     0.001 A 
ATOM      6  C   UNL     1      -4.814  -9.003  -6.721  1.00  0.00     0.004 A 
ENDROOT
BRANCH   1   7
ATOM      7  C   UNL     1      -4.750  -7.915  -2.569  1.00  0.00     0.075 C 
ATOM      8  O   UNL     1      -5.778  -8.076  -1.860  1.00  0.00    -0.545 OA
ATOM      9  O   UNL     1      -3.603  -7.392  -1.984  1.00  0.00    -0.545 OA
ENDBRANCH   1   7
BRANCH   2  10
ATOM     10  O   UNL     1      -2.265  -8.482  -4.114  1.00  0.00    -0.507 OA
ATOM     11  H   UNL     1      -1.564  -9.203  -4.215  1.00  0.00     0.293 HD
ENDBRANCH   2  10
TORSDOF 2
ENDMDL
MODEL 8
REMARK VINA RESULT:    -4.060     13.245     14.653
REMARK INTER + INTRA:          -4.667
REMARK INTER:                  -4.473
REMARK INTRA:                  -0.193
REMARK UNBOUND:                -0.251
REMARK SMILES O=C([O-])c1ccccc1O
REMARK SMILES IDX 4 1 9 2 5 3 8 4 6 5 7 6 2 7 1 8 3 9 10 10
REMARK H PARENT 10 11
REMARK Flexibility Score: inf
ROOT
ATOM      1  C   UNL     1       5.026   7.763  -2.833  1.00  0.00     0.039 A 
ATOM      2  C   UNL     1       6.130   7.827  -1.942  1.00  0.00     0.124 A 
ATOM      3  C   UNL     1       5.185   7.103  -4.065  1.00  0.00     0.014 A 
ATOM      4  C   UNL     1       7.364   7.290  -2.329  1.00  0.00     0.047 A 
ATOM      5  C   UNL     1       6.418   6.554  -4.426  1.00  0.00     0.001 A 
ATOM      6  C   UNL     1       7.508   6.656  -3.565  1.00  0.00     0.004 A 
ENDROOT
BRANCH   1   7
ATOM      7  C   UNL     1       3.719   8.392  -2.538  1.00  0.00     0.075 C 
ATOM      8  O   UNL     1       2.675   7.697  -2.432  1.00  0.00    -0.545 OA
ATOM      9  O   UNL     1       3.643   9.761  -2.306  1.00  0.00    -0.545 OA
ENDBRANCH   1   7
BRANCH   2  10
ATOM     10  O   UNL     1       6.036   8.378  -0.662  1.00  0.00    -0.507 OA
ATOM     11  H   UNL     1       6.595   8.071   0.121  1.00  0.00     0.293 HD
ENDBRANCH   2  10
TORSDOF 2
ENDMDL
MODEL 9
REMARK VINA RESULT:    -4.036     15.728     16.957
REMARK INTER + INTRA:          -4.640
REMARK INTER:                  -4.395
REMARK INTRA:                  -0.246
REMARK UNBOUND:                -0.251
REMARK SMILES O=C([O-])c1ccccc1O
REMARK SMILES IDX 4 1 9 2 5 3 8 4 6 5 7 6 2 7 1 8 3 9 10 10
REMARK H PARENT 10 11
REMARK Flexibility Score: inf
ROOT
ATOM      1  C   UNL     1      -1.742  -7.941   5.177  1.00  0.00     0.039 A 
ATOM      2  C   UNL     1      -1.450  -6.587   5.489  1.00  0.00     0.124 A 
ATOM      3  C   UNL     1      -1.706  -8.899   6.207  1.00  0.00     0.014 A 
ATOM      4  C   UNL     1      -1.074  -6.243   6.794  1.00  0.00     0.047 A 
ATOM      5  C   UNL     1      -1.348  -8.535   7.507  1.00  0.00     0.001 A 
ATOM      6  C   UNL     1      -1.023  -7.212   7.798  1.00  0.00     0.004 A 
ENDROOT
BRANCH   1   7
ATOM      7  C   UNL     1      -2.052  -8.399   3.804  1.00  0.00     0.075 C 
ATOM      8  O   UNL     1      -1.750  -9.561   3.426  1.00  0.00    -0.545 OA
ATOM      9  O   UNL     1      -2.744  -7.565   2.933  1.00  0.00    -0.545 OA
ENDBRANCH   1   7
BRANCH   2  10
ATOM     10  O   UNL     1      -1.554  -5.557   4.553  1.00  0.00    -0.507 OA
ATOM     11  H   UNL     1      -1.516  -5.704   3.553  1.00  0.00     0.293 HD
ENDBRANCH   2  10
TORSDOF 2
ENDMDL
