MODEL 1
REMARK VINA RESULT:    -3.921      0.000      0.000
REMARK INTER + INTRA:          -5.436
REMARK INTER:                  -5.067
REMARK INTRA:                  -0.370
REMARK UNBOUND:                -0.370
REMARK SMILES CCO[C@@H]1O[C@H](CO)[C@@H](O)[C@@H](O)[C@@H]1O
REMARK SMILES IDX 4 1 13 2 11 3 9 4 6 5 5 6 3 7 2 8 1 9 14 10 12 12 7 14 8 15
REMARK SMILES IDX 10 17
REMARK H PARENT 14 11 12 13 8 16 10 18
REMARK Flexibility Score: inf
ROOT
ATOM      1  C   UNL     1       6.138  -4.169  -2.391  1.00  0.00     0.281 C 
ATOM      2  C   UNL     1       6.678  -3.233  -1.290  1.00  0.00     0.202 C 
ATOM      3  C   UNL     1       8.222  -3.286  -1.229  1.00  0.00     0.179 C 
ATOM      4  C   UNL     1       8.729  -4.747  -1.256  1.00  0.00     0.177 C 
ATOM      5  C   UNL     1       7.999  -5.577  -2.348  1.00  0.00     0.178 C 
ATOM      6  O   UNL     1       6.595  -5.494  -2.170  1.00  0.00    -0.341 OA
ENDROOT
BRANCH   1   7
ATOM      7  O   UNL     1       4.724  -4.148  -2.334  1.00  0.00    -0.350 OA
BRANCH   7   8
ATOM      8  C   UNL     1       4.234  -2.897  -2.771  1.00  0.00     0.160 C 
ATOM      9  C   UNL     1       2.875  -2.644  -2.138  1.00  0.00     0.035 C 
ENDBRANCH   7   8
ENDBRANCH   1   7
BRANCH   2  10
ATOM     10  O   UNL     1       6.139  -3.621  -0.051  1.00  0.00    -0.385 OA
ATOM     11  H   UNL     1       5.421  -2.972   0.167  1.00  0.00     0.211 HD
ENDBRANCH   2  10
BRANCH   3  12
ATOM     12  O   UNL     1       8.798  -2.499  -2.245  1.00  0.00    -0.387 OA
ATOM     13  H   UNL     1       8.080  -1.968  -2.676  1.00  0.00     0.211 HD
ENDBRANCH   3  12
BRANCH   5  14
ATOM     14  C   UNL     1       8.416  -7.055  -2.300  1.00  0.00     0.191 C 
BRANCH  14  15
ATOM     15  O   UNL     1       8.856  -7.420  -1.018  1.00  0.00    -0.394 OA
ATOM     16  H   UNL     1       9.540  -8.130  -1.141  1.00  0.00     0.210 HD
ENDBRANCH  14  15
ENDBRANCH   5  14
BRANCH   4  17
ATOM     17  O   UNL     1      10.127  -4.792  -1.408  1.00  0.00    -0.387 OA
ATOM     18  H   UNL     1      10.362  -5.660  -1.827  1.00  0.00     0.211 HD
ENDBRANCH   4  17
TORSDOF 7
ENDMDL
MODEL 2
REMARK VINA RESULT:    -3.656      1.328      1.577
REMARK INTER + INTRA:          -5.095
REMARK INTER:                  -4.721
REMARK INTRA:                  -0.373
REMARK UNBOUND:                -0.370
REMARK SMILES CCO[C@@H]1O[C@H](CO)[C@@H](O)[C@@H](O)[C@@H]1O
REMARK SMILES IDX 4 1 13 2 11 3 9 4 6 5 5 6 3 7 2 8 1 9 14 10 12 12 7 14 8 15
REMARK SMILES IDX 10 17
REMARK H PARENT 14 11 12 13 8 16 10 18
REMARK Flexibility Score: inf
ROOT
ATOM      1  C   UNL     1       6.738  -3.792  -1.435  1.00  0.00     0.281 C 
ATOM      2  C   UNL     1       8.145  -3.300  -1.038  1.00  0.00     0.202 C 
ATOM      3  C   UNL     1       9.239  -4.064  -1.820  1.00  0.00     0.179 C 
ATOM      4  C   UNL     1       8.968  -5.587  -1.808  1.00  0.00     0.177 C 
ATOM      5  C   UNL     1       7.478  -5.898  -2.118  1.00  0.00     0.178 C 
ATOM      6  O   UNL     1       6.634  -5.192  -1.224  1.00  0.00    -0.341 OA
ENDROOT
BRANCH   1   7
ATOM      7  O   UNL     1       5.790  -3.126  -0.623  1.00  0.00    -0.350 OA
BRANCH   7   8
ATOM      8  C   UNL     1       4.662  -2.755  -1.388  1.00  0.00     0.160 C 
ATOM      9  C   UNL     1       5.014  -1.547  -2.242  1.00  0.00     0.035 C 
ENDBRANCH   7   8
ENDBRANCH   1   7
BRANCH   2  10
ATOM     10  O   UNL     1       8.326  -3.493   0.343  1.00  0.00    -0.385 OA
ATOM     11  H   UNL     1       7.425  -3.456   0.760  1.00  0.00     0.211 HD
ENDBRANCH   2  10
BRANCH   3  12
ATOM     12  O   UNL     1       9.379  -3.554  -3.125  1.00  0.00    -0.387 OA
ATOM     13  H   UNL     1       9.428  -4.317  -3.756  1.00  0.00     0.211 HD
ENDBRANCH   3  12
BRANCH   5  14
ATOM     14  C   UNL     1       7.182  -7.401  -1.992  1.00  0.00     0.191 C 
BRANCH  14  15
ATOM     15  O   UNL     1       8.154  -8.049  -1.215  1.00  0.00    -0.394 OA
ATOM     16  H   UNL     1       9.037  -7.816  -1.606  1.00  0.00     0.210 HD
ENDBRANCH  14  15
ENDBRANCH   5  14
BRANCH   4  17
ATOM     17  O   UNL     1       9.840  -6.260  -2.685  1.00  0.00    -0.387 OA
ATOM     18  H   UNL     1      10.735  -5.842  -2.607  1.00  0.00     0.211 HD
ENDBRANCH   4  17
TORSDOF 7
ENDMDL
MODEL 3
REMARK VINA RESULT:    -3.647      2.232      5.460
REMARK INTER + INTRA:          -5.082
REMARK INTER:                  -4.917
REMARK INTRA:                  -0.166
REMARK UNBOUND:                -0.370
REMARK SMILES CCO[C@@H]1O[C@H](CO)[C@@H](O)[C@@H](O)[C@@H]1O
REMARK SMILES IDX 4 1 13 2 11 3 9 4 6 5 5 6 3 7 2 8 1 9 14 10 12 12 7 14 8 15
REMARK SMILES IDX 10 17
REMARK H PARENT 14 11 12 13 8 16 10 18
REMARK Flexibility Score: inf
ROOT
ATOM      1  C   UNL     1      10.231  -5.042  -2.784  1.00  0.00     0.281 C 
ATOM      2  C   UNL     1      10.178  -6.128  -1.689  1.00  0.00     0.202 C 
ATOM      3  C   UNL     1       8.809  -6.847  -1.688  1.00  0.00     0.179 C 
ATOM      4  C   UNL     1       7.647  -5.828  -1.762  1.00  0.00     0.177 C 
ATOM      5  C   UNL     1       7.917  -4.741  -2.839  1.00  0.00     0.178 C 
ATOM      6  O   UNL     1       9.169  -4.119  -2.605  1.00  0.00    -0.341 OA
ENDROOT
BRANCH   1   7
ATOM      7  O   UNL     1      11.466  -4.361  -2.672  1.00  0.00    -0.350 OA
BRANCH   7   8
ATOM      8  C   UNL     1      12.532  -5.216  -3.030  1.00  0.00     0.160 C 
ATOM      9  C   UNL     1      13.732  -4.914  -2.146  1.00  0.00     0.035 C 
ENDBRANCH   7   8
ENDBRANCH   1   7
BRANCH   2  10
ATOM     10  O   UNL     1      10.401  -5.528  -0.437  1.00  0.00    -0.385 OA
ATOM     11  H   UNL     1      10.122  -6.186   0.252  1.00  0.00     0.211 HD
ENDBRANCH   2  10
BRANCH   3  12
ATOM     12  O   UNL     1       8.742  -7.811  -2.712  1.00  0.00    -0.387 OA
ATOM     13  H   UNL     1       9.518  -7.683  -3.316  1.00  0.00     0.211 HD
ENDBRANCH   3  12
BRANCH   5  14
ATOM     14  C   UNL     1       6.821  -3.664  -2.833  1.00  0.00     0.191 C 
BRANCH  14  15
ATOM     15  O   UNL     1       7.307  -2.444  -2.338  1.00  0.00    -0.394 OA
ATOM     16  H   UNL     1       8.146  -2.648  -1.847  1.00  0.00     0.210 HD
ENDBRANCH  14  15
ENDBRANCH   5  14
BRANCH   4  17
ATOM     17  O   UNL     1       6.418  -6.480  -1.968  1.00  0.00    -0.387 OA
ATOM     18  H   UNL     1       5.768  -6.124  -1.309  1.00  0.00     0.211 HD
ENDBRANCH   4  17
TORSDOF 7
ENDMDL
MODEL 4
REMARK VINA RESULT:    -3.377      2.106      3.278
REMARK INTER + INTRA:          -4.734
REMARK INTER:                  -4.362
REMARK INTRA:                  -0.373
REMARK UNBOUND:                -0.370
REMARK SMILES CCO[C@@H]1O[C@H](CO)[C@@H](O)[C@@H](O)[C@@H]1O
REMARK SMILES IDX 4 1 13 2 11 3 9 4 6 5 5 6 3 7 2 8 1 9 14 10 12 12 7 14 8 15
REMARK SMILES IDX 10 17
REMARK H PARENT 14 11 12 13 8 16 10 18
REMARK Flexibility Score: inf
ROOT
ATOM      1  C   UNL     1       7.270  -5.381  -2.125  1.00  0.00     0.281 C 
ATOM      2  C   UNL     1       7.010  -4.071  -1.352  1.00  0.00     0.202 C 
ATOM      3  C   UNL     1       7.793  -2.894  -1.979  1.00  0.00     0.179 C 
ATOM      4  C   UNL     1       9.260  -3.293  -2.266  1.00  0.00     0.177 C 
ATOM      5  C   UNL     1       9.343  -4.688  -2.945  1.00  0.00     0.178 C 
ATOM      6  O   UNL     1       8.662  -5.655  -2.164  1.00  0.00    -0.341 OA
ENDROOT
BRANCH   1   7
ATOM      7  O   UNL     1       6.606  -6.432  -1.451  1.00  0.00    -0.350 OA
BRANCH   7   8
ATOM      8  C   UNL     1       7.314  -7.643  -1.612  1.00  0.00     0.160 C 
ATOM      9  C   UNL     1       6.507  -8.778  -1.002  1.00  0.00     0.035 C 
ENDBRANCH   7   8
ENDBRANCH   1   7
BRANCH   2  10
ATOM     10  O   UNL     1       7.403  -4.243  -0.013  1.00  0.00    -0.385 OA
ATOM     11  H   UNL     1       6.680  -4.753   0.437  1.00  0.00     0.211 HD
ENDBRANCH   2  10
BRANCH   3  12
ATOM     12  O   UNL     1       7.138  -2.402  -3.125  1.00  0.00    -0.387 OA
ATOM     13  H   UNL     1       6.223  -2.120  -2.866  1.00  0.00     0.211 HD
ENDBRANCH   3  12
BRANCH   5  14
ATOM     14  C   UNL     1      10.802  -5.137  -3.125  1.00  0.00     0.191 C 
BRANCH  14  15
ATOM     15  O   UNL     1      11.599  -4.726  -2.046  1.00  0.00    -0.394 OA
ATOM     16  H   UNL     1      11.574  -5.458  -1.375  1.00  0.00     0.210 HD
ENDBRANCH  14  15
ENDBRANCH   5  14
BRANCH   4  17
ATOM     17  O   UNL     1       9.913  -2.301  -3.020  1.00  0.00    -0.387 OA
ATOM     18  H   UNL     1      10.821  -2.176  -2.641  1.00  0.00     0.211 HD
ENDBRANCH   4  17
TORSDOF 7
ENDMDL
MODEL 5
REMARK VINA RESULT:    -3.374      1.560      3.095
REMARK INTER + INTRA:          -4.730
REMARK INTER:                  -4.363
REMARK INTRA:                  -0.367
REMARK UNBOUND:                -0.370
REMARK SMILES CCO[C@@H]1O[C@H](CO)[C@@H](O)[C@@H](O)[C@@H]1O
REMARK SMILES IDX 4 1 13 2 11 3 9 4 6 5 5 6 3 7 2 8 1 9 14 10 12 12 7 14 8 15
REMARK SMILES IDX 10 17
REMARK H PARENT 14 11 12 13 8 16 10 18
REMARK Flexibility Score: inf
ROOT
ATOM      1  C   UNL     1       7.373  -4.417  -1.253  1.00  0.00     0.281 C 
ATOM      2  C   UNL     1       7.248  -5.863  -1.774  1.00  0.00     0.202 C 
ATOM      3  C   UNL     1       8.641  -6.469  -2.063  1.00  0.00     0.179 C 
ATOM      4  C   UNL     1       9.523  -5.479  -2.861  1.00  0.00     0.177 C 
ATOM      5  C   UNL     1       9.443  -4.046  -2.266  1.00  0.00     0.178 C 
ATOM      6  O   UNL     1       8.092  -3.624  -2.184  1.00  0.00    -0.341 OA
ENDROOT
BRANCH   1   7
ATOM      7  O   UNL     1       6.070  -3.888  -1.098  1.00  0.00    -0.350 OA
BRANCH   7   8
ATOM      8  C   UNL     1       5.944  -2.676  -1.812  1.00  0.00     0.160 C 
ATOM      9  C   UNL     1       4.521  -2.159  -1.670  1.00  0.00     0.035 C 
ENDBRANCH   7   8
ENDBRANCH   1   7
BRANCH   2  10
ATOM     10  O   UNL     1       6.478  -5.862  -2.950  1.00  0.00    -0.385 OA
ATOM     11  H   UNL     1       6.453  -6.798  -3.280  1.00  0.00     0.211 HD
ENDBRANCH   2  10
BRANCH   3  12
ATOM     12  O   UNL     1       9.263  -6.902  -0.875  1.00  0.00    -0.387 OA
ATOM     13  H   UNL     1      10.164  -7.246  -1.100  1.00  0.00     0.211 HD
ENDBRANCH   3  12
BRANCH   5  14
ATOM     14  C   UNL     1      10.224  -3.039  -3.125  1.00  0.00     0.191 C 
BRANCH  14  15
ATOM     15  O   UNL     1      11.609  -3.231  -3.004  1.00  0.00    -0.394 OA
ATOM     16  H   UNL     1      11.865  -2.910  -2.100  1.00  0.00     0.210 HD
ENDBRANCH  14  15
ENDBRANCH   5  14
BRANCH   4  17
ATOM     17  O   UNL     1      10.849  -5.941  -2.945  1.00  0.00    -0.387 OA
ATOM     18  H   UNL     1      10.836  -6.928  -2.848  1.00  0.00     0.211 HD
ENDBRANCH   4  17
TORSDOF 7
ENDMDL
MODEL 6
REMARK VINA RESULT:    -3.320      1.689      4.406
REMARK INTER + INTRA:          -4.660
REMARK INTER:                  -4.296
REMARK INTRA:                  -0.364
REMARK UNBOUND:                -0.370
REMARK SMILES CCO[C@@H]1O[C@H](CO)[C@@H](O)[C@@H](O)[C@@H]1O
REMARK SMILES IDX 4 1 13 2 11 3 9 4 6 5 5 6 3 7 2 8 1 9 14 10 12 12 7 14 8 15
REMARK SMILES IDX 10 17
REMARK H PARENT 14 11 12 13 8 16 10 18
REMARK Flexibility Score: inf
ROOT
ATOM      1  C   UNL     1       7.047  -6.161  -1.719  1.00  0.00     0.281 C 
ATOM      2  C   UNL     1       8.494  -5.638  -1.833  1.00  0.00     0.202 C 
ATOM      3  C   UNL     1       8.552  -4.113  -1.584  1.00  0.00     0.179 C 
ATOM      4  C   UNL     1       7.446  -3.378  -2.379  1.00  0.00     0.177 C 
ATOM      5  C   UNL     1       6.079  -4.103  -2.244  1.00  0.00     0.178 C 
ATOM      6  O   UNL     1       6.205  -5.463  -2.623  1.00  0.00    -0.341 OA
ENDROOT
BRANCH   1   7
ATOM      7  O   UNL     1       7.047  -7.537  -2.049  1.00  0.00    -0.350 OA
BRANCH   7   8
ATOM      8  C   UNL     1       6.828  -8.318  -0.892  1.00  0.00     0.160 C 
ATOM      9  C   UNL     1       8.102  -9.073  -0.550  1.00  0.00     0.035 C 
ENDBRANCH   7   8
ENDBRANCH   1   7
BRANCH   2  10
ATOM     10  O   UNL     1       8.988  -5.929  -3.117  1.00  0.00    -0.385 OA
ATOM     11  H   UNL     1       8.408  -6.640  -3.495  1.00  0.00     0.211 HD
ENDBRANCH   2  10
BRANCH   3  12
ATOM     12  O   UNL     1       8.506  -3.821  -0.207  1.00  0.00    -0.387 OA
ATOM     13  H   UNL     1       7.726  -3.235  -0.037  1.00  0.00     0.211 HD
ENDBRANCH   3  12
BRANCH   5  14
ATOM     14  C   UNL     1       5.006  -3.443  -3.125  1.00  0.00     0.191 C 
BRANCH  14  15
ATOM     15  O   UNL     1       4.469  -2.302  -2.507  1.00  0.00    -0.394 OA
ATOM     16  H   UNL     1       3.666  -2.044  -3.031  1.00  0.00     0.210 HD
ENDBRANCH  14  15
ENDBRANCH   5  14
BRANCH   4  17
ATOM     17  O   UNL     1       7.365  -2.026  -1.997  1.00  0.00    -0.387 OA
ATOM     18  H   UNL     1       6.701  -1.582  -2.584  1.00  0.00     0.211 HD
ENDBRANCH   4  17
TORSDOF 7
ENDMDL
MODEL 7
REMARK VINA RESULT:    -3.027      1.909      4.382
REMARK INTER + INTRA:          -4.281
REMARK INTER:                  -4.222
REMARK INTRA:                  -0.059
REMARK UNBOUND:                -0.370
REMARK SMILES CCO[C@@H]1O[C@H](CO)[C@@H](O)[C@@H](O)[C@@H]1O
REMARK SMILES IDX 4 1 13 2 11 3 9 4 6 5 5 6 3 7 2 8 1 9 14 10 12 12 7 14 8 15
REMARK SMILES IDX 10 17
REMARK H PARENT 14 11 12 13 8 16 10 18
REMARK Flexibility Score: inf
ROOT
ATOM      1  C   UNL     1       7.283  -6.869  -1.274  1.00  0.00     0.281 C 
ATOM      2  C   UNL     1       8.715  -7.106  -1.798  1.00  0.00     0.202 C 
ATOM      3  C   UNL     1       9.548  -5.805  -1.736  1.00  0.00     0.179 C 
ATOM      4  C   UNL     1       8.751  -4.608  -2.306  1.00  0.00     0.177 C 
ATOM      5  C   UNL     1       7.297  -4.586  -1.760  1.00  0.00     0.178 C 
ATOM      6  O   UNL     1       6.661  -5.829  -2.011  1.00  0.00    -0.341 OA
ENDROOT
BRANCH   1   7
ATOM      7  O   UNL     1       6.547  -8.066  -1.443  1.00  0.00    -0.350 OA
BRANCH   7   8
ATOM      8  C   UNL     1       7.058  -9.079  -0.602  1.00  0.00     0.160 C 
ATOM      9  C   UNL     1       6.242  -9.123   0.680  1.00  0.00     0.035 C 
ENDBRANCH   7   8
ENDBRANCH   1   7
BRANCH   2  10
ATOM     10  O   UNL     1       8.648  -7.565  -3.125  1.00  0.00    -0.385 OA
ATOM     11  H   UNL     1       9.030  -8.481  -3.133  1.00  0.00     0.211 HD
ENDBRANCH   2  10
BRANCH   3  12
ATOM     12  O   UNL     1      10.017  -5.564  -0.430  1.00  0.00    -0.387 OA
ATOM     13  H   UNL     1      11.008  -5.586  -0.443  1.00  0.00     0.211 HD
ENDBRANCH   3  12
BRANCH   5  14
ATOM     14  C   UNL     1       6.470  -3.468  -2.413  1.00  0.00     0.191 C 
BRANCH  14  15
ATOM     15  O   UNL     1       7.193  -2.266  -2.471  1.00  0.00    -0.394 OA
ATOM     16  H   UNL     1       6.682  -1.653  -3.062  1.00  0.00     0.210 HD
ENDBRANCH  14  15
ENDBRANCH   5  14
BRANCH   4  17
ATOM     17  O   UNL     1       9.422  -3.395  -2.063  1.00  0.00    -0.387 OA
ATOM     18  H   UNL     1       9.490  -3.274  -1.081  1.00  0.00     0.211 HD
ENDBRANCH   4  17
TORSDOF 7
ENDMDL
MODEL 8
REMARK VINA RESULT:    -2.790      1.546      4.282
REMARK INTER + INTRA:          -3.976
REMARK INTER:                  -3.764
REMARK INTRA:                  -0.212
REMARK UNBOUND:                -0.370
REMARK SMILES CCO[C@@H]1O[C@H](CO)[C@@H](O)[C@@H](O)[C@@H]1O
REMARK SMILES IDX 4 1 13 2 11 3 9 4 6 5 5 6 3 7 2 8 1 9 14 10 12 12 7 14 8 15
REMARK SMILES IDX 10 17
REMARK H PARENT 14 11 12 13 8 16 10 18
REMARK Flexibility Score: inf
ROOT
ATOM      1  C   UNL     1       8.161  -4.529  -1.289  1.00  0.00     0.281 C 
ATOM      2  C   UNL     1       7.742  -3.104  -1.708  1.00  0.00     0.202 C 
ATOM      3  C   UNL     1       6.209  -3.009  -1.886  1.00  0.00     0.179 C 
ATOM      4  C   UNL     1       5.671  -4.201  -2.714  1.00  0.00     0.177 C 
ATOM      5  C   UNL     1       6.282  -5.545  -2.231  1.00  0.00     0.178 C 
ATOM      6  O   UNL     1       7.698  -5.472  -2.243  1.00  0.00    -0.341 OA
ENDROOT
BRANCH   1   7
ATOM      7  O   UNL     1       9.574  -4.575  -1.234  1.00  0.00    -0.350 OA
BRANCH   7   8
ATOM      8  C   UNL     1      10.035  -5.869  -1.567  1.00  0.00     0.160 C 
ATOM      9  C   UNL     1      11.304  -5.748  -2.396  1.00  0.00     0.035 C 
ENDBRANCH   7   8
ENDBRANCH   1   7
BRANCH   2  10
ATOM     10  O   UNL     1       8.382  -2.773  -2.915  1.00  0.00    -0.385 OA
ATOM     11  H   UNL     1       8.685  -3.625  -3.324  1.00  0.00     0.211 HD
ENDBRANCH   2  10
BRANCH   3  12
ATOM     12  O   UNL     1       5.560  -2.885  -0.642  1.00  0.00    -0.387 OA
ATOM     13  H   UNL     1       5.348  -3.793  -0.306  1.00  0.00     0.211 HD
ENDBRANCH   3  12
BRANCH   5  14
ATOM     14  C   UNL     1       5.841  -6.714  -3.125  1.00  0.00     0.191 C 
BRANCH  14  15
ATOM     15  O   UNL     1       6.498  -7.903  -2.772  1.00  0.00    -0.394 OA
ATOM     16  H   UNL     1       7.357  -7.914  -3.271  1.00  0.00     0.210 HD
ENDBRANCH  14  15
ENDBRANCH   5  14
BRANCH   4  17
ATOM     17  O   UNL     1       4.264  -4.228  -2.702  1.00  0.00    -0.387 OA
ATOM     18  H   UNL     1       3.978  -5.168  -2.571  1.00  0.00     0.211 HD
ENDBRANCH   4  17
TORSDOF 7
ENDMDL
