MODEL 1
REMARK VINA RESULT:    -3.122      0.000      0.000
REMARK INTER + INTRA:          -4.718
REMARK INTER:                  -4.125
REMARK INTRA:                  -0.593
REMARK UNBOUND:                -0.593
REMARK SMILES C=CCC[C@@H](O)CCC
REMARK SMILES IDX 4 1 5 2 7 3 8 4 9 5 6 6 3 8 2 9 1 10
REMARK H PARENT 6 7
REMARK Flexibility Score: inf
ROOT
ATOM      1  C   UNL     1     127.327 136.413 146.046  1.00  0.00     0.036 C 
ENDROOT
BRANCH   1   2
ATOM      2  C   UNL     1     126.100 136.927 145.260  1.00  0.00     0.114 C 
BRANCH   2   3
ATOM      3  C   UNL     1     124.742 136.559 145.895  1.00  0.00     0.031 C 
BRANCH   3   4
ATOM      4  C   UNL     1     124.846 136.128 147.367  1.00  0.00    -0.001 C 
ATOM      5  C   UNL     1     124.139 137.125 148.282  1.00  0.00     0.004 C 
ENDBRANCH   3   4
ENDBRANCH   2   3
BRANCH   2   6
ATOM      6  O   UNL     1     126.142 136.430 143.947  1.00  0.00    -0.393 OA
ATOM      7  H   UNL     1     125.897 137.179 143.345  1.00  0.00     0.210 HD
ENDBRANCH   2   6
ENDBRANCH   1   2
BRANCH   1   8
ATOM      8  C   UNL     1     128.340 137.522 146.372  1.00  0.00     0.029 C 
BRANCH   8   9
ATOM      9  C   UNL     1     127.774 138.500 147.363  1.00  0.00    -0.035 C 
ATOM     10  C   UNL     1     127.672 138.206 148.662  1.00  0.00     0.004 C 
ENDBRANCH   8   9
ENDBRANCH   1   8
TORSDOF 6
ENDMDL
MODEL 2
REMARK VINA RESULT:    -3.024     11.125     13.321
REMARK INTER + INTRA:          -4.589
REMARK INTER:                  -4.449
REMARK INTRA:                  -0.140
REMARK UNBOUND:                -0.593
REMARK SMILES C=CCC[C@@H](O)CCC
REMARK SMILES IDX 4 1 5 2 7 3 8 4 9 5 6 6 3 8 2 9 1 10
REMARK H PARENT 6 7
REMARK Flexibility Score: inf
ROOT
ATOM      1  C   UNL     1     137.404 136.679 143.583  1.00  0.00     0.036 C 
ENDROOT
BRANCH   1   2
ATOM      2  C   UNL     1     138.686 137.481 143.902  1.00  0.00     0.114 C 
BRANCH   2   3
ATOM      3  C   UNL     1     139.928 137.035 143.099  1.00  0.00     0.031 C 
BRANCH   3   4
ATOM      4  C   UNL     1     140.599 138.176 142.317  1.00  0.00    -0.001 C 
ATOM      5  C   UNL     1     142.110 138.177 142.537  1.00  0.00     0.004 C 
ENDBRANCH   3   4
ENDBRANCH   2   3
BRANCH   2   6
ATOM      6  O   UNL     1     138.970 137.388 145.274  1.00  0.00    -0.393 OA
ATOM      7  H   UNL     1     139.660 138.072 145.475  1.00  0.00     0.210 HD
ENDBRANCH   2   6
ENDBRANCH   1   2
BRANCH   1   8
ATOM      8  C   UNL     1     136.484 137.390 142.579  1.00  0.00     0.029 C 
BRANCH   8   9
ATOM      9  C   UNL     1     135.582 136.410 141.880  1.00  0.00    -0.035 C 
ATOM     10  C   UNL     1     134.736 136.794 140.920  1.00  0.00     0.004 C 
ENDBRANCH   8   9
ENDBRANCH   1   8
TORSDOF 6
ENDMDL
MODEL 3
REMARK VINA RESULT:    -3.023     11.578     13.298
REMARK INTER + INTRA:          -4.587
REMARK INTER:                  -4.273
REMARK INTRA:                  -0.315
REMARK UNBOUND:                -0.593
REMARK SMILES C=CCC[C@@H](O)CCC
REMARK SMILES IDX 4 1 5 2 7 3 8 4 9 5 6 6 3 8 2 9 1 10
REMARK H PARENT 6 7
REMARK Flexibility Score: inf
ROOT
ATOM      1  C   UNL     1     139.689 136.718 143.189  1.00  0.00     0.036 C 
ENDROOT
BRANCH   1   2
ATOM      2  C   UNL     1     138.484 136.954 144.129  1.00  0.00     0.114 C 
BRANCH   2   3
ATOM      3  C   UNL     1     137.405 137.895 143.551  1.00  0.00     0.031 C 
BRANCH   3   4
ATOM      4  C   UNL     1     136.375 137.180 142.662  1.00  0.00    -0.001 C 
ATOM      5  C   UNL     1     136.045 135.794 143.210  1.00  0.00     0.004 C 
ENDBRANCH   3   4
ENDBRANCH   2   3
BRANCH   2   6
ATOM      6  O   UNL     1     138.937 137.472 145.353  1.00  0.00    -0.393 OA
ATOM      7  H   UNL     1     138.188 137.387 145.999  1.00  0.00     0.210 HD
ENDBRANCH   2   6
ENDBRANCH   1   2
BRANCH   1   8
ATOM      8  C   UNL     1     139.976 137.915 142.269  1.00  0.00     0.029 C 
BRANCH   8   9
ATOM      9  C   UNL     1     141.427 138.306 142.324  1.00  0.00    -0.035 C 
ATOM     10  C   UNL     1     142.372 137.449 142.721  1.00  0.00     0.004 C 
ENDBRANCH   8   9
ENDBRANCH   1   8
TORSDOF 6
ENDMDL
MODEL 4
REMARK VINA RESULT:    -3.005     10.733     11.801
REMARK INTER + INTRA:          -4.564
REMARK INTER:                  -3.925
REMARK INTRA:                  -0.638
REMARK UNBOUND:                -0.593
REMARK SMILES C=CCC[C@@H](O)CCC
REMARK SMILES IDX 4 1 5 2 7 3 8 4 9 5 6 6 3 8 2 9 1 10
REMARK H PARENT 6 7
REMARK Flexibility Score: inf
ROOT
ATOM      1  C   UNL     1     138.436 136.107 142.033  1.00  0.00     0.036 C 
ENDROOT
BRANCH   1   2
ATOM      2  C   UNL     1     137.489 136.060 140.812  1.00  0.00     0.114 C 
BRANCH   2   3
ATOM      3  C   UNL     1     136.405 134.964 140.895  1.00  0.00     0.031 C 
BRANCH   3   4
ATOM      4  C   UNL     1     135.057 135.468 141.435  1.00  0.00    -0.001 C 
ATOM      5  C   UNL     1     134.706 136.833 140.847  1.00  0.00     0.004 C 
ENDBRANCH   3   4
ENDBRANCH   2   3
BRANCH   2   6
ATOM      6  O   UNL     1     138.241 135.873 139.641  1.00  0.00    -0.393 OA
ATOM      7  H   UNL     1     138.350 134.895 139.519  1.00  0.00     0.210 HD
ENDBRANCH   2   6
ENDBRANCH   1   2
BRANCH   1   8
ATOM      8  C   UNL     1     138.566 137.514 142.639  1.00  0.00     0.029 C 
BRANCH   8   9
ATOM      9  C   UNL     1     137.279 137.948 143.284  1.00  0.00    -0.035 C 
ATOM     10  C   UNL     1     136.722 137.252 144.279  1.00  0.00     0.004 C 
ENDBRANCH   8   9
ENDBRANCH   1   8
TORSDOF 6
ENDMDL
MODEL 5
REMARK VINA RESULT:    -2.975     10.413     12.227
REMARK INTER + INTRA:          -4.524
REMARK INTER:                  -4.219
REMARK INTRA:                  -0.305
REMARK UNBOUND:                -0.593
REMARK SMILES C=CCC[C@@H](O)CCC
REMARK SMILES IDX 4 1 5 2 7 3 8 4 9 5 6 6 3 8 2 9 1 10
REMARK H PARENT 6 7
REMARK Flexibility Score: inf
ROOT
ATOM      1  C   UNL     1     136.211 136.750 143.004  1.00  0.00     0.036 C 
ENDROOT
BRANCH   1   2
ATOM      2  C   UNL     1     137.250 137.854 143.305  1.00  0.00     0.114 C 
BRANCH   2   3
ATOM      3  C   UNL     1     138.401 137.405 144.231  1.00  0.00     0.031 C 
BRANCH   3   4
ATOM      4  C   UNL     1     139.695 137.053 143.480  1.00  0.00    -0.001 C 
ATOM      5  C   UNL     1     139.901 137.975 142.280  1.00  0.00     0.004 C 
ENDBRANCH   3   4
ENDBRANCH   2   3
BRANCH   2   6
ATOM      6  O   UNL     1     136.605 138.962 143.880  1.00  0.00    -0.393 OA
ATOM      7  H   UNL     1     137.269 139.413 144.464  1.00  0.00     0.210 HD
ENDBRANCH   2   6
ENDBRANCH   1   2
BRANCH   1   8
ATOM      8  C   UNL     1     136.365 136.146 141.599  1.00  0.00     0.029 C 
BRANCH   8   9
ATOM      9  C   UNL     1     135.044 136.092 140.884  1.00  0.00    -0.035 C 
ATOM     10  C   UNL     1     134.358 137.200 140.588  1.00  0.00     0.004 C 
ENDBRANCH   8   9
ENDBRANCH   1   8
TORSDOF 6
ENDMDL
MODEL 6
REMARK VINA RESULT:    -2.963      1.446      2.836
REMARK INTER + INTRA:          -4.509
REMARK INTER:                  -3.836
REMARK INTRA:                  -0.673
REMARK UNBOUND:                -0.593
REMARK SMILES C=CCC[C@@H](O)CCC
REMARK SMILES IDX 4 1 5 2 7 3 8 4 9 5 6 6 3 8 2 9 1 10
REMARK H PARENT 6 7
REMARK Flexibility Score: inf
ROOT
ATOM      1  C   UNL     1     125.844 137.895 146.269  1.00  0.00     0.036 C 
ENDROOT
BRANCH   1   2
ATOM      2  C   UNL     1     126.093 136.479 145.701  1.00  0.00     0.114 C 
BRANCH   2   3
ATOM      3  C   UNL     1     127.338 135.774 146.282  1.00  0.00     0.031 C 
BRANCH   3   4
ATOM      4  C   UNL     1     127.015 134.475 147.038  1.00  0.00    -0.001 C 
ATOM      5  C   UNL     1     125.632 133.951 146.663  1.00  0.00     0.004 C 
ENDBRANCH   3   4
ENDBRANCH   2   3
BRANCH   2   6
ATOM      6  O   UNL     1     126.215 136.548 144.304  1.00  0.00    -0.393 OA
ATOM      7  H   UNL     1     126.943 137.193 144.108  1.00  0.00     0.210 HD
ENDBRANCH   2   6
ENDBRANCH   1   2
BRANCH   1   8
ATOM      8  C   UNL     1     125.671 137.908 147.796  1.00  0.00     0.029 C 
BRANCH   8   9
ATOM      9  C   UNL     1     124.424 137.176 148.208  1.00  0.00    -0.035 C 
ATOM     10  C   UNL     1     124.393 136.393 149.289  1.00  0.00     0.004 C 
ENDBRANCH   8   9
ENDBRANCH   1   8
TORSDOF 6
ENDMDL
MODEL 7
REMARK VINA RESULT:    -2.916     12.153     14.235
REMARK INTER + INTRA:          -4.446
REMARK INTER:                  -4.010
REMARK INTRA:                  -0.436
REMARK UNBOUND:                -0.593
REMARK SMILES C=CCC[C@@H](O)CCC
REMARK SMILES IDX 4 1 5 2 7 3 8 4 9 5 6 6 3 8 2 9 1 10
REMARK H PARENT 6 7
REMARK Flexibility Score: inf
ROOT
ATOM      1  C   UNL     1     139.042 136.306 143.286  1.00  0.00     0.036 C 
ENDROOT
BRANCH   1   2
ATOM      2  C   UNL     1     140.039 136.672 142.163  1.00  0.00     0.114 C 
BRANCH   2   3
ATOM      3  C   UNL     1     140.560 138.123 142.228  1.00  0.00     0.031 C 
BRANCH   3   4
ATOM      4  C   UNL     1     142.035 138.231 142.647  1.00  0.00    -0.001 C 
ATOM      5  C   UNL     1     142.718 136.866 142.608  1.00  0.00     0.004 C 
ENDBRANCH   3   4
ENDBRANCH   2   3
BRANCH   2   6
ATOM      6  O   UNL     1     139.437 136.456 140.912  1.00  0.00    -0.393 OA
ATOM      7  H   UNL     1     140.163 136.469 140.235  1.00  0.00     0.210 HD
ENDBRANCH   2   6
ENDBRANCH   1   2
BRANCH   1   8
ATOM      8  C   UNL     1     138.538 137.530 144.065  1.00  0.00     0.029 C 
BRANCH   8   9
ATOM      9  C   UNL     1     137.097 137.819 143.750  1.00  0.00    -0.035 C 
ATOM     10  C   UNL     1     136.467 137.226 142.732  1.00  0.00     0.004 C 
ENDBRANCH   8   9
ENDBRANCH   1   8
TORSDOF 6
ENDMDL
MODEL 8
REMARK VINA RESULT:    -2.910      1.445      3.262
REMARK INTER + INTRA:          -4.439
REMARK INTER:                  -3.835
REMARK INTRA:                  -0.604
REMARK UNBOUND:                -0.593
REMARK SMILES C=CCC[C@@H](O)CCC
REMARK SMILES IDX 4 1 5 2 7 3 8 4 9 5 6 6 3 8 2 9 1 10
REMARK H PARENT 6 7
REMARK Flexibility Score: inf
ROOT
ATOM      1  C   UNL     1     125.082 135.377 145.992  1.00  0.00     0.036 C 
ENDROOT
BRANCH   1   2
ATOM      2  C   UNL     1     126.133 136.396 145.496  1.00  0.00     0.114 C 
BRANCH   2   3
ATOM      3  C   UNL     1     126.011 137.795 146.137  1.00  0.00     0.031 C 
BRANCH   3   4
ATOM      4  C   UNL     1     127.056 138.065 147.232  1.00  0.00    -0.001 C 
ATOM      5  C   UNL     1     128.199 137.057 147.160  1.00  0.00     0.004 C 
ENDBRANCH   3   4
ENDBRANCH   2   3
BRANCH   2   6
ATOM      6  O   UNL     1     126.043 136.522 144.100  1.00  0.00    -0.393 OA
ATOM      7  H   UNL     1     126.971 136.588 143.754  1.00  0.00     0.210 HD
ENDBRANCH   2   6
ENDBRANCH   1   2
BRANCH   1   8
ATOM      8  C   UNL     1     125.709 134.124 146.622  1.00  0.00     0.029 C 
BRANCH   8   9
ATOM      9  C   UNL     1     125.411 134.049 148.094  1.00  0.00    -0.035 C 
ATOM     10  C   UNL     1     125.260 135.148 148.838  1.00  0.00     0.004 C 
ENDBRANCH   8   9
ENDBRANCH   1   8
TORSDOF 6
ENDMDL
MODEL 9
REMARK VINA RESULT:    -2.852     11.047     12.767
REMARK INTER + INTRA:          -4.361
REMARK INTER:                  -3.803
REMARK INTRA:                  -0.559
REMARK UNBOUND:                -0.593
REMARK SMILES C=CCC[C@@H](O)CCC
REMARK SMILES IDX 4 1 5 2 7 3 8 4 9 5 6 6 3 8 2 9 1 10
REMARK H PARENT 6 7
REMARK Flexibility Score: inf
ROOT
ATOM      1  C   UNL     1     138.176 135.260 141.672  1.00  0.00     0.036 C 
ENDROOT
BRANCH   1   2
ATOM      2  C   UNL     1     139.393 136.185 141.895  1.00  0.00     0.114 C 
BRANCH   2   3
ATOM      3  C   UNL     1     139.039 137.563 142.495  1.00  0.00     0.031 C 
BRANCH   3   4
ATOM      4  C   UNL     1     138.386 137.481 143.885  1.00  0.00    -0.001 C 
ATOM      5  C   UNL     1     136.992 138.102 143.874  1.00  0.00     0.004 C 
ENDBRANCH   3   4
ENDBRANCH   2   3
BRANCH   2   6
ATOM      6  O   UNL     1     140.069 136.376 140.678  1.00  0.00    -0.393 OA
ATOM      7  H   UNL     1     139.736 137.227 140.292  1.00  0.00     0.210 HD
ENDBRANCH   2   6
ENDBRANCH   1   2
BRANCH   1   8
ATOM      8  C   UNL     1     137.169 135.825 140.658  1.00  0.00     0.029 C 
BRANCH   8   9
ATOM      9  C   UNL     1     135.768 135.780 141.202  1.00  0.00    -0.035 C 
ATOM     10  C   UNL     1     134.901 136.775 140.995  1.00  0.00     0.004 C 
ENDBRANCH   8   9
ENDBRANCH   1   8
TORSDOF 6
ENDMDL
