MODEL 1
REMARK VINA RESULT:    -3.944      0.000      0.000
REMARK INTER + INTRA:          -6.173
REMARK INTER:                  -5.673
REMARK INTRA:                  -0.500
REMARK UNBOUND:                -0.500
REMARK SMILES O=c1cc(-c2ccc(O)c(O)c2)oc2cc(O[C@H]3O[C@@H](CO)[C@@H](O)[C@@H](O)[C@H]3O)cc(O)c12
REMARK SMILES IDX 17 1 16 2 4 3 3 4 13 5 2 6 14 7 1 8 32 9 15 10 30 11 29 12
REMARK SMILES IDX 5 13 6 14 7 15 8 16 12 17 10 18 9 19 11 21 31 23 18 25 27 26
REMARK SMILES IDX 19 27 25 28 20 29 23 30 28 31 26 33 21 35 22 36 24 38
REMARK H PARENT 9 20 11 22 31 24 28 32 26 34 22 37 24 39
REMARK Flexibility Score: inf
ROOT
ATOM      1  O   UNL     1      -2.868  12.866 -26.832  1.00  0.00    -0.462 OA
ENDROOT
BRANCH   1   2
ATOM      2  C   UNL     1      -2.339  14.143 -26.577  1.00  0.00     0.130 A 
ATOM      3  C   UNL     1      -2.469  18.769 -27.736  1.00  0.00     0.138 A 
ATOM      4  C   UNL     1      -1.471  19.096 -26.804  1.00  0.00     0.100 A 
ATOM      5  O   UNL     1      -2.862  17.502 -27.857  1.00  0.00    -0.456 OA
ATOM      6  C   UNL     1      -0.916  18.090 -26.010  1.00  0.00     0.197 A 
ATOM      7  C   UNL     1      -2.364  16.510 -27.125  1.00  0.00     0.146 A 
ATOM      8  O   UNL     1      -0.019  18.392 -25.178  1.00  0.00    -0.289 OA
ATOM      9  C   UNL     1      -1.364  16.761 -26.158  1.00  0.00     0.107 A 
ATOM     10  C   UNL     1      -2.841  15.212 -27.322  1.00  0.00     0.094 A 
ATOM     11  C   UNL     1      -0.859  15.685 -25.393  1.00  0.00     0.134 A 
ATOM     12  C   UNL     1      -1.352  14.389 -25.605  1.00  0.00     0.093 A 
BRANCH   3  13
ATOM     13  C   UNL     1      -3.094  19.795 -28.607  1.00  0.00     0.021 A 
ATOM     14  C   UNL     1      -3.989  19.395 -29.615  1.00  0.00     0.016 A 
ATOM     15  C   UNL     1      -4.596  20.342 -30.443  1.00  0.00     0.051 A 
ATOM     16  C   UNL     1      -4.329  21.702 -30.275  1.00  0.00     0.157 A 
ATOM     17  C   UNL     1      -2.839  21.170 -28.433  1.00  0.00     0.062 A 
ATOM     18  C   UNL     1      -3.450  22.121 -29.264  1.00  0.00     0.158 A 
BRANCH  16  19
ATOM     19  O   UNL     1      -4.949  22.624 -31.119  1.00  0.00    -0.504 OA
ATOM     20  H   UNL     1      -5.084  23.592 -30.852  1.00  0.00     0.293 HD
ENDBRANCH  16  19
BRANCH  18  21
ATOM     21  O   UNL     1      -3.189  23.478 -29.083  1.00  0.00    -0.504 OA
ATOM     22  H   UNL     1      -3.595  24.183 -29.687  1.00  0.00     0.293 HD
ENDBRANCH  18  21
ENDBRANCH   3  13
BRANCH  11  23
ATOM     23  O   UNL     1       0.125  15.894 -24.426  1.00  0.00    -0.507 OA
ATOM     24  H   UNL     1       0.486  15.134 -23.860  1.00  0.00     0.293 HD
ENDBRANCH  11  23
ENDBRANCH   1   2
BRANCH   1  25
ATOM     25  C   UNL     1      -4.217  12.549 -27.194  1.00  0.00     0.339 C 
ATOM     26  C   UNL     1      -4.507  11.035 -27.092  1.00  0.00     0.214 C 
ATOM     27  O   UNL     1      -4.509  13.052 -28.491  1.00  0.00    -0.332 OA
ATOM     28  C   UNL     1      -3.707  10.257 -28.141  1.00  0.00     0.180 C 
ATOM     29  C   UNL     1      -3.813  12.396 -29.550  1.00  0.00     0.179 C 
ATOM     30  C   UNL     1      -3.985  10.854 -29.528  1.00  0.00     0.177 C 
BRANCH  26  31
ATOM     31  O   UNL     1      -4.211  10.546 -25.809  1.00  0.00    -0.384 OA
ATOM     32  H   UNL     1      -3.561  11.178 -25.403  1.00  0.00     0.211 HD
ENDBRANCH  26  31
BRANCH  28  33
ATOM     33  O   UNL     1      -2.330  10.293 -27.860  1.00  0.00    -0.387 OA
ATOM     34  H   UNL     1      -1.858  10.385 -28.729  1.00  0.00     0.211 HD
ENDBRANCH  28  33
BRANCH  29  35
ATOM     35  C   UNL     1      -2.353  12.883 -29.703  1.00  0.00     0.191 C 
BRANCH  35  36
ATOM     36  O   UNL     1      -1.976  12.882 -31.053  1.00  0.00    -0.394 OA
ATOM     37  H   UNL     1      -1.289  12.172 -31.160  1.00  0.00     0.210 HD
ENDBRANCH  35  36
ENDBRANCH  29  35
BRANCH  30  38
ATOM     38  O   UNL     1      -3.164  10.254 -30.498  1.00  0.00    -0.387 OA
ATOM     39  H   UNL     1      -2.555   9.635 -30.016  1.00  0.00     0.211 HD
ENDBRANCH  30  38
ENDBRANCH   1  25
TORSDOF 11
ENDMDL
MODEL 2
REMARK VINA RESULT:    -3.849      1.588      2.024
REMARK INTER + INTRA:          -6.037
REMARK INTER:                  -4.961
REMARK INTRA:                  -1.076
REMARK UNBOUND:                -0.500
REMARK SMILES O=c1cc(-c2ccc(O)c(O)c2)oc2cc(O[C@H]3O[C@@H](CO)[C@@H](O)[C@@H](O)[C@H]3O)cc(O)c12
REMARK SMILES IDX 17 1 16 2 4 3 3 4 13 5 2 6 14 7 1 8 32 9 15 10 30 11 29 12
REMARK SMILES IDX 5 13 6 14 7 15 8 16 12 17 10 18 9 19 11 21 31 23 18 25 27 26
REMARK SMILES IDX 19 27 25 28 20 29 23 30 28 31 26 33 21 35 22 36 24 38
REMARK H PARENT 9 20 11 22 31 24 28 32 26 34 22 37 24 39
REMARK Flexibility Score: inf
ROOT
ATOM      1  O   UNL     1      -2.689  14.000 -28.024  1.00  0.00    -0.462 OA
ENDROOT
BRANCH   1   2
ATOM      2  C   UNL     1      -2.116  14.997 -27.215  1.00  0.00     0.130 A 
ATOM      3  C   UNL     1      -1.237  19.660 -26.733  1.00  0.00     0.138 A 
ATOM      4  C   UNL     1      -0.581  19.475 -25.506  1.00  0.00     0.100 A 
ATOM      5  O   UNL     1      -1.727  18.604 -27.380  1.00  0.00    -0.456 OA
ATOM      6  C   UNL     1      -0.467  18.188 -24.975  1.00  0.00     0.197 A 
ATOM      7  C   UNL     1      -1.642  17.361 -26.917  1.00  0.00     0.146 A 
ATOM      8  O   UNL     1       0.125  18.031 -23.873  1.00  0.00    -0.289 OA
ATOM      9  C   UNL     1      -1.007  17.095 -25.682  1.00  0.00     0.107 A 
ATOM     10  C   UNL     1      -2.190  16.317 -27.666  1.00  0.00     0.094 A 
ATOM     11  C   UNL     1      -0.939  15.762 -25.216  1.00  0.00     0.134 A 
ATOM     12  C   UNL     1      -1.495  14.727 -25.982  1.00  0.00     0.093 A 
BRANCH   3  13
ATOM     13  C   UNL     1      -1.387  21.004 -27.346  1.00  0.00     0.021 A 
ATOM     14  C   UNL     1      -2.389  21.218 -28.308  1.00  0.00     0.016 A 
ATOM     15  C   UNL     1      -2.557  22.475 -28.894  1.00  0.00     0.051 A 
ATOM     16  C   UNL     1      -1.735  23.541 -28.524  1.00  0.00     0.157 A 
ATOM     17  C   UNL     1      -0.569  22.087 -26.967  1.00  0.00     0.062 A 
ATOM     18  C   UNL     1      -0.738  23.350 -27.553  1.00  0.00     0.158 A 
BRANCH  16  19
ATOM     19  O   UNL     1      -1.924  24.784 -29.128  1.00  0.00    -0.504 OA
ATOM     20  H   UNL     1      -2.063  25.630 -28.587  1.00  0.00     0.293 HD
ENDBRANCH  16  19
BRANCH  18  21
ATOM     21  O   UNL     1       0.078  24.414 -27.171  1.00  0.00    -0.504 OA
ATOM     22  H   UNL     1       0.243  25.204 -27.783  1.00  0.00     0.293 HD
ENDBRANCH  18  21
ENDBRANCH   3  13
BRANCH  11  23
ATOM     23  O   UNL     1      -0.325  15.460 -24.000  1.00  0.00    -0.507 OA
ATOM     24  H   UNL     1       0.337  16.093 -23.564  1.00  0.00     0.293 HD
ENDBRANCH  11  23
ENDBRANCH   1   2
BRANCH   1  25
ATOM     25  C   UNL     1      -4.063  13.890 -28.411  1.00  0.00     0.339 C 
ATOM     26  C   UNL     1      -4.729  12.617 -27.843  1.00  0.00     0.214 C 
ATOM     27  O   UNL     1      -4.182  13.955 -29.826  1.00  0.00    -0.332 OA
ATOM     28  C   UNL     1      -4.120  11.359 -28.472  1.00  0.00     0.180 C 
ATOM     29  C   UNL     1      -3.644  12.829 -30.517  1.00  0.00     0.179 C 
ATOM     30  C   UNL     1      -4.199  11.476 -30.001  1.00  0.00     0.177 C 
BRANCH  26  31
ATOM     31  O   UNL     1      -4.602  12.557 -26.446  1.00  0.00    -0.384 OA
ATOM     32  H   UNL     1      -4.439  13.486 -26.131  1.00  0.00     0.211 HD
ENDBRANCH  26  31
BRANCH  28  33
ATOM     33  O   UNL     1      -2.787  11.180 -28.063  1.00  0.00    -0.387 OA
ATOM     34  H   UNL     1      -2.813  10.815 -27.140  1.00  0.00     0.211 HD
ENDBRANCH  28  33
BRANCH  29  35
ATOM     35  C   UNL     1      -2.105  12.887 -30.655  1.00  0.00     0.191 C 
BRANCH  35  36
ATOM     36  O   UNL     1      -1.716  12.533 -31.956  1.00  0.00    -0.394 OA
ATOM     37  H   UNL     1      -1.967  11.580 -32.082  1.00  0.00     0.210 HD
ENDBRANCH  35  36
ENDBRANCH  29  35
BRANCH  30  38
ATOM     38  O   UNL     1      -3.529  10.403 -30.614  1.00  0.00    -0.387 OA
ATOM     39  H   UNL     1      -2.591  10.695 -30.758  1.00  0.00     0.211 HD
ENDBRANCH  30  38
ENDBRANCH   1  25
TORSDOF 11
ENDMDL
MODEL 3
REMARK VINA RESULT:    -3.772      0.876      2.216
REMARK INTER + INTRA:          -5.927
REMARK INTER:                  -5.030
REMARK INTRA:                  -0.897
REMARK UNBOUND:                -0.500
REMARK SMILES O=c1cc(-c2ccc(O)c(O)c2)oc2cc(O[C@H]3O[C@@H](CO)[C@@H](O)[C@@H](O)[C@H]3O)cc(O)c12
REMARK SMILES IDX 17 1 16 2 4 3 3 4 13 5 2 6 14 7 1 8 32 9 15 10 30 11 29 12
REMARK SMILES IDX 5 13 6 14 7 15 8 16 12 17 10 18 9 19 11 21 31 23 18 25 27 26
REMARK SMILES IDX 19 27 25 28 20 29 23 30 28 31 26 33 21 35 22 36 24 38
REMARK H PARENT 9 20 11 22 31 24 28 32 26 34 22 37 24 39
REMARK Flexibility Score: inf
ROOT
ATOM      1  O   UNL     1      -2.985  12.857 -26.799  1.00  0.00    -0.462 OA
ENDROOT
BRANCH   1   2
ATOM      2  C   UNL     1      -2.428  14.128 -26.573  1.00  0.00     0.130 A 
ATOM      3  C   UNL     1      -2.504  18.738 -27.797  1.00  0.00     0.138 A 
ATOM      4  C   UNL     1      -1.480  19.060 -26.892  1.00  0.00     0.100 A 
ATOM      5  O   UNL     1      -2.921  17.476 -27.892  1.00  0.00    -0.456 OA
ATOM      6  C   UNL     1      -0.926  18.056 -26.095  1.00  0.00     0.197 A 
ATOM      7  C   UNL     1      -2.424  16.486 -27.156  1.00  0.00     0.146 A 
ATOM      8  O   UNL     1      -0.006  18.355 -25.286  1.00  0.00    -0.289 OA
ATOM      9  C   UNL     1      -1.399  16.734 -26.214  1.00  0.00     0.107 A 
ATOM     10  C   UNL     1      -2.928  15.195 -27.324  1.00  0.00     0.094 A 
ATOM     11  C   UNL     1      -0.897  15.660 -25.444  1.00  0.00     0.134 A 
ATOM     12  C   UNL     1      -1.416  14.370 -25.626  1.00  0.00     0.093 A 
BRANCH   3  13
ATOM     13  C   UNL     1      -3.129  19.762 -28.670  1.00  0.00     0.021 A 
ATOM     14  C   UNL     1      -4.048  19.363 -29.656  1.00  0.00     0.016 A 
ATOM     15  C   UNL     1      -4.657  20.309 -30.485  1.00  0.00     0.051 A 
ATOM     16  C   UNL     1      -4.366  21.667 -30.340  1.00  0.00     0.157 A 
ATOM     17  C   UNL     1      -2.850  21.135 -28.519  1.00  0.00     0.062 A 
ATOM     18  C   UNL     1      -3.462  22.085 -29.350  1.00  0.00     0.158 A 
BRANCH  16  19
ATOM     19  O   UNL     1      -4.988  22.587 -31.184  1.00  0.00    -0.504 OA
ATOM     20  H   UNL     1      -5.978  22.540 -31.395  1.00  0.00     0.293 HD
ENDBRANCH  16  19
BRANCH  18  21
ATOM     21  O   UNL     1      -3.177  23.440 -29.192  1.00  0.00    -0.504 OA
ATOM     22  H   UNL     1      -2.274  23.758 -28.860  1.00  0.00     0.293 HD
ENDBRANCH  18  21
ENDBRANCH   3  13
BRANCH  11  23
ATOM     23  O   UNL     1       0.111  15.865 -24.501  1.00  0.00    -0.507 OA
ATOM     24  H   UNL     1      -0.076  15.831 -23.505  1.00  0.00     0.293 HD
ENDBRANCH  11  23
ENDBRANCH   1   2
BRANCH   1  25
ATOM     25  C   UNL     1      -2.353  11.739 -27.431  1.00  0.00     0.339 C 
ATOM     26  C   UNL     1      -2.501  11.778 -28.969  1.00  0.00     0.214 C 
ATOM     27  O   UNL     1      -2.848  10.522 -26.888  1.00  0.00    -0.332 OA
ATOM     28  C   UNL     1      -3.965  11.587 -29.378  1.00  0.00     0.180 C 
ATOM     29  C   UNL     1      -4.211  10.243 -27.209  1.00  0.00     0.179 C 
ATOM     30  C   UNL     1      -4.502  10.302 -28.731  1.00  0.00     0.177 C 
BRANCH  26  31
ATOM     31  O   UNL     1      -2.014  12.985 -29.495  1.00  0.00    -0.384 OA
ATOM     32  H   UNL     1      -2.326  13.710 -28.892  1.00  0.00     0.211 HD
ENDBRANCH  26  31
BRANCH  28  33
ATOM     33  O   UNL     1      -4.748  12.691 -28.997  1.00  0.00    -0.387 OA
ATOM     34  H   UNL     1      -4.828  12.662 -28.008  1.00  0.00     0.211 HD
ENDBRANCH  28  33
BRANCH  29  35
ATOM     35  C   UNL     1      -5.208  11.029 -26.327  1.00  0.00     0.191 C 
BRANCH  35  36
ATOM     36  O   UNL     1      -4.793  11.017 -24.987  1.00  0.00    -0.394 OA
ATOM     37  H   UNL     1      -4.126  11.746 -24.885  1.00  0.00     0.210 HD
ENDBRANCH  35  36
ENDBRANCH  29  35
BRANCH  30  38
ATOM     38  O   UNL     1      -5.880  10.166 -28.973  1.00  0.00    -0.387 OA
ATOM     39  H   UNL     1      -5.974   9.720 -29.856  1.00  0.00     0.211 HD
ENDBRANCH  30  38
ENDBRANCH   1  25
TORSDOF 11
ENDMDL
MODEL 4
REMARK VINA RESULT:    -3.593      1.359      1.993
REMARK INTER + INTRA:          -5.669
REMARK INTER:                  -4.658
REMARK INTRA:                  -1.011
REMARK UNBOUND:                -0.500
REMARK SMILES O=c1cc(-c2ccc(O)c(O)c2)oc2cc(O[C@H]3O[C@@H](CO)[C@@H](O)[C@@H](O)[C@H]3O)cc(O)c12
REMARK SMILES IDX 17 1 16 2 4 3 3 4 13 5 2 6 14 7 1 8 32 9 15 10 30 11 29 12
REMARK SMILES IDX 5 13 6 14 7 15 8 16 12 17 10 18 9 19 11 21 31 23 18 25 27 26
REMARK SMILES IDX 19 27 25 28 20 29 23 30 28 31 26 33 21 35 22 36 24 38
REMARK H PARENT 9 20 11 22 31 24 28 32 26 34 22 37 24 39
REMARK Flexibility Score: inf
ROOT
ATOM      1  O   UNL     1      -2.716  13.933 -28.049  1.00  0.00    -0.462 OA
ENDROOT
BRANCH   1   2
ATOM      2  C   UNL     1      -2.145  14.955 -27.271  1.00  0.00     0.130 A 
ATOM      3  C   UNL     1      -1.395  19.649 -26.868  1.00  0.00     0.138 A 
ATOM      4  C   UNL     1      -0.691  19.497 -25.663  1.00  0.00     0.100 A 
ATOM      5  O   UNL     1      -1.875  18.571 -27.486  1.00  0.00    -0.456 OA
ATOM      6  C   UNL     1      -0.518  18.221 -25.124  1.00  0.00     0.197 A 
ATOM      7  C   UNL     1      -1.735  17.336 -27.014  1.00  0.00     0.146 A 
ATOM      8  O   UNL     1       0.118  18.094 -24.043  1.00  0.00    -0.289 OA
ATOM      9  C   UNL     1      -1.049  17.103 -25.800  1.00  0.00     0.107 A 
ATOM     10  C   UNL     1      -2.276  16.268 -27.732  1.00  0.00     0.094 A 
ATOM     11  C   UNL     1      -0.922  15.779 -25.324  1.00  0.00     0.134 A 
ATOM     12  C   UNL     1      -1.473  14.718 -26.058  1.00  0.00     0.093 A 
BRANCH   3  13
ATOM     13  C   UNL     1      -1.609  20.980 -27.488  1.00  0.00     0.021 A 
ATOM     14  C   UNL     1      -0.708  22.024 -27.216  1.00  0.00     0.016 A 
ATOM     15  C   UNL     1      -0.882  23.284 -27.793  1.00  0.00     0.051 A 
ATOM     16  C   UNL     1      -1.952  23.522 -28.659  1.00  0.00     0.157 A 
ATOM     17  C   UNL     1      -2.679  21.222 -28.373  1.00  0.00     0.062 A 
ATOM     18  C   UNL     1      -2.853  22.487 -28.955  1.00  0.00     0.158 A 
BRANCH  16  19
ATOM     19  O   UNL     1      -2.101  24.790 -29.219  1.00  0.00    -0.504 OA
ATOM     20  H   UNL     1      -2.342  24.924 -30.194  1.00  0.00     0.293 HD
ENDBRANCH  16  19
BRANCH  18  21
ATOM     21  O   UNL     1      -3.917  22.715 -29.827  1.00  0.00    -0.504 OA
ATOM     22  H   UNL     1      -4.484  23.552 -29.767  1.00  0.00     0.293 HD
ENDBRANCH  18  21
ENDBRANCH   3  13
BRANCH  11  23
ATOM     23  O   UNL     1      -0.256  15.509 -24.128  1.00  0.00    -0.507 OA
ATOM     24  H   UNL     1      -0.096  16.229 -23.432  1.00  0.00     0.293 HD
ENDBRANCH  11  23
ENDBRANCH   1   2
BRANCH   1  25
ATOM     25  C   UNL     1      -4.061  13.868 -28.533  1.00  0.00     0.339 C 
ATOM     26  C   UNL     1      -4.814  12.629 -27.999  1.00  0.00     0.214 C 
ATOM     27  O   UNL     1      -4.076  13.917 -29.954  1.00  0.00    -0.332 OA
ATOM     28  C   UNL     1      -4.210  11.340 -28.568  1.00  0.00     0.180 C 
ATOM     29  C   UNL     1      -3.533  12.762 -30.591  1.00  0.00     0.179 C 
ATOM     30  C   UNL     1      -4.175  11.438 -30.100  1.00  0.00     0.177 C 
BRANCH  26  31
ATOM     31  O   UNL     1      -4.791  12.585 -26.596  1.00  0.00    -0.384 OA
ATOM     32  H   UNL     1      -4.443  13.463 -26.287  1.00  0.00     0.211 HD
ENDBRANCH  26  31
BRANCH  28  33
ATOM     33  O   UNL     1      -2.918  11.118 -28.062  1.00  0.00    -0.387 OA
ATOM     34  H   UNL     1      -3.019  10.577 -27.236  1.00  0.00     0.211 HD
ENDBRANCH  28  33
BRANCH  29  35
ATOM     35  C   UNL     1      -1.987  12.761 -30.618  1.00  0.00     0.191 C 
BRANCH  35  36
ATOM     36  O   UNL     1      -1.520  12.594 -31.930  1.00  0.00    -0.394 OA
ATOM     37  H   UNL     1      -0.539  12.744 -31.909  1.00  0.00     0.210 HD
ENDBRANCH  35  36
ENDBRANCH  29  35
BRANCH  30  38
ATOM     38  O   UNL     1      -3.503  10.332 -30.650  1.00  0.00    -0.387 OA
ATOM     39  H   UNL     1      -2.643  10.669 -31.014  1.00  0.00     0.211 HD
ENDBRANCH  30  38
ENDBRANCH   1  25
TORSDOF 11
ENDMDL
MODEL 5
REMARK VINA RESULT:    -2.943      1.370      2.867
REMARK INTER + INTRA:          -4.734
REMARK INTER:                  -3.713
REMARK INTRA:                  -1.020
REMARK UNBOUND:                -0.500
REMARK SMILES O=c1cc(-c2ccc(O)c(O)c2)oc2cc(O[C@H]3O[C@@H](CO)[C@@H](O)[C@@H](O)[C@H]3O)cc(O)c12
REMARK SMILES IDX 17 1 16 2 4 3 3 4 13 5 2 6 14 7 1 8 32 9 15 10 30 11 29 12
REMARK SMILES IDX 5 13 6 14 7 15 8 16 12 17 10 18 9 19 11 21 31 23 18 25 27 26
REMARK SMILES IDX 19 27 25 28 20 29 23 30 28 31 26 33 21 35 22 36 24 38
REMARK H PARENT 9 20 11 22 31 24 28 32 26 34 22 37 24 39
REMARK Flexibility Score: inf
ROOT
ATOM      1  O   UNL     1      -2.608  13.804 -28.365  1.00  0.00    -0.462 OA
ENDROOT
BRANCH   1   2
ATOM      2  C   UNL     1      -2.060  14.793 -27.530  1.00  0.00     0.130 A 
ATOM      3  C   UNL     1      -1.375  19.469 -26.883  1.00  0.00     0.138 A 
ATOM      4  C   UNL     1      -0.682  19.265 -25.678  1.00  0.00     0.100 A 
ATOM      5  O   UNL     1      -1.834  18.418 -27.560  1.00  0.00    -0.456 OA
ATOM      6  C   UNL     1      -0.499  17.966 -25.202  1.00  0.00     0.197 A 
ATOM      7  C   UNL     1      -1.683  17.163 -27.149  1.00  0.00     0.146 A 
ATOM      8  O   UNL     1       0.125  17.792 -24.121  1.00  0.00    -0.289 OA
ATOM      9  C   UNL     1      -1.008  16.877 -25.940  1.00  0.00     0.107 A 
ATOM     10  C   UNL     1      -2.202  16.125 -27.926  1.00  0.00     0.094 A 
ATOM     11  C   UNL     1      -0.870  15.532 -25.529  1.00  0.00     0.134 A 
ATOM     12  C   UNL     1      -1.399  14.503 -26.323  1.00  0.00     0.093 A 
BRANCH   3  13
ATOM     13  C   UNL     1      -1.598  20.827 -27.438  1.00  0.00     0.021 A 
ATOM     14  C   UNL     1      -0.738  21.876 -27.070  1.00  0.00     0.016 A 
ATOM     15  C   UNL     1      -0.922  23.161 -27.585  1.00  0.00     0.051 A 
ATOM     16  C   UNL     1      -1.961  23.421 -28.481  1.00  0.00     0.157 A 
ATOM     17  C   UNL     1      -2.636  21.092 -28.354  1.00  0.00     0.062 A 
ATOM     18  C   UNL     1      -2.820  22.382 -28.872  1.00  0.00     0.158 A 
BRANCH  16  19
ATOM     19  O   UNL     1      -2.120  24.714 -28.977  1.00  0.00    -0.504 OA
ATOM     20  H   UNL     1      -1.360  25.384 -28.990  1.00  0.00     0.293 HD
ENDBRANCH  16  19
BRANCH  18  21
ATOM     21  O   UNL     1      -3.852  22.632 -29.776  1.00  0.00    -0.504 OA
ATOM     22  H   UNL     1      -3.739  22.471 -30.770  1.00  0.00     0.293 HD
ENDBRANCH  18  21
ENDBRANCH   3  13
BRANCH  11  23
ATOM     23  O   UNL     1      -0.214  15.210 -24.340  1.00  0.00    -0.507 OA
ATOM     24  H   UNL     1       0.792  15.290 -24.247  1.00  0.00     0.293 HD
ENDBRANCH  11  23
ENDBRANCH   1   2
BRANCH   1  25
ATOM     25  C   UNL     1      -1.992  12.576 -28.767  1.00  0.00     0.339 C 
ATOM     26  C   UNL     1      -2.498  12.092 -30.144  1.00  0.00     0.214 C 
ATOM     27  O   UNL     1      -2.172  11.584 -27.764  1.00  0.00    -0.332 OA
ATOM     28  C   UNL     1      -3.976  11.694 -30.069  1.00  0.00     0.180 C 
ATOM     29  C   UNL     1      -3.519  11.140 -27.609  1.00  0.00     0.179 C 
ATOM     30  C   UNL     1      -4.163  10.671 -28.940  1.00  0.00     0.177 C 
BRANCH  26  31
ATOM     31  O   UNL     1      -2.321  13.079 -31.126  1.00  0.00    -0.384 OA
ATOM     32  H   UNL     1      -3.115  13.040 -31.721  1.00  0.00     0.211 HD
ENDBRANCH  26  31
BRANCH  28  33
ATOM     33  O   UNL     1      -4.794  12.817 -29.853  1.00  0.00    -0.387 OA
ATOM     34  H   UNL     1      -5.087  12.785 -28.905  1.00  0.00     0.211 HD
ENDBRANCH  28  33
BRANCH  29  35
ATOM     35  C   UNL     1      -4.383  12.118 -26.780  1.00  0.00     0.191 C 
BRANCH  35  36
ATOM     36  O   UNL     1      -5.269  11.410 -25.955  1.00  0.00    -0.394 OA
ATOM     37  H   UNL     1      -5.133  11.746 -25.031  1.00  0.00     0.210 HD
ENDBRANCH  35  36
ENDBRANCH  29  35
BRANCH  30  38
ATOM     38  O   UNL     1      -5.527  10.386 -28.753  1.00  0.00    -0.387 OA
ATOM     39  H   UNL     1      -5.780  10.757 -27.867  1.00  0.00     0.211 HD
ENDBRANCH  30  38
ENDBRANCH   1  25
TORSDOF 11
ENDMDL
MODEL 6
REMARK VINA RESULT:    -2.782      2.334      4.864
REMARK INTER + INTRA:          -4.503
REMARK INTER:                  -3.603
REMARK INTRA:                  -0.899
REMARK UNBOUND:                -0.500
REMARK SMILES O=c1cc(-c2ccc(O)c(O)c2)oc2cc(O[C@H]3O[C@@H](CO)[C@@H](O)[C@@H](O)[C@H]3O)cc(O)c12
REMARK SMILES IDX 17 1 16 2 4 3 3 4 13 5 2 6 14 7 1 8 32 9 15 10 30 11 29 12
REMARK SMILES IDX 5 13 6 14 7 15 8 16 12 17 10 18 9 19 11 21 31 23 18 25 27 26
REMARK SMILES IDX 19 27 25 28 20 29 23 30 28 31 26 33 21 35 22 36 24 38
REMARK H PARENT 9 20 11 22 31 24 28 32 26 34 22 37 24 39
REMARK Flexibility Score: inf
ROOT
ATOM      1  O   UNL     1      -4.077  14.836 -28.763  1.00  0.00    -0.462 OA
ENDROOT
BRANCH   1   2
ATOM      2  C   UNL     1      -4.487  16.115 -29.176  1.00  0.00     0.130 A 
ATOM      3  C   UNL     1      -3.519  20.786 -29.085  1.00  0.00     0.138 A 
ATOM      4  C   UNL     1      -4.654  21.101 -29.848  1.00  0.00     0.100 A 
ATOM      5  O   UNL     1      -3.270  19.514 -28.775  1.00  0.00    -0.456 OA
ATOM      6  C   UNL     1      -5.496  20.075 -30.282  1.00  0.00     0.197 A 
ATOM      7  C   UNL     1      -4.042  18.504 -29.164  1.00  0.00     0.146 A 
ATOM      8  O   UNL     1      -6.515  20.367 -30.966  1.00  0.00    -0.289 OA
ATOM      9  C   UNL     1      -5.197  18.740 -29.945  1.00  0.00     0.107 A 
ATOM     10  C   UNL     1      -3.698  17.202 -28.791  1.00  0.00     0.094 A 
ATOM     11  C   UNL     1      -5.993  17.643 -30.345  1.00  0.00     0.134 A 
ATOM     12  C   UNL     1      -5.631  16.342 -29.963  1.00  0.00     0.093 A 
BRANCH   3  13
ATOM     13  C   UNL     1      -2.589  21.833 -28.595  1.00  0.00     0.021 A 
ATOM     14  C   UNL     1      -1.591  21.493 -27.665  1.00  0.00     0.016 A 
ATOM     15  C   UNL     1      -0.698  22.459 -27.194  1.00  0.00     0.051 A 
ATOM     16  C   UNL     1      -0.779  23.777 -27.649  1.00  0.00     0.157 A 
ATOM     17  C   UNL     1      -2.657  23.162 -29.061  1.00  0.00     0.062 A 
ATOM     18  C   UNL     1      -1.759  24.131 -28.590  1.00  0.00     0.158 A 
BRANCH  16  19
ATOM     19  O   UNL     1       0.125  24.720 -27.160  1.00  0.00    -0.504 OA
ATOM     20  H   UNL     1      -0.124  25.695 -27.044  1.00  0.00     0.293 HD
ENDBRANCH  16  19
BRANCH  18  21
ATOM     21  O   UNL     1      -1.838  25.443 -29.057  1.00  0.00    -0.504 OA
ATOM     22  H   UNL     1      -1.449  25.712 -29.953  1.00  0.00     0.293 HD
ENDBRANCH  18  21
ENDBRANCH   3  13
BRANCH  11  23
ATOM     23  O   UNL     1      -7.137  17.834 -31.121  1.00  0.00    -0.507 OA
ATOM     24  H   UNL     1      -7.082  18.022 -32.115  1.00  0.00     0.293 HD
ENDBRANCH  11  23
ENDBRANCH   1   2
BRANCH   1  25
ATOM     25  C   UNL     1      -2.907  14.509 -28.004  1.00  0.00     0.339 C 
ATOM     26  C   UNL     1      -2.503  13.027 -28.167  1.00  0.00     0.214 C 
ATOM     27  O   UNL     1      -3.094  14.854 -26.638  1.00  0.00    -0.332 OA
ATOM     28  C   UNL     1      -3.554  12.105 -27.539  1.00  0.00     0.180 C 
ATOM     29  C   UNL     1      -4.058  14.055 -25.953  1.00  0.00     0.179 C 
ATOM     30  C   UNL     1      -3.790  12.533 -26.084  1.00  0.00     0.177 C 
BRANCH  26  31
ATOM     31  O   UNL     1      -2.325  12.694 -29.519  1.00  0.00    -0.384 OA
ATOM     32  H   UNL     1      -2.757  11.809 -29.657  1.00  0.00     0.211 HD
ENDBRANCH  26  31
BRANCH  28  33
ATOM     33  O   UNL     1      -4.759  12.143 -28.262  1.00  0.00    -0.387 OA
ATOM     34  H   UNL     1      -5.437  11.658 -27.723  1.00  0.00     0.211 HD
ENDBRANCH  28  33
BRANCH  29  35
ATOM     35  C   UNL     1      -5.514  14.484 -26.249  1.00  0.00     0.191 C 
BRANCH  35  36
ATOM     36  O   UNL     1      -5.647  15.876 -26.136  1.00  0.00    -0.394 OA
ATOM     37  H   UNL     1      -6.550  16.108 -26.478  1.00  0.00     0.210 HD
ENDBRANCH  35  36
ENDBRANCH  29  35
BRANCH  30  38
ATOM     38  O   UNL     1      -4.846  11.797 -25.518  1.00  0.00    -0.387 OA
ATOM     39  H   UNL     1      -5.123  12.278 -24.694  1.00  0.00     0.211 HD
ENDBRANCH  30  38
ENDBRANCH   1  25
TORSDOF 11
ENDMDL
MODEL 7
REMARK VINA RESULT:    -2.744      2.347      4.883
REMARK INTER + INTRA:          -4.448
REMARK INTER:                  -3.357
REMARK INTRA:                  -1.090
REMARK UNBOUND:                -0.500
REMARK SMILES O=c1cc(-c2ccc(O)c(O)c2)oc2cc(O[C@H]3O[C@@H](CO)[C@@H](O)[C@@H](O)[C@H]3O)cc(O)c12
REMARK SMILES IDX 17 1 16 2 4 3 3 4 13 5 2 6 14 7 1 8 32 9 15 10 30 11 29 12
REMARK SMILES IDX 5 13 6 14 7 15 8 16 12 17 10 18 9 19 11 21 31 23 18 25 27 26
REMARK SMILES IDX 19 27 25 28 20 29 23 30 28 31 26 33 21 35 22 36 24 38
REMARK H PARENT 9 20 11 22 31 24 28 32 26 34 22 37 24 39
REMARK Flexibility Score: inf
ROOT
ATOM      1  O   UNL     1      -4.286  14.747 -28.781  1.00  0.00    -0.462 OA
ENDROOT
BRANCH   1   2
ATOM      2  C   UNL     1      -4.706  16.022 -29.197  1.00  0.00     0.130 A 
ATOM      3  C   UNL     1      -3.706  20.686 -29.231  1.00  0.00     0.138 A 
ATOM      4  C   UNL     1      -4.873  20.996 -29.949  1.00  0.00     0.100 A 
ATOM      5  O   UNL     1      -3.452  19.419 -28.911  1.00  0.00    -0.456 OA
ATOM      6  C   UNL     1      -5.740  19.969 -30.327  1.00  0.00     0.197 A 
ATOM      7  C   UNL     1      -4.247  18.407 -29.247  1.00  0.00     0.146 A 
ATOM      8  O   UNL     1      -6.786  20.256 -30.969  1.00  0.00    -0.289 OA
ATOM      9  C   UNL     1      -5.434  18.637 -29.979  1.00  0.00     0.107 A 
ATOM     10  C   UNL     1      -3.894  17.110 -28.868  1.00  0.00     0.094 A 
ATOM     11  C   UNL     1      -6.254  17.539 -30.325  1.00  0.00     0.134 A 
ATOM     12  C   UNL     1      -5.883  16.243 -29.936  1.00  0.00     0.093 A 
BRANCH   3  13
ATOM     13  C   UNL     1      -2.749  21.736 -28.802  1.00  0.00     0.021 A 
ATOM     14  C   UNL     1      -2.856  23.031 -29.337  1.00  0.00     0.016 A 
ATOM     15  C   UNL     1      -1.972  24.039 -28.943  1.00  0.00     0.051 A 
ATOM     16  C   UNL     1      -0.974  23.775 -28.002  1.00  0.00     0.157 A 
ATOM     17  C   UNL     1      -1.749  21.479 -27.843  1.00  0.00     0.062 A 
ATOM     18  C   UNL     1      -0.862  22.491 -27.445  1.00  0.00     0.158 A 
BRANCH  16  19
ATOM     19  O   UNL     1      -0.105  24.800 -27.630  1.00  0.00    -0.504 OA
ATOM     20  H   UNL     1      -0.184  25.737 -28.009  1.00  0.00     0.293 HD
ENDBRANCH  16  19
BRANCH  18  21
ATOM     21  O   UNL     1       0.124  22.224 -26.497  1.00  0.00    -0.504 OA
ATOM     22  H   UNL     1       0.023  21.477 -25.820  1.00  0.00     0.293 HD
ENDBRANCH  18  21
ENDBRANCH   3  13
BRANCH  11  23
ATOM     23  O   UNL     1      -7.430  17.725 -31.052  1.00  0.00    -0.507 OA
ATOM     24  H   UNL     1      -7.491  17.495 -32.037  1.00  0.00     0.293 HD
ENDBRANCH  11  23
ENDBRANCH   1   2
BRANCH   1  25
ATOM     25  C   UNL     1      -3.037  14.409 -28.168  1.00  0.00     0.339 C 
ATOM     26  C   UNL     1      -2.527  13.019 -28.611  1.00  0.00     0.214 C 
ATOM     27  O   UNL     1      -3.142  14.502 -26.753  1.00  0.00    -0.332 OA
ATOM     28  C   UNL     1      -3.447  11.912 -28.086  1.00  0.00     0.180 C 
ATOM     29  C   UNL     1      -3.980  13.513 -26.157  1.00  0.00     0.179 C 
ATOM     30  C   UNL     1      -3.601  12.066 -26.567  1.00  0.00     0.177 C 
BRANCH  26  31
ATOM     31  O   UNL     1      -2.431  12.935 -30.009  1.00  0.00    -0.384 OA
ATOM     32  H   UNL     1      -1.655  13.493 -30.279  1.00  0.00     0.211 HD
ENDBRANCH  26  31
BRANCH  28  33
ATOM     33  O   UNL     1      -4.705  11.957 -28.712  1.00  0.00    -0.387 OA
ATOM     34  H   UNL     1      -4.741  12.802 -29.231  1.00  0.00     0.211 HD
ENDBRANCH  28  33
BRANCH  29  35
ATOM     35  C   UNL     1      -5.485  13.847 -26.279  1.00  0.00     0.191 C 
BRANCH  35  36
ATOM     36  O   UNL     1      -6.209  13.231 -25.248  1.00  0.00    -0.394 OA
ATOM     37  H   UNL     1      -5.630  12.514 -24.878  1.00  0.00     0.210 HD
ENDBRANCH  35  36
ENDBRANCH  29  35
BRANCH  30  38
ATOM     38  O   UNL     1      -4.544  11.150 -26.070  1.00  0.00    -0.387 OA
ATOM     39  H   UNL     1      -5.441  11.542 -26.239  1.00  0.00     0.211 HD
ENDBRANCH  30  38
ENDBRANCH   1  25
TORSDOF 11
ENDMDL
MODEL 8
REMARK VINA RESULT:    -2.607      2.334      4.393
REMARK INTER + INTRA:          -4.251
REMARK INTER:                  -3.117
REMARK INTRA:                  -1.134
REMARK UNBOUND:                -0.500
REMARK SMILES O=c1cc(-c2ccc(O)c(O)c2)oc2cc(O[C@H]3O[C@@H](CO)[C@@H](O)[C@@H](O)[C@H]3O)cc(O)c12
REMARK SMILES IDX 17 1 16 2 4 3 3 4 13 5 2 6 14 7 1 8 32 9 15 10 30 11 29 12
REMARK SMILES IDX 5 13 6 14 7 15 8 16 12 17 10 18 9 19 11 21 31 23 18 25 27 26
REMARK SMILES IDX 19 27 25 28 20 29 23 30 28 31 26 33 21 35 22 36 24 38
REMARK H PARENT 9 20 11 22 31 24 28 32 26 34 22 37 24 39
REMARK Flexibility Score: inf
ROOT
ATOM      1  O   UNL     1      -3.851  14.871 -28.731  1.00  0.00    -0.462 OA
ENDROOT
BRANCH   1   2
ATOM      2  C   UNL     1      -4.308  16.136 -29.138  1.00  0.00     0.130 A 
ATOM      3  C   UNL     1      -3.467  20.832 -29.096  1.00  0.00     0.138 A 
ATOM      4  C   UNL     1      -4.632  21.111 -29.828  1.00  0.00     0.100 A 
ATOM      5  O   UNL     1      -3.175  19.569 -28.787  1.00  0.00    -0.456 OA
ATOM      6  C   UNL     1      -5.457  20.060 -30.234  1.00  0.00     0.197 A 
ATOM      7  C   UNL     1      -3.929  18.536 -29.149  1.00  0.00     0.146 A 
ATOM      8  O   UNL     1      -6.502  20.321 -30.890  1.00  0.00    -0.289 OA
ATOM      9  C   UNL     1      -5.111  18.735 -29.899  1.00  0.00     0.107 A 
ATOM     10  C   UNL     1      -3.539  17.246 -28.781  1.00  0.00     0.094 A 
ATOM     11  C   UNL     1      -5.887  17.615 -30.272  1.00  0.00     0.134 A 
ATOM     12  C   UNL     1      -5.479  16.327 -29.894  1.00  0.00     0.093 A 
BRANCH   3  13
ATOM     13  C   UNL     1      -2.554  21.907 -28.636  1.00  0.00     0.021 A 
ATOM     14  C   UNL     1      -1.517  21.598 -27.739  1.00  0.00     0.016 A 
ATOM     15  C   UNL     1      -0.639  22.591 -27.297  1.00  0.00     0.051 A 
ATOM     16  C   UNL     1      -0.773  23.905 -27.751  1.00  0.00     0.157 A 
ATOM     17  C   UNL     1      -2.676  23.232 -29.101  1.00  0.00     0.062 A 
ATOM     18  C   UNL     1      -1.792  24.229 -28.660  1.00  0.00     0.158 A 
BRANCH  16  19
ATOM     19  O   UNL     1       0.118  24.875 -27.291  1.00  0.00    -0.504 OA
ATOM     20  H   UNL     1       0.246  25.064 -26.304  1.00  0.00     0.293 HD
ENDBRANCH  16  19
BRANCH  18  21
ATOM     21  O   UNL     1      -1.924  25.536 -29.125  1.00  0.00    -0.504 OA
ATOM     22  H   UNL     1      -1.776  25.771 -30.100  1.00  0.00     0.293 HD
ENDBRANCH  18  21
ENDBRANCH   3  13
BRANCH  11  23
ATOM     23  O   UNL     1      -7.058  17.771 -31.016  1.00  0.00    -0.507 OA
ATOM     24  H   UNL     1      -7.393  18.685 -31.298  1.00  0.00     0.293 HD
ENDBRANCH  11  23
ENDBRANCH   1   2
BRANCH   1  25
ATOM     25  C   UNL     1      -4.629  13.821 -28.146  1.00  0.00     0.339 C 
ATOM     26  C   UNL     1      -4.087  13.394 -26.764  1.00  0.00     0.214 C 
ATOM     27  O   UNL     1      -4.717  12.717 -29.038  1.00  0.00    -0.332 OA
ATOM     28  C   UNL     1      -2.713  12.729 -26.902  1.00  0.00     0.180 C 
ATOM     29  C   UNL     1      -3.487  12.023 -29.242  1.00  0.00     0.179 C 
ATOM     30  C   UNL     1      -2.811  11.582 -27.917  1.00  0.00     0.177 C 
BRANCH  26  31
ATOM     31  O   UNL     1      -3.999  14.490 -25.891  1.00  0.00    -0.384 OA
ATOM     32  H   UNL     1      -3.035  14.620 -25.688  1.00  0.00     0.211 HD
ENDBRANCH  26  31
BRANCH  28  33
ATOM     33  O   UNL     1      -1.738  13.658 -27.306  1.00  0.00    -0.387 OA
ATOM     34  H   UNL     1      -1.997  13.976 -28.210  1.00  0.00     0.211 HD
ENDBRANCH  28  33
BRANCH  29  35
ATOM     35  C   UNL     1      -2.549  12.741 -30.239  1.00  0.00     0.191 C 
BRANCH  35  36
ATOM     36  O   UNL     1      -3.296  13.392 -31.232  1.00  0.00    -0.394 OA
ATOM     37  H   UNL     1      -2.656  13.924 -31.773  1.00  0.00     0.210 HD
ENDBRANCH  35  36
ENDBRANCH  29  35
BRANCH  30  38
ATOM     38  O   UNL     1      -1.540  11.037 -28.171  1.00  0.00    -0.387 OA
ATOM     39  H   UNL     1      -1.091  10.934 -27.292  1.00  0.00     0.211 HD
ENDBRANCH  30  38
ENDBRANCH   1  25
TORSDOF 11
ENDMDL
MODEL 9
REMARK VINA RESULT:    -2.461      1.496      2.822
REMARK INTER + INTRA:          -4.041
REMARK INTER:                  -3.107
REMARK INTRA:                  -0.934
REMARK UNBOUND:                -0.500
REMARK SMILES O=c1cc(-c2ccc(O)c(O)c2)oc2cc(O[C@H]3O[C@@H](CO)[C@@H](O)[C@@H](O)[C@H]3O)cc(O)c12
REMARK SMILES IDX 17 1 16 2 4 3 3 4 13 5 2 6 14 7 1 8 32 9 15 10 30 11 29 12
REMARK SMILES IDX 5 13 6 14 7 15 8 16 12 17 10 18 9 19 11 21 31 23 18 25 27 26
REMARK SMILES IDX 19 27 25 28 20 29 23 30 28 31 26 33 21 35 22 36 24 38
REMARK H PARENT 9 20 11 22 31 24 28 32 26 34 22 37 24 39
REMARK Flexibility Score: inf
ROOT
ATOM      1  O   UNL     1      -3.962  12.613 -26.029  1.00  0.00    -0.462 OA
ENDROOT
BRANCH   1   2
ATOM      2  C   UNL     1      -3.241  13.819 -26.087  1.00  0.00     0.130 A 
ATOM      3  C   UNL     1      -3.012  18.187 -27.989  1.00  0.00     0.138 A 
ATOM      4  C   UNL     1      -1.826  18.494 -27.302  1.00  0.00     0.100 A 
ATOM      5  O   UNL     1      -3.574  16.991 -27.825  1.00  0.00    -0.456 OA
ATOM      6  C   UNL     1      -1.263  17.544 -26.447  1.00  0.00     0.197 A 
ATOM      7  C   UNL     1      -3.075  16.054 -27.024  1.00  0.00     0.146 A 
ATOM      8  O   UNL     1      -0.197  17.827 -25.836  1.00  0.00    -0.289 OA
ATOM      9  C   UNL     1      -1.890  16.292 -26.289  1.00  0.00     0.107 A 
ATOM     10  C   UNL     1      -3.737  14.829 -26.914  1.00  0.00     0.094 A 
ATOM     11  C   UNL     1      -1.390  15.277 -25.443  1.00  0.00     0.134 A 
ATOM     12  C   UNL     1      -2.069  14.053 -25.345  1.00  0.00     0.093 A 
BRANCH   3  13
ATOM     13  C   UNL     1      -3.656  19.156 -28.911  1.00  0.00     0.021 A 
ATOM     14  C   UNL     1      -2.982  20.342 -29.250  1.00  0.00     0.016 A 
ATOM     15  C   UNL     1      -3.563  21.266 -30.122  1.00  0.00     0.051 A 
ATOM     16  C   UNL     1      -4.819  21.019 -30.678  1.00  0.00     0.157 A 
ATOM     17  C   UNL     1      -4.918  18.905 -29.487  1.00  0.00     0.062 A 
ATOM     18  C   UNL     1      -5.500  19.832 -30.364  1.00  0.00     0.158 A 
BRANCH  16  19
ATOM     19  O   UNL     1      -5.374  21.960 -31.545  1.00  0.00    -0.504 OA
ATOM     20  H   UNL     1      -4.873  22.310 -32.353  1.00  0.00     0.293 HD
ENDBRANCH  16  19
BRANCH  18  21
ATOM     21  O   UNL     1      -6.750  19.573 -30.926  1.00  0.00    -0.504 OA
ATOM     22  H   UNL     1      -6.982  19.870 -31.866  1.00  0.00     0.293 HD
ENDBRANCH  18  21
ENDBRANCH   3  13
BRANCH  11  23
ATOM     23  O   UNL     1      -0.226  15.475 -24.698  1.00  0.00    -0.507 OA
ATOM     24  H   UNL     1       0.386  16.265 -24.866  1.00  0.00     0.293 HD
ENDBRANCH  11  23
ENDBRANCH   1   2
BRANCH   1  25
ATOM     25  C   UNL     1      -3.437  11.288 -26.165  1.00  0.00     0.339 C 
ATOM     26  C   UNL     1      -3.125  10.932 -27.636  1.00  0.00     0.214 C 
ATOM     27  O   UNL     1      -4.323  10.345 -25.575  1.00  0.00    -0.332 OA
ATOM     28  C   UNL     1      -4.415  10.848 -28.459  1.00  0.00     0.180 C 
ATOM     29  C   UNL     1      -5.562  10.188 -26.264  1.00  0.00     0.179 C 
ATOM     30  C   UNL     1      -5.384   9.875 -27.773  1.00  0.00     0.177 C 
BRANCH  26  31
ATOM     31  O   UNL     1      -2.254  11.871 -28.212  1.00  0.00    -0.384 OA
ATOM     32  H   UNL     1      -2.152  12.610 -27.556  1.00  0.00     0.211 HD
ENDBRANCH  26  31
BRANCH  28  33
ATOM     33  O   UNL     1      -5.010  12.113 -28.602  1.00  0.00    -0.387 OA
ATOM     34  H   UNL     1      -5.160  12.468 -27.687  1.00  0.00     0.211 HD
ENDBRANCH  28  33
BRANCH  29  35
ATOM     35  C   UNL     1      -6.572  11.316 -25.951  1.00  0.00     0.191 C 
BRANCH  35  36
ATOM     36  O   UNL     1      -6.603  11.577 -24.574  1.00  0.00    -0.394 OA
ATOM     37  H   UNL     1      -7.209  10.905 -24.166  1.00  0.00     0.210 HD
ENDBRANCH  35  36
ENDBRANCH  29  35
BRANCH  30  38
ATOM     38  O   UNL     1      -6.629   9.876 -28.426  1.00  0.00    -0.387 OA
ATOM     39  H   UNL     1      -6.695   9.017 -28.920  1.00  0.00     0.211 HD
ENDBRANCH  30  38
ENDBRANCH   1  25
TORSDOF 11
ENDMDL
