MODEL 1
REMARK VINA RESULT:    -5.003      0.000      0.000
REMARK INTER + INTRA:          -5.734
REMARK INTER:                  -5.442
REMARK INTRA:                  -0.292
REMARK UNBOUND:                -0.292
REMARK SMILES CC1=C[C@H]2[C@H](C(C)C)CC[C@@](C)(O)[C@H]2CC1
REMARK SMILES IDX 1 1 2 2 3 3 4 4 5 5 9 6 10 7 11 8 14 9 15 10 16 11 12 12
REMARK SMILES IDX 6 13 7 14 8 15 13 16
REMARK H PARENT 13 17
REMARK Flexibility Score: inf
ROOT
ATOM      1  C   UNL     1     149.086 139.758 145.750  1.00  0.00     0.039 C 
ATOM      2  C   UNL     1     148.912 139.026 147.052  1.00  0.00    -0.077 C 
ATOM      3  C   UNL     1     147.893 138.167 147.214  1.00  0.00    -0.024 C 
ATOM      4  C   UNL     1     147.730 137.431 148.529  1.00  0.00     0.021 C 
ATOM      5  C   UNL     1     146.598 136.363 148.444  1.00  0.00    -0.001 C 
ATOM      6  C   UNL     1     146.838 135.247 149.475  1.00  0.00     0.007 C 
ATOM      7  C   UNL     1     148.119 134.467 149.153  1.00  0.00     0.035 C 
ATOM      8  C   UNL     1     149.340 135.359 148.740  1.00  0.00     0.065 C 
ATOM      9  C   UNL     1     149.104 136.879 149.064  1.00  0.00     0.028 C 
ATOM     10  C   UNL     1     150.324 137.767 148.646  1.00  0.00     0.011 C 
ATOM     11  C   UNL     1     149.916 139.166 148.169  1.00  0.00     0.031 C 
ATOM     12  C   UNL     1     150.583 134.852 149.503  1.00  0.00     0.042 C 
ENDROOT
BRANCH   5  13
ATOM     13  C   UNL     1     145.176 137.008 148.553  1.00  0.00    -0.014 C 
ATOM     14  C   UNL     1     144.973 137.856 149.823  1.00  0.00     0.007 C 
ATOM     15  C   UNL     1     144.067 135.949 148.452  1.00  0.00     0.007 C 
ENDBRANCH   5  13
BRANCH   8  16
ATOM     16  O   UNL     1     149.608 135.187 147.366  1.00  0.00    -0.390 OA
ATOM     17  H   UNL     1     148.769 135.334 146.861  1.00  0.00     0.211 HD
ENDBRANCH   8  16
TORSDOF 2
ENDMDL
MODEL 2
REMARK VINA RESULT:    -4.952      1.656      4.970
REMARK INTER + INTRA:          -5.679
REMARK INTER:                  -5.375
REMARK INTRA:                  -0.304
REMARK UNBOUND:                -0.292
REMARK SMILES CC1=C[C@H]2[C@H](C(C)C)CC[C@@](C)(O)[C@H]2CC1
REMARK SMILES IDX 1 1 2 2 3 3 4 4 5 5 9 6 10 7 11 8 14 9 15 10 16 11 12 12
REMARK SMILES IDX 6 13 7 14 8 15 13 16
REMARK H PARENT 13 17
REMARK Flexibility Score: inf
ROOT
ATOM      1  C   UNL     1     144.216 133.714 149.607  1.00  0.00     0.039 C 
ATOM      2  C   UNL     1     145.248 134.803 149.516  1.00  0.00    -0.077 C 
ATOM      3  C   UNL     1     146.543 134.494 149.343  1.00  0.00    -0.024 C 
ATOM      4  C   UNL     1     147.575 135.601 149.248  1.00  0.00     0.021 C 
ATOM      5  C   UNL     1     148.978 135.036 148.874  1.00  0.00    -0.001 C 
ATOM      6  C   UNL     1     149.825 136.121 148.186  1.00  0.00     0.007 C 
ATOM      7  C   UNL     1     149.209 136.528 146.841  1.00  0.00     0.035 C 
ATOM      8  C   UNL     1     147.654 136.716 146.865  1.00  0.00     0.065 C 
ATOM      9  C   UNL     1     147.084 136.781 148.328  1.00  0.00     0.028 C 
ATOM     10  C   UNL     1     145.530 136.966 148.349  1.00  0.00     0.011 C 
ATOM     11  C   UNL     1     144.854 136.259 149.530  1.00  0.00     0.031 C 
ATOM     12  C   UNL     1     147.319 138.026 146.119  1.00  0.00     0.042 C 
ENDROOT
BRANCH   5  13
ATOM     13  C   UNL     1     149.694 134.384 150.103  1.00  0.00    -0.014 C 
ATOM     14  C   UNL     1     149.588 135.213 151.398  1.00  0.00     0.007 C 
ATOM     15  C   UNL     1     151.170 134.077 149.801  1.00  0.00     0.007 C 
ENDBRANCH   5  13
BRANCH   8  16
ATOM     16  O   UNL     1     147.039 135.670 146.146  1.00  0.00    -0.390 OA
ATOM     17  H   UNL     1     147.112 135.867 145.178  1.00  0.00     0.211 HD
ENDBRANCH   8  16
TORSDOF 2
ENDMDL
MODEL 3
REMARK VINA RESULT:    -4.881      1.955      3.813
REMARK INTER + INTRA:          -5.601
REMARK INTER:                  -5.302
REMARK INTRA:                  -0.299
REMARK UNBOUND:                -0.292
REMARK SMILES CC1=C[C@H]2[C@H](C(C)C)CC[C@@](C)(O)[C@H]2CC1
REMARK SMILES IDX 1 1 2 2 3 3 4 4 5 5 9 6 10 7 11 8 14 9 15 10 16 11 12 12
REMARK SMILES IDX 6 13 7 14 8 15 13 16
REMARK H PARENT 13 17
REMARK Flexibility Score: inf
ROOT
ATOM      1  C   UNL     1     150.980 140.491 149.560  1.00  0.00     0.039 C 
ATOM      2  C   UNL     1     150.468 139.453 148.601  1.00  0.00    -0.077 C 
ATOM      3  C   UNL     1     149.626 138.497 149.025  1.00  0.00    -0.024 C 
ATOM      4  C   UNL     1     149.113 137.458 148.047  1.00  0.00     0.021 C 
ATOM      5  C   UNL     1     148.022 136.557 148.699  1.00  0.00    -0.001 C 
ATOM      6  C   UNL     1     147.096 135.973 147.619  1.00  0.00     0.007 C 
ATOM      7  C   UNL     1     146.301 137.082 146.917  1.00  0.00     0.035 C 
ATOM      8  C   UNL     1     147.139 138.355 146.554  1.00  0.00     0.065 C 
ATOM      9  C   UNL     1     148.686 138.106 146.677  1.00  0.00     0.028 C 
ATOM     10  C   UNL     1     149.519 139.381 146.317  1.00  0.00     0.011 C 
ATOM     11  C   UNL     1     150.812 139.507 147.133  1.00  0.00     0.031 C 
ATOM     12  C   UNL     1     146.791 138.760 145.105  1.00  0.00     0.042 C 
ENDROOT
BRANCH   5  13
ATOM     13  C   UNL     1     148.644 135.467 149.633  1.00  0.00    -0.014 C 
ATOM     14  C   UNL     1     149.925 134.821 149.070  1.00  0.00     0.007 C 
ATOM     15  C   UNL     1     147.623 134.374 149.986  1.00  0.00     0.007 C 
ENDBRANCH   5  13
BRANCH   8  16
ATOM     16  O   UNL     1     146.749 139.429 147.381  1.00  0.00    -0.390 OA
ATOM     17  H   UNL     1     147.159 140.260 147.032  1.00  0.00     0.211 HD
ENDBRANCH   8  16
TORSDOF 2
ENDMDL
MODEL 4
REMARK VINA RESULT:    -4.856      7.590      9.667
REMARK INTER + INTRA:          -5.574
REMARK INTER:                  -5.332
REMARK INTRA:                  -0.242
REMARK UNBOUND:                -0.292
REMARK SMILES CC1=C[C@H]2[C@H](C(C)C)CC[C@@](C)(O)[C@H]2CC1
REMARK SMILES IDX 1 1 2 2 3 3 4 4 5 5 9 6 10 7 11 8 14 9 15 10 16 11 12 12
REMARK SMILES IDX 6 13 7 14 8 15 13 16
REMARK H PARENT 13 17
REMARK Flexibility Score: inf
ROOT
ATOM      1  C   UNL     1     139.975 143.860 146.222  1.00  0.00     0.039 C 
ATOM      2  C   UNL     1     141.317 143.496 145.651  1.00  0.00    -0.077 C 
ATOM      3  C   UNL     1     141.464 142.367 144.938  1.00  0.00    -0.024 C 
ATOM      4  C   UNL     1     142.821 142.011 144.363  1.00  0.00     0.021 C 
ATOM      5  C   UNL     1     142.733 140.765 143.432  1.00  0.00    -0.001 C 
ATOM      6  C   UNL     1     143.878 140.782 142.406  1.00  0.00     0.007 C 
ATOM      7  C   UNL     1     143.744 141.977 141.452  1.00  0.00     0.035 C 
ATOM      8  C   UNL     1     143.363 143.328 142.148  1.00  0.00     0.065 C 
ATOM      9  C   UNL     1     143.524 143.260 143.710  1.00  0.00     0.028 C 
ATOM     10  C   UNL     1     143.139 144.610 144.403  1.00  0.00     0.011 C 
ATOM     11  C   UNL     1     142.502 144.418 145.785  1.00  0.00     0.031 C 
ATOM     12  C   UNL     1     144.276 144.434 141.579  1.00  0.00     0.042 C 
ENDROOT
BRANCH   5  13
ATOM     13  C   UNL     1     142.655 139.431 144.247  1.00  0.00    -0.014 C 
ATOM     14  C   UNL     1     143.717 138.391 143.841  1.00  0.00     0.007 C 
ATOM     15  C   UNL     1     141.255 138.801 144.169  1.00  0.00     0.007 C 
ENDBRANCH   5  13
BRANCH   8  16
ATOM     16  O   UNL     1     142.039 143.678 141.808  1.00  0.00    -0.390 OA
ATOM     17  H   UNL     1     141.941 143.621 140.825  1.00  0.00     0.211 HD
ENDBRANCH   8  16
TORSDOF 2
ENDMDL
MODEL 5
REMARK VINA RESULT:    -4.838      1.564      4.731
REMARK INTER + INTRA:          -5.554
REMARK INTER:                  -5.262
REMARK INTRA:                  -0.292
REMARK UNBOUND:                -0.292
REMARK SMILES CC1=C[C@H]2[C@H](C(C)C)CC[C@@](C)(O)[C@H]2CC1
REMARK SMILES IDX 1 1 2 2 3 3 4 4 5 5 9 6 10 7 11 8 14 9 15 10 16 11 12 12
REMARK SMILES IDX 6 13 7 14 8 15 13 16
REMARK H PARENT 13 17
REMARK Flexibility Score: inf
ROOT
ATOM      1  C   UNL     1     146.201 134.535 146.898  1.00  0.00     0.039 C 
ATOM      2  C   UNL     1     146.952 135.269 147.974  1.00  0.00    -0.077 C 
ATOM      3  C   UNL     1     148.211 134.916 148.280  1.00  0.00    -0.024 C 
ATOM      4  C   UNL     1     148.959 135.666 149.365  1.00  0.00     0.021 C 
ATOM      5  C   UNL     1     150.450 135.217 149.438  1.00  0.00    -0.001 C 
ATOM      6  C   UNL     1     151.317 136.338 150.037  1.00  0.00     0.007 C 
ATOM      7  C   UNL     1     151.336 137.568 149.119  1.00  0.00     0.035 C 
ATOM      8  C   UNL     1     149.941 137.959 148.523  1.00  0.00     0.065 C 
ATOM      9  C   UNL     1     148.756 137.223 149.246  1.00  0.00     0.028 C 
ATOM     10  C   UNL     1     147.364 137.614 148.645  1.00  0.00     0.011 C 
ATOM     11  C   UNL     1     146.351 136.462 148.673  1.00  0.00     0.031 C 
ATOM     12  C   UNL     1     149.770 139.487 148.668  1.00  0.00     0.042 C 
ENDROOT
BRANCH   5  13
ATOM     13  C   UNL     1     150.614 133.849 150.179  1.00  0.00    -0.014 C 
ATOM     14  C   UNL     1     150.024 133.837 151.602  1.00  0.00     0.007 C 
ATOM     15  C   UNL     1     152.083 133.401 150.221  1.00  0.00     0.007 C 
ENDBRANCH   5  13
BRANCH   8  16
ATOM     16  O   UNL     1     149.922 137.677 147.141  1.00  0.00    -0.390 OA
ATOM     17  H   UNL     1     150.823 137.367 146.870  1.00  0.00     0.211 HD
ENDBRANCH   8  16
TORSDOF 2
ENDMDL
MODEL 6
REMARK VINA RESULT:    -4.809      8.355      9.334
REMARK INTER + INTRA:          -5.523
REMARK INTER:                  -5.221
REMARK INTRA:                  -0.302
REMARK UNBOUND:                -0.292
REMARK SMILES CC1=C[C@H]2[C@H](C(C)C)CC[C@@](C)(O)[C@H]2CC1
REMARK SMILES IDX 1 1 2 2 3 3 4 4 5 5 9 6 10 7 11 8 14 9 15 10 16 11 12 12
REMARK SMILES IDX 6 13 7 14 8 15 13 16
REMARK H PARENT 13 17
REMARK Flexibility Score: inf
ROOT
ATOM      1  C   UNL     1     146.174 141.628 141.232  1.00  0.00     0.039 C 
ATOM      2  C   UNL     1     144.798 142.059 141.657  1.00  0.00    -0.077 C 
ATOM      3  C   UNL     1     144.063 141.275 142.462  1.00  0.00    -0.024 C 
ATOM      4  C   UNL     1     142.678 141.722 142.887  1.00  0.00     0.021 C 
ATOM      5  C   UNL     1     142.074 140.758 143.953  1.00  0.00    -0.001 C 
ATOM      6  C   UNL     1     141.031 141.495 144.810  1.00  0.00     0.007 C 
ATOM      7  C   UNL     1     141.686 142.610 145.636  1.00  0.00     0.035 C 
ATOM      8  C   UNL     1     142.733 143.473 144.853  1.00  0.00     0.065 C 
ATOM      9  C   UNL     1     142.655 143.242 143.300  1.00  0.00     0.028 C 
ATOM     10  C   UNL     1     143.705 144.103 142.521  1.00  0.00     0.011 C 
ATOM     11  C   UNL     1     144.243 143.406 141.266  1.00  0.00     0.031 C 
ATOM     12  C   UNL     1     142.462 144.959 145.171  1.00  0.00     0.042 C 
ENDROOT
BRANCH   5  13
ATOM     13  C   UNL     1     141.524 139.443 143.308  1.00  0.00    -0.014 C 
ATOM     14  C   UNL     1     140.635 139.680 142.072  1.00  0.00     0.007 C 
ATOM     15  C   UNL     1     140.770 138.582 144.334  1.00  0.00     0.007 C 
ENDBRANCH   5  13
BRANCH   8  16
ATOM     16  O   UNL     1     144.031 143.186 145.325  1.00  0.00    -0.390 OA
ATOM     17  H   UNL     1     144.598 143.987 145.192  1.00  0.00     0.211 HD
ENDBRANCH   8  16
TORSDOF 2
ENDMDL
MODEL 7
REMARK VINA RESULT:    -4.770      8.215      9.999
REMARK INTER + INTRA:          -5.481
REMARK INTER:                  -5.197
REMARK INTRA:                  -0.284
REMARK UNBOUND:                -0.292
REMARK SMILES CC1=C[C@H]2[C@H](C(C)C)CC[C@@](C)(O)[C@H]2CC1
REMARK SMILES IDX 1 1 2 2 3 3 4 4 5 5 9 6 10 7 11 8 14 9 15 10 16 11 12 12
REMARK SMILES IDX 6 13 7 14 8 15 13 16
REMARK H PARENT 13 17
REMARK Flexibility Score: inf
ROOT
ATOM      1  C   UNL     1     140.872 137.725 144.552  1.00  0.00     0.039 C 
ATOM      2  C   UNL     1     140.824 139.107 143.961  1.00  0.00    -0.077 C 
ATOM      3  C   UNL     1     141.587 140.087 144.473  1.00  0.00    -0.024 C 
ATOM      4  C   UNL     1     141.534 141.476 143.867  1.00  0.00     0.021 C 
ATOM      5  C   UNL     1     142.616 142.407 144.491  1.00  0.00    -0.001 C 
ATOM      6  C   UNL     1     142.983 143.533 143.508  1.00  0.00     0.007 C 
ATOM      7  C   UNL     1     143.652 142.967 142.249  1.00  0.00     0.035 C 
ATOM      8  C   UNL     1     142.969 141.681 141.669  1.00  0.00     0.065 C 
ATOM      9  C   UNL     1     141.549 141.427 142.293  1.00  0.00     0.028 C 
ATOM     10  C   UNL     1     140.871 140.140 141.714  1.00  0.00     0.011 C 
ATOM     11  C   UNL     1     139.995 139.408 142.738  1.00  0.00     0.031 C 
ATOM     12  C   UNL     1     142.842 141.854 140.140  1.00  0.00     0.042 C 
ENDROOT
BRANCH   5  13
ATOM     13  C   UNL     1     142.191 142.935 145.901  1.00  0.00    -0.014 C 
ATOM     14  C   UNL     1     140.907 143.786 145.887  1.00  0.00     0.007 C 
ATOM     15  C   UNL     1     143.327 143.719 146.577  1.00  0.00     0.007 C 
ENDBRANCH   5  13
BRANCH   8  16
ATOM     16  O   UNL     1     143.804 140.564 141.884  1.00  0.00    -0.390 OA
ATOM     17  H   UNL     1     144.730 140.812 141.636  1.00  0.00     0.211 HD
ENDBRANCH   8  16
TORSDOF 2
ENDMDL
MODEL 8
REMARK VINA RESULT:    -4.744      9.668     11.759
REMARK INTER + INTRA:          -5.453
REMARK INTER:                  -5.181
REMARK INTRA:                  -0.272
REMARK UNBOUND:                -0.292
REMARK SMILES CC1=C[C@H]2[C@H](C(C)C)CC[C@@](C)(O)[C@H]2CC1
REMARK SMILES IDX 1 1 2 2 3 3 4 4 5 5 9 6 10 7 11 8 14 9 15 10 16 11 12 12
REMARK SMILES IDX 6 13 7 14 8 15 13 16
REMARK H PARENT 13 17
REMARK Flexibility Score: inf
ROOT
ATOM      1  C   UNL     1     139.724 133.829 151.053  1.00  0.00     0.039 C 
ATOM      2  C   UNL     1     138.632 133.400 150.112  1.00  0.00    -0.077 C 
ATOM      3  C   UNL     1     138.869 133.321 148.793  1.00  0.00    -0.024 C 
ATOM      4  C   UNL     1     137.761 132.883 147.855  1.00  0.00     0.021 C 
ATOM      5  C   UNL     1     138.293 132.691 146.403  1.00  0.00    -0.001 C 
ATOM      6  C   UNL     1     137.405 131.696 145.636  1.00  0.00     0.007 C 
ATOM      7  C   UNL     1     137.485 130.295 146.257  1.00  0.00     0.035 C 
ATOM      8  C   UNL     1     137.430 130.271 147.823  1.00  0.00     0.065 C 
ATOM      9  C   UNL     1     136.967 131.648 148.424  1.00  0.00     0.028 C 
ATOM     10  C   UNL     1     136.917 131.622 149.989  1.00  0.00     0.011 C 
ATOM     11  C   UNL     1     137.282 132.968 150.626  1.00  0.00     0.031 C 
ATOM     12  C   UNL     1     136.446 129.161 148.251  1.00  0.00     0.042 C 
ENDROOT
BRANCH   5  13
ATOM     13  C   UNL     1     138.473 134.056 145.659  1.00  0.00    -0.014 C 
ATOM     14  C   UNL     1     137.144 134.751 145.303  1.00  0.00     0.007 C 
ATOM     15  C   UNL     1     139.335 133.903 144.396  1.00  0.00     0.007 C 
ENDBRANCH   5  13
BRANCH   8  16
ATOM     16  O   UNL     1     138.694 129.914 148.335  1.00  0.00    -0.390 OA
ATOM     17  H   UNL     1     139.073 130.696 148.811  1.00  0.00     0.211 HD
ENDBRANCH   8  16
TORSDOF 2
ENDMDL
MODEL 9
REMARK VINA RESULT:    -4.640      1.591      4.734
REMARK INTER + INTRA:          -5.339
REMARK INTER:                  -5.052
REMARK INTRA:                  -0.287
REMARK UNBOUND:                -0.292
REMARK SMILES CC1=C[C@H]2[C@H](C(C)C)CC[C@@](C)(O)[C@H]2CC1
REMARK SMILES IDX 1 1 2 2 3 3 4 4 5 5 9 6 10 7 11 8 14 9 15 10 16 11 12 12
REMARK SMILES IDX 6 13 7 14 8 15 13 16
REMARK H PARENT 13 17
REMARK Flexibility Score: inf
ROOT
ATOM      1  C   UNL     1     151.223 133.747 149.888  1.00  0.00     0.039 C 
ATOM      2  C   UNL     1     150.116 134.747 149.693  1.00  0.00    -0.077 C 
ATOM      3  C   UNL     1     150.271 135.768 148.835  1.00  0.00    -0.024 C 
ATOM      4  C   UNL     1     149.147 136.767 148.644  1.00  0.00     0.021 C 
ATOM      5  C   UNL     1     149.463 137.759 147.485  1.00  0.00    -0.001 C 
ATOM      6  C   UNL     1     148.160 138.319 146.890  1.00  0.00     0.007 C 
ATOM      7  C   UNL     1     147.338 137.209 146.224  1.00  0.00     0.035 C 
ATOM      8  C   UNL     1     147.257 135.875 147.042  1.00  0.00     0.065 C 
ATOM      9  C   UNL     1     147.747 136.056 148.525  1.00  0.00     0.028 C 
ATOM     10  C   UNL     1     147.668 134.721 149.339  1.00  0.00     0.011 C 
ATOM     11  C   UNL     1     148.785 134.584 150.382  1.00  0.00     0.031 C 
ATOM     12  C   UNL     1     145.788 135.397 147.035  1.00  0.00     0.042 C 
ENDROOT
BRANCH   5  13
ATOM     13  C   UNL     1     150.468 138.875 147.927  1.00  0.00    -0.014 C 
ATOM     14  C   UNL     1     149.970 139.729 149.109  1.00  0.00     0.007 C 
ATOM     15  C   UNL     1     150.853 139.787 146.751  1.00  0.00     0.007 C 
ENDBRANCH   5  13
BRANCH   8  16
ATOM     16  O   UNL     1     148.013 134.876 146.396  1.00  0.00    -0.390 OA
ATOM     17  H   UNL     1     148.910 135.242 146.193  1.00  0.00     0.211 HD
ENDBRANCH   8  16
TORSDOF 2
ENDMDL
