MODEL 1
REMARK VINA RESULT:    -5.363      0.000      0.000
REMARK INTER + INTRA:          -8.448
REMARK INTER:                  -7.245
REMARK INTRA:                  -1.204
REMARK UNBOUND:                -1.204
REMARK SMILES O=c1c(-c2ccc(O)cc2)coc2c([C@@H]3O[C@H](CO)[C@H](O)[C@@H](O)[C@H]3O)c(O)ccc12
REMARK SMILES IDX 3 1 11 2 12 3 13 4 30 5 2 6 1 7 29 8 28 9 26 10 14 11 4 12
REMARK SMILES IDX 5 13 6 14 7 15 10 16 9 17 8 18 15 20 24 21 16 22 22 23 17 24
REMARK SMILES IDX 20 25 25 26 23 28 18 30 19 31 21 33 27 35
REMARK H PARENT 8 19 25 27 23 29 19 32 21 34 27 36
REMARK Flexibility Score: inf
ROOT
ATOM      1  C   UNL     1      28.769  32.888  21.957  1.00  0.00     0.065 A 
ATOM      2  C   UNL     1      28.433  32.578  23.283  1.00  0.00     0.208 A 
ATOM      3  O   UNL     1      28.815  31.430  23.829  1.00  0.00    -0.463 OA
ATOM      4  C   UNL     1      29.518  30.509  23.166  1.00  0.00     0.147 A 
ATOM      5  C   UNL     1      29.918  30.758  21.829  1.00  0.00     0.066 A 
ATOM      6  C   UNL     1      29.540  31.971  21.229  1.00  0.00     0.200 A 
ATOM      7  O   UNL     1      29.937  32.265  20.067  1.00  0.00    -0.288 OA
ATOM      8  C   UNL     1      30.691  29.810  21.149  1.00  0.00     0.020 A 
ATOM      9  C   UNL     1      31.068  28.625  21.784  1.00  0.00     0.047 A 
ATOM     10  C   UNL     1      30.646  28.347  23.090  1.00  0.00     0.125 A 
ATOM     11  C   UNL     1      29.869  29.292  23.800  1.00  0.00     0.069 A 
ENDROOT
BRANCH   1  12
ATOM     12  C   UNL     1      28.296  34.149  21.353  1.00  0.00    -0.011 A 
ATOM     13  C   UNL     1      27.073  34.179  20.662  1.00  0.00     0.013 A 
ATOM     14  C   UNL     1      26.608  35.373  20.105  1.00  0.00     0.047 A 
ATOM     15  C   UNL     1      27.362  36.542  20.216  1.00  0.00     0.115 A 
ATOM     16  C   UNL     1      29.049  35.331  21.478  1.00  0.00     0.013 A 
ATOM     17  C   UNL     1      28.588  36.520  20.900  1.00  0.00     0.047 A 
BRANCH  15  18
ATOM     18  O   UNL     1      26.883  37.719  19.643  1.00  0.00    -0.508 OA
ATOM     19  H   UNL     1      27.417  38.581  19.645  1.00  0.00     0.293 HD
ENDBRANCH  15  18
ENDBRANCH   1  12
BRANCH  11  20
ATOM     20  C   UNL     1      29.397  29.003  25.218  1.00  0.00     0.188 C 
ATOM     21  C   UNL     1      28.057  28.180  25.218  1.00  0.00     0.179 C 
ATOM     22  O   UNL     1      30.455  28.358  25.911  1.00  0.00    -0.362 OA
ATOM     23  C   UNL     1      28.173  26.763  25.861  1.00  0.00     0.177 C 
ATOM     24  C   UNL     1      30.026  27.957  27.194  1.00  0.00     0.176 C 
ATOM     25  C   UNL     1      29.180  26.675  27.053  1.00  0.00     0.177 C 
BRANCH  21  26
ATOM     26  O   UNL     1      27.031  28.930  25.828  1.00  0.00    -0.387 OA
ATOM     27  H   UNL     1      26.378  28.292  26.218  1.00  0.00     0.211 HD
ENDBRANCH  21  26
BRANCH  23  28
ATOM     28  O   UNL     1      26.897  26.335  26.287  1.00  0.00    -0.387 OA
ATOM     29  H   UNL     1      27.044  25.601  26.938  1.00  0.00     0.211 HD
ENDBRANCH  23  28
BRANCH  24  30
ATOM     30  C   UNL     1      31.249  27.763  28.110  1.00  0.00     0.191 C 
BRANCH  30  31
ATOM     31  O   UNL     1      30.891  27.033  29.255  1.00  0.00    -0.394 OA
ATOM     32  H   UNL     1      31.340  26.152  29.187  1.00  0.00     0.210 HD
ENDBRANCH  30  31
ENDBRANCH  24  30
BRANCH  25  33
ATOM     33  O   UNL     1      29.996  25.534  26.902  1.00  0.00    -0.388 OA
ATOM     34  H   UNL     1      30.883  25.848  26.578  1.00  0.00     0.211 HD
ENDBRANCH  25  33
ENDBRANCH  11  20
BRANCH  10  35
ATOM     35  O   UNL     1      30.995  27.132  23.679  1.00  0.00    -0.507 OA
ATOM     36  H   UNL     1      30.646  26.860  24.591  1.00  0.00     0.293 HD
ENDBRANCH  10  35
TORSDOF 9
ENDMDL
MODEL 2
REMARK VINA RESULT:    -5.248      4.816      8.006
REMARK INTER + INTRA:          -8.293
REMARK INTER:                  -7.609
REMARK INTRA:                  -0.684
REMARK UNBOUND:                -1.204
REMARK SMILES O=c1c(-c2ccc(O)cc2)coc2c([C@@H]3O[C@H](CO)[C@H](O)[C@@H](O)[C@H]3O)c(O)ccc12
REMARK SMILES IDX 3 1 11 2 12 3 13 4 30 5 2 6 1 7 29 8 28 9 26 10 14 11 4 12
REMARK SMILES IDX 5 13 6 14 7 15 10 16 9 17 8 18 15 20 24 21 16 22 22 23 17 24
REMARK SMILES IDX 20 25 25 26 23 28 18 30 19 31 21 33 27 35
REMARK H PARENT 8 19 25 27 23 29 19 32 21 34 27 36
REMARK Flexibility Score: inf
ROOT
ATOM      1  C   UNL     1      30.205  32.922  17.802  1.00  0.00     0.065 A 
ATOM      2  C   UNL     1      29.131  32.915  18.704  1.00  0.00     0.208 A 
ATOM      3  O   UNL     1      28.983  33.892  19.591  1.00  0.00    -0.463 OA
ATOM      4  C   UNL     1      29.833  34.916  19.690  1.00  0.00     0.147 A 
ATOM      5  C   UNL     1      30.930  35.009  18.798  1.00  0.00     0.066 A 
ATOM      6  C   UNL     1      31.105  33.998  17.839  1.00  0.00     0.200 A 
ATOM      7  O   UNL     1      32.024  34.079  16.978  1.00  0.00    -0.288 OA
ATOM      8  C   UNL     1      31.796  36.107  18.875  1.00  0.00     0.020 A 
ATOM      9  C   UNL     1      31.580  37.105  19.828  1.00  0.00     0.047 A 
ATOM     10  C   UNL     1      30.524  37.006  20.742  1.00  0.00     0.125 A 
ATOM     11  C   UNL     1      29.632  35.910  20.680  1.00  0.00     0.069 A 
ENDROOT
BRANCH   1  12
ATOM     12  C   UNL     1      30.379  31.805  16.853  1.00  0.00    -0.011 A 
ATOM     13  C   UNL     1      30.961  30.603  17.286  1.00  0.00     0.013 A 
ATOM     14  C   UNL     1      31.110  29.533  16.401  1.00  0.00     0.047 A 
ATOM     15  C   UNL     1      30.696  29.655  15.073  1.00  0.00     0.115 A 
ATOM     16  C   UNL     1      29.947  31.923  15.519  1.00  0.00     0.013 A 
ATOM     17  C   UNL     1      30.117  30.855  14.630  1.00  0.00     0.047 A 
BRANCH  15  18
ATOM     18  O   UNL     1      30.864  28.578  14.205  1.00  0.00    -0.508 OA
ATOM     19  H   UNL     1      30.359  28.502  13.329  1.00  0.00     0.293 HD
ENDBRANCH  15  18
ENDBRANCH   1  12
BRANCH  11  20
ATOM     20  C   UNL     1      28.484  35.784  21.670  1.00  0.00     0.188 C 
ATOM     21  C   UNL     1      27.142  36.339  21.065  1.00  0.00     0.179 C 
ATOM     22  O   UNL     1      28.400  34.426  22.076  1.00  0.00    -0.362 OA
ATOM     23  C   UNL     1      26.018  35.269  20.905  1.00  0.00     0.177 C 
ATOM     24  C   UNL     1      27.272  34.231  22.901  1.00  0.00     0.176 C 
ATOM     25  C   UNL     1      26.015  34.165  22.011  1.00  0.00     0.177 C 
BRANCH  21  26
ATOM     26  O   UNL     1      26.690  37.438  21.824  1.00  0.00    -0.387 OA
ATOM     27  H   UNL     1      27.467  37.803  22.324  1.00  0.00     0.211 HD
ENDBRANCH  21  26
BRANCH  23  28
ATOM     28  O   UNL     1      24.761  35.910  20.872  1.00  0.00    -0.387 OA
ATOM     29  H   UNL     1      24.609  36.194  19.934  1.00  0.00     0.211 HD
ENDBRANCH  23  28
BRANCH  24  30
ATOM     30  C   UNL     1      27.467  32.960  23.749  1.00  0.00     0.191 C 
BRANCH  30  31
ATOM     31  O   UNL     1      26.223  32.444  24.148  1.00  0.00    -0.394 OA
ATOM     32  H   UNL     1      25.646  32.428  23.342  1.00  0.00     0.210 HD
ENDBRANCH  30  31
ENDBRANCH  24  30
BRANCH  25  33
ATOM     33  O   UNL     1      25.873  32.895  21.413  1.00  0.00    -0.388 OA
ATOM     34  H   UNL     1      24.989  32.882  20.956  1.00  0.00     0.211 HD
ENDBRANCH  25  33
ENDBRANCH  11  20
BRANCH  10  35
ATOM     35  O   UNL     1      30.365  37.994  21.714  1.00  0.00    -0.507 OA
ATOM     36  H   UNL     1      29.616  38.676  21.664  1.00  0.00     0.293 HD
ENDBRANCH  10  35
TORSDOF 9
ENDMDL
MODEL 3
REMARK VINA RESULT:    -5.195      1.882      2.182
REMARK INTER + INTRA:          -8.221
REMARK INTER:                  -6.951
REMARK INTRA:                  -1.270
REMARK UNBOUND:                -1.204
REMARK SMILES O=c1c(-c2ccc(O)cc2)coc2c([C@@H]3O[C@H](CO)[C@H](O)[C@@H](O)[C@H]3O)c(O)ccc12
REMARK SMILES IDX 3 1 11 2 12 3 13 4 30 5 2 6 1 7 29 8 28 9 26 10 14 11 4 12
REMARK SMILES IDX 5 13 6 14 7 15 10 16 9 17 8 18 15 20 24 21 16 22 22 23 17 24
REMARK SMILES IDX 20 25 25 26 23 28 18 30 19 31 21 33 27 35
REMARK H PARENT 8 19 25 27 23 29 19 32 21 34 27 36
REMARK Flexibility Score: inf
ROOT
ATOM      1  C   UNL     1      27.857  33.507  23.904  1.00  0.00     0.065 A 
ATOM      2  C   UNL     1      27.462  32.691  24.974  1.00  0.00     0.208 A 
ATOM      3  O   UNL     1      27.988  31.481  25.133  1.00  0.00    -0.463 OA
ATOM      4  C   UNL     1      28.895  30.968  24.299  1.00  0.00     0.147 A 
ATOM      5  C   UNL     1      29.363  31.741  23.207  1.00  0.00     0.066 A 
ATOM      6  C   UNL     1      28.837  33.030  23.021  1.00  0.00     0.200 A 
ATOM      7  O   UNL     1      29.279  33.779  22.107  1.00  0.00    -0.288 OA
ATOM      8  C   UNL     1      30.346  31.218  22.359  1.00  0.00     0.020 A 
ATOM      9  C   UNL     1      30.863  29.940  22.587  1.00  0.00     0.047 A 
ATOM     10  C   UNL     1      30.381  29.150  23.638  1.00  0.00     0.125 A 
ATOM     11  C   UNL     1      29.392  29.659  24.512  1.00  0.00     0.069 A 
ENDROOT
BRANCH   1  12
ATOM     12  C   UNL     1      27.230  34.830  23.716  1.00  0.00    -0.011 A 
ATOM     13  C   UNL     1      27.784  35.962  24.335  1.00  0.00     0.013 A 
ATOM     14  C   UNL     1      27.210  37.221  24.145  1.00  0.00     0.047 A 
ATOM     15  C   UNL     1      26.069  37.363  23.352  1.00  0.00     0.115 A 
ATOM     16  C   UNL     1      26.089  34.975  22.904  1.00  0.00     0.013 A 
ATOM     17  C   UNL     1      25.505  36.235  22.734  1.00  0.00     0.047 A 
BRANCH  15  18
ATOM     18  O   UNL     1      25.507  38.627  23.186  1.00  0.00    -0.508 OA
ATOM     19  H   UNL     1      25.420  39.068  22.277  1.00  0.00     0.293 HD
ENDBRANCH  15  18
ENDBRANCH   1  12
BRANCH  11  20
ATOM     20  C   UNL     1      28.853  28.810  25.654  1.00  0.00     0.188 C 
ATOM     21  C   UNL     1      27.770  27.789  25.146  1.00  0.00     0.179 C 
ATOM     22  O   UNL     1      29.955  28.189  26.299  1.00  0.00    -0.362 OA
ATOM     23  C   UNL     1      28.165  26.290  25.329  1.00  0.00     0.177 C 
ATOM     24  C   UNL     1      29.500  27.293  27.290  1.00  0.00     0.176 C 
ATOM     25  C   UNL     1      29.023  25.998  26.602  1.00  0.00     0.177 C 
BRANCH  21  26
ATOM     26  O   UNL     1      26.527  28.062  25.754  1.00  0.00    -0.387 OA
ATOM     27  H   UNL     1      26.659  28.813  26.390  1.00  0.00     0.211 HD
ENDBRANCH  21  26
BRANCH  23  28
ATOM     28  O   UNL     1      26.997  25.497  25.352  1.00  0.00    -0.387 OA
ATOM     29  H   UNL     1      26.229  26.120  25.418  1.00  0.00     0.211 HD
ENDBRANCH  23  28
BRANCH  24  30
ATOM     30  C   UNL     1      30.623  27.042  28.314  1.00  0.00     0.191 C 
BRANCH  30  31
ATOM     31  O   UNL     1      31.876  27.073  27.681  1.00  0.00    -0.394 OA
ATOM     32  H   UNL     1      31.915  27.914  27.159  1.00  0.00     0.210 HD
ENDBRANCH  30  31
ENDBRANCH  24  30
BRANCH  25  33
ATOM     33  O   UNL     1      30.110  25.166  26.261  1.00  0.00    -0.388 OA
ATOM     34  H   UNL     1      30.362  25.382  25.322  1.00  0.00     0.211 HD
ENDBRANCH  25  33
ENDBRANCH  11  20
BRANCH  10  35
ATOM     35  O   UNL     1      30.881  27.859  23.808  1.00  0.00    -0.507 OA
ATOM     36  H   UNL     1      30.459  27.058  23.351  1.00  0.00     0.293 HD
ENDBRANCH  10  35
TORSDOF 9
ENDMDL
MODEL 4
REMARK VINA RESULT:    -5.160      4.617      8.187
REMARK INTER + INTRA:          -8.174
REMARK INTER:                  -6.917
REMARK INTRA:                  -1.257
REMARK UNBOUND:                -1.204
REMARK SMILES O=c1c(-c2ccc(O)cc2)coc2c([C@@H]3O[C@H](CO)[C@H](O)[C@@H](O)[C@H]3O)c(O)ccc12
REMARK SMILES IDX 3 1 11 2 12 3 13 4 30 5 2 6 1 7 29 8 28 9 26 10 14 11 4 12
REMARK SMILES IDX 5 13 6 14 7 15 10 16 9 17 8 18 15 20 24 21 16 22 22 23 17 24
REMARK SMILES IDX 20 25 25 26 23 28 18 30 19 31 21 33 27 35
REMARK H PARENT 8 19 25 27 23 29 19 32 21 34 27 36
REMARK Flexibility Score: inf
ROOT
ATOM      1  C   UNL     1      30.954  32.685  16.384  1.00  0.00     0.065 A 
ATOM      2  C   UNL     1      29.848  32.081  16.997  1.00  0.00     0.208 A 
ATOM      3  O   UNL     1      29.282  32.629  18.066  1.00  0.00    -0.463 OA
ATOM      4  C   UNL     1      29.725  33.759  18.623  1.00  0.00     0.147 A 
ATOM      5  C   UNL     1      30.825  34.443  18.047  1.00  0.00     0.066 A 
ATOM      6  C   UNL     1      31.435  33.895  16.907  1.00  0.00     0.200 A 
ATOM      7  O   UNL     1      32.368  34.508  16.319  1.00  0.00    -0.288 OA
ATOM      8  C   UNL     1      31.261  35.649  18.607  1.00  0.00     0.020 A 
ATOM      9  C   UNL     1      30.616  36.176  19.729  1.00  0.00     0.047 A 
ATOM     10  C   UNL     1      29.555  35.491  20.333  1.00  0.00     0.125 A 
ATOM     11  C   UNL     1      29.092  34.273  19.782  1.00  0.00     0.069 A 
ENDROOT
BRANCH   1  12
ATOM     12  C   UNL     1      31.598  32.038  15.224  1.00  0.00    -0.011 A 
ATOM     13  C   UNL     1      31.133  32.304  13.926  1.00  0.00     0.013 A 
ATOM     14  C   UNL     1      31.750  31.713  12.821  1.00  0.00     0.047 A 
ATOM     15  C   UNL     1      32.825  30.839  12.999  1.00  0.00     0.115 A 
ATOM     16  C   UNL     1      32.691  31.170  15.402  1.00  0.00     0.013 A 
ATOM     17  C   UNL     1      33.293  30.563  14.293  1.00  0.00     0.047 A 
BRANCH  15  18
ATOM     18  O   UNL     1      33.418  30.252  11.882  1.00  0.00    -0.508 OA
ATOM     19  H   UNL     1      33.614  30.774  11.035  1.00  0.00     0.293 HD
ENDBRANCH  15  18
ENDBRANCH   1  12
BRANCH  11  20
ATOM     20  C   UNL     1      27.945  33.513  20.430  1.00  0.00     0.188 C 
ATOM     21  C   UNL     1      28.449  32.631  21.631  1.00  0.00     0.179 C 
ATOM     22  O   UNL     1      26.948  34.453  20.802  1.00  0.00    -0.362 OA
ATOM     23  C   UNL     1      27.860  33.035  23.018  1.00  0.00     0.177 C 
ATOM     24  C   UNL     1      25.915  33.813  21.519  1.00  0.00     0.176 C 
ATOM     25  C   UNL     1      26.394  33.574  22.965  1.00  0.00     0.177 C 
BRANCH  21  26
ATOM     26  O   UNL     1      28.212  31.267  21.359  1.00  0.00    -0.387 OA
ATOM     27  H   UNL     1      28.012  31.180  20.390  1.00  0.00     0.211 HD
ENDBRANCH  21  26
BRANCH  23  28
ATOM     28  O   UNL     1      27.929  31.933  23.897  1.00  0.00    -0.387 OA
ATOM     29  H   UNL     1      27.766  31.121  23.351  1.00  0.00     0.211 HD
ENDBRANCH  23  28
BRANCH  24  30
ATOM     30  C   UNL     1      24.634  34.666  21.451  1.00  0.00     0.191 C 
BRANCH  30  31
ATOM     31  O   UNL     1      24.957  36.033  21.469  1.00  0.00    -0.394 OA
ATOM     32  H   UNL     1      25.552  36.179  22.247  1.00  0.00     0.210 HD
ENDBRANCH  30  31
ENDBRANCH  24  30
BRANCH  25  33
ATOM     33  O   UNL     1      26.291  34.746  23.743  1.00  0.00    -0.388 OA
ATOM     34  H   UNL     1      25.392  34.736  24.172  1.00  0.00     0.211 HD
ENDBRANCH  25  33
ENDBRANCH  11  20
BRANCH  10  35
ATOM     35  O   UNL     1      28.966  36.018  21.482  1.00  0.00    -0.507 OA
ATOM     36  H   UNL     1      28.411  35.445  22.108  1.00  0.00     0.293 HD
ENDBRANCH  10  35
TORSDOF 9
ENDMDL
MODEL 5
REMARK VINA RESULT:    -5.160      4.005      9.456
REMARK INTER + INTRA:          -8.174
REMARK INTER:                  -6.921
REMARK INTRA:                  -1.253
REMARK UNBOUND:                -1.204
REMARK SMILES O=c1c(-c2ccc(O)cc2)coc2c([C@@H]3O[C@H](CO)[C@H](O)[C@@H](O)[C@H]3O)c(O)ccc12
REMARK SMILES IDX 3 1 11 2 12 3 13 4 30 5 2 6 1 7 29 8 28 9 26 10 14 11 4 12
REMARK SMILES IDX 5 13 6 14 7 15 10 16 9 17 8 18 15 20 24 21 16 22 22 23 17 24
REMARK SMILES IDX 20 25 25 26 23 28 18 30 19 31 21 33 27 35
REMARK H PARENT 8 19 25 27 23 29 19 32 21 34 27 36
REMARK Flexibility Score: inf
ROOT
ATOM      1  C   UNL     1      28.815  32.763  27.232  1.00  0.00     0.065 A 
ATOM      2  C   UNL     1      28.459  32.368  25.934  1.00  0.00     0.208 A 
ATOM      3  O   UNL     1      28.306  33.268  24.970  1.00  0.00    -0.463 OA
ATOM      4  C   UNL     1      28.463  34.579  25.168  1.00  0.00     0.147 A 
ATOM      5  C   UNL     1      28.846  35.055  26.447  1.00  0.00     0.066 A 
ATOM      6  C   UNL     1      29.030  34.126  27.484  1.00  0.00     0.200 A 
ATOM      7  O   UNL     1      29.443  34.499  28.616  1.00  0.00    -0.288 OA
ATOM      8  C   UNL     1      29.053  36.426  26.642  1.00  0.00     0.020 A 
ATOM      9  C   UNL     1      28.881  37.320  25.583  1.00  0.00     0.047 A 
ATOM     10  C   UNL     1      28.463  36.868  24.325  1.00  0.00     0.125 A 
ATOM     11  C   UNL     1      28.255  35.487  24.101  1.00  0.00     0.069 A 
ENDROOT
BRANCH   1  12
ATOM     12  C   UNL     1      28.937  31.754  28.302  1.00  0.00    -0.011 A 
ATOM     13  C   UNL     1      27.847  31.495  29.149  1.00  0.00     0.013 A 
ATOM     14  C   UNL     1      27.946  30.526  30.150  1.00  0.00     0.047 A 
ATOM     15  C   UNL     1      29.136  29.818  30.329  1.00  0.00     0.115 A 
ATOM     16  C   UNL     1      30.132  31.029  28.472  1.00  0.00     0.013 A 
ATOM     17  C   UNL     1      30.233  30.074  29.491  1.00  0.00     0.047 A 
BRANCH  15  18
ATOM     18  O   UNL     1      29.216  28.864  31.341  1.00  0.00    -0.508 OA
ATOM     19  H   UNL     1      29.878  28.096  31.313  1.00  0.00     0.293 HD
ENDBRANCH  15  18
ENDBRANCH   1  12
BRANCH  11  20
ATOM     20  C   UNL     1      27.794  34.980  22.742  1.00  0.00     0.188 C 
ATOM     21  C   UNL     1      26.239  35.140  22.569  1.00  0.00     0.179 C 
ATOM     22  O   UNL     1      28.544  35.655  21.744  1.00  0.00    -0.362 OA
ATOM     23  C   UNL     1      25.816  36.106  21.420  1.00  0.00     0.177 C 
ATOM     24  C   UNL     1      28.070  35.311  20.460  1.00  0.00     0.176 C 
ATOM     25  C   UNL     1      26.774  36.101  20.185  1.00  0.00     0.177 C 
BRANCH  21  26
ATOM     26  O   UNL     1      25.639  33.874  22.412  1.00  0.00    -0.387 OA
ATOM     27  H   UNL     1      25.812  33.568  21.483  1.00  0.00     0.211 HD
ENDBRANCH  21  26
BRANCH  23  28
ATOM     28  O   UNL     1      24.504  35.794  21.002  1.00  0.00    -0.387 OA
ATOM     29  H   UNL     1      23.894  36.105  21.720  1.00  0.00     0.211 HD
ENDBRANCH  23  28
BRANCH  24  30
ATOM     30  C   UNL     1      29.167  35.587  19.414  1.00  0.00     0.191 C 
BRANCH  30  31
ATOM     31  O   UNL     1      29.795  36.815  19.678  1.00  0.00    -0.394 OA
ATOM     32  H   UNL     1      29.225  37.522  19.282  1.00  0.00     0.210 HD
ENDBRANCH  30  31
ENDBRANCH  24  30
BRANCH  25  33
ATOM     33  O   UNL     1      27.053  37.428  19.794  1.00  0.00    -0.388 OA
ATOM     34  H   UNL     1      26.303  37.725  19.211  1.00  0.00     0.211 HD
ENDBRANCH  25  33
ENDBRANCH  11  20
BRANCH  10  35
ATOM     35  O   UNL     1      28.252  37.791  23.301  1.00  0.00    -0.507 OA
ATOM     36  H   UNL     1      28.988  38.412  22.982  1.00  0.00     0.293 HD
ENDBRANCH  10  35
TORSDOF 9
ENDMDL
MODEL 6
REMARK VINA RESULT:    -5.143      6.230      9.263
REMARK INTER + INTRA:          -8.151
REMARK INTER:                  -7.821
REMARK INTRA:                  -0.330
REMARK UNBOUND:                -1.204
REMARK SMILES O=c1c(-c2ccc(O)cc2)coc2c([C@@H]3O[C@H](CO)[C@H](O)[C@@H](O)[C@H]3O)c(O)ccc12
REMARK SMILES IDX 3 1 11 2 12 3 13 4 30 5 2 6 1 7 29 8 28 9 26 10 14 11 4 12
REMARK SMILES IDX 5 13 6 14 7 15 10 16 9 17 8 18 15 20 24 21 16 22 22 23 17 24
REMARK SMILES IDX 20 25 25 26 23 28 18 30 19 31 21 33 27 35
REMARK H PARENT 8 19 25 27 23 29 19 32 21 34 27 36
REMARK Flexibility Score: inf
ROOT
ATOM      1  C   UNL     1      28.632  34.815  19.990  1.00  0.00     0.065 A 
ATOM      2  C   UNL     1      28.998  33.864  19.027  1.00  0.00     0.208 A 
ATOM      3  O   UNL     1      30.105  34.017  18.308  1.00  0.00    -0.463 OA
ATOM      4  C   UNL     1      30.917  35.068  18.442  1.00  0.00     0.147 A 
ATOM      5  C   UNL     1      30.629  36.061  19.411  1.00  0.00     0.066 A 
ATOM      6  C   UNL     1      29.473  35.919  20.196  1.00  0.00     0.200 A 
ATOM      7  O   UNL     1      29.218  36.740  21.121  1.00  0.00    -0.288 OA
ATOM      8  C   UNL     1      31.505  37.140  19.580  1.00  0.00     0.020 A 
ATOM      9  C   UNL     1      32.657  37.238  18.796  1.00  0.00     0.047 A 
ATOM     10  C   UNL     1      32.933  36.286  17.807  1.00  0.00     0.125 A 
ATOM     11  C   UNL     1      32.067  35.184  17.622  1.00  0.00     0.069 A 
ENDROOT
BRANCH   1  12
ATOM     12  C   UNL     1      27.376  34.652  20.747  1.00  0.00    -0.011 A 
ATOM     13  C   UNL     1      26.261  35.448  20.435  1.00  0.00     0.013 A 
ATOM     14  C   UNL     1      25.062  35.285  21.131  1.00  0.00     0.047 A 
ATOM     15  C   UNL     1      24.965  34.340  22.155  1.00  0.00     0.115 A 
ATOM     16  C   UNL     1      27.273  33.689  21.768  1.00  0.00     0.013 A 
ATOM     17  C   UNL     1      26.075  33.544  22.477  1.00  0.00     0.047 A 
BRANCH  15  18
ATOM     18  O   UNL     1      23.761  34.203  22.844  1.00  0.00    -0.508 OA
ATOM     19  H   UNL     1      23.242  33.332  22.862  1.00  0.00     0.293 HD
ENDBRANCH  15  18
ENDBRANCH   1  12
BRANCH  11  20
ATOM     20  C   UNL     1      32.349  34.144  16.547  1.00  0.00     0.188 C 
ATOM     21  C   UNL     1      32.494  32.706  17.166  1.00  0.00     0.179 C 
ATOM     22  O   UNL     1      31.325  34.236  15.567  1.00  0.00    -0.362 OA
ATOM     23  C   UNL     1      31.413  31.688  16.687  1.00  0.00     0.177 C 
ATOM     24  C   UNL     1      31.472  33.210  14.610  1.00  0.00     0.176 C 
ATOM     25  C   UNL     1      30.940  31.893  15.212  1.00  0.00     0.177 C 
BRANCH  21  26
ATOM     26  O   UNL     1      33.794  32.210  16.933  1.00  0.00    -0.387 OA
ATOM     27  H   UNL     1      33.916  32.127  15.951  1.00  0.00     0.211 HD
ENDBRANCH  21  26
BRANCH  23  28
ATOM     28  O   UNL     1      31.901  30.373  16.849  1.00  0.00    -0.387 OA
ATOM     29  H   UNL     1      32.882  30.413  16.710  1.00  0.00     0.211 HD
ENDBRANCH  23  28
BRANCH  24  30
ATOM     30  C   UNL     1      30.743  33.607  13.312  1.00  0.00     0.191 C 
BRANCH  30  31
ATOM     31  O   UNL     1      30.754  35.002  13.154  1.00  0.00    -0.394 OA
ATOM     32  H   UNL     1      29.808  35.299  13.146  1.00  0.00     0.210 HD
ENDBRANCH  30  31
ENDBRANCH  24  30
BRANCH  25  33
ATOM     33  O   UNL     1      29.531  31.832  15.152  1.00  0.00    -0.388 OA
ATOM     34  H   UNL     1      29.286  30.881  14.992  1.00  0.00     0.211 HD
ENDBRANCH  25  33
ENDBRANCH  11  20
BRANCH  10  35
ATOM     35  O   UNL     1      34.065  36.440  17.007  1.00  0.00    -0.507 OA
ATOM     36  H   UNL     1      34.089  36.113  16.047  1.00  0.00     0.293 HD
ENDBRANCH  10  35
TORSDOF 9
ENDMDL
MODEL 7
REMARK VINA RESULT:    -5.081      1.869      3.509
REMARK INTER + INTRA:          -8.067
REMARK INTER:                  -6.939
REMARK INTRA:                  -1.128
REMARK UNBOUND:                -1.204
REMARK SMILES O=c1c(-c2ccc(O)cc2)coc2c([C@@H]3O[C@H](CO)[C@H](O)[C@@H](O)[C@H]3O)c(O)ccc12
REMARK SMILES IDX 3 1 11 2 12 3 13 4 30 5 2 6 1 7 29 8 28 9 26 10 14 11 4 12
REMARK SMILES IDX 5 13 6 14 7 15 10 16 9 17 8 18 15 20 24 21 16 22 22 23 17 24
REMARK SMILES IDX 20 25 25 26 23 28 18 30 19 31 21 33 27 35
REMARK H PARENT 8 19 25 27 23 29 19 32 21 34 27 36
REMARK Flexibility Score: inf
ROOT
ATOM      1  C   UNL     1      28.016  33.766  23.266  1.00  0.00     0.065 A 
ATOM      2  C   UNL     1      28.052  32.449  22.787  1.00  0.00     0.208 A 
ATOM      3  O   UNL     1      28.313  31.437  23.606  1.00  0.00    -0.463 OA
ATOM      4  C   UNL     1      28.565  31.602  24.907  1.00  0.00     0.147 A 
ATOM      5  C   UNL     1      28.523  32.901  25.472  1.00  0.00     0.066 A 
ATOM      6  C   UNL     1      28.235  33.990  24.633  1.00  0.00     0.200 A 
ATOM      7  O   UNL     1      28.114  35.153  25.107  1.00  0.00    -0.288 OA
ATOM      8  C   UNL     1      28.744  33.068  26.844  1.00  0.00     0.020 A 
ATOM      9  C   UNL     1      29.006  31.959  27.653  1.00  0.00     0.047 A 
ATOM     10  C   UNL     1      29.092  30.675  27.101  1.00  0.00     0.125 A 
ATOM     11  C   UNL     1      28.865  30.480  25.719  1.00  0.00     0.069 A 
ENDROOT
BRANCH   1  12
ATOM     12  C   UNL     1      27.769  34.883  22.332  1.00  0.00    -0.011 A 
ATOM     13  C   UNL     1      26.493  35.057  21.771  1.00  0.00     0.013 A 
ATOM     14  C   UNL     1      26.245  36.124  20.904  1.00  0.00     0.047 A 
ATOM     15  C   UNL     1      27.267  37.016  20.574  1.00  0.00     0.115 A 
ATOM     16  C   UNL     1      28.795  35.791  22.012  1.00  0.00     0.013 A 
ATOM     17  C   UNL     1      28.547  36.846  21.126  1.00  0.00     0.047 A 
BRANCH  15  18
ATOM     18  O   UNL     1      26.999  38.066  19.698  1.00  0.00    -0.508 OA
ATOM     19  H   UNL     1      26.062  38.423  19.548  1.00  0.00     0.293 HD
ENDBRANCH  15  18
ENDBRANCH   1  12
BRANCH  11  20
ATOM     20  C   UNL     1      28.961  29.092  25.103  1.00  0.00     0.188 C 
ATOM     21  C   UNL     1      30.459  28.658  24.900  1.00  0.00     0.179 C 
ATOM     22  O   UNL     1      28.221  28.197  25.920  1.00  0.00    -0.362 OA
ATOM     23  C   UNL     1      30.884  27.407  25.729  1.00  0.00     0.177 C 
ATOM     24  C   UNL     1      28.379  26.872  25.460  1.00  0.00     0.176 C 
ATOM     25  C   UNL     1      29.752  26.348  25.928  1.00  0.00     0.177 C 
BRANCH  21  26
ATOM     26  O   UNL     1      30.724  28.470  23.527  1.00  0.00    -0.387 OA
ATOM     27  H   UNL     1      31.648  28.785  23.350  1.00  0.00     0.211 HD
ENDBRANCH  21  26
BRANCH  23  28
ATOM     28  O   UNL     1      32.001  26.797  25.118  1.00  0.00    -0.387 OA
ATOM     29  H   UNL     1      32.506  27.517  24.660  1.00  0.00     0.211 HD
ENDBRANCH  23  28
BRANCH  24  30
ATOM     30  C   UNL     1      27.210  26.007  25.967  1.00  0.00     0.191 C 
BRANCH  30  31
ATOM     31  O   UNL     1      27.575  24.651  25.980  1.00  0.00    -0.394 OA
ATOM     32  H   UNL     1      26.770  24.133  25.725  1.00  0.00     0.210 HD
ENDBRANCH  30  31
ENDBRANCH  24  30
BRANCH  25  33
ATOM     33  O   UNL     1      29.715  25.941  27.278  1.00  0.00    -0.388 OA
ATOM     34  H   UNL     1      30.074  25.013  27.315  1.00  0.00     0.211 HD
ENDBRANCH  25  33
ENDBRANCH  11  20
BRANCH  10  35
ATOM     35  O   UNL     1      29.405  29.596  27.927  1.00  0.00    -0.507 OA
ATOM     36  H   UNL     1      29.687  29.726  28.892  1.00  0.00     0.293 HD
ENDBRANCH  10  35
TORSDOF 9
ENDMDL
MODEL 8
REMARK VINA RESULT:    -5.076      3.221      8.955
REMARK INTER + INTRA:          -8.060
REMARK INTER:                  -6.968
REMARK INTRA:                  -1.092
REMARK UNBOUND:                -1.204
REMARK SMILES O=c1c(-c2ccc(O)cc2)coc2c([C@@H]3O[C@H](CO)[C@H](O)[C@@H](O)[C@H]3O)c(O)ccc12
REMARK SMILES IDX 3 1 11 2 12 3 13 4 30 5 2 6 1 7 29 8 28 9 26 10 14 11 4 12
REMARK SMILES IDX 5 13 6 14 7 15 10 16 9 17 8 18 15 20 24 21 16 22 22 23 17 24
REMARK SMILES IDX 20 25 25 26 23 28 18 30 19 31 21 33 27 35
REMARK H PARENT 8 19 25 27 23 29 19 32 21 34 27 36
REMARK Flexibility Score: inf
ROOT
ATOM      1  C   UNL     1      28.382  29.455  26.124  1.00  0.00     0.065 A 
ATOM      2  C   UNL     1      28.524  30.185  24.934  1.00  0.00     0.208 A 
ATOM      3  O   UNL     1      28.677  31.503  24.962  1.00  0.00    -0.463 OA
ATOM      4  C   UNL     1      28.694  32.208  26.096  1.00  0.00     0.147 A 
ATOM      5  C   UNL     1      28.581  31.541  27.341  1.00  0.00     0.066 A 
ATOM      6  C   UNL     1      28.432  30.144  27.344  1.00  0.00     0.200 A 
ATOM      7  O   UNL     1      28.403  29.503  28.431  1.00  0.00    -0.288 OA
ATOM      8  C   UNL     1      28.642  32.277  28.530  1.00  0.00     0.020 A 
ATOM      9  C   UNL     1      28.812  33.663  28.490  1.00  0.00     0.047 A 
ATOM     10  C   UNL     1      28.884  34.340  27.267  1.00  0.00     0.125 A 
ATOM     11  C   UNL     1      28.832  33.618  26.052  1.00  0.00     0.069 A 
ENDROOT
BRANCH   1  12
ATOM     12  C   UNL     1      28.168  27.995  26.071  1.00  0.00    -0.011 A 
ATOM     13  C   UNL     1      26.893  27.485  25.773  1.00  0.00     0.013 A 
ATOM     14  C   UNL     1      26.686  26.106  25.699  1.00  0.00     0.047 A 
ATOM     15  C   UNL     1      27.740  25.222  25.939  1.00  0.00     0.115 A 
ATOM     16  C   UNL     1      29.233  27.105  26.297  1.00  0.00     0.013 A 
ATOM     17  C   UNL     1      29.016  25.723  26.244  1.00  0.00     0.047 A 
BRANCH  15  18
ATOM     18  O   UNL     1      27.507  23.850  25.872  1.00  0.00    -0.508 OA
ATOM     19  H   UNL     1      26.798  23.448  25.268  1.00  0.00     0.293 HD
ENDBRANCH  15  18
ENDBRANCH   1  12
BRANCH  11  20
ATOM     20  C   UNL     1      28.902  34.340  24.714  1.00  0.00     0.188 C 
ATOM     21  C   UNL     1      27.470  34.748  24.209  1.00  0.00     0.179 C 
ATOM     22  O   UNL     1      29.785  35.442  24.855  1.00  0.00    -0.362 OA
ATOM     23  C   UNL     1      27.248  36.287  24.081  1.00  0.00     0.177 C 
ATOM     24  C   UNL     1      29.791  36.218  23.677  1.00  0.00     0.176 C 
ATOM     25  C   UNL     1      28.519  37.090  23.654  1.00  0.00     0.177 C 
BRANCH  21  26
ATOM     26  O   UNL     1      27.183  34.093  22.994  1.00  0.00    -0.387 OA
ATOM     27  H   UNL     1      27.420  33.135  23.102  1.00  0.00     0.211 HD
ENDBRANCH  21  26
BRANCH  23  28
ATOM     28  O   UNL     1      26.202  36.536  23.166  1.00  0.00    -0.387 OA
ATOM     29  H   UNL     1      25.395  36.746  23.704  1.00  0.00     0.211 HD
ENDBRANCH  23  28
BRANCH  24  30
ATOM     30  C   UNL     1      31.084  37.052  23.614  1.00  0.00     0.191 C 
BRANCH  30  31
ATOM     31  O   UNL     1      30.978  38.044  22.624  1.00  0.00    -0.394 OA
ATOM     32  H   UNL     1      30.615  38.853  23.065  1.00  0.00     0.210 HD
ENDBRANCH  30  31
ENDBRANCH  24  30
BRANCH  25  33
ATOM     33  O   UNL     1      28.660  38.228  24.477  1.00  0.00    -0.388 OA
ATOM     34  H   UNL     1      29.632  38.335  24.665  1.00  0.00     0.211 HD
ENDBRANCH  25  33
ENDBRANCH  11  20
BRANCH  10  35
ATOM     35  O   UNL     1      29.003  35.730  27.261  1.00  0.00    -0.507 OA
ATOM     36  H   UNL     1      29.116  36.252  26.399  1.00  0.00     0.293 HD
ENDBRANCH  10  35
TORSDOF 9
ENDMDL
MODEL 9
REMARK VINA RESULT:    -5.039      2.586      8.995
REMARK INTER + INTRA:          -8.011
REMARK INTER:                  -6.901
REMARK INTRA:                  -1.110
REMARK UNBOUND:                -1.204
REMARK SMILES O=c1c(-c2ccc(O)cc2)coc2c([C@@H]3O[C@H](CO)[C@H](O)[C@@H](O)[C@H]3O)c(O)ccc12
REMARK SMILES IDX 3 1 11 2 12 3 13 4 30 5 2 6 1 7 29 8 28 9 26 10 14 11 4 12
REMARK SMILES IDX 5 13 6 14 7 15 10 16 9 17 8 18 15 20 24 21 16 22 22 23 17 24
REMARK SMILES IDX 20 25 25 26 23 28 18 30 19 31 21 33 27 35
REMARK H PARENT 8 19 25 27 23 29 19 32 21 34 27 36
REMARK Flexibility Score: inf
ROOT
ATOM      1  C   UNL     1      29.712  30.070  25.895  1.00  0.00     0.065 A 
ATOM      2  C   UNL     1      29.271  30.309  24.586  1.00  0.00     0.208 A 
ATOM      3  O   UNL     1      28.885  31.524  24.212  1.00  0.00    -0.463 OA
ATOM      4  C   UNL     1      28.879  32.571  25.040  1.00  0.00     0.147 A 
ATOM      5  C   UNL     1      29.334  32.415  26.374  1.00  0.00     0.066 A 
ATOM      6  C   UNL     1      29.761  31.145  26.794  1.00  0.00     0.200 A 
ATOM      7  O   UNL     1      30.243  30.979  27.949  1.00  0.00    -0.288 OA
ATOM      8  C   UNL     1      29.367  33.524  27.228  1.00  0.00     0.020 A 
ATOM      9  C   UNL     1      28.955  34.777  26.769  1.00  0.00     0.047 A 
ATOM     10  C   UNL     1      28.465  34.937  25.467  1.00  0.00     0.125 A 
ATOM     11  C   UNL     1      28.427  33.833  24.583  1.00  0.00     0.069 A 
ENDROOT
BRANCH   1  12
ATOM     12  C   UNL     1      30.093  28.704  26.306  1.00  0.00    -0.011 A 
ATOM     13  C   UNL     1      29.108  27.804  26.745  1.00  0.00     0.013 A 
ATOM     14  C   UNL     1      29.458  26.503  27.114  1.00  0.00     0.047 A 
ATOM     15  C   UNL     1      30.791  26.092  27.067  1.00  0.00     0.115 A 
ATOM     16  C   UNL     1      31.435  28.285  26.244  1.00  0.00     0.013 A 
ATOM     17  C   UNL     1      31.783  26.987  26.635  1.00  0.00     0.047 A 
BRANCH  15  18
ATOM     18  O   UNL     1      31.118  24.793  27.452  1.00  0.00    -0.508 OA
ATOM     19  H   UNL     1      31.985  24.569  27.927  1.00  0.00     0.293 HD
ENDBRANCH  15  18
ENDBRANCH   1  12
BRANCH  11  20
ATOM     20  C   UNL     1      27.891  33.989  23.167  1.00  0.00     0.188 C 
ATOM     21  C   UNL     1      26.341  33.733  23.111  1.00  0.00     0.179 C 
ATOM     22  O   UNL     1      28.268  35.273  22.693  1.00  0.00    -0.362 OA
ATOM     23  C   UNL     1      25.500  34.971  22.670  1.00  0.00     0.177 C 
ATOM     24  C   UNL     1      27.690  35.517  21.429  1.00  0.00     0.176 C 
ATOM     25  C   UNL     1      26.209  35.896  21.629  1.00  0.00     0.177 C 
BRANCH  21  26
ATOM     26  O   UNL     1      26.066  32.618  22.292  1.00  0.00    -0.387 OA
ATOM     27  H   UNL     1      26.866  32.029  22.302  1.00  0.00     0.211 HD
ENDBRANCH  21  26
BRANCH  23  28
ATOM     28  O   UNL     1      24.261  34.537  22.152  1.00  0.00    -0.387 OA
ATOM     29  H   UNL     1      24.464  33.938  21.388  1.00  0.00     0.211 HD
ENDBRANCH  23  28
BRANCH  24  30
ATOM     30  C   UNL     1      28.490  36.612  20.698  1.00  0.00     0.191 C 
BRANCH  30  31
ATOM     31  O   UNL     1      27.671  37.278  19.771  1.00  0.00    -0.394 OA
ATOM     32  H   UNL     1      27.889  38.242  19.836  1.00  0.00     0.210 HD
ENDBRANCH  30  31
ENDBRANCH  24  30
BRANCH  25  33
ATOM     33  O   UNL     1      26.071  37.245  22.020  1.00  0.00    -0.388 OA
ATOM     34  H   UNL     1      26.101  37.266  23.014  1.00  0.00     0.211 HD
ENDBRANCH  25  33
ENDBRANCH  11  20
BRANCH  10  35
ATOM     35  O   UNL     1      28.013  36.190  25.055  1.00  0.00    -0.507 OA
ATOM     36  H   UNL     1      27.045  36.351  24.798  1.00  0.00     0.293 HD
ENDBRANCH  10  35
TORSDOF 9
ENDMDL
