MODEL 1
REMARK VINA RESULT:    26.606      0.000      0.000
REMARK INTER + INTRA:          31.096
REMARK INTER:                  31.272
REMARK INTRA:                  -0.176
REMARK UNBOUND:                -0.176
REMARK SMILES O=c1c(O)c(-c2ccc(O)c(O)c2)oc2cc(O)ccc12
REMARK SMILES IDX 5 1 3 2 2 3 1 4 21 5 15 6 14 7 16 8 17 9 19 10 20 11 6 12
REMARK SMILES IDX 7 13 8 14 9 15 13 16 11 17 10 18 12 20 4 22 18 24
REMARK H PARENT 10 19 12 21 4 23 18 25
REMARK Flexibility Score: inf
ROOT
ATOM      1  C   UNL     1       9.374   2.136   8.904  1.00  0.00     0.180 A 
ATOM      2  C   UNL     1       9.409   3.464   8.431  1.00  0.00     0.208 A 
ATOM      3  C   UNL     1      10.454   3.852   7.578  1.00  0.00     0.235 A 
ATOM      4  O   UNL     1      10.513   5.038   7.151  1.00  0.00    -0.285 OA
ATOM      5  C   UNL     1      11.424   2.909   7.202  1.00  0.00     0.069 A 
ATOM      6  C   UNL     1      11.305   1.593   7.699  1.00  0.00     0.142 A 
ATOM      7  O   UNL     1      10.305   1.269   8.510  1.00  0.00    -0.452 OA
ATOM      8  C   UNL     1      12.246   0.622   7.339  1.00  0.00     0.094 A 
ATOM      9  C   UNL     1      13.309   0.951   6.487  1.00  0.00     0.119 A 
ATOM     10  C   UNL     1      13.429   2.255   5.994  1.00  0.00     0.047 A 
ATOM     11  C   UNL     1      12.493   3.231   6.347  1.00  0.00     0.020 A 
ENDROOT
BRANCH   1  12
ATOM     12  C   UNL     1       8.316   1.655   9.820  1.00  0.00     0.025 A 
ATOM     13  C   UNL     1       8.644   1.334  11.147  1.00  0.00     0.016 A 
ATOM     14  C   UNL     1       7.657   0.898  12.034  1.00  0.00     0.051 A 
ATOM     15  C   UNL     1       6.327   0.789  11.617  1.00  0.00     0.157 A 
ATOM     16  C   UNL     1       6.975   1.565   9.407  1.00  0.00     0.062 A 
ATOM     17  C   UNL     1       5.982   1.129  10.297  1.00  0.00     0.158 A 
BRANCH  15  18
ATOM     18  O   UNL     1       5.364   0.349  12.524  1.00  0.00    -0.504 OA
ATOM     19  H   UNL     1       4.775   0.992  13.037  1.00  0.00     0.293 HD
ENDBRANCH  15  18
BRANCH  17  20
ATOM     20  O   UNL     1       4.656   1.037   9.878  1.00  0.00    -0.504 OA
ATOM     21  H   UNL     1       3.887   1.050  10.540  1.00  0.00     0.293 HD
ENDBRANCH  17  20
ENDBRANCH   1  12
BRANCH   2  22
ATOM     22  O   UNL     1       8.403   4.368   8.783  1.00  0.00    -0.502 OA
ATOM     23  H   UNL     1       8.290   4.710   9.730  1.00  0.00     0.293 HD
ENDBRANCH   2  22
BRANCH   9  24
ATOM     24  O   UNL     1      14.250  -0.010   6.124  1.00  0.00    -0.508 OA
ATOM     25  H   UNL     1      14.904  -0.392   6.797  1.00  0.00     0.293 HD
ENDBRANCH   9  24
TORSDOF 5
ENDMDL
MODEL 2
REMARK VINA RESULT:    28.755      4.442      7.894
REMARK INTER + INTRA:          33.622
REMARK INTER:                  33.762
REMARK INTRA:                  -0.140
REMARK UNBOUND:                -0.176
REMARK SMILES O=c1c(O)c(-c2ccc(O)c(O)c2)oc2cc(O)ccc12
REMARK SMILES IDX 5 1 3 2 2 3 1 4 21 5 15 6 14 7 16 8 17 9 19 10 20 11 6 12
REMARK SMILES IDX 7 13 8 14 9 15 13 16 11 17 10 18 12 20 4 22 18 24
REMARK H PARENT 10 19 12 21 4 23 18 25
REMARK Flexibility Score: inf
ROOT
ATOM      1  C   UNL     1      14.648   2.999   8.868  1.00  0.00     0.180 A 
ATOM      2  C   UNL     1      14.645   1.724   8.266  1.00  0.00     0.208 A 
ATOM      3  C   UNL     1      13.593   1.386   7.401  1.00  0.00     0.235 A 
ATOM      4  O   UNL     1      13.561   0.246   6.860  1.00  0.00    -0.285 OA
ATOM      5  C   UNL     1      12.584   2.327   7.140  1.00  0.00     0.069 A 
ATOM      6  C   UNL     1      12.672   3.591   7.763  1.00  0.00     0.142 A 
ATOM      7  O   UNL     1      13.680   3.868   8.582  1.00  0.00    -0.452 OA
ATOM      8  C   UNL     1      11.692   4.560   7.520  1.00  0.00     0.094 A 
ATOM      9  C   UNL     1      10.620   4.280   6.662  1.00  0.00     0.119 A 
ATOM     10  C   UNL     1      10.530   3.027   6.045  1.00  0.00     0.047 A 
ATOM     11  C   UNL     1      11.505   2.054   6.280  1.00  0.00     0.020 A 
ENDROOT
BRANCH   1  12
ATOM     12  C   UNL     1      15.712   3.424   9.805  1.00  0.00     0.025 A 
ATOM     13  C   UNL     1      15.391   3.668  11.150  1.00  0.00     0.016 A 
ATOM     14  C   UNL     1      16.383   4.050  12.056  1.00  0.00     0.051 A 
ATOM     15  C   UNL     1      17.711   4.180  11.639  1.00  0.00     0.157 A 
ATOM     16  C   UNL     1      17.051   3.536   9.391  1.00  0.00     0.062 A 
ATOM     17  C   UNL     1      18.049   3.917  10.300  1.00  0.00     0.158 A 
BRANCH  15  18
ATOM     18  O   UNL     1      18.680   4.565  12.565  1.00  0.00    -0.504 OA
ATOM     19  H   UNL     1      19.191   5.435  12.480  1.00  0.00     0.293 HD
ENDBRANCH  15  18
BRANCH  17  20
ATOM     20  O   UNL     1      19.374   4.030   9.880  1.00  0.00    -0.504 OA
ATOM     21  H   UNL     1      19.951   3.213   9.720  1.00  0.00     0.293 HD
ENDBRANCH  17  20
ENDBRANCH   1  12
BRANCH   2  22
ATOM     22  O   UNL     1      15.688   0.825   8.507  1.00  0.00    -0.502 OA
ATOM     23  H   UNL     1      15.606   0.067   9.173  1.00  0.00     0.293 HD
ENDBRANCH   2  22
BRANCH   9  24
ATOM     24  O   UNL     1       9.639   5.239   6.415  1.00  0.00    -0.508 OA
ATOM     25  H   UNL     1       8.658   5.047   6.579  1.00  0.00     0.293 HD
ENDBRANCH   9  24
TORSDOF 5
ENDMDL
MODEL 3
REMARK VINA RESULT:    29.478      1.185      2.817
REMARK INTER + INTRA:          34.471
REMARK INTER:                  34.718
REMARK INTRA:                  -0.247
REMARK UNBOUND:                -0.176
REMARK SMILES O=c1c(O)c(-c2ccc(O)c(O)c2)oc2cc(O)ccc12
REMARK SMILES IDX 5 1 3 2 2 3 1 4 21 5 15 6 14 7 16 8 17 9 19 10 20 11 6 12
REMARK SMILES IDX 7 13 8 14 9 15 13 16 11 17 10 18 12 20 4 22 18 24
REMARK H PARENT 10 19 12 21 4 23 18 25
REMARK Flexibility Score: inf
ROOT
ATOM      1  C   UNL     1       9.230   1.475   9.097  1.00  0.00     0.180 A 
ATOM      2  C   UNL     1      10.056   0.414   8.671  1.00  0.00     0.208 A 
ATOM      3  C   UNL     1      11.109   0.690   7.785  1.00  0.00     0.235 A 
ATOM      4  O   UNL     1      11.855  -0.244   7.381  1.00  0.00    -0.285 OA
ATOM      5  C   UNL     1      11.327   2.011   7.362  1.00  0.00     0.069 A 
ATOM      6  C   UNL     1      10.471   3.020   7.853  1.00  0.00     0.142 A 
ATOM      7  O   UNL     1       9.480   2.715   8.684  1.00  0.00    -0.452 OA
ATOM      8  C   UNL     1      10.661   4.350   7.463  1.00  0.00     0.094 A 
ATOM      9  C   UNL     1      11.699   4.686   6.582  1.00  0.00     0.119 A 
ATOM     10  C   UNL     1      12.548   3.687   6.094  1.00  0.00     0.047 A 
ATOM     11  C   UNL     1      12.366   2.355   6.479  1.00  0.00     0.020 A 
ENDROOT
BRANCH   1  12
ATOM     12  C   UNL     1       8.089   1.262  10.016  1.00  0.00     0.025 A 
ATOM     13  C   UNL     1       8.332   1.056  11.383  1.00  0.00     0.016 A 
ATOM     14  C   UNL     1       7.270   0.874  12.271  1.00  0.00     0.051 A 
ATOM     15  C   UNL     1       5.949   0.910  11.813  1.00  0.00     0.157 A 
ATOM     16  C   UNL     1       6.760   1.318   9.559  1.00  0.00     0.062 A 
ATOM     17  C   UNL     1       5.692   1.138  10.450  1.00  0.00     0.158 A 
BRANCH  15  18
ATOM     18  O   UNL     1       4.909   0.723  12.722  1.00  0.00    -0.504 OA
ATOM     19  H   UNL     1       4.980   1.015  13.689  1.00  0.00     0.293 HD
ENDBRANCH  15  18
BRANCH  17  20
ATOM     20  O   UNL     1       4.378   1.190   9.988  1.00  0.00    -0.504 OA
ATOM     21  H   UNL     1       3.649   1.661  10.512  1.00  0.00     0.293 HD
ENDBRANCH  17  20
ENDBRANCH   1  12
BRANCH   2  22
ATOM     22  O   UNL     1       9.846  -0.883   9.148  1.00  0.00    -0.502 OA
ATOM     23  H   UNL     1       9.092  -1.468   8.810  1.00  0.00     0.293 HD
ENDBRANCH   2  22
BRANCH   9  24
ATOM     24  O   UNL     1      11.895   6.007   6.188  1.00  0.00    -0.508 OA
ATOM     25  H   UNL     1      12.584   6.254   5.487  1.00  0.00     0.293 HD
ENDBRANCH   9  24
TORSDOF 5
ENDMDL
