MODEL 1
REMARK VINA RESULT:    -5.711      0.000      0.000
REMARK INTER + INTRA:          -9.926
REMARK INTER:                  -8.049
REMARK INTRA:                  -1.877
REMARK UNBOUND:                -1.877
REMARK SMILES COc1c(O[C@H]2O[C@@H](C(=O)[O-])[C@@H](O)[C@@H](O)[C@@H]2O)cc(O)c2c(=O)cc(-c3ccccc3)oc12
REMARK SMILES IDX 5 1 6 2 8 3 12 4 7 5 14 6 16 7 9 8 10 9 11 10 13 11 15 13
REMARK SMILES IDX 17 15 4 17 3 18 18 19 33 20 19 21 21 22 32 23 22 24 25 25
REMARK SMILES IDX 24 26 23 27 2 28 1 29 20 30 26 32 27 33 31 34 28 35 30 36
REMARK SMILES IDX 29 37
REMARK H PARENT 13 12 15 14 17 16 20 31
REMARK Flexibility Score: inf
ROOT
ATOM      1  O   UNL     1     -26.621 -60.819  55.291  1.00  0.00    -0.458 OA
ENDROOT
BRANCH   1   2
ATOM      2  C   UNL     1     -26.689 -61.980  56.122  1.00  0.00     0.339 C 
ATOM      3  C   UNL     1     -24.496 -62.787  55.644  1.00  0.00     0.199 C 
ATOM      4  C   UNL     1     -24.008 -62.449  57.080  1.00  0.00     0.180 C 
ATOM      5  O   UNL     1     -25.897 -63.045  55.599  1.00  0.00    -0.328 OA
ATOM      6  C   UNL     1     -24.825 -61.303  57.706  1.00  0.00     0.181 C 
ATOM      7  C   UNL     1     -26.322 -61.618  57.579  1.00  0.00     0.214 C 
BRANCH   3   8
ATOM      8  C   UNL     1     -24.079 -61.824  54.551  1.00  0.00     0.073 C 
ATOM      9  O   UNL     1     -23.236 -60.913  54.757  1.00  0.00    -0.547 OA
ATOM     10  O   UNL     1     -24.606 -61.987  53.276  1.00  0.00    -0.547 OA
ENDBRANCH   3   8
BRANCH   4  11
ATOM     11  O   UNL     1     -22.630 -62.171  57.090  1.00  0.00    -0.387 OA
ATOM     12  H   UNL     1     -22.366 -62.029  56.141  1.00  0.00     0.211 HD
ENDBRANCH   4  11
BRANCH   6  13
ATOM     13  O   UNL     1     -24.499 -60.080  57.094  1.00  0.00    -0.387 OA
ATOM     14  H   UNL     1     -23.508 -60.075  56.965  1.00  0.00     0.211 HD
ENDBRANCH   6  13
BRANCH   7  15
ATOM     15  O   UNL     1     -26.653 -62.675  58.443  1.00  0.00    -0.384 OA
ATOM     16  H   UNL     1     -26.812 -62.269  59.338  1.00  0.00     0.211 HD
ENDBRANCH   7  15
ENDBRANCH   1   2
BRANCH   1  17
ATOM     17  C   UNL     1     -27.438 -59.685  55.404  1.00  0.00     0.172 A 
ATOM     18  C   UNL     1     -26.866 -58.432  55.157  1.00  0.00     0.205 A 
ATOM     19  C   UNL     1     -28.794 -59.775  55.755  1.00  0.00     0.097 A 
ATOM     20  C   UNL     1     -27.626 -57.257  55.341  1.00  0.00     0.188 A 
ATOM     21  C   UNL     1     -29.573 -58.621  55.914  1.00  0.00     0.134 A 
ATOM     22  C   UNL     1     -28.990 -57.348  55.728  1.00  0.00     0.111 A 
ATOM     23  O   UNL     1     -27.057 -56.065  55.175  1.00  0.00    -0.452 OA
ATOM     24  C   UNL     1     -29.714 -56.144  55.882  1.00  0.00     0.197 A 
ATOM     25  C   UNL     1     -27.706 -54.919  55.357  1.00  0.00     0.138 A 
ATOM     26  C   UNL     1     -29.064 -54.921  55.708  1.00  0.00     0.100 A 
ATOM     27  O   UNL     1     -30.944 -56.149  56.156  1.00  0.00    -0.289 OA
BRANCH  18  28
ATOM     28  O   UNL     1     -25.520 -58.412  54.771  1.00  0.00    -0.490 OA
ATOM     29  C   UNL     1     -25.044 -58.251  53.435  1.00  0.00     0.278 C 
ENDBRANCH  18  28
BRANCH  21  30
ATOM     30  O   UNL     1     -30.922 -58.753  56.264  1.00  0.00    -0.507 OA
ATOM     31  H   UNL     1     -31.383 -58.036  56.821  1.00  0.00     0.293 HD
ENDBRANCH  21  30
BRANCH  25  32
ATOM     32  C   UNL     1     -26.978 -53.654  55.201  1.00  0.00     0.017 A 
ATOM     33  C   UNL     1     -26.885 -53.059  53.935  1.00  0.00     0.012 A 
ATOM     34  C   UNL     1     -26.490 -52.976  56.330  1.00  0.00     0.012 A 
ATOM     35  C   UNL     1     -26.253 -51.823  53.789  1.00  0.00     0.001 A 
ATOM     36  C   UNL     1     -25.839 -51.745  56.178  1.00  0.00     0.001 A 
ATOM     37  C   UNL     1     -25.721 -51.172  54.907  1.00  0.00     0.000 A 
ENDBRANCH  25  32
ENDBRANCH   1  17
TORSDOF 9
ENDMDL
MODEL 2
REMARK VINA RESULT:    -5.543      7.924      9.206
REMARK INTER + INTRA:          -9.688
REMARK INTER:                  -8.030
REMARK INTRA:                  -1.659
REMARK UNBOUND:                -1.877
REMARK SMILES COc1c(O[C@H]2O[C@@H](C(=O)[O-])[C@@H](O)[C@@H](O)[C@@H]2O)cc(O)c2c(=O)cc(-c3ccccc3)oc12
REMARK SMILES IDX 5 1 6 2 8 3 12 4 7 5 14 6 16 7 9 8 10 9 11 10 13 11 15 13
REMARK SMILES IDX 17 15 4 17 3 18 18 19 33 20 19 21 21 22 32 23 22 24 25 25
REMARK SMILES IDX 24 26 23 27 2 28 1 29 20 30 26 32 27 33 31 34 28 35 30 36
REMARK SMILES IDX 29 37
REMARK H PARENT 13 12 15 14 17 16 20 31
REMARK Flexibility Score: inf
ROOT
ATOM      1  O   UNL     1     -24.114 -66.604  56.395  1.00  0.00    -0.458 OA
ENDROOT
BRANCH   1   2
ATOM      2  C   UNL     1     -23.433 -65.643  57.204  1.00  0.00     0.339 C 
ATOM      3  C   UNL     1     -21.746 -67.118  58.020  1.00  0.00     0.199 C 
ATOM      4  C   UNL     1     -20.648 -66.399  57.188  1.00  0.00     0.180 C 
ATOM      5  O   UNL     1     -22.830 -66.252  58.345  1.00  0.00    -0.328 OA
ATOM      6  C   UNL     1     -21.235 -65.717  55.939  1.00  0.00     0.181 C 
ATOM      7  C   UNL     1     -22.426 -64.841  56.349  1.00  0.00     0.214 C 
BRANCH   3   8
ATOM      8  C   UNL     1     -22.245 -68.440  57.470  1.00  0.00     0.073 C 
ATOM      9  O   UNL     1     -21.744 -68.960  56.439  1.00  0.00    -0.547 OA
ATOM     10  O   UNL     1     -23.248 -69.116  58.153  1.00  0.00    -0.547 OA
ENDBRANCH   3   8
BRANCH   4  11
ATOM     11  O   UNL     1     -19.607 -67.284  56.858  1.00  0.00    -0.387 OA
ATOM     12  H   UNL     1     -20.038 -68.087  56.459  1.00  0.00     0.211 HD
ENDBRANCH   4  11
BRANCH   6  13
ATOM     13  O   UNL     1     -21.605 -66.681  54.984  1.00  0.00    -0.387 OA
ATOM     14  H   UNL     1     -21.538 -67.572  55.430  1.00  0.00     0.211 HD
ENDBRANCH   6  13
BRANCH   7  15
ATOM     15  O   UNL     1     -21.962 -63.723  57.061  1.00  0.00    -0.384 OA
ATOM     16  H   UNL     1     -21.466 -64.075  57.849  1.00  0.00     0.211 HD
ENDBRANCH   7  15
ENDBRANCH   1   2
BRANCH   1  17
ATOM     17  C   UNL     1     -25.505 -66.764  56.314  1.00  0.00     0.172 A 
ATOM     18  C   UNL     1     -26.179 -66.153  55.251  1.00  0.00     0.205 A 
ATOM     19  C   UNL     1     -26.226 -67.510  57.260  1.00  0.00     0.097 A 
ATOM     20  C   UNL     1     -27.588 -66.215  55.176  1.00  0.00     0.188 A 
ATOM     21  C   UNL     1     -27.622 -67.608  57.186  1.00  0.00     0.134 A 
ATOM     22  C   UNL     1     -28.319 -66.943  56.153  1.00  0.00     0.111 A 
ATOM     23  O   UNL     1     -28.229 -65.572  54.203  1.00  0.00    -0.452 OA
ATOM     24  C   UNL     1     -29.726 -66.992  56.023  1.00  0.00     0.197 A 
ATOM     25  C   UNL     1     -29.554 -65.567  54.088  1.00  0.00     0.138 A 
ATOM     26  C   UNL     1     -30.348 -66.287  54.992  1.00  0.00     0.100 A 
ATOM     27  O   UNL     1     -30.433 -67.674  56.812  1.00  0.00    -0.289 OA
BRANCH  18  28
ATOM     28  O   UNL     1     -25.400 -65.458  54.318  1.00  0.00    -0.490 OA
ATOM     29  C   UNL     1     -24.833 -66.017  53.133  1.00  0.00     0.278 C 
ENDBRANCH  18  28
BRANCH  21  30
ATOM     30  O   UNL     1     -28.304 -68.361  58.148  1.00  0.00    -0.507 OA
ATOM     31  H   UNL     1     -28.439 -69.362  58.018  1.00  0.00     0.293 HD
ENDBRANCH  21  30
BRANCH  25  32
ATOM     32  C   UNL     1     -30.173 -64.784  53.011  1.00  0.00     0.017 A 
ATOM     33  C   UNL     1     -29.378 -64.290  51.968  1.00  0.00     0.012 A 
ATOM     34  C   UNL     1     -31.569 -64.641  52.954  1.00  0.00     0.012 A 
ATOM     35  C   UNL     1     -29.967 -63.602  50.905  1.00  0.00     0.001 A 
ATOM     36  C   UNL     1     -32.156 -63.935  51.896  1.00  0.00     0.001 A 
ATOM     37  C   UNL     1     -31.353 -63.416  50.875  1.00  0.00     0.000 A 
ENDBRANCH  25  32
ENDBRANCH   1  17
TORSDOF 9
ENDMDL
MODEL 3
REMARK VINA RESULT:    -5.517      7.486      9.205
REMARK INTER + INTRA:          -9.652
REMARK INTER:                  -8.442
REMARK INTRA:                  -1.210
REMARK UNBOUND:                -1.877
REMARK SMILES COc1c(O[C@H]2O[C@@H](C(=O)[O-])[C@@H](O)[C@@H](O)[C@@H]2O)cc(O)c2c(=O)cc(-c3ccccc3)oc12
REMARK SMILES IDX 5 1 6 2 8 3 12 4 7 5 14 6 16 7 9 8 10 9 11 10 13 11 15 13
REMARK SMILES IDX 17 15 4 17 3 18 18 19 33 20 19 21 21 22 32 23 22 24 25 25
REMARK SMILES IDX 24 26 23 27 2 28 1 29 20 30 26 32 27 33 31 34 28 35 30 36
REMARK SMILES IDX 29 37
REMARK H PARENT 13 12 15 14 17 16 20 31
REMARK Flexibility Score: inf
ROOT
ATOM      1  O   UNL     1     -23.955 -66.324  55.817  1.00  0.00    -0.458 OA
ENDROOT
BRANCH   1   2
ATOM      2  C   UNL     1     -23.064 -66.774  54.794  1.00  0.00     0.339 C 
ATOM      3  C   UNL     1     -21.058 -66.568  56.068  1.00  0.00     0.199 C 
ATOM      4  C   UNL     1     -20.891 -68.111  56.143  1.00  0.00     0.180 C 
ATOM      5  O   UNL     1     -21.781 -66.160  54.909  1.00  0.00    -0.328 OA
ATOM      6  C   UNL     1     -22.243 -68.837  56.022  1.00  0.00     0.181 C 
ATOM      7  C   UNL     1     -22.992 -68.317  54.788  1.00  0.00     0.214 C 
BRANCH   3   8
ATOM      8  C   UNL     1     -21.590 -65.891  57.315  1.00  0.00     0.073 C 
ATOM      9  O   UNL     1     -21.812 -66.532  58.374  1.00  0.00    -0.547 OA
ATOM     10  O   UNL     1     -21.788 -64.515  57.299  1.00  0.00    -0.547 OA
ENDBRANCH   3   8
BRANCH   4  11
ATOM     11  O   UNL     1     -20.200 -68.485  57.308  1.00  0.00    -0.387 OA
ATOM     12  H   UNL     1     -19.683 -69.304  57.076  1.00  0.00     0.211 HD
ENDBRANCH   4  11
BRANCH   6  13
ATOM     13  O   UNL     1     -22.997 -68.663  57.197  1.00  0.00    -0.387 OA
ATOM     14  H   UNL     1     -23.033 -69.552  57.653  1.00  0.00     0.211 HD
ENDBRANCH   6  13
BRANCH   7  15
ATOM     15  O   UNL     1     -22.349 -68.772  53.625  1.00  0.00    -0.384 OA
ATOM     16  H   UNL     1     -22.747 -68.267  52.865  1.00  0.00     0.211 HD
ENDBRANCH   7  15
ENDBRANCH   1   2
BRANCH   1  17
ATOM     17  C   UNL     1     -25.344 -66.512  55.831  1.00  0.00     0.172 A 
ATOM     18  C   UNL     1     -26.097 -65.943  54.799  1.00  0.00     0.205 A 
ATOM     19  C   UNL     1     -25.987 -67.246  56.840  1.00  0.00     0.097 A 
ATOM     20  C   UNL     1     -27.506 -66.033  54.817  1.00  0.00     0.188 A 
ATOM     21  C   UNL     1     -27.382 -67.371  56.860  1.00  0.00     0.134 A 
ATOM     22  C   UNL     1     -28.158 -66.748  55.857  1.00  0.00     0.111 A 
ATOM     23  O   UNL     1     -28.222 -65.428  53.871  1.00  0.00    -0.452 OA
ATOM     24  C   UNL     1     -29.569 -66.826  55.821  1.00  0.00     0.197 A 
ATOM     25  C   UNL     1     -29.551 -65.451  53.842  1.00  0.00     0.138 A 
ATOM     26  C   UNL     1     -30.271 -66.161  54.814  1.00  0.00     0.100 A 
ATOM     27  O   UNL     1     -30.210 -67.500  56.671  1.00  0.00    -0.289 OA
BRANCH  18  28
ATOM     28  O   UNL     1     -25.394 -65.258  53.800  1.00  0.00    -0.490 OA
ATOM     29  C   UNL     1     -25.221 -63.843  53.730  1.00  0.00     0.278 C 
ENDBRANCH  18  28
BRANCH  21  30
ATOM     30  O   UNL     1     -27.986 -68.111  57.883  1.00  0.00    -0.507 OA
ATOM     31  H   UNL     1     -28.966 -68.376  57.819  1.00  0.00     0.293 HD
ENDBRANCH  21  30
BRANCH  25  32
ATOM     32  C   UNL     1     -30.254 -64.708  52.788  1.00  0.00     0.017 A 
ATOM     33  C   UNL     1     -31.654 -64.671  52.782  1.00  0.00     0.012 A 
ATOM     34  C   UNL     1     -29.529 -63.933  51.868  1.00  0.00     0.012 A 
ATOM     35  C   UNL     1     -32.330 -63.912  51.824  1.00  0.00     0.001 A 
ATOM     36  C   UNL     1     -30.209 -63.187  50.896  1.00  0.00     0.001 A 
ATOM     37  C   UNL     1     -31.607 -63.180  50.875  1.00  0.00     0.000 A 
ENDBRANCH  25  32
ENDBRANCH   1  17
TORSDOF 9
ENDMDL
MODEL 4
REMARK VINA RESULT:    -5.488      6.697      9.696
REMARK INTER + INTRA:          -9.611
REMARK INTER:                  -8.052
REMARK INTRA:                  -1.559
REMARK UNBOUND:                -1.877
REMARK SMILES COc1c(O[C@H]2O[C@@H](C(=O)[O-])[C@@H](O)[C@@H](O)[C@@H]2O)cc(O)c2c(=O)cc(-c3ccccc3)oc12
REMARK SMILES IDX 5 1 6 2 8 3 12 4 7 5 14 6 16 7 9 8 10 9 11 10 13 11 15 13
REMARK SMILES IDX 17 15 4 17 3 18 18 19 33 20 19 21 21 22 32 23 22 24 25 25
REMARK SMILES IDX 24 26 23 27 2 28 1 29 20 30 26 32 27 33 31 34 28 35 30 36
REMARK SMILES IDX 29 37
REMARK H PARENT 13 12 15 14 17 16 20 31
REMARK Flexibility Score: inf
ROOT
ATOM      1  O   UNL     1     -26.961 -66.128  56.258  1.00  0.00    -0.458 OA
ENDROOT
BRANCH   1   2
ATOM      2  C   UNL     1     -28.149 -66.849  56.593  1.00  0.00     0.339 C 
ATOM      3  C   UNL     1     -29.692 -65.261  55.706  1.00  0.00     0.199 C 
ATOM      4  C   UNL     1     -30.084 -66.219  54.546  1.00  0.00     0.180 C 
ATOM      5  O   UNL     1     -29.240 -65.968  56.858  1.00  0.00    -0.328 OA
ATOM      6  C   UNL     1     -28.947 -67.202  54.210  1.00  0.00     0.181 C 
ATOM      7  C   UNL     1     -28.472 -67.890  55.497  1.00  0.00     0.214 C 
BRANCH   3   8
ATOM      8  C   UNL     1     -28.750 -64.129  55.349  1.00  0.00     0.073 C 
ATOM      9  O   UNL     1     -28.359 -63.939  54.168  1.00  0.00    -0.547 OA
ATOM     10  O   UNL     1     -28.349 -63.250  56.348  1.00  0.00    -0.547 OA
ENDBRANCH   3   8
BRANCH   4  11
ATOM     11  O   UNL     1     -30.498 -65.496  53.415  1.00  0.00    -0.387 OA
ATOM     12  H   UNL     1     -29.908 -64.696  53.362  1.00  0.00     0.211 HD
ENDBRANCH   4  11
BRANCH   6  13
ATOM     13  O   UNL     1     -27.895 -66.529  53.563  1.00  0.00    -0.387 OA
ATOM     14  H   UNL     1     -27.043 -66.925  53.904  1.00  0.00     0.211 HD
ENDBRANCH   6  13
BRANCH   7  15
ATOM     15  O   UNL     1     -29.461 -68.781  55.944  1.00  0.00    -0.384 OA
ATOM     16  H   UNL     1     -29.159 -69.116  56.832  1.00  0.00     0.211 HD
ENDBRANCH   7  15
ENDBRANCH   1   2
BRANCH   1  17
ATOM     17  C   UNL     1     -25.687 -66.363  56.792  1.00  0.00     0.172 A 
ATOM     18  C   UNL     1     -24.794 -65.287  56.865  1.00  0.00     0.205 A 
ATOM     19  C   UNL     1     -25.289 -67.629  57.247  1.00  0.00     0.097 A 
ATOM     20  C   UNL     1     -23.472 -65.493  57.315  1.00  0.00     0.188 A 
ATOM     21  C   UNL     1     -23.990 -67.847  57.724  1.00  0.00     0.134 A 
ATOM     22  C   UNL     1     -23.061 -66.783  57.745  1.00  0.00     0.111 A 
ATOM     23  O   UNL     1     -22.606 -64.482  57.315  1.00  0.00    -0.452 OA
ATOM     24  C   UNL     1     -21.733 -66.934  58.204  1.00  0.00     0.197 A 
ATOM     25  C   UNL     1     -21.340 -64.611  57.701  1.00  0.00     0.138 A 
ATOM     26  C   UNL     1     -20.863 -65.844  58.169  1.00  0.00     0.100 A 
ATOM     27  O   UNL     1     -21.320 -68.033  58.664  1.00  0.00    -0.289 OA
BRANCH  18  28
ATOM     28  O   UNL     1     -25.263 -64.040  56.434  1.00  0.00    -0.490 OA
ATOM     29  C   UNL     1     -25.005 -63.454  55.158  1.00  0.00     0.278 C 
ENDBRANCH  18  28
BRANCH  21  30
ATOM     30  O   UNL     1     -23.633 -69.125  58.169  1.00  0.00    -0.507 OA
ATOM     31  H   UNL     1     -23.858 -69.423  59.116  1.00  0.00     0.293 HD
ENDBRANCH  21  30
BRANCH  25  32
ATOM     32  C   UNL     1     -20.446 -63.449  57.614  1.00  0.00     0.017 A 
ATOM     33  C   UNL     1     -20.699 -62.320  58.405  1.00  0.00     0.012 A 
ATOM     34  C   UNL     1     -19.273 -63.517  56.845  1.00  0.00     0.012 A 
ATOM     35  C   UNL     1     -19.817 -61.238  58.380  1.00  0.00     0.001 A 
ATOM     36  C   UNL     1     -18.399 -62.423  56.807  1.00  0.00     0.001 A 
ATOM     37  C   UNL     1     -18.674 -61.285  57.573  1.00  0.00     0.000 A 
ENDBRANCH  25  32
ENDBRANCH   1  17
TORSDOF 9
ENDMDL
MODEL 5
REMARK VINA RESULT:    -5.449      6.316      9.381
REMARK INTER + INTRA:          -9.557
REMARK INTER:                  -7.947
REMARK INTRA:                  -1.610
REMARK UNBOUND:                -1.877
REMARK SMILES COc1c(O[C@H]2O[C@@H](C(=O)[O-])[C@@H](O)[C@@H](O)[C@@H]2O)cc(O)c2c(=O)cc(-c3ccccc3)oc12
REMARK SMILES IDX 5 1 6 2 8 3 12 4 7 5 14 6 16 7 9 8 10 9 11 10 13 11 15 13
REMARK SMILES IDX 17 15 4 17 3 18 18 19 33 20 19 21 21 22 32 23 22 24 25 25
REMARK SMILES IDX 24 26 23 27 2 28 1 29 20 30 26 32 27 33 31 34 28 35 30 36
REMARK SMILES IDX 29 37
REMARK H PARENT 13 12 15 14 17 16 20 31
REMARK Flexibility Score: inf
ROOT
ATOM      1  O   UNL     1     -27.514 -66.216  55.812  1.00  0.00    -0.458 OA
ENDROOT
BRANCH   1   2
ATOM      2  C   UNL     1     -27.825 -66.535  54.454  1.00  0.00     0.339 C 
ATOM      3  C   UNL     1     -30.177 -66.788  54.764  1.00  0.00     0.199 C 
ATOM      4  C   UNL     1     -30.470 -65.490  53.962  1.00  0.00     0.180 C 
ATOM      5  O   UNL     1     -28.954 -67.403  54.365  1.00  0.00    -0.328 OA
ATOM      6  C   UNL     1     -29.286 -64.507  54.016  1.00  0.00     0.181 C 
ATOM      7  C   UNL     1     -27.996 -65.242  53.626  1.00  0.00     0.214 C 
BRANCH   3   8
ATOM      8  C   UNL     1     -30.270 -66.678  56.272  1.00  0.00     0.073 C 
ATOM      9  O   UNL     1     -30.709 -65.643  56.836  1.00  0.00    -0.547 OA
ATOM     10  O   UNL     1     -29.907 -67.772  57.049  1.00  0.00    -0.547 OA
ENDBRANCH   3   8
BRANCH   4  11
ATOM     11  O   UNL     1     -31.665 -64.890  54.396  1.00  0.00    -0.387 OA
ATOM     12  H   UNL     1     -32.110 -65.552  54.991  1.00  0.00     0.211 HD
ENDBRANCH   4  11
BRANCH   6  13
ATOM     13  O   UNL     1     -29.188 -63.930  55.294  1.00  0.00    -0.387 OA
ATOM     14  H   UNL     1     -29.541 -62.998  55.221  1.00  0.00     0.211 HD
ENDBRANCH   6  13
BRANCH   7  15
ATOM     15  O   UNL     1     -28.024 -65.539  52.253  1.00  0.00    -0.384 OA
ATOM     16  H   UNL     1     -27.225 -66.104  52.070  1.00  0.00     0.211 HD
ENDBRANCH   7  15
ENDBRANCH   1   2
BRANCH   1  17
ATOM     17  C   UNL     1     -26.248 -66.318  56.405  1.00  0.00     0.172 A 
ATOM     18  C   UNL     1     -25.468 -65.160  56.499  1.00  0.00     0.205 A 
ATOM     19  C   UNL     1     -25.750 -67.535  56.897  1.00  0.00     0.097 A 
ATOM     20  C   UNL     1     -24.154 -65.230  57.010  1.00  0.00     0.188 A 
ATOM     21  C   UNL     1     -24.459 -67.618  57.434  1.00  0.00     0.134 A 
ATOM     22  C   UNL     1     -23.639 -66.469  57.478  1.00  0.00     0.111 A 
ATOM     23  O   UNL     1     -23.391 -64.139  57.031  1.00  0.00    -0.452 OA
ATOM     24  C   UNL     1     -22.325 -66.484  57.997  1.00  0.00     0.197 A 
ATOM     25  C   UNL     1     -22.138 -64.139  57.474  1.00  0.00     0.138 A 
ATOM     26  C   UNL     1     -21.564 -65.314  57.982  1.00  0.00     0.100 A 
ATOM     27  O   UNL     1     -21.828 -67.531  58.492  1.00  0.00    -0.289 OA
BRANCH  18  28
ATOM     28  O   UNL     1     -26.037 -63.970  56.028  1.00  0.00    -0.490 OA
ATOM     29  C   UNL     1     -26.471 -62.881  56.843  1.00  0.00     0.278 C 
ENDBRANCH  18  28
BRANCH  21  30
ATOM     30  O   UNL     1     -24.000 -68.850  57.915  1.00  0.00    -0.507 OA
ATOM     31  H   UNL     1     -23.113 -68.912  58.412  1.00  0.00     0.293 HD
ENDBRANCH  21  30
BRANCH  25  32
ATOM     32  C   UNL     1     -21.358 -62.896  57.408  1.00  0.00     0.017 A 
ATOM     33  C   UNL     1     -20.393 -62.631  58.388  1.00  0.00     0.012 A 
ATOM     34  C   UNL     1     -21.484 -62.042  56.300  1.00  0.00     0.012 A 
ATOM     35  C   UNL     1     -19.600 -61.485  58.296  1.00  0.00     0.001 A 
ATOM     36  C   UNL     1     -20.700 -60.884  56.219  1.00  0.00     0.001 A 
ATOM     37  C   UNL     1     -19.761 -60.607  57.219  1.00  0.00     0.000 A 
ENDBRANCH  25  32
ENDBRANCH   1  17
TORSDOF 9
ENDMDL
MODEL 6
REMARK VINA RESULT:    -5.427      8.394     10.044
REMARK INTER + INTRA:          -9.525
REMARK INTER:                  -7.760
REMARK INTRA:                  -1.765
REMARK UNBOUND:                -1.877
REMARK SMILES COc1c(O[C@H]2O[C@@H](C(=O)[O-])[C@@H](O)[C@@H](O)[C@@H]2O)cc(O)c2c(=O)cc(-c3ccccc3)oc12
REMARK SMILES IDX 5 1 6 2 8 3 12 4 7 5 14 6 16 7 9 8 10 9 11 10 13 11 15 13
REMARK SMILES IDX 17 15 4 17 3 18 18 19 33 20 19 21 21 22 32 23 22 24 25 25
REMARK SMILES IDX 24 26 23 27 2 28 1 29 20 30 26 32 27 33 31 34 28 35 30 36
REMARK SMILES IDX 29 37
REMARK H PARENT 13 12 15 14 17 16 20 31
REMARK Flexibility Score: inf
ROOT
ATOM      1  O   UNL     1     -21.980 -65.948  55.608  1.00  0.00    -0.458 OA
ENDROOT
BRANCH   1   2
ATOM      2  C   UNL     1     -20.937 -66.908  55.428  1.00  0.00     0.339 C 
ATOM      3  C   UNL     1     -19.286 -65.763  56.713  1.00  0.00     0.199 C 
ATOM      4  C   UNL     1     -19.346 -66.837  57.834  1.00  0.00     0.180 C 
ATOM      5  O   UNL     1     -19.650 -66.292  55.440  1.00  0.00    -0.328 OA
ATOM      6  C   UNL     1     -20.713 -67.545  57.874  1.00  0.00     0.181 C 
ATOM      7  C   UNL     1     -21.069 -68.044  56.467  1.00  0.00     0.214 C 
BRANCH   3   8
ATOM      8  C   UNL     1     -20.008 -64.461  56.994  1.00  0.00     0.073 C 
ATOM      9  O   UNL     1     -20.559 -64.234  58.103  1.00  0.00    -0.547 OA
ATOM     10  O   UNL     1     -20.018 -63.473  56.017  1.00  0.00    -0.547 OA
ENDBRANCH   3   8
BRANCH   4  11
ATOM     11  O   UNL     1     -19.010 -66.282  59.080  1.00  0.00    -0.387 OA
ATOM     12  H   UNL     1     -18.422 -65.501  58.891  1.00  0.00     0.211 HD
ENDBRANCH   4  11
BRANCH   6  13
ATOM     13  O   UNL     1     -21.697 -66.677  58.380  1.00  0.00    -0.387 OA
ATOM     14  H   UNL     1     -21.304 -65.758  58.376  1.00  0.00     0.211 HD
ENDBRANCH   6  13
BRANCH   7  15
ATOM     15  O   UNL     1     -20.231 -69.118  56.126  1.00  0.00    -0.384 OA
ATOM     16  H   UNL     1     -20.440 -69.351  55.181  1.00  0.00     0.211 HD
ENDBRANCH   7  15
ENDBRANCH   1   2
BRANCH   1  17
ATOM     17  C   UNL     1     -23.229 -65.969  54.971  1.00  0.00     0.172 A 
ATOM     18  C   UNL     1     -24.376 -66.027  55.769  1.00  0.00     0.205 A 
ATOM     19  C   UNL     1     -23.353 -65.936  53.573  1.00  0.00     0.097 A 
ATOM     20  C   UNL     1     -25.651 -66.137  55.172  1.00  0.00     0.188 A 
ATOM     21  C   UNL     1     -24.612 -66.014  52.962  1.00  0.00     0.134 A 
ATOM     22  C   UNL     1     -25.773 -66.136  53.756  1.00  0.00     0.111 A 
ATOM     23  O   UNL     1     -26.733 -66.264  55.936  1.00  0.00    -0.452 OA
ATOM     24  C   UNL     1     -27.072 -66.229  53.206  1.00  0.00     0.197 A 
ATOM     25  C   UNL     1     -27.960 -66.398  55.439  1.00  0.00     0.138 A 
ATOM     26  C   UNL     1     -28.171 -66.375  54.053  1.00  0.00     0.100 A 
ATOM     27  O   UNL     1     -27.262 -66.166  51.962  1.00  0.00    -0.289 OA
BRANCH  18  28
ATOM     28  O   UNL     1     -24.188 -66.016  57.157  1.00  0.00    -0.490 OA
ATOM     29  C   UNL     1     -24.373 -64.885  58.008  1.00  0.00     0.278 C 
ENDBRANCH  18  28
BRANCH  21  30
ATOM     30  O   UNL     1     -24.694 -65.977  51.565  1.00  0.00    -0.507 OA
ATOM     31  H   UNL     1     -25.018 -66.790  51.045  1.00  0.00     0.293 HD
ENDBRANCH  21  30
BRANCH  25  32
ATOM     32  C   UNL     1     -29.086 -66.586  56.363  1.00  0.00     0.017 A 
ATOM     33  C   UNL     1     -30.206 -65.749  56.269  1.00  0.00     0.012 A 
ATOM     34  C   UNL     1     -29.100 -67.678  57.246  1.00  0.00     0.012 A 
ATOM     35  C   UNL     1     -31.310 -65.963  57.097  1.00  0.00     0.001 A 
ATOM     36  C   UNL     1     -30.201 -67.880  58.089  1.00  0.00     0.001 A 
ATOM     37  C   UNL     1     -31.302 -67.021  58.014  1.00  0.00     0.000 A 
ENDBRANCH  25  32
ENDBRANCH   1  17
TORSDOF 9
ENDMDL
MODEL 7
REMARK VINA RESULT:    -5.355      5.836      8.228
REMARK INTER + INTRA:          -9.424
REMARK INTER:                  -7.592
REMARK INTRA:                  -1.832
REMARK UNBOUND:                -1.877
REMARK SMILES COc1c(O[C@H]2O[C@@H](C(=O)[O-])[C@@H](O)[C@@H](O)[C@@H]2O)cc(O)c2c(=O)cc(-c3ccccc3)oc12
REMARK SMILES IDX 5 1 6 2 8 3 12 4 7 5 14 6 16 7 9 8 10 9 11 10 13 11 15 13
REMARK SMILES IDX 17 15 4 17 3 18 18 19 33 20 19 21 21 22 32 23 22 24 25 25
REMARK SMILES IDX 24 26 23 27 2 28 1 29 20 30 26 32 27 33 31 34 28 35 30 36
REMARK SMILES IDX 29 37
REMARK H PARENT 13 12 15 14 17 16 20 31
REMARK Flexibility Score: inf
ROOT
ATOM      1  O   UNL     1     -21.977 -63.413  57.130  1.00  0.00    -0.458 OA
ENDROOT
BRANCH   1   2
ATOM      2  C   UNL     1     -21.738 -64.818  57.231  1.00  0.00     0.339 C 
ATOM      3  C   UNL     1     -24.027 -65.477  57.361  1.00  0.00     0.199 C 
ATOM      4  C   UNL     1     -23.972 -66.115  55.945  1.00  0.00     0.180 C 
ATOM      5  O   UNL     1     -22.751 -65.468  57.997  1.00  0.00    -0.328 OA
ATOM      6  C   UNL     1     -22.893 -65.457  55.065  1.00  0.00     0.181 C 
ATOM      7  C   UNL     1     -21.560 -65.434  55.826  1.00  0.00     0.214 C 
BRANCH   3   8
ATOM      8  C   UNL     1     -24.699 -64.122  57.459  1.00  0.00     0.073 C 
ATOM      9  O   UNL     1     -25.240 -63.577  56.463  1.00  0.00    -0.547 OA
ATOM     10  O   UNL     1     -24.761 -63.491  58.696  1.00  0.00    -0.547 OA
ENDBRANCH   3   8
BRANCH   4  11
ATOM     11  O   UNL     1     -25.235 -66.084  55.331  1.00  0.00    -0.387 OA
ATOM     12  H   UNL     1     -25.165 -66.650  54.515  1.00  0.00     0.211 HD
ENDBRANCH   4  11
BRANCH   6  13
ATOM     13  O   UNL     1     -23.295 -64.165  54.682  1.00  0.00    -0.387 OA
ATOM     14  H   UNL     1     -24.261 -64.078  54.924  1.00  0.00     0.211 HD
ENDBRANCH   6  13
BRANCH   7  15
ATOM     15  O   UNL     1     -21.054 -66.740  55.924  1.00  0.00    -0.384 OA
ATOM     16  H   UNL     1     -21.772 -67.291  56.338  1.00  0.00     0.211 HD
ENDBRANCH   7  15
ENDBRANCH   1   2
BRANCH   1  17
ATOM     17  C   UNL     1     -20.992 -62.415  57.127  1.00  0.00     0.172 A 
ATOM     18  C   UNL     1     -20.979 -61.505  56.064  1.00  0.00     0.205 A 
ATOM     19  C   UNL     1     -20.033 -62.310  58.146  1.00  0.00     0.097 A 
ATOM     20  C   UNL     1     -19.955 -60.536  55.973  1.00  0.00     0.188 A 
ATOM     21  C   UNL     1     -19.026 -61.337  58.088  1.00  0.00     0.134 A 
ATOM     22  C   UNL     1     -18.966 -60.452  56.989  1.00  0.00     0.111 A 
ATOM     23  O   UNL     1     -19.906 -59.720  54.923  1.00  0.00    -0.452 OA
ATOM     24  C   UNL     1     -17.973 -59.454  56.862  1.00  0.00     0.197 A 
ATOM     25  C   UNL     1     -18.956 -58.803  54.761  1.00  0.00     0.138 A 
ATOM     26  C   UNL     1     -17.960 -58.634  55.733  1.00  0.00     0.100 A 
ATOM     27  O   UNL     1     -17.104 -59.277  57.757  1.00  0.00    -0.289 OA
BRANCH  18  28
ATOM     28  O   UNL     1     -21.987 -61.636  55.101  1.00  0.00    -0.490 OA
ATOM     29  C   UNL     1     -23.153 -60.818  55.006  1.00  0.00     0.278 C 
ENDBRANCH  18  28
BRANCH  21  30
ATOM     30  O   UNL     1     -18.089 -61.265  59.124  1.00  0.00    -0.507 OA
ATOM     31  H   UNL     1     -18.149 -60.528  59.825  1.00  0.00     0.293 HD
ENDBRANCH  21  30
BRANCH  25  32
ATOM     32  C   UNL     1     -18.957 -57.984  53.542  1.00  0.00     0.017 A 
ATOM     33  C   UNL     1     -19.274 -56.622  53.623  1.00  0.00     0.012 A 
ATOM     34  C   UNL     1     -18.515 -58.529  52.325  1.00  0.00     0.012 A 
ATOM     35  C   UNL     1     -19.211 -55.820  52.481  1.00  0.00     0.001 A 
ATOM     36  C   UNL     1     -18.470 -57.728  51.177  1.00  0.00     0.001 A 
ATOM     37  C   UNL     1     -18.820 -56.375  51.257  1.00  0.00     0.000 A 
ENDBRANCH  25  32
ENDBRANCH   1  17
TORSDOF 9
ENDMDL
MODEL 8
REMARK VINA RESULT:    -5.351      8.295      9.920
REMARK INTER + INTRA:          -9.418
REMARK INTER:                  -7.508
REMARK INTRA:                  -1.910
REMARK UNBOUND:                -1.877
REMARK SMILES COc1c(O[C@H]2O[C@@H](C(=O)[O-])[C@@H](O)[C@@H](O)[C@@H]2O)cc(O)c2c(=O)cc(-c3ccccc3)oc12
REMARK SMILES IDX 5 1 6 2 8 3 12 4 7 5 14 6 16 7 9 8 10 9 11 10 13 11 15 13
REMARK SMILES IDX 17 15 4 17 3 18 18 19 33 20 19 21 21 22 32 23 22 24 25 25
REMARK SMILES IDX 24 26 23 27 2 28 1 29 20 30 26 32 27 33 31 34 28 35 30 36
REMARK SMILES IDX 29 37
REMARK H PARENT 13 12 15 14 17 16 20 31
REMARK Flexibility Score: inf
ROOT
ATOM      1  O   UNL     1     -22.711 -66.141  54.950  1.00  0.00    -0.458 OA
ENDROOT
BRANCH   1   2
ATOM      2  C   UNL     1     -21.651 -66.899  54.364  1.00  0.00     0.339 C 
ATOM      3  C   UNL     1     -20.361 -67.151  56.353  1.00  0.00     0.199 C 
ATOM      4  C   UNL     1     -20.683 -68.669  56.427  1.00  0.00     0.180 C 
ATOM      5  O   UNL     1     -20.407 -66.655  55.018  1.00  0.00    -0.328 OA
ATOM      6  C   UNL     1     -22.017 -69.003  55.734  1.00  0.00     0.181 C 
ATOM      7  C   UNL     1     -22.023 -68.398  54.323  1.00  0.00     0.214 C 
BRANCH   3   8
ATOM      8  C   UNL     1     -21.135 -66.256  57.300  1.00  0.00     0.073 C 
ATOM      9  O   UNL     1     -21.851 -66.727  58.221  1.00  0.00    -0.547 OA
ATOM     10  O   UNL     1     -21.008 -64.878  57.176  1.00  0.00    -0.547 OA
ENDBRANCH   3   8
BRANCH   4  11
ATOM     11  O   UNL     1     -20.659 -69.125  57.756  1.00  0.00    -0.387 OA
ATOM     12  H   UNL     1     -21.607 -69.171  58.054  1.00  0.00     0.211 HD
ENDBRANCH   4  11
BRANCH   6  13
ATOM     13  O   UNL     1     -23.098 -68.535  56.503  1.00  0.00    -0.387 OA
ATOM     14  H   UNL     1     -22.771 -68.454  57.444  1.00  0.00     0.211 HD
ENDBRANCH   6  13
BRANCH   7  15
ATOM     15  O   UNL     1     -21.124 -69.104  53.507  1.00  0.00    -0.384 OA
ATOM     16  H   UNL     1     -21.058 -68.597  52.654  1.00  0.00     0.211 HD
ENDBRANCH   7  15
ENDBRANCH   1   2
BRANCH   1  17
ATOM     17  C   UNL     1     -23.985 -65.953  54.395  1.00  0.00     0.172 A 
ATOM     18  C   UNL     1     -25.091 -66.001  55.250  1.00  0.00     0.205 A 
ATOM     19  C   UNL     1     -24.174 -65.723  53.023  1.00  0.00     0.097 A 
ATOM     20  C   UNL     1     -26.398 -65.902  54.725  1.00  0.00     0.188 A 
ATOM     21  C   UNL     1     -25.462 -65.594  52.487  1.00  0.00     0.134 A 
ATOM     22  C   UNL     1     -26.589 -65.702  53.332  1.00  0.00     0.111 A 
ATOM     23  O   UNL     1     -27.449 -66.021  55.534  1.00  0.00    -0.452 OA
ATOM     24  C   UNL     1     -27.916 -65.592  52.857  1.00  0.00     0.197 A 
ATOM     25  C   UNL     1     -28.705 -65.964  55.103  1.00  0.00     0.138 A 
ATOM     26  C   UNL     1     -28.981 -65.737  53.747  1.00  0.00     0.100 A 
ATOM     27  O   UNL     1     -28.160 -65.346  51.645  1.00  0.00    -0.289 OA
BRANCH  18  28
ATOM     28  O   UNL     1     -24.834 -66.192  56.614  1.00  0.00    -0.490 OA
ATOM     29  C   UNL     1     -24.779 -65.159  57.598  1.00  0.00     0.278 C 
ENDBRANCH  18  28
BRANCH  21  30
ATOM     30  O   UNL     1     -25.609 -65.365  51.115  1.00  0.00    -0.507 OA
ATOM     31  H   UNL     1     -26.173 -65.992  50.544  1.00  0.00     0.293 HD
ENDBRANCH  21  30
BRANCH  25  32
ATOM     32  C   UNL     1     -29.798 -66.158  56.065  1.00  0.00     0.017 A 
ATOM     33  C   UNL     1     -29.783 -67.272  56.914  1.00  0.00     0.012 A 
ATOM     34  C   UNL     1     -30.782 -65.169  56.224  1.00  0.00     0.012 A 
ATOM     35  C   UNL     1     -30.782 -67.430  57.878  1.00  0.00     0.001 A 
ATOM     36  C   UNL     1     -31.794 -65.338  57.179  1.00  0.00     0.001 A 
ATOM     37  C   UNL     1     -31.792 -66.469  58.002  1.00  0.00     0.000 A 
ENDBRANCH  25  32
ENDBRANCH   1  17
TORSDOF 9
ENDMDL
MODEL 9
REMARK VINA RESULT:    -5.348      7.530     10.369
REMARK INTER + INTRA:          -9.413
REMARK INTER:                  -7.542
REMARK INTRA:                  -1.871
REMARK UNBOUND:                -1.877
REMARK SMILES COc1c(O[C@H]2O[C@@H](C(=O)[O-])[C@@H](O)[C@@H](O)[C@@H]2O)cc(O)c2c(=O)cc(-c3ccccc3)oc12
REMARK SMILES IDX 5 1 6 2 8 3 12 4 7 5 14 6 16 7 9 8 10 9 11 10 13 11 15 13
REMARK SMILES IDX 17 15 4 17 3 18 18 19 33 20 19 21 21 22 32 23 22 24 25 25
REMARK SMILES IDX 24 26 23 27 2 28 1 29 20 30 26 32 27 33 31 34 28 35 30 36
REMARK SMILES IDX 29 37
REMARK H PARENT 13 12 15 14 17 16 20 31
REMARK Flexibility Score: inf
ROOT
ATOM      1  O   UNL     1     -20.165 -63.894  56.622  1.00  0.00    -0.458 OA
ENDROOT
BRANCH   1   2
ATOM      2  C   UNL     1     -19.255 -63.176  57.458  1.00  0.00     0.339 C 
ATOM      3  C   UNL     1     -18.306 -61.826  55.735  1.00  0.00     0.199 C 
ATOM      4  C   UNL     1     -18.988 -60.548  56.296  1.00  0.00     0.180 C 
ATOM      5  O   UNL     1     -18.075 -62.801  56.748  1.00  0.00    -0.328 OA
ATOM      6  C   UNL     1     -20.272 -60.883  57.078  1.00  0.00     0.181 C 
ATOM      7  C   UNL     1     -19.967 -61.972  58.115  1.00  0.00     0.214 C 
BRANCH   3   8
ATOM      8  C   UNL     1     -18.950 -62.446  54.512  1.00  0.00     0.073 C 
ATOM      9  O   UNL     1     -19.922 -61.902  53.926  1.00  0.00    -0.547 OA
ATOM     10  O   UNL     1     -18.418 -63.622  53.996  1.00  0.00    -0.547 OA
ENDBRANCH   3   8
BRANCH   4  11
ATOM     11  O   UNL     1     -19.230 -59.616  55.272  1.00  0.00    -0.387 OA
ATOM     12  H   UNL     1     -19.128 -58.715  55.682  1.00  0.00     0.211 HD
ENDBRANCH   4  11
BRANCH   6  13
ATOM     13  O   UNL     1     -21.293 -61.278  56.195  1.00  0.00    -0.387 OA
ATOM     14  H   UNL     1     -21.233 -60.680  55.396  1.00  0.00     0.211 HD
ENDBRANCH   6  13
BRANCH   7  15
ATOM     15  O   UNL     1     -19.173 -61.433  59.140  1.00  0.00    -0.384 OA
ATOM     16  H   UNL     1     -18.261 -61.315  58.759  1.00  0.00     0.211 HD
ENDBRANCH   7  15
ENDBRANCH   1   2
BRANCH   1  17
ATOM     17  C   UNL     1     -20.974 -64.965  57.026  1.00  0.00     0.172 A 
ATOM     18  C   UNL     1     -22.279 -65.032  56.526  1.00  0.00     0.205 A 
ATOM     19  C   UNL     1     -20.514 -65.955  57.908  1.00  0.00     0.097 A 
ATOM     20  C   UNL     1     -23.158 -66.044  56.970  1.00  0.00     0.188 A 
ATOM     21  C   UNL     1     -21.362 -66.984  58.339  1.00  0.00     0.134 A 
ATOM     22  C   UNL     1     -22.701 -67.027  57.889  1.00  0.00     0.111 A 
ATOM     23  O   UNL     1     -24.419 -66.060  56.547  1.00  0.00    -0.452 OA
ATOM     24  C   UNL     1     -23.612 -68.029  58.290  1.00  0.00     0.197 A 
ATOM     25  C   UNL     1     -25.306 -66.967  56.945  1.00  0.00     0.138 A 
ATOM     26  C   UNL     1     -24.928 -67.991  57.825  1.00  0.00     0.100 A 
ATOM     27  O   UNL     1     -23.258 -68.972  59.048  1.00  0.00    -0.289 OA
BRANCH  18  28
ATOM     28  O   UNL     1     -22.664 -64.038  55.618  1.00  0.00    -0.490 OA
ATOM     29  C   UNL     1     -22.662 -64.169  54.196  1.00  0.00     0.278 C 
ENDBRANCH  18  28
BRANCH  21  30
ATOM     30  O   UNL     1     -20.866 -67.953  59.218  1.00  0.00    -0.507 OA
ATOM     31  H   UNL     1     -20.068 -67.747  59.816  1.00  0.00     0.293 HD
ENDBRANCH  21  30
BRANCH  25  32
ATOM     32  C   UNL     1     -26.690 -66.872  56.462  1.00  0.00     0.017 A 
ATOM     33  C   UNL     1     -26.971 -66.130  55.307  1.00  0.00     0.012 A 
ATOM     34  C   UNL     1     -27.705 -67.624  57.075  1.00  0.00     0.012 A 
ATOM     35  C   UNL     1     -28.272 -66.089  54.802  1.00  0.00     0.001 A 
ATOM     36  C   UNL     1     -29.013 -67.567  56.578  1.00  0.00     0.001 A 
ATOM     37  C   UNL     1     -29.294 -66.798  55.443  1.00  0.00     0.000 A 
ENDBRANCH  25  32
ENDBRANCH   1  17
TORSDOF 9
ENDMDL
