MODEL 1
REMARK VINA RESULT:    -8.547      0.000      0.000
REMARK INTER + INTRA:         -15.618
REMARK INTER:                 -13.544
REMARK INTRA:                  -2.075
REMARK UNBOUND:                -2.075
REMARK SMILES C[C@@H]1O[C@@H](O[C@H]2CC[C@@]3(C)[C@H](CC[C@]4(C)[C@@H]3C=C[C@]35OC[C@@]6(CCC(C)(C)C[C@H]63)[C@@H](O)C[C@]54C)[C@]2(C)CO)[C@H](O)[C@H](O[C@@H]2O[C@@H](CO)[C@H](O)[C@H](O)[C@@H]2O)[C@H]1O
REMARK SMILES IDX 1 1 2 2 54 3 41 4 39 5 4 6 3 7 55 8 42 10 43 11 52 12 44 13
REMARK SMILES IDX 50 14 45 15 48 16 53 17 51 19 46 21 47 22 49 24 5 26 6 27
REMARK SMILES IDX 7 28 35 29 8 30 11 31 36 32 9 33 12 34 10 35 16 36 13 37
REMARK SMILES IDX 14 38 17 39 15 40 33 41 18 42 19 43 32 44 34 45 29 46 20 47
REMARK SMILES IDX 30 48 22 49 28 50 21 51 23 52 25 53 24 54 26 55 27 56 37 57
REMARK SMILES IDX 38 58 31 60 40 62
REMARK H PARENT 55 9 53 18 51 20 47 23 49 25 38 59 31 61 40 63
REMARK Flexibility Score: inf
ROOT
ATOM      1  C   UNL     1      37.452   9.795  64.334  1.00  0.00     0.041 C 
ATOM      2  C   UNL     1      36.637   9.169  63.198  1.00  0.00     0.150 C 
ATOM      3  C   UNL     1      35.211   8.748  63.731  1.00  0.00     0.175 C 
ATOM      4  C   UNL     1      34.110   9.106  62.708  1.00  0.00     0.186 C 
ATOM      5  C   UNL     1      34.642   8.718  61.307  1.00  0.00     0.202 C 
ATOM      6  C   UNL     1      35.940   9.538  60.983  1.00  0.00     0.282 C 
ATOM      7  O   UNL     1      36.525  10.113  62.139  1.00  0.00    -0.344 OA
ENDROOT
BRANCH   3   8
ATOM      8  O   UNL     1      35.140   7.378  64.114  1.00  0.00    -0.388 OA
ATOM      9  H   UNL     1      34.665   7.330  64.983  1.00  0.00     0.211 HD
ENDBRANCH   3   8
BRANCH   4  10
ATOM     10  O   UNL     1      33.945  10.523  62.769  1.00  0.00    -0.341 OA
BRANCH  10  11
ATOM     11  C   UNL     1      32.650  10.984  63.153  1.00  0.00     0.282 C 
ATOM     12  C   UNL     1      31.652  11.139  61.957  1.00  0.00     0.202 C 
ATOM     13  O   UNL     1      32.190  10.044  64.133  1.00  0.00    -0.341 OA
ATOM     14  C   UNL     1      30.549  10.056  62.001  1.00  0.00     0.179 C 
ATOM     15  C   UNL     1      30.823  10.141  64.528  1.00  0.00     0.178 C 
ATOM     16  C   UNL     1      29.824  10.189  63.334  1.00  0.00     0.177 C 
BRANCH  12  17
ATOM     17  O   UNL     1      32.288  11.259  60.710  1.00  0.00    -0.385 OA
ATOM     18  H   UNL     1      31.818  11.923  60.140  1.00  0.00     0.211 HD
ENDBRANCH  12  17
BRANCH  14  19
ATOM     19  O   UNL     1      31.076   8.757  61.880  1.00  0.00    -0.387 OA
ATOM     20  H   UNL     1      30.283   8.151  61.795  1.00  0.00     0.211 HD
ENDBRANCH  14  19
BRANCH  15  21
ATOM     21  C   UNL     1      30.602  11.278  65.545  1.00  0.00     0.191 C 
BRANCH  21  22
ATOM     22  O   UNL     1      30.100  12.427  64.887  1.00  0.00    -0.394 OA
ATOM     23  H   UNL     1      30.304  12.330  63.923  1.00  0.00     0.210 HD
ENDBRANCH  21  22
ENDBRANCH  15  21
BRANCH  16  24
ATOM     24  O   UNL     1      28.879   9.169  63.430  1.00  0.00    -0.387 OA
ATOM     25  H   UNL     1      28.297   9.191  62.614  1.00  0.00     0.211 HD
ENDBRANCH  16  24
ENDBRANCH  10  11
ENDBRANCH   4  10
BRANCH   6  26
ATOM     26  O   UNL     1      36.932   8.768  60.314  1.00  0.00    -0.346 OA
BRANCH  26  27
ATOM     27  C   UNL     1      37.507   9.406  59.181  1.00  0.00     0.130 C 
ATOM     28  C   UNL     1      38.663  10.316  59.598  1.00  0.00     0.033 C 
ATOM     29  C   UNL     1      38.007   8.311  58.183  1.00  0.00     0.020 C 
ATOM     30  C   UNL     1      39.247  11.044  58.385  1.00  0.00     0.010 C 
ATOM     31  C   UNL     1      38.741   8.944  56.917  1.00  0.00     0.006 C 
ATOM     32  C   UNL     1      38.991   7.338  58.910  1.00  0.00     0.017 C 
ATOM     33  C   UNL     1      39.782  10.119  57.236  1.00  0.00    -0.022 C 
ATOM     34  C   UNL     1      37.798   9.367  55.761  1.00  0.00     0.005 C 
ATOM     35  C   UNL     1      41.158   9.512  57.696  1.00  0.00     0.012 C 
ATOM     36  C   UNL     1      39.998  11.055  55.954  1.00  0.00     0.024 C 
ATOM     37  C   UNL     1      38.573   9.541  54.435  1.00  0.00     0.008 C 
ATOM     38  C   UNL     1      39.924  10.332  54.559  1.00  0.00    -0.017 C 
ATOM     39  C   UNL     1      41.169  12.045  56.030  1.00  0.00    -0.024 C 
ATOM     40  C   UNL     1      41.091   9.278  54.498  1.00  0.00     0.013 C 
ATOM     41  C   UNL     1      40.032  11.465  53.407  1.00  0.00     0.009 C 
ATOM     42  C   UNL     1      41.721  12.624  54.948  1.00  0.00     0.005 C 
ATOM     43  C   UNL     1      41.454  12.169  53.521  1.00  0.00     0.096 C 
ATOM     44  C   UNL     1      39.899  10.857  51.960  1.00  0.00     0.043 C 
ATOM     45  C   UNL     1      38.859  12.510  53.594  1.00  0.00     0.015 C 
ATOM     46  C   UNL     1      41.691  13.303  52.498  1.00  0.00     0.037 C 
ATOM     47  O   UNL     1      42.464  11.226  53.169  1.00  0.00    -0.369 OA
ATOM     48  C   UNL     1      40.443  11.810  50.855  1.00  0.00     0.124 C 
ATOM     49  C   UNL     1      41.824  12.473  51.232  1.00  0.00     0.026 C 
ATOM     50  C   UNL     1      40.834  14.573  52.301  1.00  0.00     0.014 C 
ATOM     51  C   UNL     1      42.795  11.423  51.796  1.00  0.00     0.171 C 
ATOM     52  C   UNL     1      42.407  13.309  50.044  1.00  0.00     0.013 C 
ATOM     53  C   UNL     1      41.381  15.461  51.115  1.00  0.00    -0.035 C 
ATOM     54  C   UNL     1      42.600  14.813  50.374  1.00  0.00     0.007 C 
ATOM     55  C   UNL     1      41.852  16.825  51.665  1.00  0.00     0.011 C 
ATOM     56  C   UNL     1      40.259  15.718  50.087  1.00  0.00     0.011 C 
BRANCH  29  57
ATOM     57  C   UNL     1      36.796   7.402  57.783  1.00  0.00     0.165 C 
BRANCH  57  58
ATOM     58  O   UNL     1      35.564   8.051  57.960  1.00  0.00    -0.396 OA
ATOM     59  H   UNL     1      34.943   7.370  58.313  1.00  0.00     0.210 HD
ENDBRANCH  57  58
ENDBRANCH  29  57
BRANCH  48  60
ATOM     60  O   UNL     1      40.523  11.117  49.632  1.00  0.00    -0.392 OA
ATOM     61  H   UNL     1      39.712  11.318  49.099  1.00  0.00     0.210 HD
ENDBRANCH  48  60
ENDBRANCH  26  27
ENDBRANCH   6  26
BRANCH   5  62
ATOM     62  O   UNL     1      33.649   8.949  60.321  1.00  0.00    -0.385 OA
ATOM     63  H   UNL     1      33.144   8.103  60.237  1.00  0.00     0.211 HD
ENDBRANCH   5  62
TORSDOF 14
ENDMDL
MODEL 2
REMARK VINA RESULT:    -8.516      1.939      3.198
REMARK INTER + INTRA:         -15.569
REMARK INTER:                 -13.492
REMARK INTRA:                  -2.076
REMARK UNBOUND:                -2.075
REMARK SMILES C[C@@H]1O[C@@H](O[C@H]2CC[C@@]3(C)[C@H](CC[C@]4(C)[C@@H]3C=C[C@]35OC[C@@]6(CCC(C)(C)C[C@H]63)[C@@H](O)C[C@]54C)[C@]2(C)CO)[C@H](O)[C@H](O[C@@H]2O[C@@H](CO)[C@H](O)[C@H](O)[C@@H]2O)[C@H]1O
REMARK SMILES IDX 1 1 2 2 54 3 41 4 39 5 4 6 3 7 55 8 42 10 43 11 52 12 44 13
REMARK SMILES IDX 50 14 45 15 48 16 53 17 51 19 46 21 47 22 49 24 5 26 6 27
REMARK SMILES IDX 7 28 35 29 8 30 11 31 36 32 9 33 12 34 10 35 16 36 13 37
REMARK SMILES IDX 14 38 17 39 15 40 33 41 18 42 19 43 32 44 34 45 29 46 20 47
REMARK SMILES IDX 30 48 22 49 28 50 21 51 23 52 25 53 24 54 26 55 27 56 37 57
REMARK SMILES IDX 38 58 31 60 40 62
REMARK H PARENT 55 9 53 18 51 20 47 23 49 25 38 59 31 61 40 63
REMARK Flexibility Score: inf
ROOT
ATOM      1  C   UNL     1      35.992  11.143  67.592  1.00  0.00     0.041 C 
ATOM      2  C   UNL     1      35.537  10.314  66.388  1.00  0.00     0.150 C 
ATOM      3  C   UNL     1      34.095   9.727  66.656  1.00  0.00     0.175 C 
ATOM      4  C   UNL     1      33.211   9.834  65.393  1.00  0.00     0.186 C 
ATOM      5  C   UNL     1      34.086   9.419  64.185  1.00  0.00     0.202 C 
ATOM      6  C   UNL     1      35.307  10.397  64.050  1.00  0.00     0.282 C 
ATOM      7  O   UNL     1      35.542  11.143  65.232  1.00  0.00    -0.344 OA
ENDROOT
BRANCH   3   8
ATOM      8  O   UNL     1      34.119   8.397  67.164  1.00  0.00    -0.388 OA
ATOM      9  H   UNL     1      33.198   8.033  67.105  1.00  0.00     0.211 HD
ENDBRANCH   3   8
BRANCH   4  10
ATOM     10  O   UNL     1      32.856  11.211  65.262  1.00  0.00    -0.341 OA
BRANCH  10  11
ATOM     11  C   UNL     1      31.457  11.491  65.224  1.00  0.00     0.282 C 
ATOM     12  C   UNL     1      30.868  11.583  63.777  1.00  0.00     0.202 C 
ATOM     13  O   UNL     1      30.842  10.456  66.002  1.00  0.00    -0.341 OA
ATOM     14  C   UNL     1      29.957  10.374  63.462  1.00  0.00     0.179 C 
ATOM     15  C   UNL     1      29.419  10.367  65.949  1.00  0.00     0.178 C 
ATOM     16  C   UNL     1      28.843  10.353  64.502  1.00  0.00     0.177 C 
BRANCH  12  17
ATOM     17  O   UNL     1      31.838  11.840  62.793  1.00  0.00    -0.385 OA
ATOM     18  H   UNL     1      31.878  11.095  62.137  1.00  0.00     0.211 HD
ENDBRANCH  12  17
BRANCH  14  19
ATOM     19  O   UNL     1      30.659   9.156  63.501  1.00  0.00    -0.387 OA
ATOM     20  H   UNL     1      31.344   9.215  62.773  1.00  0.00     0.211 HD
ENDBRANCH  14  19
BRANCH  15  21
ATOM     21  C   UNL     1      28.748  11.418  66.855  1.00  0.00     0.191 C 
BRANCH  21  22
ATOM     22  O   UNL     1      28.043  10.777  67.902  1.00  0.00    -0.394 OA
ATOM     23  H   UNL     1      28.569  10.898  68.732  1.00  0.00     0.210 HD
ENDBRANCH  21  22
ENDBRANCH  15  21
BRANCH  16  24
ATOM     24  O   UNL     1      28.057   9.222  64.287  1.00  0.00    -0.387 OA
ATOM     25  H   UNL     1      28.089   8.646  65.107  1.00  0.00     0.211 HD
ENDBRANCH  16  24
ENDBRANCH  10  11
ENDBRANCH   4  10
BRANCH   6  26
ATOM     26  O   UNL     1      36.513   9.733  63.691  1.00  0.00    -0.346 OA
BRANCH  26  27
ATOM     27  C   UNL     1      36.922   9.944  62.345  1.00  0.00     0.130 C 
ATOM     28  C   UNL     1      38.101  10.915  62.281  1.00  0.00     0.033 C 
ATOM     29  C   UNL     1      37.313   8.568  61.714  1.00  0.00     0.020 C 
ATOM     30  C   UNL     1      38.507  11.184  60.830  1.00  0.00     0.010 C 
ATOM     31  C   UNL     1      37.862   8.726  60.225  1.00  0.00     0.006 C 
ATOM     32  C   UNL     1      38.405   7.872  62.590  1.00  0.00     0.017 C 
ATOM     33  C   UNL     1      38.909   9.917  59.997  1.00  0.00    -0.022 C 
ATOM     34  C   UNL     1      36.769   8.760  59.127  1.00  0.00     0.005 C 
ATOM     35  C   UNL     1      40.347   9.468  60.450  1.00  0.00     0.012 C 
ATOM     36  C   UNL     1      38.937  10.367  58.459  1.00  0.00     0.024 C 
ATOM     37  C   UNL     1      37.361   8.464  57.730  1.00  0.00     0.008 C 
ATOM     38  C   UNL     1      38.698   9.221  57.408  1.00  0.00    -0.017 C 
ATOM     39  C   UNL     1      40.085  11.299  58.048  1.00  0.00    -0.024 C 
ATOM     40  C   UNL     1      39.871   8.181  57.551  1.00  0.00     0.013 C 
ATOM     41  C   UNL     1      38.631   9.902  55.940  1.00  0.00     0.009 C 
ATOM     42  C   UNL     1      40.478  11.471  56.773  1.00  0.00     0.005 C 
ATOM     43  C   UNL     1      40.039  10.573  55.627  1.00  0.00     0.096 C 
ATOM     44  C   UNL     1      38.325   8.849  54.808  1.00  0.00     0.043 C 
ATOM     45  C   UNL     1      37.469  10.975  55.917  1.00  0.00     0.015 C 
ATOM     46  C   UNL     1      40.116  11.295  54.262  1.00  0.00     0.037 C 
ATOM     47  O   UNL     1      41.017   9.544  55.482  1.00  0.00    -0.369 OA
ATOM     48  C   UNL     1      38.700   9.367  53.388  1.00  0.00     0.124 C 
ATOM     49  C   UNL     1      40.103  10.087  53.340  1.00  0.00     0.026 C 
ATOM     50  C   UNL     1      39.212  12.444  53.766  1.00  0.00     0.014 C 
ATOM     51  C   UNL     1      41.163   9.265  54.091  1.00  0.00     0.171 C 
ATOM     52  C   UNL     1      40.508  10.465  51.876  1.00  0.00     0.013 C 
ATOM     53  C   UNL     1      39.580  12.874  52.292  1.00  0.00    -0.035 C 
ATOM     54  C   UNL     1      40.708  11.989  51.657  1.00  0.00     0.007 C 
ATOM     55  C   UNL     1      40.088  14.332  52.289  1.00  0.00     0.011 C 
ATOM     56  C   UNL     1      38.329  12.797  51.391  1.00  0.00     0.011 C 
BRANCH  29  57
ATOM     57  C   UNL     1      36.081   7.604  61.801  1.00  0.00     0.165 C 
BRANCH  57  58
ATOM     58  O   UNL     1      36.120   6.797  62.948  1.00  0.00    -0.396 OA
ATOM     59  H   UNL     1      36.948   7.039  63.426  1.00  0.00     0.210 HD
ENDBRANCH  57  58
ENDBRANCH  29  57
BRANCH  48  60
ATOM     60  O   UNL     1      38.637   8.303  52.468  1.00  0.00    -0.392 OA
ATOM     61  H   UNL     1      38.070   7.585  52.850  1.00  0.00     0.210 HD
ENDBRANCH  48  60
ENDBRANCH  26  27
ENDBRANCH   6  26
BRANCH   5  62
ATOM     62  O   UNL     1      33.315   9.420  62.995  1.00  0.00    -0.385 OA
ATOM     63  H   UNL     1      33.174  10.370  62.759  1.00  0.00     0.211 HD
ENDBRANCH   5  62
TORSDOF 14
ENDMDL
MODEL 3
REMARK VINA RESULT:    -8.118      5.654     12.537
REMARK INTER + INTRA:         -14.939
REMARK INTER:                 -12.746
REMARK INTRA:                  -2.193
REMARK UNBOUND:                -2.075
REMARK SMILES C[C@@H]1O[C@@H](O[C@H]2CC[C@@]3(C)[C@H](CC[C@]4(C)[C@@H]3C=C[C@]35OC[C@@]6(CCC(C)(C)C[C@H]63)[C@@H](O)C[C@]54C)[C@]2(C)CO)[C@H](O)[C@H](O[C@@H]2O[C@@H](CO)[C@H](O)[C@H](O)[C@@H]2O)[C@H]1O
REMARK SMILES IDX 1 1 2 2 54 3 41 4 39 5 4 6 3 7 55 8 42 10 43 11 52 12 44 13
REMARK SMILES IDX 50 14 45 15 48 16 53 17 51 19 46 21 47 22 49 24 5 26 6 27
REMARK SMILES IDX 7 28 35 29 8 30 11 31 36 32 9 33 12 34 10 35 16 36 13 37
REMARK SMILES IDX 14 38 17 39 15 40 33 41 18 42 19 43 32 44 34 45 29 46 20 47
REMARK SMILES IDX 30 48 22 49 28 50 21 51 23 52 25 53 24 54 26 55 27 56 37 57
REMARK SMILES IDX 38 58 31 60 40 62
REMARK H PARENT 55 9 53 18 51 20 47 23 49 25 38 59 31 61 40 63
REMARK Flexibility Score: inf
ROOT
ATOM      1  C   UNL     1      40.598  16.460  53.800  1.00  0.00     0.041 C 
ATOM      2  C   UNL     1      39.715  16.439  55.051  1.00  0.00     0.150 C 
ATOM      3  C   UNL     1      38.897  17.787  55.152  1.00  0.00     0.175 C 
ATOM      4  C   UNL     1      37.438  17.518  55.583  1.00  0.00     0.186 C 
ATOM      5  C   UNL     1      37.481  16.464  56.717  1.00  0.00     0.202 C 
ATOM      6  C   UNL     1      38.120  15.133  56.183  1.00  0.00     0.282 C 
ATOM      7  O   UNL     1      38.840  15.318  54.976  1.00  0.00    -0.344 OA
ENDROOT
BRANCH   3   8
ATOM      8  O   UNL     1      39.519  18.754  55.992  1.00  0.00    -0.388 OA
ATOM      9  H   UNL     1      39.084  19.629  55.820  1.00  0.00     0.211 HD
ENDBRANCH   3   8
BRANCH   4  10
ATOM     10  O   UNL     1      36.776  16.957  54.449  1.00  0.00    -0.341 OA
BRANCH  10  11
ATOM     11  C   UNL     1      35.651  17.687  53.961  1.00  0.00     0.282 C 
ATOM     12  C   UNL     1      34.279  17.188  54.527  1.00  0.00     0.202 C 
ATOM     13  O   UNL     1      35.915  19.056  54.293  1.00  0.00    -0.341 OA
ATOM     14  C   UNL     1      33.672  18.210  55.516  1.00  0.00     0.179 C 
ATOM     15  C   UNL     1      34.844  19.982  54.116  1.00  0.00     0.178 C 
ATOM     16  C   UNL     1      33.506  19.529  54.771  1.00  0.00     0.177 C 
BRANCH  12  17
ATOM     17  O   UNL     1      34.321  15.872  55.018  1.00  0.00    -0.385 OA
ATOM     18  H   UNL     1      34.960  15.322  54.492  1.00  0.00     0.211 HD
ENDBRANCH  12  17
BRANCH  14  19
ATOM     19  O   UNL     1      34.489  18.407  56.643  1.00  0.00    -0.387 OA
ATOM     20  H   UNL     1      33.945  18.957  57.278  1.00  0.00     0.211 HD
ENDBRANCH  14  19
BRANCH  15  21
ATOM     21  C   UNL     1      34.684  20.392  52.638  1.00  0.00     0.191 C 
BRANCH  21  22
ATOM     22  O   UNL     1      33.655  19.631  52.032  1.00  0.00    -0.394 OA
ATOM     23  H   UNL     1      33.730  19.758  51.053  1.00  0.00     0.210 HD
ENDBRANCH  21  22
ENDBRANCH  15  21
BRANCH  16  24
ATOM     24  O   UNL     1      33.037  20.489  55.667  1.00  0.00    -0.387 OA
ATOM     25  H   UNL     1      32.204  20.901  55.291  1.00  0.00     0.211 HD
ENDBRANCH  16  24
ENDBRANCH  10  11
ENDBRANCH   4  10
BRANCH   6  26
ATOM     26  O   UNL     1      38.983  14.512  57.129  1.00  0.00    -0.346 OA
BRANCH  26  27
ATOM     27  C   UNL     1      38.381  14.253  58.392  1.00  0.00     0.130 C 
ATOM     28  C   UNL     1      37.897  12.806  58.476  1.00  0.00     0.033 C 
ATOM     29  C   UNL     1      39.425  14.547  59.518  1.00  0.00     0.020 C 
ATOM     30  C   UNL     1      37.203  12.541  59.813  1.00  0.00     0.010 C 
ATOM     31  C   UNL     1      38.855  14.202  60.967  1.00  0.00     0.006 C 
ATOM     32  C   UNL     1      40.725  13.714  59.270  1.00  0.00     0.017 C 
ATOM     33  C   UNL     1      38.073  12.809  61.091  1.00  0.00    -0.022 C 
ATOM     34  C   UNL     1      38.030  15.336  61.630  1.00  0.00     0.005 C 
ATOM     35  C   UNL     1      39.098  11.626  61.243  1.00  0.00     0.012 C 
ATOM     36  C   UNL     1      37.068  12.826  62.338  1.00  0.00     0.024 C 
ATOM     37  C   UNL     1      37.899  15.123  63.155  1.00  0.00     0.008 C 
ATOM     38  C   UNL     1      37.544  13.656  63.587  1.00  0.00    -0.017 C 
ATOM     39  C   UNL     1      36.466  11.472  62.739  1.00  0.00    -0.024 C 
ATOM     40  C   UNL     1      38.863  12.995  64.134  1.00  0.00     0.013 C 
ATOM     41  C   UNL     1      36.339  13.656  64.670  1.00  0.00     0.009 C 
ATOM     42  C   UNL     1      35.921  11.233  63.946  1.00  0.00     0.005 C 
ATOM     43  C   UNL     1      36.083  12.158  65.142  1.00  0.00     0.096 C 
ATOM     44  C   UNL     1      36.681  14.520  65.942  1.00  0.00     0.043 C 
ATOM     45  C   UNL     1      35.044  14.276  64.007  1.00  0.00     0.015 C 
ATOM     46  C   UNL     1      34.931  11.995  66.160  1.00  0.00     0.037 C 
ATOM     47  O   UNL     1      37.214  11.711  65.888  1.00  0.00    -0.369 OA
ATOM     48  C   UNL     1      35.775  14.179  67.162  1.00  0.00     0.124 C 
ATOM     49  C   UNL     1      35.583  12.628  67.378  1.00  0.00     0.026 C 
ATOM     50  C   UNL     1      33.458  12.420  65.974  1.00  0.00     0.014 C 
ATOM     51  C   UNL     1      36.930  11.894  67.274  1.00  0.00     0.171 C 
ATOM     52  C   UNL     1      34.789  12.322  68.691  1.00  0.00     0.013 C 
ATOM     53  C   UNL     1      32.604  12.128  67.270  1.00  0.00    -0.035 C 
ATOM     54  C   UNL     1      33.459  11.558  68.454  1.00  0.00     0.007 C 
ATOM     55  C   UNL     1      31.515  11.081  66.948  1.00  0.00     0.011 C 
ATOM     56  C   UNL     1      31.905  13.420  67.745  1.00  0.00     0.011 C 
BRANCH  29  57
ATOM     57  C   UNL     1      39.895  16.035  59.396  1.00  0.00     0.165 C 
BRANCH  57  58
ATOM     58  O   UNL     1      40.903  16.195  58.433  1.00  0.00    -0.396 OA
ATOM     59  H   UNL     1      40.761  15.482  57.765  1.00  0.00     0.210 HD
ENDBRANCH  57  58
ENDBRANCH  29  57
BRANCH  48  60
ATOM     60  O   UNL     1      36.289  14.799  68.317  1.00  0.00    -0.392 OA
ATOM     61  H   UNL     1      36.708  14.107  68.890  1.00  0.00     0.210 HD
ENDBRANCH  48  60
ENDBRANCH  26  27
ENDBRANCH   6  26
BRANCH   5  62
ATOM     62  O   UNL     1      36.177  16.224  57.217  1.00  0.00    -0.385 OA
ATOM     63  H   UNL     1      36.260  16.203  58.202  1.00  0.00     0.211 HD
ENDBRANCH   5  62
TORSDOF 14
ENDMDL
MODEL 4
REMARK VINA RESULT:    -8.089      4.040      5.599
REMARK INTER + INTRA:         -14.893
REMARK INTER:                 -13.125
REMARK INTRA:                  -1.768
REMARK UNBOUND:                -2.075
REMARK SMILES C[C@@H]1O[C@@H](O[C@H]2CC[C@@]3(C)[C@H](CC[C@]4(C)[C@@H]3C=C[C@]35OC[C@@]6(CCC(C)(C)C[C@H]63)[C@@H](O)C[C@]54C)[C@]2(C)CO)[C@H](O)[C@H](O[C@@H]2O[C@@H](CO)[C@H](O)[C@H](O)[C@@H]2O)[C@H]1O
REMARK SMILES IDX 1 1 2 2 54 3 41 4 39 5 4 6 3 7 55 8 42 10 43 11 52 12 44 13
REMARK SMILES IDX 50 14 45 15 48 16 53 17 51 19 46 21 47 22 49 24 5 26 6 27
REMARK SMILES IDX 7 28 35 29 8 30 11 31 36 32 9 33 12 34 10 35 16 36 13 37
REMARK SMILES IDX 14 38 17 39 15 40 33 41 18 42 19 43 32 44 34 45 29 46 20 47
REMARK SMILES IDX 30 48 22 49 28 50 21 51 23 52 25 53 24 54 26 55 27 56 37 57
REMARK SMILES IDX 38 58 31 60 40 62
REMARK H PARENT 55 9 53 18 51 20 47 23 49 25 38 59 31 61 40 63
REMARK Flexibility Score: inf
ROOT
ATOM      1  C   UNL     1      39.075   6.265  60.590  1.00  0.00     0.041 C 
ATOM      2  C   UNL     1      38.316   7.340  59.808  1.00  0.00     0.150 C 
ATOM      3  C   UNL     1      36.825   6.875  59.567  1.00  0.00     0.175 C 
ATOM      4  C   UNL     1      35.839   8.043  59.787  1.00  0.00     0.186 C 
ATOM      5  C   UNL     1      36.455   9.297  59.120  1.00  0.00     0.202 C 
ATOM      6  C   UNL     1      37.829   9.640  59.798  1.00  0.00     0.282 C 
ATOM      7  O   UNL     1      38.355   8.557  60.545  1.00  0.00    -0.344 OA
ENDROOT
BRANCH   3   8
ATOM      8  O   UNL     1      36.631   6.262  58.297  1.00  0.00    -0.388 OA
ATOM      9  H   UNL     1      36.702   5.280  58.419  1.00  0.00     0.211 HD
ENDBRANCH   3   8
BRANCH   4  10
ATOM     10  O   UNL     1      35.766   8.253  61.197  1.00  0.00    -0.341 OA
BRANCH  10  11
ATOM     11  C   UNL     1      34.468   8.534  61.719  1.00  0.00     0.282 C 
ATOM     12  C   UNL     1      34.471   9.543  62.916  1.00  0.00     0.202 C 
ATOM     13  O   UNL     1      33.707   9.011  60.602  1.00  0.00    -0.341 OA
ATOM     14  C   UNL     1      33.872  10.908  62.504  1.00  0.00     0.179 C 
ATOM     15  C   UNL     1      32.428   9.578  60.886  1.00  0.00     0.178 C 
ATOM     16  C   UNL     1      32.454  10.658  62.008  1.00  0.00     0.177 C 
BRANCH  12  17
ATOM     17  O   UNL     1      35.713   9.635  63.567  1.00  0.00    -0.385 OA
ATOM     18  H   UNL     1      36.355  10.163  63.022  1.00  0.00     0.211 HD
ENDBRANCH  12  17
BRANCH  14  19
ATOM     19  O   UNL     1      34.622  11.532  61.491  1.00  0.00    -0.387 OA
ATOM     20  H   UNL     1      33.976  11.705  60.746  1.00  0.00     0.211 HD
ENDBRANCH  14  19
BRANCH  15  21
ATOM     21  C   UNL     1      31.363   8.489  61.121  1.00  0.00     0.191 C 
BRANCH  21  22
ATOM     22  O   UNL     1      30.983   8.468  62.485  1.00  0.00    -0.394 OA
ATOM     23  H   UNL     1      31.696   7.995  62.984  1.00  0.00     0.210 HD
ENDBRANCH  21  22
ENDBRANCH  15  21
BRANCH  16  24
ATOM     24  O   UNL     1      31.923  11.864  61.553  1.00  0.00    -0.387 OA
ATOM     25  H   UNL     1      31.674  12.426  62.345  1.00  0.00     0.211 HD
ENDBRANCH  16  24
ENDBRANCH  10  11
ENDBRANCH   4  10
BRANCH   6  26
ATOM     26  O   UNL     1      38.818  10.065  58.867  1.00  0.00    -0.346 OA
BRANCH  26  27
ATOM     27  C   UNL     1      38.491  11.259  58.166  1.00  0.00     0.130 C 
ATOM     28  C   UNL     1      38.122  12.378  59.140  1.00  0.00     0.033 C 
ATOM     29  C   UNL     1      39.714  11.680  57.288  1.00  0.00     0.020 C 
ATOM     30  C   UNL     1      37.719  13.646  58.386  1.00  0.00     0.010 C 
ATOM     31  C   UNL     1      39.459  13.060  56.528  1.00  0.00     0.006 C 
ATOM     32  C   UNL     1      40.989  11.819  58.182  1.00  0.00     0.017 C 
ATOM     33  C   UNL     1      38.803  14.225  57.411  1.00  0.00    -0.022 C 
ATOM     34  C   UNL     1      38.711  12.931  55.176  1.00  0.00     0.005 C 
ATOM     35  C   UNL     1      39.909  14.936  58.274  1.00  0.00     0.012 C 
ATOM     36  C   UNL     1      38.061  15.298  56.481  1.00  0.00     0.024 C 
ATOM     37  C   UNL     1      38.893  14.195  54.307  1.00  0.00     0.008 C 
ATOM     38  C   UNL     1      38.719  15.554  55.075  1.00  0.00    -0.017 C 
ATOM     39  C   UNL     1      37.633  16.604  57.165  1.00  0.00    -0.024 C 
ATOM     40  C   UNL     1      40.158  16.145  55.314  1.00  0.00     0.013 C 
ATOM     41  C   UNL     1      37.750  16.557  54.250  1.00  0.00     0.009 C 
ATOM     42  C   UNL     1      37.349  17.734  56.491  1.00  0.00     0.005 C 
ATOM     43  C   UNL     1      37.684  17.946  55.023  1.00  0.00     0.096 C 
ATOM     44  C   UNL     1      38.280  16.831  52.792  1.00  0.00     0.043 C 
ATOM     45  C   UNL     1      36.315  15.904  54.121  1.00  0.00     0.015 C 
ATOM     46  C   UNL     1      36.765  19.001  54.366  1.00  0.00     0.037 C 
ATOM     47  O   UNL     1      38.964  18.572  54.954  1.00  0.00    -0.369 OA
ATOM     48  C   UNL     1      37.652  18.105  52.154  1.00  0.00     0.124 C 
ATOM     49  C   UNL     1      37.601  19.334  53.142  1.00  0.00     0.026 C 
ATOM     50  C   UNL     1      35.260  18.856  54.049  1.00  0.00     0.014 C 
ATOM     51  C   UNL     1      38.945  19.500  53.872  1.00  0.00     0.171 C 
ATOM     52  C   UNL     1      37.098  20.631  52.426  1.00  0.00     0.013 C 
ATOM     53  C   UNL     1      34.694  20.142  53.328  1.00  0.00    -0.035 C 
ATOM     54  C   UNL     1      35.797  21.217  53.035  1.00  0.00     0.007 C 
ATOM     55  C   UNL     1      33.630  20.811  54.224  1.00  0.00     0.011 C 
ATOM     56  C   UNL     1      34.024  19.749  51.995  1.00  0.00     0.011 C 
BRANCH  29  57
ATOM     57  C   UNL     1      40.059  10.509  56.307  1.00  0.00     0.165 C 
BRANCH  57  58
ATOM     58  O   UNL     1      38.991   9.612  56.157  1.00  0.00    -0.396 OA
ATOM     59  H   UNL     1      39.354   8.833  55.672  1.00  0.00     0.210 HD
ENDBRANCH  57  58
ENDBRANCH  29  57
BRANCH  48  60
ATOM     60  O   UNL     1      38.342  18.427  50.969  1.00  0.00    -0.392 OA
ATOM     61  H   UNL     1      38.037  19.316  50.656  1.00  0.00     0.210 HD
ENDBRANCH  48  60
ENDBRANCH  26  27
ENDBRANCH   6  26
BRANCH   5  62
ATOM     62  O   UNL     1      35.565  10.396  59.216  1.00  0.00    -0.385 OA
ATOM     63  H   UNL     1      34.720  10.034  59.580  1.00  0.00     0.211 HD
ENDBRANCH   5  62
TORSDOF 14
ENDMDL
MODEL 5
REMARK VINA RESULT:    -8.063      4.316      5.686
REMARK INTER + INTRA:         -14.851
REMARK INTER:                 -12.738
REMARK INTRA:                  -2.113
REMARK UNBOUND:                -2.075
REMARK SMILES C[C@@H]1O[C@@H](O[C@H]2CC[C@@]3(C)[C@H](CC[C@]4(C)[C@@H]3C=C[C@]35OC[C@@]6(CCC(C)(C)C[C@H]63)[C@@H](O)C[C@]54C)[C@]2(C)CO)[C@H](O)[C@H](O[C@@H]2O[C@@H](CO)[C@H](O)[C@H](O)[C@@H]2O)[C@H]1O
REMARK SMILES IDX 1 1 2 2 54 3 41 4 39 5 4 6 3 7 55 8 42 10 43 11 52 12 44 13
REMARK SMILES IDX 50 14 45 15 48 16 53 17 51 19 46 21 47 22 49 24 5 26 6 27
REMARK SMILES IDX 7 28 35 29 8 30 11 31 36 32 9 33 12 34 10 35 16 36 13 37
REMARK SMILES IDX 14 38 17 39 15 40 33 41 18 42 19 43 32 44 34 45 29 46 20 47
REMARK SMILES IDX 30 48 22 49 28 50 21 51 23 52 25 53 24 54 26 55 27 56 37 57
REMARK SMILES IDX 38 58 31 60 40 62
REMARK H PARENT 55 9 53 18 51 20 47 23 49 25 38 59 31 61 40 63
REMARK Flexibility Score: inf
ROOT
ATOM      1  C   UNL     1      36.795  10.833  67.633  1.00  0.00     0.041 C 
ATOM      2  C   UNL     1      36.058  10.593  66.312  1.00  0.00     0.150 C 
ATOM      3  C   UNL     1      34.683   9.867  66.589  1.00  0.00     0.175 C 
ATOM      4  C   UNL     1      33.555  10.468  65.721  1.00  0.00     0.186 C 
ATOM      5  C   UNL     1      34.133  10.678  64.300  1.00  0.00     0.202 C 
ATOM      6  C   UNL     1      35.337  11.683  64.357  1.00  0.00     0.282 C 
ATOM      7  O   UNL     1      35.851  11.846  65.668  1.00  0.00    -0.344 OA
ENDROOT
BRANCH   3   8
ATOM      8  O   UNL     1      34.758   8.454  66.440  1.00  0.00    -0.388 OA
ATOM      9  H   UNL     1      34.488   8.042  67.302  1.00  0.00     0.211 HD
ENDBRANCH   3   8
BRANCH   4  10
ATOM     10  O   UNL     1      33.238  11.739  66.289  1.00  0.00    -0.341 OA
BRANCH  10  11
ATOM     11  C   UNL     1      31.913  11.881  66.798  1.00  0.00     0.282 C 
ATOM     12  C   UNL     1      31.132  13.100  66.203  1.00  0.00     0.202 C 
ATOM     13  O   UNL     1      31.267  10.630  66.526  1.00  0.00    -0.341 OA
ATOM     14  C   UNL     1      30.004  12.636  65.253  1.00  0.00     0.179 C 
ATOM     15  C   UNL     1      29.857  10.573  66.734  1.00  0.00     0.178 C 
ATOM     16  C   UNL     1      29.072  11.732  66.051  1.00  0.00     0.177 C 
BRANCH  12  17
ATOM     17  O   UNL     1      31.969  14.089  65.658  1.00  0.00    -0.385 OA
ATOM     18  H   UNL     1      31.988  14.024  64.666  1.00  0.00     0.211 HD
ENDBRANCH  12  17
BRANCH  14  19
ATOM     19  O   UNL     1      30.501  11.934  64.141  1.00  0.00    -0.387 OA
ATOM     20  H   UNL     1      30.108  12.386  63.338  1.00  0.00     0.211 HD
ENDBRANCH  14  19
BRANCH  15  21
ATOM     21  C   UNL     1      29.507  10.405  68.226  1.00  0.00     0.191 C 
BRANCH  21  22
ATOM     22  O   UNL     1      28.871  11.574  68.710  1.00  0.00    -0.394 OA
ATOM     23  H   UNL     1      28.095  11.286  69.253  1.00  0.00     0.210 HD
ENDBRANCH  21  22
ENDBRANCH  15  21
BRANCH  16  24
ATOM     24  O   UNL     1      28.093  11.235  65.193  1.00  0.00    -0.387 OA
ATOM     25  H   UNL     1      27.751  11.987  64.624  1.00  0.00     0.211 HD
ENDBRANCH  16  24
ENDBRANCH  10  11
ENDBRANCH   4  10
BRANCH   6  26
ATOM     26  O   UNL     1      36.410  11.315  63.498  1.00  0.00    -0.346 OA
BRANCH  26  27
ATOM     27  C   UNL     1      36.604  12.189  62.392  1.00  0.00     0.130 C 
ATOM     28  C   UNL     1      35.937  13.541  62.645  1.00  0.00     0.033 C 
ATOM     29  C   UNL     1      38.138  12.373  62.157  1.00  0.00     0.020 C 
ATOM     30  C   UNL     1      36.099  14.463  61.434  1.00  0.00     0.010 C 
ATOM     31  C   UNL     1      38.444  13.406  60.981  1.00  0.00     0.006 C 
ATOM     32  C   UNL     1      38.822  12.876  63.470  1.00  0.00     0.017 C 
ATOM     33  C   UNL     1      37.579  14.755  61.003  1.00  0.00    -0.022 C 
ATOM     34  C   UNL     1      38.442  12.794  59.557  1.00  0.00     0.005 C 
ATOM     35  C   UNL     1      38.197  15.777  62.026  1.00  0.00     0.012 C 
ATOM     36  C   UNL     1      37.512  15.413  59.544  1.00  0.00     0.024 C 
ATOM     37  C   UNL     1      39.167  13.711  58.546  1.00  0.00     0.008 C 
ATOM     38  C   UNL     1      38.796  15.232  58.652  1.00  0.00    -0.017 C 
ATOM     39  C   UNL     1      36.956  16.842  59.473  1.00  0.00    -0.024 C 
ATOM     40  C   UNL     1      39.992  15.957  59.374  1.00  0.00     0.013 C 
ATOM     41  C   UNL     1      38.473  15.846  57.188  1.00  0.00     0.009 C 
ATOM     42  C   UNL     1      37.167  17.668  58.431  1.00  0.00     0.005 C 
ATOM     43  C   UNL     1      38.196  17.405  57.343  1.00  0.00     0.096 C 
ATOM     44  C   UNL     1      39.674  15.657  56.186  1.00  0.00     0.043 C 
ATOM     45  C   UNL     1      37.220  15.100  56.577  1.00  0.00     0.015 C 
ATOM     46  C   UNL     1      37.840  18.127  56.023  1.00  0.00     0.037 C 
ATOM     47  O   UNL     1      39.409  18.052  57.726  1.00  0.00    -0.369 OA
ATOM     48  C   UNL     1      39.585  16.609  54.957  1.00  0.00     0.124 C 
ATOM     49  C   UNL     1      39.199  18.089  55.344  1.00  0.00     0.026 C 
ATOM     50  C   UNL     1      36.676  17.793  55.065  1.00  0.00     0.014 C 
ATOM     51  C   UNL     1      40.025  18.569  56.548  1.00  0.00     0.171 C 
ATOM     52  C   UNL     1      39.260  19.044  54.106  1.00  0.00     0.013 C 
ATOM     53  C   UNL     1      36.684  18.733  53.796  1.00  0.00    -0.035 C 
ATOM     54  C   UNL     1      37.903  19.717  53.768  1.00  0.00     0.007 C 
ATOM     55  C   UNL     1      35.402  19.592  53.781  1.00  0.00     0.011 C 
ATOM     56  C   UNL     1      36.708  17.882  52.508  1.00  0.00     0.011 C 
BRANCH  29  57
ATOM     57  C   UNL     1      38.782  10.968  61.904  1.00  0.00     0.165 C 
BRANCH  57  58
ATOM     58  O   UNL     1      38.966  10.247  63.094  1.00  0.00    -0.396 OA
ATOM     59  H   UNL     1      38.241   9.578  63.124  1.00  0.00     0.210 HD
ENDBRANCH  57  58
ENDBRANCH  29  57
BRANCH  48  60
ATOM     60  O   UNL     1      40.797  16.565  54.240  1.00  0.00    -0.392 OA
ATOM     61  H   UNL     1      40.956  17.454  53.830  1.00  0.00     0.210 HD
ENDBRANCH  48  60
ENDBRANCH  26  27
ENDBRANCH   6  26
BRANCH   5  62
ATOM     62  O   UNL     1      33.127  11.158  63.424  1.00  0.00    -0.385 OA
ATOM     63  H   UNL     1      33.383  12.084  63.193  1.00  0.00     0.211 HD
ENDBRANCH   5  62
TORSDOF 14
ENDMDL
MODEL 6
REMARK VINA RESULT:    -7.964      3.187      4.277
REMARK INTER + INTRA:         -14.695
REMARK INTER:                 -13.081
REMARK INTRA:                  -1.614
REMARK UNBOUND:                -2.075
REMARK SMILES C[C@@H]1O[C@@H](O[C@H]2CC[C@@]3(C)[C@H](CC[C@]4(C)[C@@H]3C=C[C@]35OC[C@@]6(CCC(C)(C)C[C@H]63)[C@@H](O)C[C@]54C)[C@]2(C)CO)[C@H](O)[C@H](O[C@@H]2O[C@@H](CO)[C@H](O)[C@H](O)[C@@H]2O)[C@H]1O
REMARK SMILES IDX 1 1 2 2 54 3 41 4 39 5 4 6 3 7 55 8 42 10 43 11 52 12 44 13
REMARK SMILES IDX 50 14 45 15 48 16 53 17 51 19 46 21 47 22 49 24 5 26 6 27
REMARK SMILES IDX 7 28 35 29 8 30 11 31 36 32 9 33 12 34 10 35 16 36 13 37
REMARK SMILES IDX 14 38 17 39 15 40 33 41 18 42 19 43 32 44 34 45 29 46 20 47
REMARK SMILES IDX 30 48 22 49 28 50 21 51 23 52 25 53 24 54 26 55 27 56 37 57
REMARK SMILES IDX 38 58 31 60 40 62
REMARK H PARENT 55 9 53 18 51 20 47 23 49 25 38 59 31 61 40 63
REMARK Flexibility Score: inf
ROOT
ATOM      1  C   UNL     1      36.007   8.725  64.570  1.00  0.00     0.041 C 
ATOM      2  C   UNL     1      35.467   9.104  63.188  1.00  0.00     0.150 C 
ATOM      3  C   UNL     1      33.988   8.574  63.026  1.00  0.00     0.175 C 
ATOM      4  C   UNL     1      33.094   9.630  62.338  1.00  0.00     0.186 C 
ATOM      5  C   UNL     1      33.912  10.231  61.169  1.00  0.00     0.202 C 
ATOM      6  C   UNL     1      35.205  10.927  61.726  1.00  0.00     0.282 C 
ATOM      7  O   UNL     1      35.519  10.519  63.047  1.00  0.00    -0.344 OA
ENDROOT
BRANCH   3   8
ATOM      8  O   UNL     1      33.914   7.317  62.363  1.00  0.00    -0.388 OA
ATOM      9  H   UNL     1      33.312   6.730  62.889  1.00  0.00     0.211 HD
ENDBRANCH   3   8
BRANCH   4  10
ATOM     10  O   UNL     1      32.847  10.648  63.308  1.00  0.00    -0.341 OA
BRANCH  10  11
ATOM     11  C   UNL     1      31.786  10.387  64.227  1.00  0.00     0.282 C 
ATOM     12  C   UNL     1      32.106  10.810  65.700  1.00  0.00     0.202 C 
ATOM     13  O   UNL     1      30.647  11.075  63.694  1.00  0.00    -0.341 OA
ATOM     14  C   UNL     1      31.278  12.045  66.123  1.00  0.00     0.179 C 
ATOM     15  C   UNL     1      29.497  11.167  64.534  1.00  0.00     0.178 C 
ATOM     16  C   UNL     1      29.805  11.688  65.968  1.00  0.00     0.177 C 
BRANCH  12  17
ATOM     17  O   UNL     1      33.482  10.926  65.963  1.00  0.00    -0.385 OA
ATOM     18  H   UNL     1      33.972  11.205  65.145  1.00  0.00     0.211 HD
ENDBRANCH  12  17
BRANCH  14  19
ATOM     19  O   UNL     1      31.572  13.175  65.340  1.00  0.00    -0.387 OA
ATOM     20  H   UNL     1      32.548  13.109  65.127  1.00  0.00     0.211 HD
ENDBRANCH  14  19
BRANCH  15  21
ATOM     21  C   UNL     1      28.683   9.857  64.529  1.00  0.00     0.191 C 
BRANCH  21  22
ATOM     22  O   UNL     1      28.733   9.259  63.247  1.00  0.00    -0.394 OA
ATOM     23  H   UNL     1      29.662   8.950  63.099  1.00  0.00     0.210 HD
ENDBRANCH  21  22
ENDBRANCH  15  21
BRANCH  16  24
ATOM     24  O   UNL     1      29.041  12.815  66.266  1.00  0.00    -0.387 OA
ATOM     25  H   UNL     1      28.230  12.820  65.677  1.00  0.00     0.211 HD
ENDBRANCH  16  24
ENDBRANCH  10  11
ENDBRANCH   4  10
BRANCH   6  26
ATOM     26  O   UNL     1      36.348  10.712  60.907  1.00  0.00    -0.346 OA
BRANCH  26  27
ATOM     27  C   UNL     1      36.520  11.674  59.873  1.00  0.00     0.130 C 
ATOM     28  C   UNL     1      36.864  13.044  60.458  1.00  0.00     0.033 C 
ATOM     29  C   UNL     1      37.655  11.188  58.915  1.00  0.00     0.020 C 
ATOM     30  C   UNL     1      36.996  14.091  59.349  1.00  0.00     0.010 C 
ATOM     31  C   UNL     1      37.968  12.253  57.769  1.00  0.00     0.006 C 
ATOM     32  C   UNL     1      38.962  10.918  59.730  1.00  0.00     0.017 C 
ATOM     33  C   UNL     1      38.071  13.778  58.250  1.00  0.00    -0.022 C 
ATOM     34  C   UNL     1      37.059  12.149  56.517  1.00  0.00     0.005 C 
ATOM     35  C   UNL     1      39.493  14.057  58.860  1.00  0.00     0.012 C 
ATOM     36  C   UNL     1      37.790  14.781  57.033  1.00  0.00     0.024 C 
ATOM     37  C   UNL     1      37.683  12.875  55.303  1.00  0.00     0.008 C 
ATOM     38  C   UNL     1      38.279  14.293  55.619  1.00  0.00    -0.017 C 
ATOM     39  C   UNL     1      38.127  16.258  57.283  1.00  0.00    -0.024 C 
ATOM     40  C   UNL     1      39.844  14.143  55.673  1.00  0.00     0.013 C 
ATOM     41  C   UNL     1      37.783  15.378  54.523  1.00  0.00     0.009 C 
ATOM     42  C   UNL     1      38.311  17.153  56.295  1.00  0.00     0.005 C 
ATOM     43  C   UNL     1      38.488  16.770  54.834  1.00  0.00     0.096 C 
ATOM     44  C   UNL     1      38.161  14.954  53.053  1.00  0.00     0.043 C 
ATOM     45  C   UNL     1      36.209  15.506  54.592  1.00  0.00     0.015 C 
ATOM     46  C   UNL     1      38.085  17.920  53.882  1.00  0.00     0.037 C 
ATOM     47  O   UNL     1      39.887  16.645  54.583  1.00  0.00    -0.369 OA
ATOM     48  C   UNL     1      38.117  16.147  52.053  1.00  0.00     0.124 C 
ATOM     49  C   UNL     1      38.792  17.457  52.619  1.00  0.00     0.026 C 
ATOM     50  C   UNL     1      36.659  18.451  53.616  1.00  0.00     0.014 C 
ATOM     51  C   UNL     1      40.147  17.133  53.269  1.00  0.00     0.171 C 
ATOM     52  C   UNL     1      38.856  18.586  51.538  1.00  0.00     0.013 C 
ATOM     53  C   UNL     1      36.663  19.602  52.535  1.00  0.00    -0.035 C 
ATOM     54  C   UNL     1      38.085  19.874  51.932  1.00  0.00     0.007 C 
ATOM     55  C   UNL     1      36.179  20.919  53.178  1.00  0.00     0.011 C 
ATOM     56  C   UNL     1      35.700  19.246  51.382  1.00  0.00     0.011 C 
BRANCH  29  57
ATOM     57  C   UNL     1      37.265   9.785  58.340  1.00  0.00     0.165 C 
BRANCH  57  58
ATOM     58  O   UNL     1      35.889   9.531  58.449  1.00  0.00    -0.396 OA
ATOM     59  H   UNL     1      35.549   9.464  57.525  1.00  0.00     0.210 HD
ENDBRANCH  57  58
ENDBRANCH  29  57
BRANCH  48  60
ATOM     60  O   UNL     1      38.696  15.758  50.830  1.00  0.00    -0.392 OA
ATOM     61  H   UNL     1      39.190  16.530  50.452  1.00  0.00     0.210 HD
ENDBRANCH  48  60
ENDBRANCH  26  27
ENDBRANCH   6  26
BRANCH   5  62
ATOM     62  O   UNL     1      33.125  11.158  60.441  1.00  0.00    -0.385 OA
ATOM     63  H   UNL     1      33.745  11.863  60.132  1.00  0.00     0.211 HD
ENDBRANCH   5  62
TORSDOF 14
ENDMDL
MODEL 7
REMARK VINA RESULT:    -7.902      4.019      5.175
REMARK INTER + INTRA:         -14.596
REMARK INTER:                 -12.864
REMARK INTRA:                  -1.732
REMARK UNBOUND:                -2.075
REMARK SMILES C[C@@H]1O[C@@H](O[C@H]2CC[C@@]3(C)[C@H](CC[C@]4(C)[C@@H]3C=C[C@]35OC[C@@]6(CCC(C)(C)C[C@H]63)[C@@H](O)C[C@]54C)[C@]2(C)CO)[C@H](O)[C@H](O[C@@H]2O[C@@H](CO)[C@H](O)[C@H](O)[C@@H]2O)[C@H]1O
REMARK SMILES IDX 1 1 2 2 54 3 41 4 39 5 4 6 3 7 55 8 42 10 43 11 52 12 44 13
REMARK SMILES IDX 50 14 45 15 48 16 53 17 51 19 46 21 47 22 49 24 5 26 6 27
REMARK SMILES IDX 7 28 35 29 8 30 11 31 36 32 9 33 12 34 10 35 16 36 13 37
REMARK SMILES IDX 14 38 17 39 15 40 33 41 18 42 19 43 32 44 34 45 29 46 20 47
REMARK SMILES IDX 30 48 22 49 28 50 21 51 23 52 25 53 24 54 26 55 27 56 37 57
REMARK SMILES IDX 38 58 31 60 40 62
REMARK H PARENT 55 9 53 18 51 20 47 23 49 25 38 59 31 61 40 63
REMARK Flexibility Score: inf
ROOT
ATOM      1  C   UNL     1      37.566   7.985  63.986  1.00  0.00     0.041 C 
ATOM      2  C   UNL     1      36.823   8.621  62.808  1.00  0.00     0.150 C 
ATOM      3  C   UNL     1      35.344   8.069  62.748  1.00  0.00     0.175 C 
ATOM      4  C   UNL     1      34.342   9.204  62.436  1.00  0.00     0.186 C 
ATOM      5  C   UNL     1      34.970  10.075  61.320  1.00  0.00     0.202 C 
ATOM      6  C   UNL     1      36.320  10.697  61.825  1.00  0.00     0.282 C 
ATOM      7  O   UNL     1      36.832  10.035  62.970  1.00  0.00    -0.344 OA
ENDROOT
BRANCH   3   8
ATOM      8  O   UNL     1      35.191   6.978  61.847  1.00  0.00    -0.388 OA
ATOM      9  H   UNL     1      36.095   6.623  61.644  1.00  0.00     0.211 HD
ENDBRANCH   3   8
BRANCH   4  10
ATOM     10  O   UNL     1      34.227   9.982  63.627  1.00  0.00    -0.341 OA
BRANCH  10  11
ATOM     11  C   UNL     1      32.932  10.011  64.229  1.00  0.00     0.282 C 
ATOM     12  C   UNL     1      32.913  10.646  65.659  1.00  0.00     0.202 C 
ATOM     13  O   UNL     1      32.100  10.720  63.302  1.00  0.00    -0.341 OA
ATOM     14  C   UNL     1      32.209  12.023  65.654  1.00  0.00     0.179 C 
ATOM     15  C   UNL     1      30.798  11.088  63.755  1.00  0.00     0.178 C 
ATOM     16  C   UNL     1      30.793  11.815  65.132  1.00  0.00     0.177 C 
BRANCH  12  17
ATOM     17  O   UNL     1      34.170  10.648  66.288  1.00  0.00    -0.385 OA
ATOM     18  H   UNL     1      34.737   9.911  65.939  1.00  0.00     0.211 HD
ENDBRANCH  12  17
BRANCH  14  19
ATOM     19  O   UNL     1      32.877  12.957  64.841  1.00  0.00    -0.387 OA
ATOM     20  H   UNL     1      33.778  12.561  64.659  1.00  0.00     0.211 HD
ENDBRANCH  14  19
BRANCH  15  21
ATOM     21  C   UNL     1      29.817   9.901  63.696  1.00  0.00     0.191 C 
BRANCH  21  22
ATOM     22  O   UNL     1      29.868   9.292  62.418  1.00  0.00    -0.394 OA
ATOM     23  H   UNL     1      29.090   9.621  61.901  1.00  0.00     0.210 HD
ENDBRANCH  21  22
ENDBRANCH  15  21
BRANCH  16  24
ATOM     24  O   UNL     1      30.166  13.057  65.040  1.00  0.00    -0.387 OA
ATOM     25  H   UNL     1      30.609  13.689  65.680  1.00  0.00     0.211 HD
ENDBRANCH  16  24
ENDBRANCH  10  11
ENDBRANCH   4  10
BRANCH   6  26
ATOM     26  O   UNL     1      37.333  10.713  60.826  1.00  0.00    -0.346 OA
BRANCH  26  27
ATOM     27  C   UNL     1      37.217  11.776  59.889  1.00  0.00     0.130 C 
ATOM     28  C   UNL     1      36.982  13.107  60.603  1.00  0.00     0.033 C 
ATOM     29  C   UNL     1      38.524  11.839  59.033  1.00  0.00     0.020 C 
ATOM     30  C   UNL     1      36.804  14.243  59.593  1.00  0.00     0.010 C 
ATOM     31  C   UNL     1      38.510  13.061  58.007  1.00  0.00     0.006 C 
ATOM     32  C   UNL     1      39.769  11.974  59.970  1.00  0.00     0.017 C 
ATOM     33  C   UNL     1      38.002  14.459  58.603  1.00  0.00    -0.022 C 
ATOM     34  C   UNL     1      37.807  12.770  56.656  1.00  0.00     0.005 C 
ATOM     35  C   UNL     1      39.166  15.167  59.388  1.00  0.00     0.012 C 
ATOM     36  C   UNL     1      37.467  15.417  57.436  1.00  0.00     0.024 C 
ATOM     37  C   UNL     1      38.211  13.798  55.576  1.00  0.00     0.008 C 
ATOM     38  C   UNL     1      38.212  15.293  56.055  1.00  0.00    -0.017 C 
ATOM     39  C   UNL     1      37.212  16.880  57.826  1.00  0.00    -0.024 C 
ATOM     40  C   UNL     1      39.712  15.714  56.276  1.00  0.00     0.013 C 
ATOM     41  C   UNL     1      37.439  16.237  54.989  1.00  0.00     0.009 C 
ATOM     42  C   UNL     1      37.129  17.881  56.931  1.00  0.00     0.005 C 
ATOM     43  C   UNL     1      37.551  17.747  55.475  1.00  0.00     0.096 C 
ATOM     44  C   UNL     1      38.062  16.138  53.545  1.00  0.00     0.043 C 
ATOM     45  C   UNL     1      35.929  15.778  54.888  1.00  0.00     0.015 C 
ATOM     46  C   UNL     1      36.828  18.768  54.567  1.00  0.00     0.037 C 
ATOM     47  O   UNL     1      38.912  18.163  55.377  1.00  0.00    -0.369 OA
ATOM     48  C   UNL     1      37.659  17.334  52.634  1.00  0.00     0.124 C 
ATOM     49  C   UNL     1      37.753  18.730  53.363  1.00  0.00     0.026 C 
ATOM     50  C   UNL     1      35.332  18.773  54.180  1.00  0.00     0.014 C 
ATOM     51  C   UNL     1      39.076  18.850  54.138  1.00  0.00     0.171 C 
ATOM     52  C   UNL     1      37.480  19.915  52.378  1.00  0.00     0.013 C 
ATOM     53  C   UNL     1      34.996  19.956  53.189  1.00  0.00    -0.035 C 
ATOM     54  C   UNL     1      36.258  20.787  52.773  1.00  0.00     0.007 C 
ATOM     55  C   UNL     1      34.009  20.932  53.865  1.00  0.00     0.011 C 
ATOM     56  C   UNL     1      34.328  19.402  51.913  1.00  0.00     0.011 C 
BRANCH  29  57
ATOM     57  C   UNL     1      38.729  10.460  58.320  1.00  0.00     0.165 C 
BRANCH  57  58
ATOM     58  O   UNL     1      37.533   9.733  58.219  1.00  0.00    -0.396 OA
ATOM     59  H   UNL     1      37.363   9.616  57.254  1.00  0.00     0.210 HD
ENDBRANCH  57  58
ENDBRANCH  29  57
BRANCH  48  60
ATOM     60  O   UNL     1      38.437  17.314  51.460  1.00  0.00    -0.392 OA
ATOM     61  H   UNL     1      38.835  16.412  51.358  1.00  0.00     0.210 HD
ENDBRANCH  48  60
ENDBRANCH  26  27
ENDBRANCH   6  26
BRANCH   5  62
ATOM     62  O   UNL     1      34.069  11.097  60.927  1.00  0.00    -0.385 OA
ATOM     63  H   UNL     1      34.370  11.920  61.385  1.00  0.00     0.211 HD
ENDBRANCH   5  62
TORSDOF 14
ENDMDL
MODEL 8
REMARK VINA RESULT:    -7.894      5.245     12.261
REMARK INTER + INTRA:         -14.584
REMARK INTER:                 -12.841
REMARK INTRA:                  -1.743
REMARK UNBOUND:                -2.075
REMARK SMILES C[C@@H]1O[C@@H](O[C@H]2CC[C@@]3(C)[C@H](CC[C@]4(C)[C@@H]3C=C[C@]35OC[C@@]6(CCC(C)(C)C[C@H]63)[C@@H](O)C[C@]54C)[C@]2(C)CO)[C@H](O)[C@H](O[C@@H]2O[C@@H](CO)[C@H](O)[C@H](O)[C@@H]2O)[C@H]1O
REMARK SMILES IDX 1 1 2 2 54 3 41 4 39 5 4 6 3 7 55 8 42 10 43 11 52 12 44 13
REMARK SMILES IDX 50 14 45 15 48 16 53 17 51 19 46 21 47 22 49 24 5 26 6 27
REMARK SMILES IDX 7 28 35 29 8 30 11 31 36 32 9 33 12 34 10 35 16 36 13 37
REMARK SMILES IDX 14 38 17 39 15 40 33 41 18 42 19 43 32 44 34 45 29 46 20 47
REMARK SMILES IDX 30 48 22 49 28 50 21 51 23 52 25 53 24 54 26 55 27 56 37 57
REMARK SMILES IDX 38 58 31 60 40 62
REMARK H PARENT 55 9 53 18 51 20 47 23 49 25 38 59 31 61 40 63
REMARK Flexibility Score: inf
ROOT
ATOM      1  C   UNL     1      41.744  17.500  53.875  1.00  0.00     0.041 C 
ATOM      2  C   UNL     1      40.752  17.284  55.020  1.00  0.00     0.150 C 
ATOM      3  C   UNL     1      40.225  18.678  55.544  1.00  0.00     0.175 C 
ATOM      4  C   UNL     1      38.705  18.628  55.818  1.00  0.00     0.186 C 
ATOM      5  C   UNL     1      38.413  17.287  56.534  1.00  0.00     0.202 C 
ATOM      6  C   UNL     1      38.814  16.087  55.605  1.00  0.00     0.282 C 
ATOM      7  O   UNL     1      39.676  16.478  54.550  1.00  0.00    -0.344 OA
ENDROOT
BRANCH   3   8
ATOM      8  O   UNL     1      40.944  19.157  56.675  1.00  0.00    -0.388 OA
ATOM      9  H   UNL     1      41.506  19.918  56.379  1.00  0.00     0.211 HD
ENDBRANCH   3   8
BRANCH   4  10
ATOM     10  O   UNL     1      38.062  18.627  54.544  1.00  0.00    -0.341 OA
BRANCH  10  11
ATOM     11  C   UNL     1      36.766  19.224  54.499  1.00  0.00     0.282 C 
ATOM     12  C   UNL     1      36.626  20.354  53.425  1.00  0.00     0.202 C 
ATOM     13  O   UNL     1      35.858  18.138  54.276  1.00  0.00    -0.341 OA
ATOM     14  C   UNL     1      35.729  19.904  52.249  1.00  0.00     0.179 C 
ATOM     15  C   UNL     1      34.507  18.480  53.967  1.00  0.00     0.178 C 
ATOM     16  C   UNL     1      34.368  19.529  52.824  1.00  0.00     0.177 C 
BRANCH  12  17
ATOM     17  O   UNL     1      37.856  20.905  53.029  1.00  0.00    -0.385 OA
ATOM     18  H   UNL     1      37.756  21.871  52.820  1.00  0.00     0.211 HD
ENDBRANCH  12  17
BRANCH  14  19
ATOM     19  O   UNL     1      36.268  18.803  51.561  1.00  0.00    -0.387 OA
ATOM     20  H   UNL     1      35.621  18.052  51.704  1.00  0.00     0.211 HD
ENDBRANCH  14  19
BRANCH  15  21
ATOM     21  C   UNL     1      33.712  18.857  55.232  1.00  0.00     0.191 C 
BRANCH  21  22
ATOM     22  O   UNL     1      34.241  18.181  56.358  1.00  0.00    -0.394 OA
ATOM     23  H   UNL     1      33.900  18.639  57.167  1.00  0.00     0.210 HD
ENDBRANCH  21  22
ENDBRANCH  15  21
BRANCH  16  24
ATOM     24  O   UNL     1      33.569  19.041  51.792  1.00  0.00    -0.387 OA
ATOM     25  H   UNL     1      32.699  18.727  52.179  1.00  0.00     0.211 HD
ENDBRANCH  16  24
ENDBRANCH  10  11
ENDBRANCH   4  10
BRANCH   6  26
ATOM     26  O   UNL     1      39.427  15.016  56.312  1.00  0.00    -0.346 OA
BRANCH  26  27
ATOM     27  C   UNL     1      38.664  14.520  57.405  1.00  0.00     0.130 C 
ATOM     28  C   UNL     1      37.951  13.222  57.026  1.00  0.00     0.033 C 
ATOM     29  C   UNL     1      39.617  14.284  58.622  1.00  0.00     0.020 C 
ATOM     30  C   UNL     1      37.088  12.717  58.184  1.00  0.00     0.010 C 
ATOM     31  C   UNL     1      38.852  13.650  59.869  1.00  0.00     0.006 C 
ATOM     32  C   UNL     1      40.788  13.335  58.205  1.00  0.00     0.017 C 
ATOM     33  C   UNL     1      37.852  12.445  59.527  1.00  0.00    -0.022 C 
ATOM     34  C   UNL     1      38.152  14.677  60.796  1.00  0.00     0.005 C 
ATOM     35  C   UNL     1      38.656  11.103  59.372  1.00  0.00     0.012 C 
ATOM     36  C   UNL     1      36.737  12.287  60.667  1.00  0.00     0.024 C 
ATOM     37  C   UNL     1      37.831  14.063  62.178  1.00  0.00     0.008 C 
ATOM     38  C   UNL     1      37.205  12.624  62.131  1.00  0.00    -0.017 C 
ATOM     39  C   UNL     1      35.890  11.008  60.611  1.00  0.00    -0.024 C 
ATOM     40  C   UNL     1      38.339  11.606  62.523  1.00  0.00     0.013 C 
ATOM     41  C   UNL     1      35.908  12.533  63.098  1.00  0.00     0.009 C 
ATOM     42  C   UNL     1      35.192  10.537  61.660  1.00  0.00     0.005 C 
ATOM     43  C   UNL     1      35.372  11.035  63.085  1.00  0.00     0.096 C 
ATOM     44  C   UNL     1      36.248  12.920  64.587  1.00  0.00     0.043 C 
ATOM     45  C   UNL     1      34.804  13.541  62.584  1.00  0.00     0.015 C 
ATOM     46  C   UNL     1      34.109  10.800  63.945  1.00  0.00     0.037 C 
ATOM     47  O   UNL     1      36.333  10.196  63.721  1.00  0.00    -0.369 OA
ATOM     48  C   UNL     1      35.178  12.414  65.599  1.00  0.00     0.124 C 
ATOM     49  C   UNL     1      34.722  10.928  65.329  1.00  0.00     0.026 C 
ATOM     50  C   UNL     1      32.749  11.520  63.817  1.00  0.00     0.014 C 
ATOM     51  C   UNL     1      35.939  10.023  65.081  1.00  0.00     0.171 C 
ATOM     52  C   UNL     1      33.757  10.409  66.446  1.00  0.00     0.013 C 
ATOM     53  C   UNL     1      31.729  11.030  64.918  1.00  0.00    -0.035 C 
ATOM     54  C   UNL     1      32.355  10.000  65.920  1.00  0.00     0.007 C 
ATOM     55  C   UNL     1      30.528  10.336  64.240  1.00  0.00     0.011 C 
ATOM     56  C   UNL     1      31.197  12.237  65.721  1.00  0.00     0.011 C 
BRANCH  29  57
ATOM     57  C   UNL     1      40.327  15.635  58.977  1.00  0.00     0.165 C 
BRANCH  57  58
ATOM     58  O   UNL     1      41.321  15.972  58.045  1.00  0.00    -0.396 OA
ATOM     59  H   UNL     1      41.806  16.741  58.428  1.00  0.00     0.210 HD
ENDBRANCH  57  58
ENDBRANCH  29  57
BRANCH  48  60
ATOM     60  O   UNL     1      35.660  12.574  66.912  1.00  0.00    -0.392 OA
ATOM     61  H   UNL     1      36.383  11.914  67.068  1.00  0.00     0.210 HD
ENDBRANCH  48  60
ENDBRANCH  26  27
ENDBRANCH   6  26
BRANCH   5  62
ATOM     62  O   UNL     1      37.043  17.205  56.888  1.00  0.00    -0.385 OA
ATOM     63  H   UNL     1      36.880  16.263  57.139  1.00  0.00     0.211 HD
ENDBRANCH   5  62
TORSDOF 14
ENDMDL
MODEL 9
REMARK VINA RESULT:    -7.755      3.373      5.582
REMARK INTER + INTRA:         -14.364
REMARK INTER:                 -13.014
REMARK INTRA:                  -1.350
REMARK UNBOUND:                -2.075
REMARK SMILES C[C@@H]1O[C@@H](O[C@H]2CC[C@@]3(C)[C@H](CC[C@]4(C)[C@@H]3C=C[C@]35OC[C@@]6(CCC(C)(C)C[C@H]63)[C@@H](O)C[C@]54C)[C@]2(C)CO)[C@H](O)[C@H](O[C@@H]2O[C@@H](CO)[C@H](O)[C@H](O)[C@@H]2O)[C@H]1O
REMARK SMILES IDX 1 1 2 2 54 3 41 4 39 5 4 6 3 7 55 8 42 10 43 11 52 12 44 13
REMARK SMILES IDX 50 14 45 15 48 16 53 17 51 19 46 21 47 22 49 24 5 26 6 27
REMARK SMILES IDX 7 28 35 29 8 30 11 31 36 32 9 33 12 34 10 35 16 36 13 37
REMARK SMILES IDX 14 38 17 39 15 40 33 41 18 42 19 43 32 44 34 45 29 46 20 47
REMARK SMILES IDX 30 48 22 49 28 50 21 51 23 52 25 53 24 54 26 55 27 56 37 57
REMARK SMILES IDX 38 58 31 60 40 62
REMARK H PARENT 55 9 53 18 51 20 47 23 49 25 38 59 31 61 40 63
REMARK Flexibility Score: inf
ROOT
ATOM      1  C   UNL     1      34.689   8.929  67.622  1.00  0.00     0.041 C 
ATOM      2  C   UNL     1      34.453   9.843  66.417  1.00  0.00     0.150 C 
ATOM      3  C   UNL     1      33.777  11.190  66.891  1.00  0.00     0.175 C 
ATOM      4  C   UNL     1      34.402  12.406  66.170  1.00  0.00     0.186 C 
ATOM      5  C   UNL     1      34.569  12.018  64.680  1.00  0.00     0.202 C 
ATOM      6  C   UNL     1      35.534  10.787  64.555  1.00  0.00     0.282 C 
ATOM      7  O   UNL     1      35.701  10.096  65.782  1.00  0.00    -0.344 OA
ENDROOT
BRANCH   3   8
ATOM      8  O   UNL     1      32.360  11.179  66.762  1.00  0.00    -0.388 OA
ATOM      9  H   UNL     1      31.984  10.759  67.578  1.00  0.00     0.211 HD
ENDBRANCH   3   8
BRANCH   4  10
ATOM     10  O   UNL     1      35.691  12.604  66.749  1.00  0.00    -0.341 OA
BRANCH  10  11
ATOM     11  C   UNL     1      36.354  13.817  66.394  1.00  0.00     0.282 C 
ATOM     12  C   UNL     1      36.677  14.743  67.615  1.00  0.00     0.202 C 
ATOM     13  O   UNL     1      37.533  13.411  65.687  1.00  0.00    -0.341 OA
ATOM     14  C   UNL     1      38.194  14.780  67.908  1.00  0.00     0.179 C 
ATOM     15  C   UNL     1      38.498  14.424  65.407  1.00  0.00     0.178 C 
ATOM     16  C   UNL     1      38.895  15.276  66.649  1.00  0.00     0.177 C 
BRANCH  12  17
ATOM     17  O   UNL     1      35.882  14.478  68.743  1.00  0.00    -0.385 OA
ATOM     18  H   UNL     1      34.919  14.594  68.529  1.00  0.00     0.211 HD
ENDBRANCH  12  17
BRANCH  14  19
ATOM     19  O   UNL     1      38.698  13.514  68.258  1.00  0.00    -0.387 OA
ATOM     20  H   UNL     1      37.993  12.858  67.985  1.00  0.00     0.211 HD
ENDBRANCH  14  19
BRANCH  15  21
ATOM     21  C   UNL     1      38.089  15.282  64.193  1.00  0.00     0.191 C 
BRANCH  21  22
ATOM     22  O   UNL     1      39.203  16.016  63.720  1.00  0.00    -0.394 OA
ATOM     23  H   UNL     1      39.364  16.756  64.359  1.00  0.00     0.210 HD
ENDBRANCH  21  22
ENDBRANCH  15  21
BRANCH  16  24
ATOM     24  O   UNL     1      40.272  15.239  66.863  1.00  0.00    -0.387 OA
ATOM     25  H   UNL     1      40.452  14.743  67.715  1.00  0.00     0.211 HD
ENDBRANCH  16  24
ENDBRANCH  10  11
ENDBRANCH   4  10
BRANCH   6  26
ATOM     26  O   UNL     1      35.117   9.852  63.567  1.00  0.00    -0.346 OA
BRANCH  26  27
ATOM     27  C   UNL     1      35.712  10.041  62.289  1.00  0.00     0.130 C 
ATOM     28  C   UNL     1      36.947  10.936  62.393  1.00  0.00     0.033 C 
ATOM     29  C   UNL     1      36.096   8.646  61.699  1.00  0.00     0.020 C 
ATOM     30  C   UNL     1      37.557  11.184  61.011  1.00  0.00     0.010 C 
ATOM     31  C   UNL     1      36.846   8.774  60.297  1.00  0.00     0.006 C 
ATOM     32  C   UNL     1      37.018   7.878  62.702  1.00  0.00     0.017 C 
ATOM     33  C   UNL     1      37.987   9.897  60.222  1.00  0.00    -0.022 C 
ATOM     34  C   UNL     1      35.911   8.881  59.064  1.00  0.00     0.005 C 
ATOM     35  C   UNL     1      39.320   9.356  60.855  1.00  0.00     0.012 C 
ATOM     36  C   UNL     1      38.244  10.350  58.707  1.00  0.00     0.024 C 
ATOM     37  C   UNL     1      36.663   8.554  57.754  1.00  0.00     0.008 C 
ATOM     38  C   UNL     1      38.076   9.226  57.620  1.00  0.00    -0.017 C 
ATOM     39  C   UNL     1      39.493  11.209  58.462  1.00  0.00    -0.024 C 
ATOM     40  C   UNL     1      39.152   8.113  57.903  1.00  0.00     0.013 C 
ATOM     41  C   UNL     1      38.245   9.916  56.164  1.00  0.00     0.009 C 
ATOM     42  C   UNL     1      40.061  11.361  57.252  1.00  0.00     0.005 C 
ATOM     43  C   UNL     1      39.722  10.496  56.047  1.00  0.00     0.096 C 
ATOM     44  C   UNL     1      38.027   8.888  54.989  1.00  0.00     0.043 C 
ATOM     45  C   UNL     1      37.165  11.060  56.002  1.00  0.00     0.015 C 
ATOM     46  C   UNL     1      40.023  11.217  54.714  1.00  0.00     0.037 C 
ATOM     47  O   UNL     1      40.643   9.408  56.020  1.00  0.00    -0.369 OA
ATOM     48  C   UNL     1      38.617   9.387  53.638  1.00  0.00     0.124 C 
ATOM     49  C   UNL     1      40.056  10.017  53.783  1.00  0.00     0.026 C 
ATOM     50  C   UNL     1      39.266  12.424  54.117  1.00  0.00     0.014 C 
ATOM     51  C   UNL     1      40.954   9.126  54.657  1.00  0.00     0.171 C 
ATOM     52  C   UNL     1      40.674  10.374  52.390  1.00  0.00     0.013 C 
ATOM     53  C   UNL     1      39.852  12.835  52.709  1.00  0.00    -0.035 C 
ATOM     54  C   UNL     1      40.996  11.882  52.218  1.00  0.00     0.007 C 
ATOM     55  C   UNL     1      40.445  14.258  52.790  1.00  0.00     0.011 C 
ATOM     56  C   UNL     1      38.728  12.841  51.651  1.00  0.00     0.011 C 
BRANCH  29  57
ATOM     57  C   UNL     1      34.806   7.762  61.611  1.00  0.00     0.165 C 
BRANCH  57  58
ATOM     58  O   UNL     1      34.627   6.971  62.756  1.00  0.00    -0.396 OA
ATOM     59  H   UNL     1      34.944   7.514  63.517  1.00  0.00     0.210 HD
ENDBRANCH  57  58
ENDBRANCH  29  57
BRANCH  48  60
ATOM     60  O   UNL     1      38.610   8.333  52.704  1.00  0.00    -0.392 OA
ATOM     61  H   UNL     1      39.463   7.835  52.779  1.00  0.00     0.210 HD
ENDBRANCH  48  60
ENDBRANCH  26  27
ENDBRANCH   6  26
BRANCH   5  62
ATOM     62  O   UNL     1      35.068  13.118  63.938  1.00  0.00    -0.385 OA
ATOM     63  H   UNL     1      34.501  13.892  64.177  1.00  0.00     0.211 HD
ENDBRANCH   5  62
TORSDOF 14
ENDMDL
