MODEL 1
REMARK VINA RESULT:    -3.403      0.000      0.000
REMARK INTER + INTRA:          -4.105
REMARK INTER:                  -4.000
REMARK INTRA:                  -0.105
REMARK UNBOUND:                -0.105
REMARK SMILES O=C([O-])CCC(=O)[O-]
REMARK SMILES IDX 4 1 2 2 1 3 3 4 5 5 6 6 7 7 8 8
REMARK H PARENT
REMARK Flexibility Score: inf
ROOT
ATOM      1  C   UNL     1      13.411 -28.934  23.284  1.00  0.00     0.059 C 
ENDROOT
BRANCH   1   2
ATOM      2  C   UNL     1      12.378 -28.178  24.062  1.00  0.00     0.042 C 
ATOM      3  O   UNL     1      11.158 -28.289  23.770  1.00  0.00    -0.550 OA
ATOM      4  O   UNL     1      12.759 -27.384  25.137  1.00  0.00    -0.550 OA
ENDBRANCH   1   2
BRANCH   1   5
ATOM      5  C   UNL     1      13.134 -30.442  23.291  1.00  0.00     0.059 C 
BRANCH   5   6
ATOM      6  C   UNL     1      12.692 -30.928  21.944  1.00  0.00     0.042 C 
ATOM      7  O   UNL     1      13.446 -31.670  21.261  1.00  0.00    -0.550 OA
ATOM      8  O   UNL     1      11.433 -30.595  21.462  1.00  0.00    -0.550 OA
ENDBRANCH   5   6
ENDBRANCH   1   5
TORSDOF 3
ENDMDL
MODEL 2
REMARK VINA RESULT:    -3.400      0.154      1.156
REMARK INTER + INTRA:          -4.101
REMARK INTER:                  -3.984
REMARK INTRA:                  -0.117
REMARK UNBOUND:                -0.105
REMARK SMILES O=C([O-])CCC(=O)[O-]
REMARK SMILES IDX 4 1 2 2 1 3 3 4 5 5 6 6 7 7 8 8
REMARK H PARENT
REMARK Flexibility Score: inf
ROOT
ATOM      1  C   UNL     1      13.382 -28.817  23.277  1.00  0.00     0.059 C 
ENDROOT
BRANCH   1   2
ATOM      2  C   UNL     1      12.345 -28.080  24.067  1.00  0.00     0.042 C 
ATOM      3  O   UNL     1      11.130 -28.159  23.746  1.00  0.00    -0.550 OA
ATOM      4  O   UNL     1      12.716 -27.340  25.183  1.00  0.00    -0.550 OA
ENDBRANCH   1   2
BRANCH   1   5
ATOM      5  C   UNL     1      13.195 -30.336  23.375  1.00  0.00     0.059 C 
BRANCH   5   6
ATOM      6  C   UNL     1      12.753 -30.924  22.070  1.00  0.00     0.042 C 
ATOM      7  O   UNL     1      11.622 -30.635  21.597  1.00  0.00    -0.550 OA
ATOM      8  O   UNL     1      13.606 -31.756  21.357  1.00  0.00    -0.550 OA
ENDBRANCH   5   6
ENDBRANCH   1   5
TORSDOF 3
ENDMDL
MODEL 3
REMARK VINA RESULT:    -3.397      0.307      3.976
REMARK INTER + INTRA:          -4.098
REMARK INTER:                  -3.986
REMARK INTRA:                  -0.112
REMARK UNBOUND:                -0.105
REMARK SMILES O=C([O-])CCC(=O)[O-]
REMARK SMILES IDX 4 1 2 2 1 3 3 4 5 5 6 6 7 7 8 8
REMARK H PARENT
REMARK Flexibility Score: inf
ROOT
ATOM      1  C   UNL     1      13.099 -30.291  23.136  1.00  0.00     0.059 C 
ENDROOT
BRANCH   1   2
ATOM      2  C   UNL     1      12.671 -30.649  21.747  1.00  0.00     0.042 C 
ATOM      3  O   UNL     1      13.521 -31.038  20.903  1.00  0.00    -0.550 OA
ATOM      4  O   UNL     1      11.328 -30.594  21.395  1.00  0.00    -0.550 OA
ENDBRANCH   1   2
BRANCH   1   5
ATOM      5  C   UNL     1      13.401 -28.794  23.268  1.00  0.00     0.059 C 
BRANCH   5   6
ATOM      6  C   UNL     1      12.353 -28.086  24.071  1.00  0.00     0.042 C 
ATOM      7  O   UNL     1      11.136 -28.213  23.774  1.00  0.00    -0.550 OA
ATOM      8  O   UNL     1      12.717 -27.322  25.172  1.00  0.00    -0.550 OA
ENDBRANCH   5   6
ENDBRANCH   1   5
TORSDOF 3
ENDMDL
MODEL 4
REMARK VINA RESULT:    -3.348      2.008      3.114
REMARK INTER + INTRA:          -4.040
REMARK INTER:                  -3.998
REMARK INTRA:                  -0.042
REMARK UNBOUND:                -0.105
REMARK SMILES O=C([O-])CCC(=O)[O-]
REMARK SMILES IDX 4 1 2 2 1 3 3 4 5 5 6 6 7 7 8 8
REMARK H PARENT
REMARK Flexibility Score: inf
ROOT
ATOM      1  C   UNL     1      13.065 -31.084  22.103  1.00  0.00     0.059 C 
ENDROOT
BRANCH   1   2
ATOM      2  C   UNL     1      11.855 -30.204  22.029  1.00  0.00     0.042 C 
ATOM      3  O   UNL     1      10.875 -30.535  21.311  1.00  0.00    -0.550 OA
ATOM      4  O   UNL     1      11.793 -29.041  22.786  1.00  0.00    -0.550 OA
ENDBRANCH   1   2
BRANCH   1   5
ATOM      5  C   UNL     1      13.405 -31.696  20.739  1.00  0.00     0.059 C 
BRANCH   5   6
ATOM      6  C   UNL     1      14.260 -32.918  20.879  1.00  0.00     0.042 C 
ATOM      7  O   UNL     1      14.700 -33.255  22.009  1.00  0.00    -0.550 OA
ATOM      8  O   UNL     1      14.535 -33.707  19.769  1.00  0.00    -0.550 OA
ENDBRANCH   5   6
ENDBRANCH   1   5
TORSDOF 3
ENDMDL
MODEL 5
REMARK VINA RESULT:    -3.342      1.780      4.273
REMARK INTER + INTRA:          -4.033
REMARK INTER:                  -3.909
REMARK INTRA:                  -0.124
REMARK UNBOUND:                -0.105
REMARK SMILES O=C([O-])CCC(=O)[O-]
REMARK SMILES IDX 4 1 2 2 1 3 3 4 5 5 6 6 7 7 8 8
REMARK H PARENT
REMARK Flexibility Score: inf
ROOT
ATOM      1  C   UNL     1      13.446 -30.877  21.043  1.00  0.00     0.059 C 
ENDROOT
BRANCH   1   2
ATOM      2  C   UNL     1      13.990 -32.240  21.340  1.00  0.00     0.042 C 
ATOM      3  O   UNL     1      14.305 -32.554  22.518  1.00  0.00    -0.550 OA
ATOM      4  O   UNL     1      14.110 -33.179  20.323  1.00  0.00    -0.550 OA
ENDBRANCH   1   2
BRANCH   1   5
ATOM      5  C   UNL     1      12.114 -30.631  21.761  1.00  0.00     0.059 C 
BRANCH   5   6
ATOM      6  C   UNL     1      12.232 -29.543  22.785  1.00  0.00     0.042 C 
ATOM      7  O   UNL     1      13.189 -29.545  23.603  1.00  0.00    -0.550 OA
ATOM      8  O   UNL     1      11.308 -28.505  22.808  1.00  0.00    -0.550 OA
ENDBRANCH   5   6
ENDBRANCH   1   5
TORSDOF 3
ENDMDL
MODEL 6
REMARK VINA RESULT:    -3.287     10.023     10.762
REMARK INTER + INTRA:          -3.969
REMARK INTER:                  -3.872
REMARK INTRA:                  -0.096
REMARK UNBOUND:                -0.105
REMARK SMILES O=C([O-])CCC(=O)[O-]
REMARK SMILES IDX 4 1 2 2 1 3 3 4 5 5 6 6 7 7 8 8
REMARK H PARENT
REMARK Flexibility Score: inf
ROOT
ATOM      1  C   UNL     1      21.978 -24.822  20.537  1.00  0.00     0.059 C 
ENDROOT
BRANCH   1   2
ATOM      2  C   UNL     1      23.072 -24.679  19.525  1.00  0.00     0.042 C 
ATOM      3  O   UNL     1      23.229 -25.556  18.634  1.00  0.00    -0.550 OA
ATOM      4  O   UNL     1      23.892 -23.558  19.539  1.00  0.00    -0.550 OA
ENDBRANCH   1   2
BRANCH   1   5
ATOM      5  C   UNL     1      20.705 -25.408  19.916  1.00  0.00     0.059 C 
BRANCH   5   6
ATOM      6  C   UNL     1      20.332 -26.714  20.550  1.00  0.00     0.042 C 
ATOM      7  O   UNL     1      19.271 -27.301  20.211  1.00  0.00    -0.550 OA
ATOM      8  O   UNL     1      21.178 -27.302  21.482  1.00  0.00    -0.550 OA
ENDBRANCH   5   6
ENDBRANCH   1   5
TORSDOF 3
ENDMDL
MODEL 7
REMARK VINA RESULT:    -3.249     10.180     11.119
REMARK INTER + INTRA:          -3.924
REMARK INTER:                  -3.803
REMARK INTRA:                  -0.122
REMARK UNBOUND:                -0.105
REMARK SMILES O=C([O-])CCC(=O)[O-]
REMARK SMILES IDX 4 1 2 2 1 3 3 4 5 5 6 6 7 7 8 8
REMARK H PARENT
REMARK Flexibility Score: inf
ROOT
ATOM      1  C   UNL     1      21.021 -25.373  19.913  1.00  0.00     0.059 C 
ENDROOT
BRANCH   1   2
ATOM      2  C   UNL     1      20.629 -26.624  20.637  1.00  0.00     0.042 C 
ATOM      3  O   UNL     1      21.351 -27.068  21.569  1.00  0.00    -0.550 OA
ATOM      4  O   UNL     1      19.448 -27.277  20.311  1.00  0.00    -0.550 OA
ENDBRANCH   1   2
BRANCH   1   5
ATOM      5  C   UNL     1      22.499 -25.392  19.506  1.00  0.00     0.059 C 
BRANCH   5   6
ATOM      6  C   UNL     1      23.268 -24.291  20.170  1.00  0.00     0.042 C 
ATOM      7  O   UNL     1      24.050 -23.570  19.496  1.00  0.00    -0.550 OA
ATOM      8  O   UNL     1      23.089 -24.035  21.524  1.00  0.00    -0.550 OA
ENDBRANCH   5   6
ENDBRANCH   1   5
TORSDOF 3
ENDMDL
MODEL 8
REMARK VINA RESULT:    -3.181      9.574     10.367
REMARK INTER + INTRA:          -3.843
REMARK INTER:                  -3.741
REMARK INTRA:                  -0.103
REMARK UNBOUND:                -0.105
REMARK SMILES O=C([O-])CCC(=O)[O-]
REMARK SMILES IDX 4 1 2 2 1 3 3 4 5 5 6 6 7 7 8 8
REMARK H PARENT
REMARK Flexibility Score: inf
ROOT
ATOM      1  C   UNL     1      21.851 -25.290  20.542  1.00  0.00     0.059 C 
ENDROOT
BRANCH   1   2
ATOM      2  C   UNL     1      22.907 -25.542  19.511  1.00  0.00     0.042 C 
ATOM      3  O   UNL     1      23.294 -24.608  18.759  1.00  0.00    -0.550 OA
ATOM      4  O   UNL     1      23.494 -26.797  19.408  1.00  0.00    -0.550 OA
ENDBRANCH   1   2
BRANCH   1   5
ATOM      5  C   UNL     1      20.463 -25.711  20.046  1.00  0.00     0.059 C 
BRANCH   5   6
ATOM      6  C   UNL     1      20.098 -27.084  20.523  1.00  0.00     0.042 C 
ATOM      7  O   UNL     1      20.876 -27.716  21.284  1.00  0.00    -0.550 OA
ATOM      8  O   UNL     1      18.881 -27.647  20.159  1.00  0.00    -0.550 OA
ENDBRANCH   5   6
ENDBRANCH   1   5
TORSDOF 3
ENDMDL
MODEL 9
REMARK VINA RESULT:    -3.181     10.946     11.609
REMARK INTER + INTRA:          -3.843
REMARK INTER:                  -3.725
REMARK INTRA:                  -0.118
REMARK UNBOUND:                -0.105
REMARK SMILES O=C([O-])CCC(=O)[O-]
REMARK SMILES IDX 4 1 2 2 1 3 3 4 5 5 6 6 7 7 8 8
REMARK H PARENT
REMARK Flexibility Score: inf
ROOT
ATOM      1  C   UNL     1      22.694 -25.086  19.482  1.00  0.00     0.059 C 
ENDROOT
BRANCH   1   2
ATOM      2  C   UNL     1      23.486 -24.032  20.194  1.00  0.00     0.042 C 
ATOM      3  O   UNL     1      24.387 -23.397  19.585  1.00  0.00    -0.550 OA
ATOM      4  O   UNL     1      23.200 -23.722  21.518  1.00  0.00    -0.550 OA
ENDBRANCH   1   2
BRANCH   1   5
ATOM      5  C   UNL     1      23.233 -26.491  19.772  1.00  0.00     0.059 C 
BRANCH   5   6
ATOM      6  C   UNL     1      22.437 -27.178  20.841  1.00  0.00     0.042 C 
ATOM      7  O   UNL     1      22.696 -26.969  22.055  1.00  0.00    -0.550 OA
ATOM      8  O   UNL     1      21.384 -28.015  20.495  1.00  0.00    -0.550 OA
ENDBRANCH   5   6
ENDBRANCH   1   5
TORSDOF 3
ENDMDL
