MODEL 1
REMARK VINA RESULT:    -4.878      0.000      0.000
REMARK INTER + INTRA:          -6.709
REMARK INTER:                  -6.589
REMARK INTRA:                  -0.121
REMARK UNBOUND:                -0.121
REMARK SMILES [NH3+]CCCC[C@@H]([NH3+])C(=O)[O-]
REMARK SMILES IDX 4 1 3 2 2 3 1 4 5 8 6 9 7 10 8 14 9 15 10 16
REMARK H PARENT 1 5 1 6 1 7 7 11 7 12 7 13
REMARK Flexibility Score: inf
ROOT
ATOM      1  C   UNL     1     164.550 167.190 163.220  1.00  0.00     0.012 C 
ENDROOT
BRANCH   1   2
ATOM      2  C   UNL     1     165.556 168.078 162.471  1.00  0.00     0.061 C 
BRANCH   2   3
ATOM      3  C   UNL     1     165.799 167.612 161.025  1.00  0.00     0.258 C 
BRANCH   3   4
ATOM      4  N   UNL     1     166.403 166.279 161.004  1.00  0.00    -0.358 N 
ATOM      5  H   UNL     1     166.931 166.139 160.112  1.00  0.00     0.344 HD
ATOM      6  H   UNL     1     167.047 166.164 161.819  1.00  0.00     0.344 HD
ATOM      7  H   UNL     1     165.646 165.560 161.065  1.00  0.00     0.344 HD
ENDBRANCH   3   4
ENDBRANCH   2   3
ENDBRANCH   1   2
BRANCH   1   8
ATOM      8  C   UNL     1     165.014 166.844 164.647  1.00  0.00     0.072 C 
BRANCH   8   9
ATOM      9  C   UNL     1     163.837 166.420 165.554  1.00  0.00     0.227 C 
BRANCH   9  10
ATOM     10  N   UNL     1     162.615 166.243 164.762  1.00  0.00    -0.350 N 
ATOM     11  H   UNL     1     162.434 167.101 164.191  1.00  0.00     0.345 HD
ATOM     12  H   UNL     1     162.705 165.420 164.121  1.00  0.00     0.345 HD
ATOM     13  H   UNL     1     161.797 166.096 165.397  1.00  0.00     0.345 HD
ENDBRANCH   9  10
BRANCH   9  14
ATOM     14  C   UNL     1     164.156 165.153 166.305  1.00  0.00     0.099 C 
ATOM     15  O   UNL     1     165.123 164.426 165.953  1.00  0.00    -0.544 OA
ATOM     16  O   UNL     1     163.384 164.781 167.398  1.00  0.00    -0.544 OA
ENDBRANCH   9  14
ENDBRANCH   8   9
ENDBRANCH   1   8
TORSDOF 7
ENDMDL
MODEL 2
REMARK VINA RESULT:    -4.876      2.985      4.775
REMARK INTER + INTRA:          -6.706
REMARK INTER:                  -6.466
REMARK INTRA:                  -0.241
REMARK UNBOUND:                -0.121
REMARK SMILES [NH3+]CCCC[C@@H]([NH3+])C(=O)[O-]
REMARK SMILES IDX 4 1 3 2 2 3 1 4 5 8 6 9 7 10 8 14 9 15 10 16
REMARK H PARENT 1 5 1 6 1 7 7 11 7 12 7 13
REMARK Flexibility Score: inf
ROOT
ATOM      1  C   UNL     1     167.089 165.590 163.505  1.00  0.00     0.012 C 
ENDROOT
BRANCH   1   2
ATOM      2  C   UNL     1     166.546 164.850 164.738  1.00  0.00     0.061 C 
BRANCH   2   3
ATOM      3  C   UNL     1     165.346 165.566 165.379  1.00  0.00     0.258 C 
BRANCH   3   4
ATOM      4  N   UNL     1     165.678 166.033 166.726  1.00  0.00    -0.358 N 
ATOM      5  H   UNL     1     165.266 165.391 167.441  1.00  0.00     0.344 HD
ATOM      6  H   UNL     1     166.716 166.076 166.845  1.00  0.00     0.344 HD
ATOM      7  H   UNL     1     165.281 166.991 166.863  1.00  0.00     0.344 HD
ENDBRANCH   3   4
ENDBRANCH   2   3
ENDBRANCH   1   2
BRANCH   1   8
ATOM      8  C   UNL     1     166.414 166.956 163.289  1.00  0.00     0.072 C 
BRANCH   8   9
ATOM      9  C   UNL     1     165.899 167.129 161.842  1.00  0.00     0.227 C 
BRANCH   9  10
ATOM     10  N   UNL     1     166.594 166.207 160.937  1.00  0.00    -0.350 N 
ATOM     11  H   UNL     1     167.619 166.415 160.935  1.00  0.00     0.345 HD
ATOM     12  H   UNL     1     166.449 165.214 161.235  1.00  0.00     0.345 HD
ATOM     13  H   UNL     1     166.237 166.329 159.961  1.00  0.00     0.345 HD
ENDBRANCH   9  10
BRANCH   9  14
ATOM     14  C   UNL     1     164.411 166.910 161.762  1.00  0.00     0.099 C 
ATOM     15  O   UNL     1     163.659 167.272 162.705  1.00  0.00    -0.544 OA
ATOM     16  O   UNL     1     163.857 166.310 160.638  1.00  0.00    -0.544 OA
ENDBRANCH   9  14
ENDBRANCH   8   9
ENDBRANCH   1   8
TORSDOF 7
ENDMDL
MODEL 3
REMARK VINA RESULT:    -4.817      1.802      2.266
REMARK INTER + INTRA:          -6.627
REMARK INTER:                  -6.157
REMARK INTRA:                  -0.470
REMARK UNBOUND:                -0.121
REMARK SMILES [NH3+]CCCC[C@@H]([NH3+])C(=O)[O-]
REMARK SMILES IDX 4 1 3 2 2 3 1 4 5 8 6 9 7 10 8 14 9 15 10 16
REMARK H PARENT 1 5 1 6 1 7 7 11 7 12 7 13
REMARK Flexibility Score: inf
ROOT
ATOM      1  C   UNL     1     164.394 167.241 163.129  1.00  0.00     0.012 C 
ENDROOT
BRANCH   1   2
ATOM      2  C   UNL     1     165.774 167.867 162.870  1.00  0.00     0.061 C 
BRANCH   2   3
ATOM      3  C   UNL     1     166.247 167.684 161.418  1.00  0.00     0.258 C 
BRANCH   3   4
ATOM      4  N   UNL     1     166.537 166.277 161.139  1.00  0.00    -0.358 N 
ATOM      5  H   UNL     1     166.862 165.798 162.010  1.00  0.00     0.344 HD
ATOM      6  H   UNL     1     165.683 165.800 160.770  1.00  0.00     0.344 HD
ATOM      7  H   UNL     1     167.295 166.221 160.420  1.00  0.00     0.344 HD
ENDBRANCH   3   4
ENDBRANCH   2   3
ENDBRANCH   1   2
BRANCH   1   8
ATOM      8  C   UNL     1     164.314 166.523 164.488  1.00  0.00     0.072 C 
BRANCH   8   9
ATOM      9  C   UNL     1     165.710 166.308 165.115  1.00  0.00     0.227 C 
BRANCH   9  10
ATOM     10  N   UNL     1     165.669 166.560 166.559  1.00  0.00    -0.350 N 
ATOM     11  H   UNL     1     165.636 167.590 166.739  1.00  0.00     0.345 HD
ATOM     12  H   UNL     1     164.826 166.112 166.990  1.00  0.00     0.345 HD
ATOM     13  H   UNL     1     166.531 166.178 167.013  1.00  0.00     0.345 HD
ENDBRANCH   9  10
BRANCH   9  14
ATOM     14  C   UNL     1     166.220 164.915 164.846  1.00  0.00     0.099 C 
ATOM     15  O   UNL     1     166.097 164.011 165.714  1.00  0.00    -0.544 OA
ATOM     16  O   UNL     1     166.827 164.620 163.632  1.00  0.00    -0.544 OA
ENDBRANCH   9  14
ENDBRANCH   8   9
ENDBRANCH   1   8
TORSDOF 7
ENDMDL
MODEL 4
REMARK VINA RESULT:    -4.682     21.507     22.691
REMARK INTER + INTRA:          -6.445
REMARK INTER:                  -6.077
REMARK INTRA:                  -0.369
REMARK UNBOUND:                -0.121
REMARK SMILES [NH3+]CCCC[C@@H]([NH3+])C(=O)[O-]
REMARK SMILES IDX 4 1 3 2 2 3 1 4 5 8 6 9 7 10 8 14 9 15 10 16
REMARK H PARENT 1 5 1 6 1 7 7 11 7 12 7 13
REMARK Flexibility Score: inf
ROOT
ATOM      1  C   UNL     1     150.462 147.999 163.276  1.00  0.00     0.012 C 
ENDROOT
BRANCH   1   2
ATOM      2  C   UNL     1     149.226 148.330 162.424  1.00  0.00     0.061 C 
BRANCH   2   3
ATOM      3  C   UNL     1     148.016 148.756 163.273  1.00  0.00     0.258 C 
BRANCH   3   4
ATOM      4  N   UNL     1     147.947 150.213 163.385  1.00  0.00    -0.358 N 
ATOM      5  H   UNL     1     147.452 150.615 162.556  1.00  0.00     0.344 HD
ATOM      6  H   UNL     1     147.445 150.482 164.262  1.00  0.00     0.344 HD
ATOM      7  H   UNL     1     148.918 150.600 163.419  1.00  0.00     0.344 HD
ENDBRANCH   3   4
ENDBRANCH   2   3
ENDBRANCH   1   2
BRANCH   1   8
ATOM      8  C   UNL     1     150.154 147.980 164.784  1.00  0.00     0.072 C 
BRANCH   8   9
ATOM      9  C   UNL     1     151.310 148.570 165.622  1.00  0.00     0.227 C 
BRANCH   9  10
ATOM     10  N   UNL     1     152.480 148.825 164.774  1.00  0.00    -0.350 N 
ATOM     11  H   UNL     1     152.808 149.810 164.909  1.00  0.00     0.345 HD
ATOM     12  H   UNL     1     153.261 148.170 165.013  1.00  0.00     0.345 HD
ATOM     13  H   UNL     1     152.224 148.703 163.767  1.00  0.00     0.345 HD
ENDBRANCH   9  10
BRANCH   9  14
ATOM     14  C   UNL     1     150.889 149.837 166.320  1.00  0.00     0.099 C 
ATOM     15  O   UNL     1     149.901 150.499 165.903  1.00  0.00    -0.544 OA
ATOM     16  O   UNL     1     151.588 150.280 167.436  1.00  0.00    -0.544 OA
ENDBRANCH   9  14
ENDBRANCH   8   9
ENDBRANCH   1   8
TORSDOF 7
ENDMDL
MODEL 5
REMARK VINA RESULT:    -4.587     19.489     20.022
REMARK INTER + INTRA:          -6.317
REMARK INTER:                  -6.120
REMARK INTRA:                  -0.196
REMARK UNBOUND:                -0.121
REMARK SMILES [NH3+]CCCC[C@@H]([NH3+])C(=O)[O-]
REMARK SMILES IDX 4 1 3 2 2 3 1 4 5 8 6 9 7 10 8 14 9 15 10 16
REMARK H PARENT 1 5 1 6 1 7 7 11 7 12 7 13
REMARK Flexibility Score: inf
ROOT
ATOM      1  C   UNL     1     147.903 167.064 151.052  1.00  0.00     0.012 C 
ENDROOT
BRANCH   1   2
ATOM      2  C   UNL     1     148.596 166.366 149.871  1.00  0.00     0.061 C 
BRANCH   2   3
ATOM      3  C   UNL     1     148.375 164.844 149.868  1.00  0.00     0.258 C 
BRANCH   3   4
ATOM      4  N   UNL     1     148.001 164.375 148.533  1.00  0.00    -0.358 N 
ATOM      5  H   UNL     1     147.075 164.776 148.258  1.00  0.00     0.344 HD
ATOM      6  H   UNL     1     148.729 164.656 147.837  1.00  0.00     0.344 HD
ATOM      7  H   UNL     1     147.928 163.332 148.545  1.00  0.00     0.344 HD
ENDBRANCH   3   4
ENDBRANCH   2   3
ENDBRANCH   1   2
BRANCH   1   8
ATOM      8  C   UNL     1     148.808 168.101 151.742  1.00  0.00     0.072 C 
BRANCH   8   9
ATOM      9  C   UNL     1     149.275 167.629 153.137  1.00  0.00     0.227 C 
BRANCH   9  10
ATOM     10  N   UNL     1     148.349 166.626 153.676  1.00  0.00    -0.350 N 
ATOM     11  H   UNL     1     147.896 166.992 154.545  1.00  0.00     0.345 HD
ATOM     12  H   UNL     1     147.606 166.394 152.976  1.00  0.00     0.345 HD
ATOM     13  H   UNL     1     148.873 165.755 153.924  1.00  0.00     0.345 HD
ENDBRANCH   9  10
BRANCH   9  14
ATOM     14  C   UNL     1     150.673 167.069 153.085  1.00  0.00     0.099 C 
ATOM     15  O   UNL     1     151.296 167.004 151.992  1.00  0.00    -0.544 OA
ATOM     16  O   UNL     1     151.286 166.625 154.250  1.00  0.00    -0.544 OA
ENDBRANCH   9  14
ENDBRANCH   8   9
ENDBRANCH   1   8
TORSDOF 7
ENDMDL
MODEL 6
REMARK VINA RESULT:    -4.552     20.048     20.630
REMARK INTER + INTRA:          -6.269
REMARK INTER:                  -6.149
REMARK INTRA:                  -0.120
REMARK UNBOUND:                -0.121
REMARK SMILES [NH3+]CCCC[C@@H]([NH3+])C(=O)[O-]
REMARK SMILES IDX 4 1 3 2 2 3 1 4 5 8 6 9 7 10 8 14 9 15 10 16
REMARK H PARENT 1 5 1 6 1 7 7 11 7 12 7 13
REMARK Flexibility Score: inf
ROOT
ATOM      1  C   UNL     1     148.639 165.427 149.335  1.00  0.00     0.012 C 
ENDROOT
BRANCH   1   2
ATOM      2  C   UNL     1     149.699 165.202 148.244  1.00  0.00     0.061 C 
BRANCH   2   3
ATOM      3  C   UNL     1     151.033 165.900 148.558  1.00  0.00     0.258 C 
BRANCH   3   4
ATOM      4  N   UNL     1     152.163 165.023 148.253  1.00  0.00    -0.358 N 
ATOM      5  H   UNL     1     152.100 164.145 148.818  1.00  0.00     0.344 HD
ATOM      6  H   UNL     1     152.170 164.789 147.234  1.00  0.00     0.344 HD
ATOM      7  H   UNL     1     153.054 165.517 148.493  1.00  0.00     0.344 HD
ENDBRANCH   3   4
ENDBRANCH   2   3
ENDBRANCH   1   2
BRANCH   1   8
ATOM      8  C   UNL     1     149.008 166.577 150.290  1.00  0.00     0.072 C 
BRANCH   8   9
ATOM      9  C   UNL     1     147.984 166.732 151.436  1.00  0.00     0.227 C 
BRANCH   9  10
ATOM     10  N   UNL     1     146.975 165.669 151.371  1.00  0.00    -0.350 N 
ATOM     11  H   UNL     1     146.307 165.763 152.170  1.00  0.00     0.345 HD
ATOM     12  H   UNL     1     146.440 165.721 150.472  1.00  0.00     0.345 HD
ATOM     13  H   UNL     1     147.437 164.733 151.442  1.00  0.00     0.345 HD
ENDBRANCH   9  10
BRANCH   9  14
ATOM     14  C   UNL     1     148.664 166.718 152.781  1.00  0.00     0.099 C 
ATOM     15  O   UNL     1     147.986 166.788 153.841  1.00  0.00    -0.544 OA
ATOM     16  O   UNL     1     150.047 166.622 152.859  1.00  0.00    -0.544 OA
ENDBRANCH   9  14
ENDBRANCH   8   9
ENDBRANCH   1   8
TORSDOF 7
ENDMDL
MODEL 7
REMARK VINA RESULT:    -4.520     21.575     22.531
REMARK INTER + INTRA:          -6.225
REMARK INTER:                  -5.890
REMARK INTRA:                  -0.336
REMARK UNBOUND:                -0.121
REMARK SMILES [NH3+]CCCC[C@@H]([NH3+])C(=O)[O-]
REMARK SMILES IDX 4 1 3 2 2 3 1 4 5 8 6 9 7 10 8 14 9 15 10 16
REMARK H PARENT 1 5 1 6 1 7 7 11 7 12 7 13
REMARK Flexibility Score: inf
ROOT
ATOM      1  C   UNL     1     165.319 148.092 150.215  1.00  0.00     0.012 C 
ENDROOT
BRANCH   1   2
ATOM      2  C   UNL     1     166.478 148.625 151.074  1.00  0.00     0.061 C 
BRANCH   2   3
ATOM      3  C   UNL     1     166.752 150.120 150.839  1.00  0.00     0.258 C 
BRANCH   3   4
ATOM      4  N   UNL     1     166.770 150.426 149.408  1.00  0.00    -0.358 N 
ATOM      5  H   UNL     1     167.157 151.386 149.251  1.00  0.00     0.344 HD
ATOM      6  H   UNL     1     167.351 149.722 148.897  1.00  0.00     0.344 HD
ATOM      7  H   UNL     1     165.792 150.391 149.039  1.00  0.00     0.344 HD
ENDBRANCH   3   4
ENDBRANCH   2   3
ENDBRANCH   1   2
BRANCH   1   8
ATOM      8  C   UNL     1     163.942 148.555 150.726  1.00  0.00     0.072 C 
BRANCH   8   9
ATOM      9  C   UNL     1     162.913 148.692 149.582  1.00  0.00     0.227 C 
BRANCH   9  10
ATOM     10  N   UNL     1     161.546 148.630 150.111  1.00  0.00    -0.350 N 
ATOM     11  H   UNL     1     161.418 147.751 150.663  1.00  0.00     0.345 HD
ATOM     12  H   UNL     1     161.350 149.452 150.729  1.00  0.00     0.345 HD
ATOM     13  H   UNL     1     160.858 148.621 149.322  1.00  0.00     0.345 HD
ENDBRANCH   9  10
BRANCH   9  14
ATOM     14  C   UNL     1     163.114 149.974 148.816  1.00  0.00     0.099 C 
ATOM     15  O   UNL     1     162.328 150.945 148.976  1.00  0.00    -0.544 OA
ATOM     16  O   UNL     1     164.177 150.093 147.929  1.00  0.00    -0.544 OA
ENDBRANCH   9  14
ENDBRANCH   8   9
ENDBRANCH   1   8
TORSDOF 7
ENDMDL
MODEL 8
REMARK VINA RESULT:    -4.508     22.092     23.526
REMARK INTER + INTRA:          -6.209
REMARK INTER:                  -6.116
REMARK INTRA:                  -0.093
REMARK UNBOUND:                -0.121
REMARK SMILES [NH3+]CCCC[C@@H]([NH3+])C(=O)[O-]
REMARK SMILES IDX 4 1 3 2 2 3 1 4 5 8 6 9 7 10 8 14 9 15 10 16
REMARK H PARENT 1 5 1 6 1 7 7 11 7 12 7 13
REMARK Flexibility Score: inf
ROOT
ATOM      1  C   UNL     1     149.001 149.412 165.102  1.00  0.00     0.012 C 
ENDROOT
BRANCH   1   2
ATOM      2  C   UNL     1     149.979 149.293 166.282  1.00  0.00     0.061 C 
BRANCH   2   3
ATOM      3  C   UNL     1     151.440 149.542 165.871  1.00  0.00     0.258 C 
BRANCH   3   4
ATOM      4  N   UNL     1     152.176 150.212 166.944  1.00  0.00    -0.358 N 
ATOM      5  H   UNL     1     152.883 149.561 167.356  1.00  0.00     0.344 HD
ATOM      6  H   UNL     1     152.653 151.066 166.573  1.00  0.00     0.344 HD
ATOM      7  H   UNL     1     151.503 150.498 167.692  1.00  0.00     0.344 HD
ENDBRANCH   3   4
ENDBRANCH   2   3
ENDBRANCH   1   2
BRANCH   1   8
ATOM      8  C   UNL     1     149.203 148.304 164.052  1.00  0.00     0.072 C 
BRANCH   8   9
ATOM      9  C   UNL     1     148.105 148.325 162.966  1.00  0.00     0.227 C 
BRANCH   9  10
ATOM     10  N   UNL     1     147.273 149.526 163.099  1.00  0.00    -0.350 N 
ATOM     11  H   UNL     1     147.227 149.817 164.103  1.00  0.00     0.345 HD
ATOM     12  H   UNL     1     147.667 150.314 162.533  1.00  0.00     0.345 HD
ATOM     13  H   UNL     1     146.299 149.323 162.775  1.00  0.00     0.345 HD
ENDBRANCH   9  10
BRANCH   9  14
ATOM     14  C   UNL     1     148.701 148.258 161.584  1.00  0.00     0.099 C 
ATOM     15  O   UNL     1     147.980 147.982 160.589  1.00  0.00    -0.544 OA
ATOM     16  O   UNL     1     150.055 148.508 161.399  1.00  0.00    -0.544 OA
ENDBRANCH   9  14
ENDBRANCH   8   9
ENDBRANCH   1   8
TORSDOF 7
ENDMDL
MODEL 9
REMARK VINA RESULT:    -4.480     19.952     20.702
REMARK INTER + INTRA:          -6.172
REMARK INTER:                  -5.833
REMARK INTRA:                  -0.339
REMARK UNBOUND:                -0.121
REMARK SMILES [NH3+]CCCC[C@@H]([NH3+])C(=O)[O-]
REMARK SMILES IDX 4 1 3 2 2 3 1 4 5 8 6 9 7 10 8 14 9 15 10 16
REMARK H PARENT 1 5 1 6 1 7 7 11 7 12 7 13
REMARK Flexibility Score: inf
ROOT
ATOM      1  C   UNL     1     150.591 167.085 151.643  1.00  0.00     0.012 C 
ENDROOT
BRANCH   1   2
ATOM      2  C   UNL     1     150.239 167.075 153.140  1.00  0.00     0.061 C 
BRANCH   2   3
ATOM      3  C   UNL     1     148.768 167.438 153.406  1.00  0.00     0.258 C 
BRANCH   3   4
ATOM      4  N   UNL     1     148.011 166.260 153.832  1.00  0.00    -0.358 N 
ATOM      5  H   UNL     1     148.445 165.844 154.688  1.00  0.00     0.344 HD
ATOM      6  H   UNL     1     147.019 166.523 154.029  1.00  0.00     0.344 HD
ATOM      7  H   UNL     1     148.027 165.548 153.065  1.00  0.00     0.344 HD
ENDBRANCH   3   4
ENDBRANCH   2   3
ENDBRANCH   1   2
BRANCH   1   8
ATOM      8  C   UNL     1     149.368 167.353 150.749  1.00  0.00     0.072 C 
BRANCH   8   9
ATOM      9  C   UNL     1     149.410 166.528 149.443  1.00  0.00     0.227 C 
BRANCH   9  10
ATOM     10  N   UNL     1     150.797 166.265 149.046  1.00  0.00    -0.350 N 
ATOM     11  H   UNL     1     150.992 165.239 149.092  1.00  0.00     0.345 HD
ATOM     12  H   UNL     1     150.973 166.602 148.070  1.00  0.00     0.345 HD
ATOM     13  H   UNL     1     151.454 166.751 149.701  1.00  0.00     0.345 HD
ENDBRANCH   9  10
BRANCH   9  14
ATOM     14  C   UNL     1     148.659 165.230 149.592  1.00  0.00     0.099 C 
ATOM     15  O   UNL     1     148.645 164.388 148.655  1.00  0.00    -0.544 OA
ATOM     16  O   UNL     1     147.980 164.952 150.772  1.00  0.00    -0.544 OA
ENDBRANCH   9  14
ENDBRANCH   8   9
ENDBRANCH   1   8
TORSDOF 7
ENDMDL
