MODEL 1
REMARK VINA RESULT:    15.419      0.000      0.000
REMARK INTER + INTRA:          16.771
REMARK INTER:                  16.771
REMARK INTRA:                   0.000
REMARK UNBOUND:                 0.000
REMARK SMILES Cc1cc(O)c2c(c1)C(=O)c1cc(O)cc(O)c1C2=O
REMARK SMILES IDX 1 1 2 2 8 3 7 4 6 5 4 6 3 7 19 8 20 9 18 10 11 11 9 12 10 13
REMARK SMILES IDX 12 14 13 15 15 16 16 17 5 18 17 20 14 22
REMARK H PARENT 5 19 17 21 14 23
REMARK Flexibility Score: inf
ROOT
ATOM      1  C   UNL     1      21.935  -1.745  28.637  1.00  0.00     0.044 C 
ATOM      2  C   UNL     1      20.488  -2.099  28.825  1.00  0.00    -0.047 A 
ATOM      3  C   UNL     1      19.634  -2.186  27.721  1.00  0.00     0.016 A 
ATOM      4  C   UNL     1      18.269  -2.474  27.890  1.00  0.00     0.038 A 
ATOM      5  C   UNL     1      17.745  -2.653  29.190  1.00  0.00     0.076 A 
ATOM      6  C   UNL     1      18.625  -2.610  30.303  1.00  0.00     0.127 A 
ATOM      7  C   UNL     1      19.974  -2.302  30.111  1.00  0.00     0.050 A 
ATOM      8  C   UNL     1      16.275  -2.809  29.338  1.00  0.00     0.201 C 
ATOM      9  O   UNL     1      15.704  -2.408  30.387  1.00  0.00    -0.288 OA
ATOM     10  C   UNL     1      15.460  -3.259  28.180  1.00  0.00     0.076 A 
ATOM     11  C   UNL     1      15.989  -3.078  26.882  1.00  0.00     0.041 A 
ATOM     12  C   UNL     1      17.379  -2.594  26.712  1.00  0.00     0.194 C 
ATOM     13  O   UNL     1      17.812  -2.308  25.561  1.00  0.00    -0.289 OA
ATOM     14  C   UNL     1      15.195  -3.363  25.758  1.00  0.00     0.059 A 
ATOM     15  C   UNL     1      13.890  -3.839  25.914  1.00  0.00     0.120 A 
ATOM     16  C   UNL     1      13.379  -4.057  27.192  1.00  0.00     0.093 A 
ATOM     17  C   UNL     1      14.156  -3.801  28.327  1.00  0.00     0.131 A 
ENDROOT
BRANCH   6  18
ATOM     18  O   UNL     1      18.208  -2.897  31.605  1.00  0.00    -0.507 OA
ATOM     19  H   UNL     1      18.270  -3.815  32.023  1.00  0.00     0.293 HD
ENDBRANCH   6  18
BRANCH  17  20
ATOM     20  O   UNL     1      13.610  -4.130  29.570  1.00  0.00    -0.507 OA
ATOM     21  H   UNL     1      13.051  -4.955  29.733  1.00  0.00     0.293 HD
ENDBRANCH  17  20
BRANCH  15  22
ATOM     22  O   UNL     1      13.096  -4.111  24.801  1.00  0.00    -0.508 OA
ATOM     23  H   UNL     1      12.443  -4.886  24.792  1.00  0.00     0.293 HD
ENDBRANCH  15  22
TORSDOF 3
ENDMDL
MODEL 2
REMARK VINA RESULT:    16.674      5.726      6.527
REMARK INTER + INTRA:          18.136
REMARK INTER:                  18.136
REMARK INTRA:                   0.000
REMARK UNBOUND:                 0.000
REMARK SMILES Cc1cc(O)c2c(c1)C(=O)c1cc(O)cc(O)c1C2=O
REMARK SMILES IDX 1 1 2 2 8 3 7 4 6 5 4 6 3 7 19 8 20 9 18 10 11 11 9 12 10 13
REMARK SMILES IDX 12 14 13 15 15 16 16 17 5 18 17 20 14 22
REMARK H PARENT 5 19 17 21 14 23
REMARK Flexibility Score: inf
ROOT
ATOM      1  C   UNL     1      20.694   3.401  28.565  1.00  0.00     0.044 C 
ATOM      2  C   UNL     1      21.066   1.964  28.789  1.00  0.00    -0.047 A 
ATOM      3  C   UNL     1      21.241   1.103  27.700  1.00  0.00     0.016 A 
ATOM      4  C   UNL     1      21.546  -0.253  27.901  1.00  0.00     0.038 A 
ATOM      5  C   UNL     1      21.653  -0.764  29.214  1.00  0.00     0.076 A 
ATOM      6  C   UNL     1      21.520   0.124  30.314  1.00  0.00     0.127 A 
ATOM      7  C   UNL     1      21.197   1.465  30.090  1.00  0.00     0.050 A 
ATOM      8  C   UNL     1      21.830  -2.229  29.386  1.00  0.00     0.201 C 
ATOM      9  O   UNL     1      21.375  -2.800  30.412  1.00  0.00    -0.288 OA
ATOM     10  C   UNL     1      22.371  -3.043  28.267  1.00  0.00     0.076 A 
ATOM     11  C   UNL     1      22.263  -2.528  26.954  1.00  0.00     0.041 A 
ATOM     12  C   UNL     1      21.761  -1.150  26.741  1.00  0.00     0.194 C 
ATOM     13  O   UNL     1      21.540  -0.733  25.570  1.00  0.00    -0.289 OA
ATOM     14  C   UNL     1      22.635  -3.325  25.859  1.00  0.00     0.059 A 
ATOM     15  C   UNL     1      23.128  -4.618  26.057  1.00  0.00     0.120 A 
ATOM     16  C   UNL     1      23.275  -5.113  27.351  1.00  0.00     0.093 A 
ATOM     17  C   UNL     1      22.930  -4.334  28.460  1.00  0.00     0.131 A 
ENDROOT
BRANCH   6  18
ATOM     18  O   UNL     1      21.732  -0.276  31.636  1.00  0.00    -0.507 OA
ATOM     19  H   UNL     1      21.529   0.307  32.436  1.00  0.00     0.293 HD
ENDBRANCH   6  18
BRANCH  17  20
ATOM     20  O   UNL     1      23.190  -4.862  29.726  1.00  0.00    -0.507 OA
ATOM     21  H   UNL     1      22.719  -4.556  30.567  1.00  0.00     0.293 HD
ENDBRANCH  17  20
BRANCH  15  22
ATOM     22  O   UNL     1      23.488  -5.415  24.972  1.00  0.00    -0.508 OA
ATOM     23  H   UNL     1      24.023  -5.044  24.195  1.00  0.00     0.293 HD
ENDBRANCH  15  22
TORSDOF 3
ENDMDL
