MODEL 1
REMARK VINA RESULT:    -3.961      0.000      0.000
REMARK INTER + INTRA:          -8.348
REMARK INTER:                  -6.971
REMARK INTRA:                  -1.376
REMARK UNBOUND:                -1.376
REMARK SMILES CCCCCCCCCCCCCCC(=O)[O-]
REMARK SMILES IDX 9 1 10 2 11 3 12 4 13 5 14 6 15 7 16 8 17 9 8 10 7 11 6 12
REMARK SMILES IDX 5 13 4 14 3 15 2 16 1 17
REMARK H PARENT
REMARK Flexibility Score: inf
ROOT
ATOM      1  C   UNL     1      10.701  18.186  12.996  1.00  0.00     0.000 C 
ENDROOT
BRANCH   1   2
ATOM      2  C   UNL     1      11.029  17.336  14.238  1.00  0.00     0.000 C 
BRANCH   2   3
ATOM      3  C   UNL     1      11.456  18.204  15.441  1.00  0.00     0.000 C 
BRANCH   3   4
ATOM      4  C   UNL     1      11.409  17.458  16.788  1.00  0.00     0.000 C 
BRANCH   4   5
ATOM      5  C   UNL     1      11.851  15.986  16.725  1.00  0.00     0.006 C 
BRANCH   5   6
ATOM      6  C   UNL     1      13.089  15.700  17.586  1.00  0.00     0.053 C 
BRANCH   6   7
ATOM      7  C   UNL     1      14.236  16.553  17.146  1.00  0.00     0.041 C 
ATOM      8  O   UNL     1      14.800  17.328  17.963  1.00  0.00    -0.550 OA
ATOM      9  O   UNL     1      14.714  16.457  15.845  1.00  0.00    -0.550 OA
ENDBRANCH   6   7
ENDBRANCH   5   6
ENDBRANCH   4   5
ENDBRANCH   3   4
ENDBRANCH   2   3
ENDBRANCH   1   2
BRANCH   1  10
ATOM     10  C   UNL     1       9.946  19.478  13.346  1.00  0.00     0.000 C 
BRANCH  10  11
ATOM     11  C   UNL     1       8.569  19.562  12.669  1.00  0.00    -0.000 C 
BRANCH  11  12
ATOM     12  C   UNL     1       8.714  19.775  11.157  1.00  0.00    -0.000 C 
BRANCH  12  13
ATOM     13  C   UNL     1       7.376  19.553  10.440  1.00  0.00    -0.000 C 
BRANCH  13  14
ATOM     14  C   UNL     1       7.093  18.058  10.254  1.00  0.00    -0.000 C 
BRANCH  14  15
ATOM     15  C   UNL     1       8.228  17.377   9.475  1.00  0.00    -0.000 C 
BRANCH  15  16
ATOM     16  C   UNL     1       8.916  16.267  10.285  1.00  0.00    -0.003 C 
ATOM     17  C   UNL     1       8.159  15.913  11.565  1.00  0.00     0.004 C 
ENDBRANCH  15  16
ENDBRANCH  14  15
ENDBRANCH  13  14
ENDBRANCH  12  13
ENDBRANCH  11  12
ENDBRANCH  10  11
ENDBRANCH   1  10
TORSDOF 13
ENDMDL
MODEL 2
REMARK VINA RESULT:    -3.961      3.511      7.753
REMARK INTER + INTRA:          -8.347
REMARK INTER:                  -7.366
REMARK INTRA:                  -0.981
REMARK UNBOUND:                -1.376
REMARK SMILES CCCCCCCCCCCCCCC(=O)[O-]
REMARK SMILES IDX 9 1 10 2 11 3 12 4 13 5 14 6 15 7 16 8 17 9 8 10 7 11 6 12
REMARK SMILES IDX 5 13 4 14 3 15 2 16 1 17
REMARK H PARENT
REMARK Flexibility Score: inf
ROOT
ATOM      1  C   UNL     1      10.976  18.353  14.394  1.00  0.00     0.000 C 
ENDROOT
BRANCH   1   2
ATOM      2  C   UNL     1      10.249  18.342  13.037  1.00  0.00     0.000 C 
BRANCH   2   3
ATOM      3  C   UNL     1      10.349  16.970  12.335  1.00  0.00     0.000 C 
BRANCH   3   4
ATOM      4  C   UNL     1       8.993  16.253  12.185  1.00  0.00     0.000 C 
BRANCH   4   5
ATOM      5  C   UNL     1       8.539  16.033  10.732  1.00  0.00     0.006 C 
BRANCH   5   6
ATOM      6  C   UNL     1       7.569  17.117  10.243  1.00  0.00     0.053 C 
BRANCH   6   7
ATOM      7  C   UNL     1       8.327  18.309   9.751  1.00  0.00     0.041 C 
ATOM      8  O   UNL     1       7.955  19.471  10.066  1.00  0.00    -0.550 OA
ATOM      9  O   UNL     1       9.472  18.136   8.986  1.00  0.00    -0.550 OA
ENDBRANCH   6   7
ENDBRANCH   5   6
ENDBRANCH   4   5
ENDBRANCH   3   4
ENDBRANCH   2   3
ENDBRANCH   1   2
BRANCH   1  10
ATOM     10  C   UNL     1      11.571  16.983  14.760  1.00  0.00     0.000 C 
BRANCH  10  11
ATOM     11  C   UNL     1      10.976  16.406  16.053  1.00  0.00    -0.000 C 
BRANCH  11  12
ATOM     12  C   UNL     1      12.067  15.764  16.919  1.00  0.00    -0.000 C 
BRANCH  12  13
ATOM     13  C   UNL     1      13.465  16.176  16.439  1.00  0.00    -0.000 C 
BRANCH  13  14
ATOM     14  C   UNL     1      14.121  17.150  17.425  1.00  0.00    -0.000 C 
BRANCH  14  15
ATOM     15  C   UNL     1      15.542  17.516  16.971  1.00  0.00    -0.000 C 
BRANCH  15  16
ATOM     16  C   UNL     1      16.008  16.687  15.764  1.00  0.00    -0.003 C 
ATOM     17  C   UNL     1      16.625  17.546  14.661  1.00  0.00     0.004 C 
ENDBRANCH  15  16
ENDBRANCH  14  15
ENDBRANCH  13  14
ENDBRANCH  12  13
ENDBRANCH  11  12
ENDBRANCH  10  11
ENDBRANCH   1  10
TORSDOF 13
ENDMDL
MODEL 3
REMARK VINA RESULT:    -3.949      3.364      7.188
REMARK INTER + INTRA:          -8.326
REMARK INTER:                  -6.194
REMARK INTRA:                  -2.132
REMARK UNBOUND:                -1.376
REMARK SMILES CCCCCCCCCCCCCCC(=O)[O-]
REMARK SMILES IDX 9 1 10 2 11 3 12 4 13 5 14 6 15 7 16 8 17 9 8 10 7 11 6 12
REMARK SMILES IDX 5 13 4 14 3 15 2 16 1 17
REMARK H PARENT
REMARK Flexibility Score: inf
ROOT
ATOM      1  C   UNL     1      14.024  16.400  17.494  1.00  0.00     0.000 C 
ENDROOT
BRANCH   1   2
ATOM      2  C   UNL     1      12.830  15.442  17.667  1.00  0.00     0.000 C 
BRANCH   2   3
ATOM      3  C   UNL     1      11.610  15.876  16.827  1.00  0.00     0.000 C 
BRANCH   3   4
ATOM      4  C   UNL     1      11.323  17.389  16.891  1.00  0.00     0.000 C 
BRANCH   4   5
ATOM      5  C   UNL     1      11.356  18.108  15.532  1.00  0.00     0.006 C 
BRANCH   5   6
ATOM      6  C   UNL     1      11.440  17.135  14.348  1.00  0.00     0.053 C 
BRANCH   6   7
ATOM      7  C   UNL     1      10.555  17.596  13.233  1.00  0.00     0.041 C 
ATOM      8  O   UNL     1      10.339  16.847  12.243  1.00  0.00    -0.550 OA
ATOM      9  O   UNL     1       9.929  18.833  13.310  1.00  0.00    -0.550 OA
ENDBRANCH   6   7
ENDBRANCH   5   6
ENDBRANCH   4   5
ENDBRANCH   3   4
ENDBRANCH   2   3
ENDBRANCH   1   2
BRANCH   1  10
ATOM     10  C   UNL     1      14.644  16.328  16.089  1.00  0.00     0.000 C 
BRANCH  10  11
ATOM     11  C   UNL     1      16.078  16.876  16.046  1.00  0.00    -0.000 C 
BRANCH  11  12
ATOM     12  C   UNL     1      16.221  17.953  14.964  1.00  0.00    -0.000 C 
BRANCH  12  13
ATOM     13  C   UNL     1      14.961  18.825  14.886  1.00  0.00    -0.000 C 
BRANCH  13  14
ATOM     14  C   UNL     1      15.158  20.145  15.642  1.00  0.00    -0.000 C 
BRANCH  14  15
ATOM     15  C   UNL     1      13.988  20.408  16.602  1.00  0.00    -0.000 C 
BRANCH  15  16
ATOM     16  C   UNL     1      14.242  19.846  18.009  1.00  0.00    -0.003 C 
ATOM     17  C   UNL     1      15.719  19.884  18.402  1.00  0.00     0.004 C 
ENDBRANCH  15  16
ENDBRANCH  14  15
ENDBRANCH  13  14
ENDBRANCH  12  13
ENDBRANCH  11  12
ENDBRANCH  10  11
ENDBRANCH   1  10
TORSDOF 13
ENDMDL
MODEL 4
REMARK VINA RESULT:    -3.933      4.199      6.172
REMARK INTER + INTRA:          -8.298
REMARK INTER:                  -6.386
REMARK INTRA:                  -1.912
REMARK UNBOUND:                -1.376
REMARK SMILES CCCCCCCCCCCCCCC(=O)[O-]
REMARK SMILES IDX 9 1 10 2 11 3 12 4 13 5 14 6 15 7 16 8 17 9 8 10 7 11 6 12
REMARK SMILES IDX 5 13 4 14 3 15 2 16 1 17
REMARK H PARENT
REMARK Flexibility Score: inf
ROOT
ATOM      1  C   UNL     1      14.504  17.093  17.602  1.00  0.00     0.000 C 
ENDROOT
BRANCH   1   2
ATOM      2  C   UNL     1      14.781  16.540  16.192  1.00  0.00     0.000 C 
BRANCH   2   3
ATOM      3  C   UNL     1      16.260  16.707  15.781  1.00  0.00     0.000 C 
BRANCH   3   4
ATOM      4  C   UNL     1      16.471  17.705  14.626  1.00  0.00     0.000 C 
BRANCH   4   5
ATOM      5  C   UNL     1      17.134  19.031  15.035  1.00  0.00     0.006 C 
BRANCH   5   6
ATOM      6  C   UNL     1      18.537  19.202  14.438  1.00  0.00     0.053 C 
BRANCH   6   7
ATOM      7  C   UNL     1      19.579  18.999  15.492  1.00  0.00     0.041 C 
ATOM      8  O   UNL     1      19.932  19.959  16.227  1.00  0.00    -0.550 OA
ATOM      9  O   UNL     1      20.124  17.738  15.696  1.00  0.00    -0.550 OA
ENDBRANCH   6   7
ENDBRANCH   5   6
ENDBRANCH   4   5
ENDBRANCH   3   4
ENDBRANCH   2   3
ENDBRANCH   1   2
BRANCH   1  10
ATOM     10  C   UNL     1      14.553  18.629  17.657  1.00  0.00     0.000 C 
BRANCH  10  11
ATOM     11  C   UNL     1      13.281  19.282  17.094  1.00  0.00    -0.000 C 
BRANCH  11  12
ATOM     12  C   UNL     1      13.524  19.828  15.682  1.00  0.00    -0.000 C 
BRANCH  12  13
ATOM     13  C   UNL     1      12.786  18.987  14.632  1.00  0.00    -0.000 C 
BRANCH  13  14
ATOM     14  C   UNL     1      11.391  18.588  15.128  1.00  0.00    -0.000 C 
BRANCH  14  15
ATOM     15  C   UNL     1      11.243  17.060  15.177  1.00  0.00    -0.000 C 
BRANCH  15  16
ATOM     16  C   UNL     1      10.877  16.548  16.579  1.00  0.00    -0.003 C 
ATOM     17  C   UNL     1      11.406  15.140  16.850  1.00  0.00     0.004 C 
ENDBRANCH  15  16
ENDBRANCH  14  15
ENDBRANCH  13  14
ENDBRANCH  12  13
ENDBRANCH  11  12
ENDBRANCH  10  11
ENDBRANCH   1  10
TORSDOF 13
ENDMDL
MODEL 5
REMARK VINA RESULT:    -3.919      1.692      3.233
REMARK INTER + INTRA:          -8.274
REMARK INTER:                  -6.285
REMARK INTRA:                  -1.989
REMARK UNBOUND:                -1.376
REMARK SMILES CCCCCCCCCCCCCCC(=O)[O-]
REMARK SMILES IDX 9 1 10 2 11 3 12 4 13 5 14 6 15 7 16 8 17 9 8 10 7 11 6 12
REMARK SMILES IDX 5 13 4 14 3 15 2 16 1 17
REMARK H PARENT
REMARK Flexibility Score: inf
ROOT
ATOM      1  C   UNL     1       8.873  16.076  11.654  1.00  0.00     0.000 C 
ENDROOT
BRANCH   1   2
ATOM      2  C   UNL     1      10.231  16.669  12.071  1.00  0.00     0.000 C 
BRANCH   2   3
ATOM      3  C   UNL     1      10.262  17.060  13.564  1.00  0.00     0.000 C 
BRANCH   3   4
ATOM      4  C   UNL     1      11.300  18.149  13.896  1.00  0.00     0.000 C 
BRANCH   4   5
ATOM      5  C   UNL     1      12.067  17.928  15.210  1.00  0.00     0.006 C 
BRANCH   5   6
ATOM      6  C   UNL     1      12.494  16.467  15.410  1.00  0.00     0.053 C 
BRANCH   6   7
ATOM      7  C   UNL     1      11.979  15.948  16.715  1.00  0.00     0.041 C 
ATOM      8  O   UNL     1      10.756  15.684  16.854  1.00  0.00    -0.550 OA
ATOM      9  O   UNL     1      12.859  15.710  17.763  1.00  0.00    -0.550 OA
ENDBRANCH   6   7
ENDBRANCH   5   6
ENDBRANCH   4   5
ENDBRANCH   3   4
ENDBRANCH   2   3
ENDBRANCH   1   2
BRANCH   1  10
ATOM     10  C   UNL     1       8.567  16.286  10.162  1.00  0.00     0.000 C 
BRANCH  10  11
ATOM     11  C   UNL     1       7.494  17.359   9.922  1.00  0.00    -0.000 C 
BRANCH  11  12
ATOM     12  C   UNL     1       6.890  17.836  11.249  1.00  0.00    -0.000 C 
BRANCH  12  13
ATOM     13  C   UNL     1       7.098  19.344  11.439  1.00  0.00    -0.000 C 
BRANCH  13  14
ATOM     14  C   UNL     1       8.232  19.860  10.546  1.00  0.00    -0.000 C 
BRANCH  14  15
ATOM     15  C   UNL     1       9.449  20.274  11.388  1.00  0.00    -0.000 C 
BRANCH  15  16
ATOM     16  C   UNL     1      10.781  19.997  10.677  1.00  0.00    -0.003 C 
ATOM     17  C   UNL     1      10.600  19.264   9.347  1.00  0.00     0.004 C 
ENDBRANCH  15  16
ENDBRANCH  14  15
ENDBRANCH  13  14
ENDBRANCH  12  13
ENDBRANCH  11  12
ENDBRANCH  10  11
ENDBRANCH   1  10
TORSDOF 13
ENDMDL
MODEL 6
REMARK VINA RESULT:    -3.917      3.561      7.144
REMARK INTER + INTRA:          -8.270
REMARK INTER:                  -6.667
REMARK INTRA:                  -1.602
REMARK UNBOUND:                -1.376
REMARK SMILES CCCCCCCCCCCCCCC(=O)[O-]
REMARK SMILES IDX 9 1 10 2 11 3 12 4 13 5 14 6 15 7 16 8 17 9 8 10 7 11 6 12
REMARK SMILES IDX 5 13 4 14 3 15 2 16 1 17
REMARK H PARENT
REMARK Flexibility Score: inf
ROOT
ATOM      1  C   UNL     1      12.875  19.565  14.301  1.00  0.00     0.000 C 
ENDROOT
BRANCH   1   2
ATOM      2  C   UNL     1      11.426  19.439  14.808  1.00  0.00     0.000 C 
BRANCH   2   3
ATOM      3  C   UNL     1      10.485  18.848  13.736  1.00  0.00     0.000 C 
BRANCH   3   4
ATOM      4  C   UNL     1      10.868  17.421  13.297  1.00  0.00     0.000 C 
BRANCH   4   5
ATOM      5  C   UNL     1       9.826  16.718  12.411  1.00  0.00     0.006 C 
BRANCH   5   6
ATOM      6  C   UNL     1       9.771  17.293  10.989  1.00  0.00     0.053 C 
BRANCH   6   7
ATOM      7  C   UNL     1       8.602  16.730  10.245  1.00  0.00     0.041 C 
ATOM      8  O   UNL     1       8.440  16.995   9.025  1.00  0.00    -0.550 OA
ATOM      9  O   UNL     1       7.718  15.873  10.887  1.00  0.00    -0.550 OA
ENDBRANCH   6   7
ENDBRANCH   5   6
ENDBRANCH   4   5
ENDBRANCH   3   4
ENDBRANCH   2   3
ENDBRANCH   1   2
BRANCH   1  10
ATOM     10  C   UNL     1      13.817  20.183  15.348  1.00  0.00     0.000 C 
BRANCH  10  11
ATOM     11  C   UNL     1      13.543  19.668  16.769  1.00  0.00    -0.000 C 
BRANCH  11  12
ATOM     12  C   UNL     1      14.694  18.782  17.262  1.00  0.00    -0.000 C 
BRANCH  12  13
ATOM     13  C   UNL     1      14.190  17.383  17.638  1.00  0.00    -0.000 C 
BRANCH  13  14
ATOM     14  C   UNL     1      14.284  16.424  16.446  1.00  0.00    -0.000 C 
BRANCH  14  15
ATOM     15  C   UNL     1      12.890  16.110  15.882  1.00  0.00    -0.000 C 
BRANCH  15  16
ATOM     16  C   UNL     1      11.929  15.572  16.953  1.00  0.00    -0.003 C 
ATOM     17  C   UNL     1      10.562  16.256  16.916  1.00  0.00     0.004 C 
ENDBRANCH  15  16
ENDBRANCH  14  15
ENDBRANCH  13  14
ENDBRANCH  12  13
ENDBRANCH  11  12
ENDBRANCH  10  11
ENDBRANCH   1  10
TORSDOF 13
ENDMDL
MODEL 7
REMARK VINA RESULT:    -3.887      3.552      7.731
REMARK INTER + INTRA:          -8.216
REMARK INTER:                  -7.274
REMARK INTRA:                  -0.943
REMARK UNBOUND:                -1.376
REMARK SMILES CCCCCCCCCCCCCCC(=O)[O-]
REMARK SMILES IDX 9 1 10 2 11 3 12 4 13 5 14 6 15 7 16 8 17 9 8 10 7 11 6 12
REMARK SMILES IDX 5 13 4 14 3 15 2 16 1 17
REMARK H PARENT
REMARK Flexibility Score: inf
ROOT
ATOM      1  C   UNL     1      10.998  16.830  16.688  1.00  0.00     0.000 C 
ENDROOT
BRANCH   1   2
ATOM      2  C   UNL     1      11.386  17.873  15.624  1.00  0.00     0.000 C 
BRANCH   2   3
ATOM      3  C   UNL     1      11.395  17.276  14.200  1.00  0.00     0.000 C 
BRANCH   3   4
ATOM      4  C   UNL     1      11.019  18.291  13.103  1.00  0.00     0.000 C 
BRANCH   4   5
ATOM      5  C   UNL     1       9.717  17.970  12.349  1.00  0.00     0.006 C 
BRANCH   5   6
ATOM      6  C   UNL     1       9.514  16.464  12.129  1.00  0.00     0.053 C 
BRANCH   6   7
ATOM      7  C   UNL     1       8.458  16.227  11.097  1.00  0.00     0.041 C 
ATOM      8  O   UNL     1       7.284  15.933  11.446  1.00  0.00    -0.550 OA
ATOM      9  O   UNL     1       8.758  16.380   9.750  1.00  0.00    -0.550 OA
ENDBRANCH   6   7
ENDBRANCH   5   6
ENDBRANCH   4   5
ENDBRANCH   3   4
ENDBRANCH   2   3
ENDBRANCH   1   2
BRANCH   1  10
ATOM     10  C   UNL     1      11.833  15.543  16.588  1.00  0.00     0.000 C 
BRANCH  10  11
ATOM     11  C   UNL     1      12.871  15.421  17.714  1.00  0.00    -0.000 C 
BRANCH  11  12
ATOM     12  C   UNL     1      14.014  16.424  17.516  1.00  0.00    -0.000 C 
BRANCH  12  13
ATOM     13  C   UNL     1      14.660  16.257  16.135  1.00  0.00    -0.000 C 
BRANCH  13  14
ATOM     14  C   UNL     1      15.905  17.141  15.999  1.00  0.00    -0.000 C 
BRANCH  14  15
ATOM     15  C   UNL     1      15.705  18.209  14.913  1.00  0.00    -0.000 C 
BRANCH  15  16
ATOM     16  C   UNL     1      16.954  18.406  14.041  1.00  0.00    -0.003 C 
ATOM     17  C   UNL     1      18.237  18.517  14.865  1.00  0.00     0.004 C 
ENDBRANCH  15  16
ENDBRANCH  14  15
ENDBRANCH  13  14
ENDBRANCH  12  13
ENDBRANCH  11  12
ENDBRANCH  10  11
ENDBRANCH   1  10
TORSDOF 13
ENDMDL
MODEL 8
REMARK VINA RESULT:    -3.867      4.802      7.375
REMARK INTER + INTRA:          -8.183
REMARK INTER:                  -6.634
REMARK INTRA:                  -1.549
REMARK UNBOUND:                -1.376
REMARK SMILES CCCCCCCCCCCCCCC(=O)[O-]
REMARK SMILES IDX 9 1 10 2 11 3 12 4 13 5 14 6 15 7 16 8 17 9 8 10 7 11 6 12
REMARK SMILES IDX 5 13 4 14 3 15 2 16 1 17
REMARK H PARENT
REMARK Flexibility Score: inf
ROOT
ATOM      1  C   UNL     1      16.531  17.381  14.617  1.00  0.00     0.000 C 
ENDROOT
BRANCH   1   2
ATOM      2  C   UNL     1      16.769  18.898  14.729  1.00  0.00     0.000 C 
BRANCH   2   3
ATOM      3  C   UNL     1      18.222  19.288  14.380  1.00  0.00     0.000 C 
BRANCH   3   4
ATOM      4  C   UNL     1      19.159  19.334  15.602  1.00  0.00     0.000 C 
BRANCH   4   5
ATOM      5  C   UNL     1      19.990  18.059  15.824  1.00  0.00     0.006 C 
BRANCH   5   6
ATOM      6  C   UNL     1      19.524  17.252  17.043  1.00  0.00     0.053 C 
BRANCH   6   7
ATOM      7  C   UNL     1      20.579  17.256  18.104  1.00  0.00     0.041 C 
ATOM      8  O   UNL     1      21.403  18.206  18.176  1.00  0.00    -0.550 OA
ATOM      9  O   UNL     1      20.622  16.235  19.044  1.00  0.00    -0.550 OA
ENDBRANCH   6   7
ENDBRANCH   5   6
ENDBRANCH   4   5
ENDBRANCH   3   4
ENDBRANCH   2   3
ENDBRANCH   1   2
BRANCH   1  10
ATOM     10  C   UNL     1      15.778  16.808  15.829  1.00  0.00     0.000 C 
BRANCH  10  11
ATOM     11  C   UNL     1      15.814  17.744  17.046  1.00  0.00    -0.000 C 
BRANCH  11  12
ATOM     12  C   UNL     1      14.474  17.725  17.792  1.00  0.00    -0.000 C 
BRANCH  12  13
ATOM     13  C   UNL     1      13.577  18.886  17.344  1.00  0.00    -0.000 C 
BRANCH  13  14
ATOM     14  C   UNL     1      12.148  18.403  17.071  1.00  0.00    -0.000 C 
BRANCH  14  15
ATOM     15  C   UNL     1      12.068  17.654  15.733  1.00  0.00    -0.000 C 
BRANCH  15  16
ATOM     16  C   UNL     1      11.152  16.422  15.800  1.00  0.00    -0.003 C 
ATOM     17  C   UNL     1      11.551  15.449  16.909  1.00  0.00     0.004 C 
ENDBRANCH  15  16
ENDBRANCH  14  15
ENDBRANCH  13  14
ENDBRANCH  12  13
ENDBRANCH  11  12
ENDBRANCH  10  11
ENDBRANCH   1  10
TORSDOF 13
ENDMDL
MODEL 9
REMARK VINA RESULT:    -3.807      3.870      6.014
REMARK INTER + INTRA:          -8.077
REMARK INTER:                  -6.029
REMARK INTRA:                  -2.048
REMARK UNBOUND:                -1.376
REMARK SMILES CCCCCCCCCCCCCCC(=O)[O-]
REMARK SMILES IDX 9 1 10 2 11 3 12 4 13 5 14 6 15 7 16 8 17 9 8 10 7 11 6 12
REMARK SMILES IDX 5 13 4 14 3 15 2 16 1 17
REMARK H PARENT
REMARK Flexibility Score: inf
ROOT
ATOM      1  C   UNL     1      13.686  16.185  16.734  1.00  0.00     0.000 C 
ENDROOT
BRANCH   1   2
ATOM      2  C   UNL     1      14.416  17.253  17.569  1.00  0.00     0.000 C 
BRANCH   2   3
ATOM      3  C   UNL     1      15.573  17.912  16.788  1.00  0.00     0.000 C 
BRANCH   3   4
ATOM      4  C   UNL     1      15.777  17.328  15.377  1.00  0.00     0.000 C 
BRANCH   4   5
ATOM      5  C   UNL     1      17.046  17.815  14.657  1.00  0.00     0.006 C 
BRANCH   5   6
ATOM      6  C   UNL     1      17.872  18.792  15.504  1.00  0.00     0.053 C 
BRANCH   6   7
ATOM      7  C   UNL     1      19.196  18.189  15.851  1.00  0.00     0.041 C 
ATOM      8  O   UNL     1      20.223  18.489  15.187  1.00  0.00    -0.550 OA
ATOM      9  O   UNL     1      19.305  17.334  16.940  1.00  0.00    -0.550 OA
ENDBRANCH   6   7
ENDBRANCH   5   6
ENDBRANCH   4   5
ENDBRANCH   3   4
ENDBRANCH   2   3
ENDBRANCH   1   2
BRANCH   1  10
ATOM     10  C   UNL     1      12.267  15.896  17.250  1.00  0.00     0.000 C 
BRANCH  10  11
ATOM     11  C   UNL     1      11.176  16.489  16.346  1.00  0.00    -0.000 C 
BRANCH  11  12
ATOM     12  C   UNL     1      11.762  16.938  15.002  1.00  0.00    -0.000 C 
BRANCH  12  13
ATOM     13  C   UNL     1      11.306  18.360  14.650  1.00  0.00    -0.000 C 
BRANCH  13  14
ATOM     14  C   UNL     1      11.666  19.346  15.767  1.00  0.00    -0.000 C 
BRANCH  14  15
ATOM     15  C   UNL     1      12.981  20.075  15.454  1.00  0.00    -0.000 C 
BRANCH  15  16
ATOM     16  C   UNL     1      13.225  20.230  13.945  1.00  0.00    -0.003 C 
ATOM     17  C   UNL     1      14.699  20.446  13.604  1.00  0.00     0.004 C 
ENDBRANCH  15  16
ENDBRANCH  14  15
ENDBRANCH  13  14
ENDBRANCH  12  13
ENDBRANCH  11  12
ENDBRANCH  10  11
ENDBRANCH   1  10
TORSDOF 13
ENDMDL
