MODEL 1
REMARK VINA RESULT:    -3.800      0.000      0.000
REMARK INTER + INTRA:          -4.890
REMARK INTER:                  -4.688
REMARK INTRA:                  -0.202
REMARK UNBOUND:                -0.202
REMARK SMILES CCCCC=CC(C)=O
REMARK SMILES IDX 4 1 3 2 2 3 1 4 5 5 6 6 7 7 9 8 8 9
REMARK H PARENT
REMARK Flexibility Score: inf
ROOT
ATOM      1  C   UNL     1     -10.234  -3.949 -16.061  1.00  0.00     0.027 C 
ENDROOT
BRANCH   1   2
ATOM      2  C   UNL     1     -11.388  -4.957 -16.025  1.00  0.00     0.004 C 
BRANCH   2   3
ATOM      3  C   UNL     1     -12.174  -4.847 -14.714  1.00  0.00    -0.003 C 
ATOM      4  C   UNL     1     -13.486  -4.095 -14.917  1.00  0.00     0.004 C 
ENDBRANCH   2   3
ENDBRANCH   1   2
BRANCH   1   5
ATOM      5  C   UNL     1      -9.632  -3.761 -14.698  1.00  0.00    -0.023 C 
ATOM      6  C   UNL     1      -8.345  -3.436 -14.542  1.00  0.00     0.042 C 
BRANCH   6   7
ATOM      7  C   UNL     1      -7.736  -3.235 -13.213  1.00  0.00     0.152 C 
ATOM      8  O   UNL     1      -6.933  -4.082 -12.736  1.00  0.00    -0.295 OA
ATOM      9  C   UNL     1      -8.074  -2.012 -12.422  1.00  0.00     0.093 C 
ENDBRANCH   6   7
ENDBRANCH   1   5
TORSDOF 4
ENDMDL
MODEL 2
REMARK VINA RESULT:    -3.731      1.068      1.167
REMARK INTER + INTRA:          -4.805
REMARK INTER:                  -4.600
REMARK INTRA:                  -0.206
REMARK UNBOUND:                -0.202
REMARK SMILES CCCCC=CC(C)=O
REMARK SMILES IDX 4 1 3 2 2 3 1 4 5 5 6 6 7 7 9 8 8 9
REMARK H PARENT
REMARK Flexibility Score: inf
ROOT
ATOM      1  C   UNL     1      -9.925  -4.344 -16.011  1.00  0.00     0.027 C 
ENDROOT
BRANCH   1   2
ATOM      2  C   UNL     1     -11.365  -4.867 -16.061  1.00  0.00     0.004 C 
BRANCH   2   3
ATOM      3  C   UNL     1     -12.015  -4.823 -14.673  1.00  0.00    -0.003 C 
ATOM      4  C   UNL     1     -13.402  -4.189 -14.733  1.00  0.00     0.004 C 
ENDBRANCH   2   3
ENDBRANCH   1   2
BRANCH   1   5
ATOM      5  C   UNL     1      -9.562  -3.879 -14.630  1.00  0.00    -0.023 C 
ATOM      6  C   UNL     1      -8.389  -3.288 -14.378  1.00  0.00     0.042 C 
BRANCH   6   7
ATOM      7  C   UNL     1      -8.018  -2.813 -13.032  1.00  0.00     0.152 C 
ATOM      8  O   UNL     1      -8.397  -1.684 -12.619  1.00  0.00    -0.295 OA
ATOM      9  C   UNL     1      -7.182  -3.679 -12.146  1.00  0.00     0.093 C 
ENDBRANCH   6   7
ENDBRANCH   1   5
TORSDOF 4
ENDMDL
MODEL 3
REMARK VINA RESULT:    -3.712      6.773      8.707
REMARK INTER + INTRA:          -4.782
REMARK INTER:                  -4.559
REMARK INTRA:                  -0.223
REMARK UNBOUND:                -0.202
REMARK SMILES CCCCC=CC(C)=O
REMARK SMILES IDX 4 1 3 2 2 3 1 4 5 5 6 6 7 7 9 8 8 9
REMARK H PARENT
REMARK Flexibility Score: inf
ROOT
ATOM      1  C   UNL     1      -2.938  -1.699 -18.742  1.00  0.00     0.027 C 
ENDROOT
BRANCH   1   2
ATOM      2  C   UNL     1      -1.442  -1.365 -18.728  1.00  0.00     0.004 C 
BRANCH   2   3
ATOM      3  C   UNL     1      -0.692  -2.156 -19.806  1.00  0.00    -0.003 C 
ATOM      4  C   UNL     1      -0.112  -3.449 -19.240  1.00  0.00     0.004 C 
ENDBRANCH   2   3
ENDBRANCH   1   2
BRANCH   1   5
ATOM      5  C   UNL     1      -3.531  -1.605 -17.366  1.00  0.00    -0.023 C 
ATOM      6  C   UNL     1      -3.184  -2.458 -16.396  1.00  0.00     0.042 C 
BRANCH   6   7
ATOM      7  C   UNL     1      -3.744  -2.375 -15.035  1.00  0.00     0.152 C 
ATOM      8  O   UNL     1      -2.990  -2.235 -14.034  1.00  0.00    -0.295 OA
ATOM      9  C   UNL     1      -5.224  -2.459 -14.837  1.00  0.00     0.093 C 
ENDBRANCH   6   7
ENDBRANCH   1   5
TORSDOF 4
ENDMDL
MODEL 4
REMARK VINA RESULT:    -3.687      6.518      8.535
REMARK INTER + INTRA:          -4.751
REMARK INTER:                  -4.555
REMARK INTRA:                  -0.196
REMARK UNBOUND:                -0.202
REMARK SMILES CCCCC=CC(C)=O
REMARK SMILES IDX 4 1 3 2 2 3 1 4 5 5 6 6 7 7 9 8 8 9
REMARK H PARENT
REMARK Flexibility Score: inf
ROOT
ATOM      1  C   UNL     1      -2.735  -1.591 -18.324  1.00  0.00     0.027 C 
ENDROOT
BRANCH   1   2
ATOM      2  C   UNL     1      -1.391  -0.998 -17.886  1.00  0.00     0.004 C 
BRANCH   2   3
ATOM      3  C   UNL     1      -0.281  -1.363 -18.878  1.00  0.00    -0.003 C 
ATOM      4  C   UNL     1      -0.814  -2.240 -20.007  1.00  0.00     0.004 C 
ENDBRANCH   2   3
ENDBRANCH   1   2
BRANCH   1   5
ATOM      5  C   UNL     1      -3.700  -1.662 -17.175  1.00  0.00    -0.023 C 
ATOM      6  C   UNL     1      -3.768  -2.739 -16.386  1.00  0.00     0.042 C 
BRANCH   6   7
ATOM      7  C   UNL     1      -4.699  -2.825 -15.246  1.00  0.00     0.152 C 
ATOM      8  O   UNL     1      -5.777  -3.473 -15.340  1.00  0.00    -0.295 OA
ATOM      9  C   UNL     1      -4.362  -2.138 -13.962  1.00  0.00     0.093 C 
ENDBRANCH   6   7
ENDBRANCH   1   5
TORSDOF 4
ENDMDL
MODEL 5
REMARK VINA RESULT:    -3.657      1.662      1.687
REMARK INTER + INTRA:          -4.713
REMARK INTER:                  -4.540
REMARK INTRA:                  -0.174
REMARK UNBOUND:                -0.202
REMARK SMILES CCCCC=CC(C)=O
REMARK SMILES IDX 4 1 3 2 2 3 1 4 5 5 6 6 7 7 9 8 8 9
REMARK H PARENT
REMARK Flexibility Score: inf
ROOT
ATOM      1  C   UNL     1     -10.696  -3.879 -15.711  1.00  0.00     0.027 C 
ENDROOT
BRANCH   1   2
ATOM      2  C   UNL     1     -11.196  -4.946 -14.730  1.00  0.00     0.004 C 
BRANCH   2   3
ATOM      3  C   UNL     1     -12.601  -4.609 -14.220  1.00  0.00    -0.003 C 
ATOM      4  C   UNL     1     -13.400  -3.841 -15.269  1.00  0.00     0.004 C 
ENDBRANCH   2   3
ENDBRANCH   1   2
BRANCH   1   5
ATOM      5  C   UNL     1      -9.203  -3.935 -15.863  1.00  0.00    -0.023 C 
ATOM      6  C   UNL     1      -8.389  -3.813 -14.809  1.00  0.00     0.042 C 
BRANCH   6   7
ATOM      7  C   UNL     1      -6.921  -3.877 -14.935  1.00  0.00     0.152 C 
ATOM      8  O   UNL     1      -6.367  -4.824 -15.556  1.00  0.00    -0.295 OA
ATOM      9  C   UNL     1      -6.077  -2.807 -14.320  1.00  0.00     0.093 C 
ENDBRANCH   6   7
ENDBRANCH   1   5
TORSDOF 4
ENDMDL
MODEL 6
REMARK VINA RESULT:    -3.636      5.509      6.769
REMARK INTER + INTRA:          -4.688
REMARK INTER:                  -4.584
REMARK INTRA:                  -0.104
REMARK UNBOUND:                -0.202
REMARK SMILES CCCCC=CC(C)=O
REMARK SMILES IDX 4 1 3 2 2 3 1 4 5 5 6 6 7 7 9 8 8 9
REMARK H PARENT
REMARK Flexibility Score: inf
ROOT
ATOM      1  C   UNL     1      -4.683  -2.178 -15.263  1.00  0.00     0.027 C 
ENDROOT
BRANCH   1   2
ATOM      2  C   UNL     1      -5.633  -3.371 -15.113  1.00  0.00     0.004 C 
BRANCH   2   3
ATOM      3  C   UNL     1      -6.816  -3.022 -14.203  1.00  0.00    -0.003 C 
ATOM      4  C   UNL     1      -8.127  -3.555 -14.773  1.00  0.00     0.004 C 
ENDBRANCH   2   3
ENDBRANCH   1   2
BRANCH   1   5
ATOM      5  C   UNL     1      -3.734  -2.377 -16.409  1.00  0.00    -0.023 C 
ATOM      6  C   UNL     1      -3.552  -1.432 -17.338  1.00  0.00     0.042 C 
BRANCH   6   7
ATOM      7  C   UNL     1      -2.616  -1.602 -18.465  1.00  0.00     0.152 C 
ATOM      8  O   UNL     1      -3.028  -1.989 -19.592  1.00  0.00    -0.295 OA
ATOM      9  C   UNL     1      -1.163  -1.311 -18.271  1.00  0.00     0.093 C 
ENDBRANCH   6   7
ENDBRANCH   1   5
TORSDOF 4
ENDMDL
MODEL 7
REMARK VINA RESULT:    -3.619      3.884      7.424
REMARK INTER + INTRA:          -4.667
REMARK INTER:                  -4.461
REMARK INTRA:                  -0.205
REMARK UNBOUND:                -0.202
REMARK SMILES CCCCC=CC(C)=O
REMARK SMILES IDX 4 1 3 2 2 3 1 4 5 5 6 6 7 7 9 8 8 9
REMARK H PARENT
REMARK Flexibility Score: inf
ROOT
ATOM      1  C   UNL     1      -7.102   0.561  -9.024  1.00  0.00     0.027 C 
ENDROOT
BRANCH   1   2
ATOM      2  C   UNL     1      -6.520   1.978  -8.963  1.00  0.00     0.004 C 
BRANCH   2   3
ATOM      3  C   UNL     1      -6.430   2.597 -10.363  1.00  0.00    -0.003 C 
ATOM      4  C   UNL     1      -7.457   3.711 -10.541  1.00  0.00     0.004 C 
ENDBRANCH   2   3
ENDBRANCH   1   2
BRANCH   1   5
ATOM      5  C   UNL     1      -6.908  -0.050 -10.382  1.00  0.00    -0.023 C 
ATOM      6  C   UNL     1      -6.965  -1.373 -10.567  1.00  0.00     0.042 C 
BRANCH   6   7
ATOM      7  C   UNL     1      -6.789  -1.993 -11.893  1.00  0.00     0.152 C 
ATOM      8  O   UNL     1      -5.649  -2.359 -12.288  1.00  0.00    -0.295 OA
ATOM      9  C   UNL     1      -7.975  -2.191 -12.781  1.00  0.00     0.093 C 
ENDBRANCH   6   7
ENDBRANCH   1   5
TORSDOF 4
ENDMDL
MODEL 8
REMARK VINA RESULT:    -3.584      3.799      5.928
REMARK INTER + INTRA:          -4.624
REMARK INTER:                  -4.507
REMARK INTRA:                  -0.117
REMARK UNBOUND:                -0.202
REMARK SMILES CCCCC=CC(C)=O
REMARK SMILES IDX 4 1 3 2 2 3 1 4 5 5 6 6 7 7 9 8 8 9
REMARK H PARENT
REMARK Flexibility Score: inf
ROOT
ATOM      1  C   UNL     1      -7.171  -1.865 -11.194  1.00  0.00     0.027 C 
ENDROOT
BRANCH   1   2
ATOM      2  C   UNL     1      -8.155  -1.820 -12.368  1.00  0.00     0.004 C 
BRANCH   2   3
ATOM      3  C   UNL     1      -7.602  -2.579 -13.579  1.00  0.00    -0.003 C 
ATOM      4  C   UNL     1      -8.677  -3.449 -14.224  1.00  0.00     0.004 C 
ENDBRANCH   2   3
ENDBRANCH   1   2
BRANCH   1   5
ATOM      5  C   UNL     1      -6.726  -0.486 -10.802  1.00  0.00    -0.023 C 
ATOM      6  C   UNL     1      -6.997   0.019  -9.594  1.00  0.00     0.042 C 
BRANCH   6   7
ATOM      7  C   UNL     1      -6.558   1.367  -9.185  1.00  0.00     0.152 C 
ATOM      8  O   UNL     1      -6.123   1.578  -8.021  1.00  0.00    -0.295 OA
ATOM      9  C   UNL     1      -6.629   2.497 -10.162  1.00  0.00     0.093 C 
ENDBRANCH   6   7
ENDBRANCH   1   5
TORSDOF 4
ENDMDL
MODEL 9
REMARK VINA RESULT:    -3.576      2.303      5.019
REMARK INTER + INTRA:          -4.614
REMARK INTER:                  -4.450
REMARK INTRA:                  -0.164
REMARK UNBOUND:                -0.202
REMARK SMILES CCCCC=CC(C)=O
REMARK SMILES IDX 4 1 3 2 2 3 1 4 5 5 6 6 7 7 9 8 8 9
REMARK H PARENT
REMARK Flexibility Score: inf
ROOT
ATOM      1  C   UNL     1      -7.854  -3.119 -14.368  1.00  0.00     0.027 C 
ENDROOT
BRANCH   1   2
ATOM      2  C   UNL     1      -7.213  -2.933 -12.988  1.00  0.00     0.004 C 
BRANCH   2   3
ATOM      3  C   UNL     1      -7.948  -1.856 -12.182  1.00  0.00    -0.003 C 
ATOM      4  C   UNL     1      -7.058  -1.288 -11.080  1.00  0.00     0.004 C 
ENDBRANCH   2   3
ENDBRANCH   1   2
BRANCH   1   5
ATOM      5  C   UNL     1      -9.010  -4.076 -14.307  1.00  0.00    -0.023 C 
ATOM      6  C   UNL     1     -10.065  -3.949 -15.119  1.00  0.00     0.042 C 
BRANCH   6   7
ATOM      7  C   UNL     1     -11.205  -4.885 -15.083  1.00  0.00     0.152 C 
ATOM      8  O   UNL     1     -12.246  -4.659 -15.758  1.00  0.00    -0.295 OA
ATOM      9  C   UNL     1     -11.127  -6.116 -14.240  1.00  0.00     0.093 C 
ENDBRANCH   6   7
ENDBRANCH   1   5
TORSDOF 4
ENDMDL
