MODEL 1
REMARK VINA RESULT:    -8.574      0.000      0.000
REMARK INTER + INTRA:          -9.605
REMARK INTER:                  -9.827
REMARK INTRA:                   0.223
REMARK UNBOUND:                 0.223
REMARK SMILES O=c1c(-c2ccc(O)cc2)coc2c(O)c(O)ccc12
REMARK SMILES IDX 3 1 11 2 12 3 13 4 20 5 2 6 1 7 19 8 18 9 16 10 14 11 4 12
REMARK SMILES IDX 5 13 6 14 7 15 10 16 9 17 8 18 15 20 17 22
REMARK H PARENT 8 19 15 21 17 23
REMARK Flexibility Score: inf
ROOT
ATOM      1  C   UNL     1     -29.660  57.578   1.504  1.00  0.00     0.065 A 
ATOM      2  C   UNL     1     -30.690  57.744   0.564  1.00  0.00     0.208 A 
ATOM      3  O   UNL     1     -30.448  57.649  -0.738  1.00  0.00    -0.459 OA
ATOM      4  C   UNL     1     -29.239  57.397  -1.231  1.00  0.00     0.183 A 
ATOM      5  C   UNL     1     -28.140  57.220  -0.359  1.00  0.00     0.069 A 
ATOM      6  C   UNL     1     -28.361  57.319   1.027  1.00  0.00     0.200 A 
ATOM      7  O   UNL     1     -27.399  57.198   1.834  1.00  0.00    -0.288 OA
ATOM      8  C   UNL     1     -26.868  56.958  -0.895  1.00  0.00     0.020 A 
ATOM      9  C   UNL     1     -26.692  56.871  -2.276  1.00  0.00     0.051 A 
ATOM     10  C   UNL     1     -27.775  57.042  -3.143  1.00  0.00     0.161 A 
ATOM     11  C   UNL     1     -29.055  57.308  -2.624  1.00  0.00     0.201 A 
ENDROOT
BRANCH   1  12
ATOM     12  C   UNL     1     -29.957  57.681   2.954  1.00  0.00    -0.011 A 
ATOM     13  C   UNL     1     -29.065  58.332   3.825  1.00  0.00     0.013 A 
ATOM     14  C   UNL     1     -29.345  58.419   5.192  1.00  0.00     0.047 A 
ATOM     15  C   UNL     1     -30.515  57.852   5.707  1.00  0.00     0.115 A 
ATOM     16  C   UNL     1     -31.128  57.107   3.481  1.00  0.00     0.013 A 
ATOM     17  C   UNL     1     -31.406  57.196   4.849  1.00  0.00     0.047 A 
BRANCH  15  18
ATOM     18  O   UNL     1     -30.782  57.946   7.071  1.00  0.00    -0.508 OA
ATOM     19  H   UNL     1     -31.704  58.186   7.415  1.00  0.00     0.293 HD
ENDBRANCH  15  18
ENDBRANCH   1  12
BRANCH  11  20
ATOM     20  O   UNL     1     -30.130  57.479  -3.497  1.00  0.00    -0.502 OA
ATOM     21  H   UNL     1     -30.221  58.296  -4.089  1.00  0.00     0.293 HD
ENDBRANCH  11  20
BRANCH  10  22
ATOM     22  O   UNL     1     -27.562  56.948  -4.518  1.00  0.00    -0.504 OA
ATOM     23  H   UNL     1     -27.776  56.107  -5.040  1.00  0.00     0.293 HD
ENDBRANCH  10  22
TORSDOF 4
ENDMDL
MODEL 2
REMARK VINA RESULT:    -8.568      1.227      6.850
REMARK INTER + INTRA:          -9.597
REMARK INTER:                  -9.806
REMARK INTRA:                   0.209
REMARK UNBOUND:                 0.223
REMARK SMILES O=c1c(-c2ccc(O)cc2)coc2c(O)c(O)ccc12
REMARK SMILES IDX 3 1 11 2 12 3 13 4 20 5 2 6 1 7 19 8 18 9 16 10 14 11 4 12
REMARK SMILES IDX 5 13 6 14 7 15 10 16 9 17 8 18 15 20 17 22
REMARK H PARENT 8 19 15 21 17 23
REMARK Flexibility Score: inf
ROOT
ATOM      1  C   UNL     1     -29.305  57.258   0.782  1.00  0.00     0.065 A 
ATOM      2  C   UNL     1     -30.605  56.746   0.917  1.00  0.00     0.208 A 
ATOM      3  O   UNL     1     -31.231  56.772   2.088  1.00  0.00    -0.459 OA
ATOM      4  C   UNL     1     -30.680  57.271   3.191  1.00  0.00     0.183 A 
ATOM      5  C   UNL     1     -29.371  57.804   3.150  1.00  0.00     0.069 A 
ATOM      6  C   UNL     1     -28.678  57.789   1.926  1.00  0.00     0.200 A 
ATOM      7  O   UNL     1     -27.497  58.227   1.859  1.00  0.00    -0.288 OA
ATOM      8  C   UNL     1     -28.800  58.325   4.324  1.00  0.00     0.020 A 
ATOM      9  C   UNL     1     -29.521  58.318   5.518  1.00  0.00     0.051 A 
ATOM     10  C   UNL     1     -30.817  57.795   5.564  1.00  0.00     0.161 A 
ATOM     11  C   UNL     1     -31.402  57.267   4.399  1.00  0.00     0.201 A 
ENDROOT
BRANCH   1  12
ATOM     12  C   UNL     1     -28.630  57.226  -0.539  1.00  0.00    -0.011 A 
ATOM     13  C   UNL     1     -27.268  56.887  -0.640  1.00  0.00     0.013 A 
ATOM     14  C   UNL     1     -26.635  56.867  -1.887  1.00  0.00     0.047 A 
ATOM     15  C   UNL     1     -27.350  57.189  -3.044  1.00  0.00     0.115 A 
ATOM     16  C   UNL     1     -29.340  57.556  -1.707  1.00  0.00     0.013 A 
ATOM     17  C   UNL     1     -28.704  57.535  -2.952  1.00  0.00     0.047 A 
BRANCH  15  18
ATOM     18  O   UNL     1     -26.706  57.165  -4.279  1.00  0.00    -0.508 OA
ATOM     19  H   UNL     1     -25.703  57.038  -4.351  1.00  0.00     0.293 HD
ENDBRANCH  15  18
ENDBRANCH   1  12
BRANCH  11  20
ATOM     20  O   UNL     1     -32.696  56.746   4.454  1.00  0.00    -0.502 OA
ATOM     21  H   UNL     1     -33.488  57.219   4.035  1.00  0.00     0.293 HD
ENDBRANCH  11  20
BRANCH  10  22
ATOM     22  O   UNL     1     -31.507  57.805   6.775  1.00  0.00    -0.504 OA
ATOM     23  H   UNL     1     -32.096  58.581   7.054  1.00  0.00     0.293 HD
ENDBRANCH  10  22
TORSDOF 4
ENDMDL
MODEL 3
REMARK VINA RESULT:    -8.055      4.452      6.453
REMARK INTER + INTRA:          -9.010
REMARK INTER:                  -8.769
REMARK INTRA:                  -0.241
REMARK UNBOUND:                 0.223
REMARK SMILES O=c1c(-c2ccc(O)cc2)coc2c(O)c(O)ccc12
REMARK SMILES IDX 3 1 11 2 12 3 13 4 20 5 2 6 1 7 19 8 18 9 16 10 14 11 4 12
REMARK SMILES IDX 5 13 6 14 7 15 10 16 9 17 8 18 15 20 17 22
REMARK H PARENT 8 19 15 21 17 23
REMARK Flexibility Score: inf
ROOT
ATOM      1  C   UNL     1     -25.226  58.264   3.046  1.00  0.00     0.065 A 
ATOM      2  C   UNL     1     -26.166  58.745   3.971  1.00  0.00     0.208 A 
ATOM      3  O   UNL     1     -27.466  58.541   3.794  1.00  0.00    -0.459 OA
ATOM      4  C   UNL     1     -27.957  57.882   2.749  1.00  0.00     0.183 A 
ATOM      5  C   UNL     1     -27.085  57.365   1.763  1.00  0.00     0.069 A 
ATOM      6  C   UNL     1     -25.702  57.568   1.918  1.00  0.00     0.200 A 
ATOM      7  O   UNL     1     -24.896  57.149   1.042  1.00  0.00    -0.288 OA
ATOM      8  C   UNL     1     -27.619  56.675   0.662  1.00  0.00     0.020 A 
ATOM      9  C   UNL     1     -28.998  56.497   0.545  1.00  0.00     0.051 A 
ATOM     10  C   UNL     1     -29.865  57.004   1.518  1.00  0.00     0.161 A 
ATOM     11  C   UNL     1     -29.347  57.700   2.626  1.00  0.00     0.201 A 
ENDROOT
BRANCH   1  12
ATOM     12  C   UNL     1     -23.778  58.498   3.270  1.00  0.00    -0.011 A 
ATOM     13  C   UNL     1     -23.055  57.705   4.179  1.00  0.00     0.013 A 
ATOM     14  C   UNL     1     -21.692  57.937   4.394  1.00  0.00     0.047 A 
ATOM     15  C   UNL     1     -21.038  58.964   3.708  1.00  0.00     0.115 A 
ATOM     16  C   UNL     1     -23.114  59.535   2.590  1.00  0.00     0.013 A 
ATOM     17  C   UNL     1     -21.752  59.764   2.806  1.00  0.00     0.047 A 
BRANCH  15  18
ATOM     18  O   UNL     1     -19.680  59.183   3.931  1.00  0.00    -0.508 OA
ATOM     19  H   UNL     1     -19.151  58.611   4.579  1.00  0.00     0.293 HD
ENDBRANCH  15  18
ENDBRANCH   1  12
BRANCH  11  20
ATOM     20  O   UNL     1     -30.221  58.203   3.591  1.00  0.00    -0.502 OA
ATOM     21  H   UNL     1     -31.179  58.450   3.376  1.00  0.00     0.293 HD
ENDBRANCH  11  20
BRANCH  10  22
ATOM     22  O   UNL     1     -31.237  56.808   1.368  1.00  0.00    -0.504 OA
ATOM     23  H   UNL     1     -31.686  56.810   0.460  1.00  0.00     0.293 HD
ENDBRANCH  10  22
TORSDOF 4
ENDMDL
MODEL 4
REMARK VINA RESULT:    -7.827     10.733     13.979
REMARK INTER + INTRA:          -8.749
REMARK INTER:                  -8.484
REMARK INTRA:                  -0.264
REMARK UNBOUND:                 0.223
REMARK SMILES O=c1c(-c2ccc(O)cc2)coc2c(O)c(O)ccc12
REMARK SMILES IDX 3 1 11 2 12 3 13 4 20 5 2 6 1 7 19 8 18 9 16 10 14 11 4 12
REMARK SMILES IDX 5 13 6 14 7 15 10 16 9 17 8 18 15 20 17 22
REMARK H PARENT 8 19 15 21 17 23
REMARK Flexibility Score: inf
ROOT
ATOM      1  C   UNL     1     -17.757  59.137  -4.356  1.00  0.00     0.065 A 
ATOM      2  C   UNL     1     -17.007  59.375  -5.518  1.00  0.00     0.208 A 
ATOM      3  O   UNL     1     -15.953  60.182  -5.497  1.00  0.00    -0.459 OA
ATOM      4  C   UNL     1     -15.545  60.809  -4.397  1.00  0.00     0.183 A 
ATOM      5  C   UNL     1     -16.244  60.632  -3.180  1.00  0.00     0.069 A 
ATOM      6  C   UNL     1     -17.368  59.787  -3.169  1.00  0.00     0.200 A 
ATOM      7  O   UNL     1     -18.035  59.631  -2.109  1.00  0.00    -0.288 OA
ATOM      8  C   UNL     1     -15.804  61.304  -2.027  1.00  0.00     0.020 A 
ATOM      9  C   UNL     1     -14.685  62.136  -2.083  1.00  0.00     0.051 A 
ATOM     10  C   UNL     1     -13.989  62.312  -3.282  1.00  0.00     0.161 A 
ATOM     11  C   UNL     1     -14.417  61.649  -4.447  1.00  0.00     0.201 A 
ENDROOT
BRANCH   1  12
ATOM     12  C   UNL     1     -18.927  58.224  -4.403  1.00  0.00    -0.011 A 
ATOM     13  C   UNL     1     -20.180  58.687  -4.844  1.00  0.00     0.013 A 
ATOM     14  C   UNL     1     -21.281  57.824  -4.877  1.00  0.00     0.047 A 
ATOM     15  C   UNL     1     -21.145  56.495  -4.467  1.00  0.00     0.115 A 
ATOM     16  C   UNL     1     -18.800  56.887  -3.985  1.00  0.00     0.013 A 
ATOM     17  C   UNL     1     -19.903  56.028  -4.020  1.00  0.00     0.047 A 
BRANCH  15  18
ATOM     18  O   UNL     1     -22.250  55.648  -4.506  1.00  0.00    -0.508 OA
ATOM     19  H   UNL     1     -22.388  54.924  -3.810  1.00  0.00     0.293 HD
ENDBRANCH  15  18
ENDBRANCH   1  12
BRANCH  11  20
ATOM     20  O   UNL     1     -13.716  61.832  -5.640  1.00  0.00    -0.502 OA
ATOM     21  H   UNL     1     -13.938  61.313  -6.481  1.00  0.00     0.293 HD
ENDBRANCH  11  20
BRANCH  10  22
ATOM     22  O   UNL     1     -12.875  63.150  -3.300  1.00  0.00    -0.504 OA
ATOM     23  H   UNL     1     -12.567  63.620  -4.143  1.00  0.00     0.293 HD
ENDBRANCH  10  22
TORSDOF 4
ENDMDL
MODEL 5
REMARK VINA RESULT:    -7.783      1.039      2.135
REMARK INTER + INTRA:          -8.698
REMARK INTER:                  -8.656
REMARK INTRA:                  -0.043
REMARK UNBOUND:                 0.223
REMARK SMILES O=c1c(-c2ccc(O)cc2)coc2c(O)c(O)ccc12
REMARK SMILES IDX 3 1 11 2 12 3 13 4 20 5 2 6 1 7 19 8 18 9 16 10 14 11 4 12
REMARK SMILES IDX 5 13 6 14 7 15 10 16 9 17 8 18 15 20 17 22
REMARK H PARENT 8 19 15 21 17 23
REMARK Flexibility Score: inf
ROOT
ATOM      1  C   UNL     1     -28.948  57.323   1.533  1.00  0.00     0.065 A 
ATOM      2  C   UNL     1     -27.621  56.886   1.398  1.00  0.00     0.208 A 
ATOM      3  O   UNL     1     -27.055  56.779   0.202  1.00  0.00    -0.459 OA
ATOM      4  C   UNL     1     -27.694  57.070  -0.928  1.00  0.00     0.183 A 
ATOM      5  C   UNL     1     -29.036  57.513  -0.888  1.00  0.00     0.069 A 
ATOM      6  C   UNL     1     -29.667  57.633   0.363  1.00  0.00     0.200 A 
ATOM      7  O   UNL     1     -30.874  57.994   0.435  1.00  0.00    -0.288 OA
ATOM      8  C   UNL     1     -29.700  57.813  -2.090  1.00  0.00     0.020 A 
ATOM      9  C   UNL     1     -29.039  57.677  -3.311  1.00  0.00     0.051 A 
ATOM     10  C   UNL     1     -27.711  57.242  -3.355  1.00  0.00     0.161 A 
ATOM     11  C   UNL     1     -27.032  56.935  -2.162  1.00  0.00     0.201 A 
ENDROOT
BRANCH   1  12
ATOM     12  C   UNL     1     -29.555  57.442   2.882  1.00  0.00    -0.011 A 
ATOM     13  C   UNL     1     -28.988  58.288   3.852  1.00  0.00     0.013 A 
ATOM     14  C   UNL     1     -29.560  58.389   5.125  1.00  0.00     0.047 A 
ATOM     15  C   UNL     1     -30.699  57.644   5.445  1.00  0.00     0.115 A 
ATOM     16  C   UNL     1     -30.697  56.690   3.214  1.00  0.00     0.013 A 
ATOM     17  C   UNL     1     -31.266  56.794   4.488  1.00  0.00     0.047 A 
BRANCH  15  18
ATOM     18  O   UNL     1     -31.257  57.755   6.716  1.00  0.00    -0.508 OA
ATOM     19  H   UNL     1     -32.148  57.329   6.942  1.00  0.00     0.293 HD
ENDBRANCH  15  18
ENDBRANCH   1  12
BRANCH  11  20
ATOM     20  O   UNL     1     -25.707  56.501  -2.217  1.00  0.00    -0.502 OA
ATOM     21  H   UNL     1     -24.978  57.043  -2.667  1.00  0.00     0.293 HD
ENDBRANCH  11  20
BRANCH  10  22
ATOM     22  O   UNL     1     -27.081  57.119  -4.593  1.00  0.00    -0.504 OA
ATOM     23  H   UNL     1     -27.590  57.187  -5.467  1.00  0.00     0.293 HD
ENDBRANCH  10  22
TORSDOF 4
ENDMDL
MODEL 6
REMARK VINA RESULT:    -7.735      4.407      6.439
REMARK INTER + INTRA:          -8.643
REMARK INTER:                  -8.395
REMARK INTRA:                  -0.248
REMARK UNBOUND:                 0.223
REMARK SMILES O=c1c(-c2ccc(O)cc2)coc2c(O)c(O)ccc12
REMARK SMILES IDX 3 1 11 2 12 3 13 4 20 5 2 6 1 7 19 8 18 9 16 10 14 11 4 12
REMARK SMILES IDX 5 13 6 14 7 15 10 16 9 17 8 18 15 20 17 22
REMARK H PARENT 8 19 15 21 17 23
REMARK Flexibility Score: inf
ROOT
ATOM      1  C   UNL     1     -25.057  58.038   2.591  1.00  0.00     0.065 A 
ATOM      2  C   UNL     1     -25.261  57.307   1.411  1.00  0.00     0.208 A 
ATOM      3  O   UNL     1     -26.487  57.005   0.997  1.00  0.00    -0.459 OA
ATOM      4  C   UNL     1     -27.582  57.365   1.660  1.00  0.00     0.183 A 
ATOM      5  C   UNL     1     -27.472  58.100   2.864  1.00  0.00     0.069 A 
ATOM      6  C   UNL     1     -26.188  58.432   3.333  1.00  0.00     0.200 A 
ATOM      7  O   UNL     1     -26.050  59.059   4.419  1.00  0.00    -0.288 OA
ATOM      8  C   UNL     1     -28.637  58.469   3.556  1.00  0.00     0.020 A 
ATOM      9  C   UNL     1     -29.892  58.117   3.058  1.00  0.00     0.051 A 
ATOM     10  C   UNL     1     -30.007  57.393   1.868  1.00  0.00     0.161 A 
ATOM     11  C   UNL     1     -28.850  57.012   1.163  1.00  0.00     0.201 A 
ENDROOT
BRANCH   1  12
ATOM     12  C   UNL     1     -23.678  58.370   3.028  1.00  0.00    -0.011 A 
ATOM     13  C   UNL     1     -23.036  57.605   4.019  1.00  0.00     0.013 A 
ATOM     14  C   UNL     1     -21.740  57.928   4.434  1.00  0.00     0.047 A 
ATOM     15  C   UNL     1     -21.073  59.019   3.869  1.00  0.00     0.115 A 
ATOM     16  C   UNL     1     -23.003  59.470   2.471  1.00  0.00     0.013 A 
ATOM     17  C   UNL     1     -21.707  59.790   2.887  1.00  0.00     0.047 A 
BRANCH  15  18
ATOM     18  O   UNL     1     -19.782  59.329   4.291  1.00  0.00    -0.508 OA
ATOM     19  H   UNL     1     -18.966  58.985   3.798  1.00  0.00     0.293 HD
ENDBRANCH  15  18
ENDBRANCH   1  12
BRANCH  11  20
ATOM     20  O   UNL     1     -28.974  56.288  -0.024  1.00  0.00    -0.502 OA
ATOM     21  H   UNL     1     -28.305  56.372  -0.780  1.00  0.00     0.293 HD
ENDBRANCH  11  20
BRANCH  10  22
ATOM     22  O   UNL     1     -31.277  57.058   1.400  1.00  0.00    -0.504 OA
ATOM     23  H   UNL     1     -32.112  57.203   1.956  1.00  0.00     0.293 HD
ENDBRANCH  10  22
TORSDOF 4
ENDMDL
MODEL 7
REMARK VINA RESULT:    -7.729      1.040      7.124
REMARK INTER + INTRA:          -8.636
REMARK INTER:                  -8.845
REMARK INTRA:                   0.209
REMARK UNBOUND:                 0.223
REMARK SMILES O=c1c(-c2ccc(O)cc2)coc2c(O)c(O)ccc12
REMARK SMILES IDX 3 1 11 2 12 3 13 4 20 5 2 6 1 7 19 8 18 9 16 10 14 11 4 12
REMARK SMILES IDX 5 13 6 14 7 15 10 16 9 17 8 18 15 20 17 22
REMARK H PARENT 8 19 15 21 17 23
REMARK Flexibility Score: inf
ROOT
ATOM      1  C   UNL     1     -28.818  57.544   0.941  1.00  0.00     0.065 A 
ATOM      2  C   UNL     1     -27.922  58.072   1.884  1.00  0.00     0.208 A 
ATOM      3  O   UNL     1     -28.272  58.206   3.159  1.00  0.00    -0.459 OA
ATOM      4  C   UNL     1     -29.470  57.859   3.618  1.00  0.00     0.183 A 
ATOM      5  C   UNL     1     -30.439  57.324   2.738  1.00  0.00     0.069 A 
ATOM      6  C   UNL     1     -30.103  57.172   1.381  1.00  0.00     0.200 A 
ATOM      7  O   UNL     1     -30.952  56.728   0.561  1.00  0.00    -0.288 OA
ATOM      8  C   UNL     1     -31.703  56.966   3.238  1.00  0.00     0.020 A 
ATOM      9  C   UNL     1     -31.998  57.134   4.591  1.00  0.00     0.051 A 
ATOM     10  C   UNL     1     -31.042  57.661   5.466  1.00  0.00     0.161 A 
ATOM     11  C   UNL     1     -29.773  58.027   4.982  1.00  0.00     0.201 A 
ENDROOT
BRANCH   1  12
ATOM     12  C   UNL     1     -28.400  57.397  -0.475  1.00  0.00    -0.011 A 
ATOM     13  C   UNL     1     -27.107  56.949  -0.799  1.00  0.00     0.013 A 
ATOM     14  C   UNL     1     -26.716  56.821  -2.136  1.00  0.00     0.047 A 
ATOM     15  C   UNL     1     -27.608  57.143  -3.163  1.00  0.00     0.115 A 
ATOM     16  C   UNL     1     -29.289  57.726  -1.514  1.00  0.00     0.013 A 
ATOM     17  C   UNL     1     -28.895  57.597  -2.850  1.00  0.00     0.047 A 
BRANCH  15  18
ATOM     18  O   UNL     1     -27.205  57.010  -4.490  1.00  0.00    -0.508 OA
ATOM     19  H   UNL     1     -26.583  57.682  -4.924  1.00  0.00     0.293 HD
ENDBRANCH  15  18
ENDBRANCH   1  12
BRANCH  11  20
ATOM     20  O   UNL     1     -28.827  58.553   5.863  1.00  0.00    -0.502 OA
ATOM     21  H   UNL     1     -28.804  59.536   6.107  1.00  0.00     0.293 HD
ENDBRANCH  11  20
BRANCH  10  22
ATOM     22  O   UNL     1     -31.372  57.815   6.812  1.00  0.00    -0.504 OA
ATOM     23  H   UNL     1     -30.927  57.272   7.542  1.00  0.00     0.293 HD
ENDBRANCH  10  22
TORSDOF 4
ENDMDL
MODEL 8
REMARK VINA RESULT:    -7.124     11.863     14.303
REMARK INTER + INTRA:          -7.943
REMARK INTER:                  -7.658
REMARK INTRA:                  -0.285
REMARK UNBOUND:                 0.223
REMARK SMILES O=c1c(-c2ccc(O)cc2)coc2c(O)c(O)ccc12
REMARK SMILES IDX 3 1 11 2 12 3 13 4 20 5 2 6 1 7 19 8 18 9 16 10 14 11 4 12
REMARK SMILES IDX 5 13 6 14 7 15 10 16 9 17 8 18 15 20 17 22
REMARK H PARENT 8 19 15 21 17 23
REMARK Flexibility Score: inf
ROOT
ATOM      1  C   UNL     1     -15.829  60.988  -2.758  1.00  0.00     0.065 A 
ATOM      2  C   UNL     1     -15.277  60.929  -4.047  1.00  0.00     0.208 A 
ATOM      3  O   UNL     1     -15.847  60.205  -5.003  1.00  0.00    -0.459 OA
ATOM      4  C   UNL     1     -16.956  59.497  -4.807  1.00  0.00     0.183 A 
ATOM      5  C   UNL     1     -17.579  59.493  -3.538  1.00  0.00     0.069 A 
ATOM      6  C   UNL     1     -16.998  60.246  -2.502  1.00  0.00     0.200 A 
ATOM      7  O   UNL     1     -17.508  60.241  -1.348  1.00  0.00    -0.288 OA
ATOM      8  C   UNL     1     -18.748  58.737  -3.345  1.00  0.00     0.020 A 
ATOM      9  C   UNL     1     -19.291  58.001  -4.399  1.00  0.00     0.051 A 
ATOM     10  C   UNL     1     -18.680  58.004  -5.656  1.00  0.00     0.161 A 
ATOM     11  C   UNL     1     -17.508  58.753  -5.866  1.00  0.00     0.201 A 
ENDROOT
BRANCH   1  12
ATOM     12  C   UNL     1     -15.177  61.811  -1.710  1.00  0.00    -0.011 A 
ATOM     13  C   UNL     1     -15.520  63.165  -1.545  1.00  0.00     0.013 A 
ATOM     14  C   UNL     1     -14.895  63.939  -0.561  1.00  0.00     0.047 A 
ATOM     15  C   UNL     1     -13.919  63.373   0.264  1.00  0.00     0.115 A 
ATOM     16  C   UNL     1     -14.188  61.251  -0.881  1.00  0.00     0.013 A 
ATOM     17  C   UNL     1     -13.566  62.028   0.102  1.00  0.00     0.047 A 
BRANCH  15  18
ATOM     18  O   UNL     1     -13.306  64.156   1.240  1.00  0.00    -0.508 OA
ATOM     19  H   UNL     1     -13.609  65.105   1.425  1.00  0.00     0.293 HD
ENDBRANCH  15  18
ENDBRANCH   1  12
BRANCH  11  20
ATOM     20  O   UNL     1     -16.905  58.748  -7.125  1.00  0.00    -0.502 OA
ATOM     21  H   UNL     1     -15.899  58.763  -7.242  1.00  0.00     0.293 HD
ENDBRANCH  11  20
BRANCH  10  22
ATOM     22  O   UNL     1     -19.251  57.256  -6.686  1.00  0.00    -0.504 OA
ATOM     23  H   UNL     1     -19.916  57.655  -7.338  1.00  0.00     0.293 HD
ENDBRANCH  10  22
TORSDOF 4
ENDMDL
MODEL 9
REMARK VINA RESULT:    -7.067     11.735     13.968
REMARK INTER + INTRA:          -7.878
REMARK INTER:                  -7.601
REMARK INTRA:                  -0.277
REMARK UNBOUND:                 0.223
REMARK SMILES O=c1c(-c2ccc(O)cc2)coc2c(O)c(O)ccc12
REMARK SMILES IDX 3 1 11 2 12 3 13 4 20 5 2 6 1 7 19 8 18 9 16 10 14 11 4 12
REMARK SMILES IDX 5 13 6 14 7 15 10 16 9 17 8 18 15 20 17 22
REMARK H PARENT 8 19 15 21 17 23
REMARK Flexibility Score: inf
ROOT
ATOM      1  C   UNL     1     -16.472  60.454  -2.595  1.00  0.00     0.065 A 
ATOM      2  C   UNL     1     -17.608  59.866  -2.018  1.00  0.00     0.208 A 
ATOM      3  O   UNL     1     -18.461  59.161  -2.752  1.00  0.00    -0.459 OA
ATOM      4  C   UNL     1     -18.301  58.970  -4.058  1.00  0.00     0.183 A 
ATOM      5  C   UNL     1     -17.188  59.530  -4.726  1.00  0.00     0.069 A 
ATOM      6  C   UNL     1     -16.267  60.286  -3.978  1.00  0.00     0.200 A 
ATOM      7  O   UNL     1     -15.279  60.827  -4.546  1.00  0.00    -0.288 OA
ATOM      8  C   UNL     1     -17.035  59.322  -6.107  1.00  0.00     0.020 A 
ATOM      9  C   UNL     1     -17.972  58.567  -6.813  1.00  0.00     0.051 A 
ATOM     10  C   UNL     1     -19.074  58.010  -6.157  1.00  0.00     0.161 A 
ATOM     11  C   UNL     1     -19.244  58.210  -4.775  1.00  0.00     0.201 A 
ENDROOT
BRANCH   1  12
ATOM     12  C   UNL     1     -15.530  61.231  -1.751  1.00  0.00    -0.011 A 
ATOM     13  C   UNL     1     -14.377  60.625  -1.219  1.00  0.00     0.013 A 
ATOM     14  C   UNL     1     -13.497  61.359  -0.417  1.00  0.00     0.047 A 
ATOM     15  C   UNL     1     -13.760  62.703  -0.133  1.00  0.00     0.115 A 
ATOM     16  C   UNL     1     -15.791  62.580  -1.455  1.00  0.00     0.013 A 
ATOM     17  C   UNL     1     -14.909  63.312  -0.653  1.00  0.00     0.047 A 
BRANCH  15  18
ATOM     18  O   UNL     1     -12.875  63.422   0.667  1.00  0.00    -0.508 OA
ATOM     19  H   UNL     1     -13.126  64.322   1.058  1.00  0.00     0.293 HD
ENDBRANCH  15  18
ENDBRANCH   1  12
BRANCH  11  20
ATOM     20  O   UNL     1     -20.348  57.650  -4.130  1.00  0.00    -0.502 OA
ATOM     21  H   UNL     1     -20.376  57.516  -3.126  1.00  0.00     0.293 HD
ENDBRANCH  11  20
BRANCH  10  22
ATOM     22  O   UNL     1     -19.991  57.261  -6.894  1.00  0.00    -0.504 OA
ATOM     23  H   UNL     1     -19.758  56.356  -7.285  1.00  0.00     0.293 HD
ENDBRANCH  10  22
TORSDOF 4
ENDMDL
