MODEL 1
REMARK VINA RESULT:    -4.726      0.000      0.000
REMARK INTER + INTRA:         -16.501
REMARK INTER:                 -11.909
REMARK INTRA:                  -4.591
REMARK UNBOUND:                -4.591
REMARK SMILES CCCCCCCCCCCCCCCCCCCCCCCCCCCC(=O)[O-]
REMARK SMILES IDX 15 1 16 2 17 3 18 4 19 5 20 6 21 7 22 8 23 9 24 10 25 11
REMARK SMILES IDX 26 12 27 13 28 14 29 15 30 16 14 17 13 18 12 19 11 20 10 21
REMARK SMILES IDX 9 22 8 23 7 24 6 25 5 26 4 27 3 28 2 29 1 30
REMARK H PARENT
REMARK Flexibility Score: inf
ROOT
ATOM      1  C   UNL     1      -4.025   0.713  10.629  1.00  0.00     0.000 C 
ENDROOT
BRANCH   1   2
ATOM      2  C   UNL     1      -4.347   2.148  10.173  1.00  0.00     0.000 C 
BRANCH   2   3
ATOM      3  C   UNL     1      -3.099   3.041  10.104  1.00  0.00     0.000 C 
BRANCH   3   4
ATOM      4  C   UNL     1      -3.422   4.478   9.656  1.00  0.00     0.000 C 
BRANCH   4   5
ATOM      5  C   UNL     1      -2.858   5.541  10.620  1.00  0.00     0.000 C 
BRANCH   5   6
ATOM      6  C   UNL     1      -1.972   4.966  11.744  1.00  0.00     0.000 C 
BRANCH   6   7
ATOM      7  C   UNL     1      -2.622   5.017  13.143  1.00  0.00     0.000 C 
BRANCH   7   8
ATOM      8  C   UNL     1      -3.988   5.726  13.150  1.00  0.00     0.000 C 
BRANCH   8   9
ATOM      9  C   UNL     1      -5.118   4.801  13.626  1.00  0.00     0.000 C 
BRANCH   9  10
ATOM     10  C   UNL     1      -4.670   3.332  13.605  1.00  0.00     0.000 C 
BRANCH  10  11
ATOM     11  C   UNL     1      -5.518   2.442  14.527  1.00  0.00     0.000 C 
BRANCH  11  12
ATOM     12  C   UNL     1      -5.674   3.036  15.937  1.00  0.00     0.006 C 
BRANCH  12  13
ATOM     13  C   UNL     1      -7.111   2.917  16.460  1.00  0.00     0.053 C 
BRANCH  13  14
ATOM     14  C   UNL     1      -7.915   4.146  16.159  1.00  0.00     0.041 C 
ATOM     15  O   UNL     1      -7.771   5.184  16.858  1.00  0.00    -0.550 OA
ATOM     16  O   UNL     1      -8.800   4.153  15.088  1.00  0.00    -0.550 OA
ENDBRANCH  13  14
ENDBRANCH  12  13
ENDBRANCH  11  12
ENDBRANCH  10  11
ENDBRANCH   9  10
ENDBRANCH   8   9
ENDBRANCH   7   8
ENDBRANCH   6   7
ENDBRANCH   5   6
ENDBRANCH   4   5
ENDBRANCH   3   4
ENDBRANCH   2   3
ENDBRANCH   1   2
BRANCH   1  17
ATOM     17  C   UNL     1      -4.001  -0.287   9.455  1.00  0.00     0.000 C 
BRANCH  17  18
ATOM     18  C   UNL     1      -2.612  -0.462   8.816  1.00  0.00     0.000 C 
BRANCH  18  19
ATOM     19  C   UNL     1      -2.349  -1.897   8.336  1.00  0.00     0.000 C 
BRANCH  19  20
ATOM     20  C   UNL     1      -3.376  -2.874   8.922  1.00  0.00     0.000 C 
BRANCH  20  21
ATOM     21  C   UNL     1      -2.732  -3.774   9.988  1.00  0.00     0.000 C 
BRANCH  21  22
ATOM     22  C   UNL     1      -2.720  -3.129  11.383  1.00  0.00    -0.000 C 
BRANCH  22  23
ATOM     23  C   UNL     1      -1.478  -3.511  12.203  1.00  0.00    -0.000 C 
BRANCH  23  24
ATOM     24  C   UNL     1      -0.286  -2.611  11.844  1.00  0.00    -0.000 C 
BRANCH  24  25
ATOM     25  C   UNL     1      -0.685  -1.133  11.694  1.00  0.00    -0.000 C 
BRANCH  25  26
ATOM     26  C   UNL     1      -0.107  -0.252  12.816  1.00  0.00    -0.000 C 
BRANCH  26  27
ATOM     27  C   UNL     1      -0.802   1.120  12.919  1.00  0.00    -0.000 C 
BRANCH  27  28
ATOM     28  C   UNL     1      -2.098   1.135  13.750  1.00  0.00    -0.000 C 
BRANCH  28  29
ATOM     29  C   UNL     1      -1.841   1.065  15.263  1.00  0.00    -0.003 C 
ATOM     30  C   UNL     1      -1.794   2.462  15.877  1.00  0.00     0.004 C 
ENDBRANCH  28  29
ENDBRANCH  27  28
ENDBRANCH  26  27
ENDBRANCH  25  26
ENDBRANCH  24  25
ENDBRANCH  23  24
ENDBRANCH  22  23
ENDBRANCH  21  22
ENDBRANCH  20  21
ENDBRANCH  19  20
ENDBRANCH  18  19
ENDBRANCH  17  18
ENDBRANCH   1  17
TORSDOF 26
ENDMDL
MODEL 2
REMARK VINA RESULT:    -4.724      4.009      8.291
REMARK INTER + INTRA:         -16.497
REMARK INTER:                 -11.345
REMARK INTRA:                  -5.152
REMARK UNBOUND:                -4.591
REMARK SMILES CCCCCCCCCCCCCCCCCCCCCCCCCCCC(=O)[O-]
REMARK SMILES IDX 15 1 16 2 17 3 18 4 19 5 20 6 21 7 22 8 23 9 24 10 25 11
REMARK SMILES IDX 26 12 27 13 28 14 29 15 30 16 14 17 13 18 12 19 11 20 10 21
REMARK SMILES IDX 9 22 8 23 7 24 6 25 5 26 4 27 3 28 2 29 1 30
REMARK H PARENT
REMARK Flexibility Score: inf
ROOT
ATOM      1  C   UNL     1      -4.244   1.240  10.446  1.00  0.00     0.000 C 
ENDROOT
BRANCH   1   2
ATOM      2  C   UNL     1      -3.560   0.143  11.282  1.00  0.00     0.000 C 
BRANCH   2   3
ATOM      3  C   UNL     1      -2.027   0.247  11.255  1.00  0.00     0.000 C 
BRANCH   3   4
ATOM      4  C   UNL     1      -1.351  -0.691  12.272  1.00  0.00     0.000 C 
BRANCH   4   5
ATOM      5  C   UNL     1      -0.704  -1.921  11.603  1.00  0.00     0.000 C 
BRANCH   5   6
ATOM      6  C   UNL     1      -1.161  -3.272  12.189  1.00  0.00     0.000 C 
BRANCH   6   7
ATOM      7  C   UNL     1      -2.119  -4.061  11.273  1.00  0.00     0.000 C 
BRANCH   7   8
ATOM      8  C   UNL     1      -3.587  -3.618  11.407  1.00  0.00     0.000 C 
BRANCH   8   9
ATOM      9  C   UNL     1      -4.265  -3.437  10.041  1.00  0.00     0.000 C 
BRANCH   9  10
ATOM     10  C   UNL     1      -3.220  -3.318   8.922  1.00  0.00     0.000 C 
BRANCH  10  11
ATOM     11  C   UNL     1      -3.118  -1.893   8.356  1.00  0.00     0.000 C 
BRANCH  11  12
ATOM     12  C   UNL     1      -1.690  -1.542   7.903  1.00  0.00     0.006 C 
BRANCH  12  13
ATOM     13  C   UNL     1      -0.784  -2.777   7.837  1.00  0.00     0.053 C 
BRANCH  13  14
ATOM     14  C   UNL     1       0.073  -2.774   6.607  1.00  0.00     0.041 C 
ATOM     15  O   UNL     1       0.164  -1.735   5.902  1.00  0.00    -0.550 OA
ATOM     16  O   UNL     1       0.795  -3.908   6.258  1.00  0.00    -0.550 OA
ENDBRANCH  13  14
ENDBRANCH  12  13
ENDBRANCH  11  12
ENDBRANCH  10  11
ENDBRANCH   9  10
ENDBRANCH   8   9
ENDBRANCH   7   8
ENDBRANCH   6   7
ENDBRANCH   5   6
ENDBRANCH   4   5
ENDBRANCH   3   4
ENDBRANCH   2   3
ENDBRANCH   1   2
BRANCH   1  17
ATOM     17  C   UNL     1      -3.261   2.344  10.006  1.00  0.00     0.000 C 
BRANCH  17  18
ATOM     18  C   UNL     1      -3.824   3.770  10.142  1.00  0.00     0.000 C 
BRANCH  18  19
ATOM     19  C   UNL     1      -3.637   4.357  11.549  1.00  0.00     0.000 C 
BRANCH  19  20
ATOM     20  C   UNL     1      -2.168   4.295  11.985  1.00  0.00     0.000 C 
BRANCH  20  21
ATOM     21  C   UNL     1      -2.054   4.035  13.495  1.00  0.00     0.000 C 
BRANCH  21  22
ATOM     22  C   UNL     1      -1.252   2.766  13.822  1.00  0.00    -0.000 C 
BRANCH  22  23
ATOM     23  C   UNL     1      -1.959   1.862  14.843  1.00  0.00    -0.000 C 
BRANCH  23  24
ATOM     24  C   UNL     1      -3.392   2.349  15.105  1.00  0.00    -0.000 C 
BRANCH  24  25
ATOM     25  C   UNL     1      -4.454   1.397  14.529  1.00  0.00    -0.000 C 
BRANCH  25  26
ATOM     26  C   UNL     1      -5.597   2.151  13.823  1.00  0.00    -0.000 C 
BRANCH  26  27
ATOM     27  C   UNL     1      -6.032   3.422  14.577  1.00  0.00    -0.000 C 
BRANCH  27  28
ATOM     28  C   UNL     1      -6.783   3.172  15.898  1.00  0.00    -0.000 C 
BRANCH  28  29
ATOM     29  C   UNL     1      -8.159   3.854  15.942  1.00  0.00    -0.003 C 
ATOM     30  C   UNL     1      -8.699   4.092  14.534  1.00  0.00     0.004 C 
ENDBRANCH  28  29
ENDBRANCH  27  28
ENDBRANCH  26  27
ENDBRANCH  25  26
ENDBRANCH  24  25
ENDBRANCH  23  24
ENDBRANCH  22  23
ENDBRANCH  21  22
ENDBRANCH  20  21
ENDBRANCH  19  20
ENDBRANCH  18  19
ENDBRANCH  17  18
ENDBRANCH   1  17
TORSDOF 26
ENDMDL
MODEL 3
REMARK VINA RESULT:    -4.639      3.103      6.599
REMARK INTER + INTRA:         -16.281
REMARK INTER:                 -12.855
REMARK INTRA:                  -3.426
REMARK UNBOUND:                -4.591
REMARK SMILES CCCCCCCCCCCCCCCCCCCCCCCCCCCC(=O)[O-]
REMARK SMILES IDX 15 1 16 2 17 3 18 4 19 5 20 6 21 7 22 8 23 9 24 10 25 11
REMARK SMILES IDX 26 12 27 13 28 14 29 15 30 16 14 17 13 18 12 19 11 20 10 21
REMARK SMILES IDX 9 22 8 23 7 24 6 25 5 26 4 27 3 28 2 29 1 30
REMARK H PARENT
REMARK Flexibility Score: inf
ROOT
ATOM      1  C   UNL     1      -5.523   5.941  13.228  1.00  0.00     0.000 C 
ENDROOT
BRANCH   1   2
ATOM      2  C   UNL     1      -6.247   6.149  14.571  1.00  0.00     0.000 C 
BRANCH   2   3
ATOM      3  C   UNL     1      -7.072   4.925  14.994  1.00  0.00     0.000 C 
BRANCH   3   4
ATOM      4  C   UNL     1      -6.661   4.381  16.375  1.00  0.00     0.000 C 
BRANCH   4   5
ATOM      5  C   UNL     1      -5.690   3.187  16.276  1.00  0.00     0.000 C 
BRANCH   5   6
ATOM      6  C   UNL     1      -5.943   2.266  15.066  1.00  0.00     0.000 C 
BRANCH   6   7
ATOM      7  C   UNL     1      -4.660   1.848  14.316  1.00  0.00     0.000 C 
BRANCH   7   8
ATOM      8  C   UNL     1      -3.374   2.124  15.117  1.00  0.00     0.000 C 
BRANCH   8   9
ATOM      9  C   UNL     1      -2.114   1.676  14.362  1.00  0.00     0.000 C 
BRANCH   9  10
ATOM     10  C   UNL     1      -1.120   0.993  15.312  1.00  0.00     0.000 C 
BRANCH  10  11
ATOM     11  C   UNL     1      -1.034   1.689  16.680  1.00  0.00     0.000 C 
BRANCH  11  12
ATOM     12  C   UNL     1       0.102   1.130  17.553  1.00  0.00     0.006 C 
BRANCH  12  13
ATOM     13  C   UNL     1      -0.374  -0.010  18.462  1.00  0.00     0.053 C 
BRANCH  13  14
ATOM     14  C   UNL     1      -0.053   0.256  19.902  1.00  0.00     0.041 C 
ATOM     15  O   UNL     1      -0.963   0.607  20.699  1.00  0.00    -0.550 OA
ATOM     16  O   UNL     1       1.244   0.084  20.369  1.00  0.00    -0.550 OA
ENDBRANCH  13  14
ENDBRANCH  12  13
ENDBRANCH  11  12
ENDBRANCH  10  11
ENDBRANCH   9  10
ENDBRANCH   8   9
ENDBRANCH   7   8
ENDBRANCH   6   7
ENDBRANCH   5   6
ENDBRANCH   4   5
ENDBRANCH   3   4
ENDBRANCH   2   3
ENDBRANCH   1   2
BRANCH   1  17
ATOM     17  C   UNL     1      -4.020   5.645  13.409  1.00  0.00     0.000 C 
BRANCH  17  18
ATOM     18  C   UNL     1      -3.468   4.601  12.422  1.00  0.00     0.000 C 
BRANCH  18  19
ATOM     19  C   UNL     1      -3.442   5.101  10.971  1.00  0.00     0.000 C 
BRANCH  19  20
ATOM     20  C   UNL     1      -3.539   3.934   9.981  1.00  0.00     0.000 C 
BRANCH  20  21
ATOM     21  C   UNL     1      -3.651   2.593  10.722  1.00  0.00     0.000 C 
BRANCH  21  22
ATOM     22  C   UNL     1      -3.171   1.403   9.875  1.00  0.00    -0.000 C 
BRANCH  22  23
ATOM     23  C   UNL     1      -4.031   0.145  10.076  1.00  0.00    -0.000 C 
BRANCH  23  24
ATOM     24  C   UNL     1      -3.708  -0.530  11.418  1.00  0.00    -0.000 C 
BRANCH  24  25
ATOM     25  C   UNL     1      -2.196  -0.671  11.660  1.00  0.00    -0.000 C 
BRANCH  25  26
ATOM     26  C   UNL     1      -1.642  -2.013  11.150  1.00  0.00    -0.000 C 
BRANCH  26  27
ATOM     27  C   UNL     1      -2.647  -3.171  11.297  1.00  0.00    -0.000 C 
BRANCH  27  28
ATOM     28  C   UNL     1      -2.958  -3.935   9.996  1.00  0.00    -0.000 C 
BRANCH  28  29
ATOM     29  C   UNL     1      -4.460  -3.988   9.678  1.00  0.00    -0.003 C 
ATOM     30  C   UNL     1      -5.141  -5.130  10.429  1.00  0.00     0.004 C 
ENDBRANCH  28  29
ENDBRANCH  27  28
ENDBRANCH  26  27
ENDBRANCH  25  26
ENDBRANCH  24  25
ENDBRANCH  23  24
ENDBRANCH  22  23
ENDBRANCH  21  22
ENDBRANCH  20  21
ENDBRANCH  19  20
ENDBRANCH  18  19
ENDBRANCH  17  18
ENDBRANCH   1  17
TORSDOF 26
ENDMDL
MODEL 4
REMARK VINA RESULT:    -4.626      3.306      6.897
REMARK INTER + INTRA:         -16.249
REMARK INTER:                 -10.972
REMARK INTRA:                  -5.277
REMARK UNBOUND:                -4.591
REMARK SMILES CCCCCCCCCCCCCCCCCCCCCCCCCCCC(=O)[O-]
REMARK SMILES IDX 15 1 16 2 17 3 18 4 19 5 20 6 21 7 22 8 23 9 24 10 25 11
REMARK SMILES IDX 26 12 27 13 28 14 29 15 30 16 14 17 13 18 12 19 11 20 10 21
REMARK SMILES IDX 9 22 8 23 7 24 6 25 5 26 4 27 3 28 2 29 1 30
REMARK H PARENT
REMARK Flexibility Score: inf
ROOT
ATOM      1  C   UNL     1      -3.642  -0.142  11.287  1.00  0.00     0.000 C 
ENDROOT
BRANCH   1   2
ATOM      2  C   UNL     1      -3.915  -0.582   9.837  1.00  0.00     0.000 C 
BRANCH   2   3
ATOM      3  C   UNL     1      -2.628  -0.906   9.065  1.00  0.00     0.000 C 
BRANCH   3   4
ATOM      4  C   UNL     1      -1.923   0.355   8.530  1.00  0.00     0.000 C 
BRANCH   4   5
ATOM      5  C   UNL     1      -0.535   0.572   9.164  1.00  0.00     0.000 C 
BRANCH   5   6
ATOM      6  C   UNL     1      -0.460   1.780  10.120  1.00  0.00     0.000 C 
BRANCH   6   7
ATOM      7  C   UNL     1      -0.348   1.395  11.610  1.00  0.00     0.000 C 
BRANCH   7   8
ATOM      8  C   UNL     1       0.542   0.163  11.851  1.00  0.00     0.000 C 
BRANCH   8   9
ATOM      9  C   UNL     1      -0.210  -0.961  12.581  1.00  0.00     0.000 C 
BRANCH   9  10
ATOM     10  C   UNL     1      -0.456  -2.153  11.644  1.00  0.00     0.000 C 
BRANCH  10  11
ATOM     11  C   UNL     1      -1.589  -3.068  12.138  1.00  0.00     0.000 C 
BRANCH  11  12
ATOM     12  C   UNL     1      -2.281  -3.819  10.987  1.00  0.00     0.006 C 
BRANCH  12  13
ATOM     13  C   UNL     1      -3.752  -4.124  11.297  1.00  0.00     0.053 C 
BRANCH  13  14
ATOM     14  C   UNL     1      -4.515  -4.493  10.061  1.00  0.00     0.041 C 
ATOM     15  O   UNL     1      -4.079  -4.167   8.926  1.00  0.00    -0.550 OA
ATOM     16  O   UNL     1      -5.691  -5.226  10.162  1.00  0.00    -0.550 OA
ENDBRANCH  13  14
ENDBRANCH  12  13
ENDBRANCH  11  12
ENDBRANCH  10  11
ENDBRANCH   9  10
ENDBRANCH   8   9
ENDBRANCH   7   8
ENDBRANCH   6   7
ENDBRANCH   5   6
ENDBRANCH   4   5
ENDBRANCH   3   4
ENDBRANCH   2   3
ENDBRANCH   1   2
BRANCH   1  17
ATOM     17  C   UNL     1      -3.993   1.341  11.528  1.00  0.00     0.000 C 
BRANCH  17  18
ATOM     18  C   UNL     1      -4.361   2.110  10.247  1.00  0.00     0.000 C 
BRANCH  18  19
ATOM     19  C   UNL     1      -3.804   3.541  10.225  1.00  0.00     0.000 C 
BRANCH  19  20
ATOM     20  C   UNL     1      -3.221   3.930  11.589  1.00  0.00     0.000 C 
BRANCH  20  21
ATOM     21  C   UNL     1      -3.606   5.370  11.960  1.00  0.00     0.000 C 
BRANCH  21  22
ATOM     22  C   UNL     1      -4.329   5.463  13.314  1.00  0.00    -0.000 C 
BRANCH  22  23
ATOM     23  C   UNL     1      -5.085   4.175  13.674  1.00  0.00    -0.000 C 
BRANCH  23  24
ATOM     24  C   UNL     1      -5.150   3.986  15.197  1.00  0.00    -0.000 C 
BRANCH  24  25
ATOM     25  C   UNL     1      -4.318   2.785  15.680  1.00  0.00    -0.000 C 
BRANCH  25  26
ATOM     26  C   UNL     1      -2.897   2.780  15.089  1.00  0.00    -0.000 C 
BRANCH  26  27
ATOM     27  C   UNL     1      -2.361   1.358  14.829  1.00  0.00    -0.000 C 
BRANCH  27  28
ATOM     28  C   UNL     1      -0.958   1.075  15.397  1.00  0.00    -0.000 C 
BRANCH  28  29
ATOM     29  C   UNL     1      -0.732   1.711  16.777  1.00  0.00    -0.003 C 
ATOM     30  C   UNL     1      -0.480   0.644  17.839  1.00  0.00     0.004 C 
ENDBRANCH  28  29
ENDBRANCH  27  28
ENDBRANCH  26  27
ENDBRANCH  25  26
ENDBRANCH  24  25
ENDBRANCH  23  24
ENDBRANCH  22  23
ENDBRANCH  21  22
ENDBRANCH  20  21
ENDBRANCH  19  20
ENDBRANCH  18  19
ENDBRANCH  17  18
ENDBRANCH   1  17
TORSDOF 26
ENDMDL
MODEL 5
REMARK VINA RESULT:    -4.583      2.624      6.934
REMARK INTER + INTRA:         -16.141
REMARK INTER:                 -11.682
REMARK INTRA:                  -4.459
REMARK UNBOUND:                -4.591
REMARK SMILES CCCCCCCCCCCCCCCCCCCCCCCCCCCC(=O)[O-]
REMARK SMILES IDX 15 1 16 2 17 3 18 4 19 5 20 6 21 7 22 8 23 9 24 10 25 11
REMARK SMILES IDX 26 12 27 13 28 14 29 15 30 16 14 17 13 18 12 19 11 20 10 21
REMARK SMILES IDX 9 22 8 23 7 24 6 25 5 26 4 27 3 28 2 29 1 30
REMARK H PARENT
REMARK Flexibility Score: inf
ROOT
ATOM      1  C   UNL     1      -2.519   0.260   8.911  1.00  0.00     0.000 C 
ENDROOT
BRANCH   1   2
ATOM      2  C   UNL     1      -3.923  -0.347   9.087  1.00  0.00     0.000 C 
BRANCH   2   3
ATOM      3  C   UNL     1      -4.000  -1.807   8.616  1.00  0.00     0.000 C 
BRANCH   3   4
ATOM      4  C   UNL     1      -2.610  -2.424   8.370  1.00  0.00     0.000 C 
BRANCH   4   5
ATOM      5  C   UNL     1      -2.391  -3.727   9.166  1.00  0.00     0.000 C 
BRANCH   5   6
ATOM      6  C   UNL     1      -3.059  -3.737  10.556  1.00  0.00     0.000 C 
BRANCH   6   7
ATOM      7  C   UNL     1      -2.123  -3.309  11.705  1.00  0.00     0.000 C 
BRANCH   7   8
ATOM      8  C   UNL     1      -2.018  -1.781  11.863  1.00  0.00     0.000 C 
BRANCH   8   9
ATOM      9  C   UNL     1      -0.576  -1.280  11.696  1.00  0.00     0.000 C 
BRANCH   9  10
ATOM     10  C   UNL     1      -0.393   0.094  12.359  1.00  0.00     0.000 C 
BRANCH  10  11
ATOM     11  C   UNL     1      -1.301   0.284  13.585  1.00  0.00     0.000 C 
BRANCH  11  12
ATOM     12  C   UNL     1      -0.848   1.454  14.475  1.00  0.00     0.006 C 
BRANCH  12  13
ATOM     13  C   UNL     1      -1.292   1.278  15.933  1.00  0.00     0.053 C 
BRANCH  13  14
ATOM     14  C   UNL     1      -0.124   1.249  16.871  1.00  0.00     0.041 C 
ATOM     15  O   UNL     1       0.925   0.627  16.556  1.00  0.00    -0.550 OA
ATOM     16  O   UNL     1      -0.182   1.934  18.078  1.00  0.00    -0.550 OA
ENDBRANCH  13  14
ENDBRANCH  12  13
ENDBRANCH  11  12
ENDBRANCH  10  11
ENDBRANCH   9  10
ENDBRANCH   8   9
ENDBRANCH   7   8
ENDBRANCH   6   7
ENDBRANCH   5   6
ENDBRANCH   4   5
ENDBRANCH   3   4
ENDBRANCH   2   3
ENDBRANCH   1   2
BRANCH   1  17
ATOM     17  C   UNL     1      -2.374   1.622   9.621  1.00  0.00     0.000 C 
BRANCH  17  18
ATOM     18  C   UNL     1      -3.688   2.158  10.214  1.00  0.00     0.000 C 
BRANCH  18  19
ATOM     19  C   UNL     1      -3.704   2.145  11.749  1.00  0.00     0.000 C 
BRANCH  19  20
ATOM     20  C   UNL     1      -4.732   1.140  12.284  1.00  0.00     0.000 C 
BRANCH  20  21
ATOM     21  C   UNL     1      -5.458   1.700  13.517  1.00  0.00     0.000 C 
BRANCH  21  22
ATOM     22  C   UNL     1      -4.576   1.705  14.776  1.00  0.00    -0.000 C 
BRANCH  22  23
ATOM     23  C   UNL     1      -4.912   2.859  15.733  1.00  0.00    -0.000 C 
BRANCH  23  24
ATOM     24  C   UNL     1      -6.421   2.915  16.013  1.00  0.00    -0.000 C 
BRANCH  24  25
ATOM     25  C   UNL     1      -6.971   4.352  16.006  1.00  0.00    -0.000 C 
BRANCH  25  26
ATOM     26  C   UNL     1      -7.102   4.924  14.583  1.00  0.00    -0.000 C 
BRANCH  26  27
ATOM     27  C   UNL     1      -5.951   5.878  14.212  1.00  0.00    -0.000 C 
BRANCH  27  28
ATOM     28  C   UNL     1      -4.990   5.352  13.130  1.00  0.00    -0.000 C 
BRANCH  28  29
ATOM     29  C   UNL     1      -3.525   5.732  13.396  1.00  0.00    -0.003 C 
ATOM     30  C   UNL     1      -3.039   6.780  12.398  1.00  0.00     0.004 C 
ENDBRANCH  28  29
ENDBRANCH  27  28
ENDBRANCH  26  27
ENDBRANCH  25  26
ENDBRANCH  24  25
ENDBRANCH  23  24
ENDBRANCH  22  23
ENDBRANCH  21  22
ENDBRANCH  20  21
ENDBRANCH  19  20
ENDBRANCH  18  19
ENDBRANCH  17  18
ENDBRANCH   1  17
TORSDOF 26
ENDMDL
MODEL 6
REMARK VINA RESULT:    -4.581      3.724      7.732
REMARK INTER + INTRA:         -16.135
REMARK INTER:                 -11.085
REMARK INTRA:                  -5.050
REMARK UNBOUND:                -4.591
REMARK SMILES CCCCCCCCCCCCCCCCCCCCCCCCCCCC(=O)[O-]
REMARK SMILES IDX 15 1 16 2 17 3 18 4 19 5 20 6 21 7 22 8 23 9 24 10 25 11
REMARK SMILES IDX 26 12 27 13 28 14 29 15 30 16 14 17 13 18 12 19 11 20 10 21
REMARK SMILES IDX 9 22 8 23 7 24 6 25 5 26 4 27 3 28 2 29 1 30
REMARK H PARENT
REMARK Flexibility Score: inf
ROOT
ATOM      1  C   UNL     1      -1.885   3.525  11.384  1.00  0.00     0.000 C 
ENDROOT
BRANCH   1   2
ATOM      2  C   UNL     1      -1.746   3.669  12.911  1.00  0.00     0.000 C 
BRANCH   2   3
ATOM      3  C   UNL     1      -1.041   2.466  13.556  1.00  0.00     0.000 C 
BRANCH   3   4
ATOM      4  C   UNL     1      -0.463   1.489  12.515  1.00  0.00     0.000 C 
BRANCH   4   5
ATOM      5  C   UNL     1      -0.601   0.015  12.946  1.00  0.00     0.000 C 
BRANCH   5   6
ATOM      6  C   UNL     1      -0.769  -0.973  11.774  1.00  0.00     0.000 C 
BRANCH   6   7
ATOM      7  C   UNL     1      -0.281  -2.404  12.085  1.00  0.00     0.000 C 
BRANCH   7   8
ATOM      8  C   UNL     1      -1.319  -3.486  11.736  1.00  0.00     0.000 C 
BRANCH   8   9
ATOM      9  C   UNL     1      -2.742  -2.914  11.641  1.00  0.00     0.000 C 
BRANCH   9  10
ATOM     10  C   UNL     1      -3.457  -3.429  10.383  1.00  0.00     0.000 C 
BRANCH  10  11
ATOM     11  C   UNL     1      -2.539  -3.455   9.150  1.00  0.00     0.000 C 
BRANCH  11  12
ATOM     12  C   UNL     1      -2.792  -2.268   8.205  1.00  0.00     0.006 C 
BRANCH  12  13
ATOM     13  C   UNL     1      -1.675  -1.219   8.283  1.00  0.00     0.053 C 
BRANCH  13  14
ATOM     14  C   UNL     1      -0.413  -1.701   7.635  1.00  0.00     0.041 C 
ATOM     15  O   UNL     1       0.607  -1.939   8.334  1.00  0.00    -0.550 OA
ATOM     16  O   UNL     1      -0.373  -1.917   6.263  1.00  0.00    -0.550 OA
ENDBRANCH  13  14
ENDBRANCH  12  13
ENDBRANCH  11  12
ENDBRANCH  10  11
ENDBRANCH   9  10
ENDBRANCH   8   9
ENDBRANCH   7   8
ENDBRANCH   6   7
ENDBRANCH   5   6
ENDBRANCH   4   5
ENDBRANCH   3   4
ENDBRANCH   2   3
ENDBRANCH   1   2
BRANCH   1  17
ATOM     17  C   UNL     1      -3.282   3.943  10.878  1.00  0.00     0.000 C 
BRANCH  17  18
ATOM     18  C   UNL     1      -4.005   2.849  10.074  1.00  0.00     0.000 C 
BRANCH  18  19
ATOM     19  C   UNL     1      -3.258   1.507  10.077  1.00  0.00     0.000 C 
BRANCH  19  20
ATOM     20  C   UNL     1      -4.072   0.422  10.792  1.00  0.00     0.000 C 
BRANCH  20  21
ATOM     21  C   UNL     1      -4.076   0.648  12.311  1.00  0.00     0.000 C 
BRANCH  21  22
ATOM     22  C   UNL     1      -5.477   0.953  12.865  1.00  0.00    -0.000 C 
BRANCH  22  23
ATOM     23  C   UNL     1      -5.532   2.271  13.652  1.00  0.00    -0.000 C 
BRANCH  23  24
ATOM     24  C   UNL     1      -4.819   2.131  15.005  1.00  0.00    -0.000 C 
BRANCH  24  25
ATOM     25  C   UNL     1      -4.291   3.474  15.538  1.00  0.00    -0.000 C 
BRANCH  25  26
ATOM     26  C   UNL     1      -5.316   4.612  15.381  1.00  0.00    -0.000 C 
BRANCH  26  27
ATOM     27  C   UNL     1      -6.026   4.964  16.703  1.00  0.00    -0.000 C 
BRANCH  27  28
ATOM     28  C   UNL     1      -7.564   4.894  16.657  1.00  0.00    -0.000 C 
BRANCH  28  29
ATOM     29  C   UNL     1      -8.084   3.688  15.860  1.00  0.00    -0.003 C 
ATOM     30  C   UNL     1      -8.670   4.126  14.520  1.00  0.00     0.004 C 
ENDBRANCH  28  29
ENDBRANCH  27  28
ENDBRANCH  26  27
ENDBRANCH  25  26
ENDBRANCH  24  25
ENDBRANCH  23  24
ENDBRANCH  22  23
ENDBRANCH  21  22
ENDBRANCH  20  21
ENDBRANCH  19  20
ENDBRANCH  18  19
ENDBRANCH  17  18
ENDBRANCH   1  17
TORSDOF 26
ENDMDL
MODEL 7
REMARK VINA RESULT:    -4.572      1.317      4.494
REMARK INTER + INTRA:         -16.113
REMARK INTER:                 -10.757
REMARK INTRA:                  -5.356
REMARK UNBOUND:                -4.591
REMARK SMILES CCCCCCCCCCCCCCCCCCCCCCCCCCCC(=O)[O-]
REMARK SMILES IDX 15 1 16 2 17 3 18 4 19 5 20 6 21 7 22 8 23 9 24 10 25 11
REMARK SMILES IDX 26 12 27 13 28 14 29 15 30 16 14 17 13 18 12 19 11 20 10 21
REMARK SMILES IDX 9 22 8 23 7 24 6 25 5 26 4 27 3 28 2 29 1 30
REMARK H PARENT
REMARK Flexibility Score: inf
ROOT
ATOM      1  C   UNL     1      -5.068   2.010  13.625  1.00  0.00     0.000 C 
ENDROOT
BRANCH   1   2
ATOM      2  C   UNL     1      -5.180   0.594  13.030  1.00  0.00     0.000 C 
BRANCH   2   3
ATOM      3  C   UNL     1      -4.331   0.416  11.762  1.00  0.00     0.000 C 
BRANCH   3   4
ATOM      4  C   UNL     1      -4.370   1.651  10.844  1.00  0.00     0.000 C 
BRANCH   4   5
ATOM      5  C   UNL     1      -3.115   1.770   9.956  1.00  0.00     0.000 C 
BRANCH   5   6
ATOM      6  C   UNL     1      -2.610   3.214   9.767  1.00  0.00     0.000 C 
BRANCH   6   7
ATOM      7  C   UNL     1      -3.634   4.295  10.171  1.00  0.00     0.000 C 
BRANCH   7   8
ATOM      8  C   UNL     1      -3.040   5.379  11.088  1.00  0.00     0.000 C 
BRANCH   8   9
ATOM      9  C   UNL     1      -3.272   5.071  12.575  1.00  0.00     0.000 C 
BRANCH   9  10
ATOM     10  C   UNL     1      -4.671   5.524  13.017  1.00  0.00     0.000 C 
BRANCH  10  11
ATOM     11  C   UNL     1      -4.716   5.955  14.492  1.00  0.00     0.000 C 
BRANCH  11  12
ATOM     12  C   UNL     1      -5.914   5.351  15.244  1.00  0.00     0.006 C 
BRANCH  12  13
ATOM     13  C   UNL     1      -7.112   5.101  14.318  1.00  0.00     0.053 C 
BRANCH  13  14
ATOM     14  C   UNL     1      -8.075   4.116  14.909  1.00  0.00     0.041 C 
ATOM     15  O   UNL     1      -9.239   4.010  14.441  1.00  0.00    -0.550 OA
ATOM     16  O   UNL     1      -7.676   3.295  15.956  1.00  0.00    -0.550 OA
ENDBRANCH  13  14
ENDBRANCH  12  13
ENDBRANCH  11  12
ENDBRANCH  10  11
ENDBRANCH   9  10
ENDBRANCH   8   9
ENDBRANCH   7   8
ENDBRANCH   6   7
ENDBRANCH   5   6
ENDBRANCH   4   5
ENDBRANCH   3   4
ENDBRANCH   2   3
ENDBRANCH   1   2
BRANCH   1  17
ATOM     17  C   UNL     1      -4.498   2.003  15.058  1.00  0.00     0.000 C 
BRANCH  17  18
ATOM     18  C   UNL     1      -3.052   2.518  15.156  1.00  0.00     0.000 C 
BRANCH  18  19
ATOM     19  C   UNL     1      -2.037   1.406  15.456  1.00  0.00     0.000 C 
BRANCH  19  20
ATOM     20  C   UNL     1      -1.422   0.854  14.163  1.00  0.00     0.000 C 
BRANCH  20  21
ATOM     21  C   UNL     1      -1.337   1.945  13.086  1.00  0.00     0.000 C 
BRANCH  21  22
ATOM     22  C   UNL     1       0.050   2.026  12.429  1.00  0.00    -0.000 C 
BRANCH  22  23
ATOM     23  C   UNL     1       0.610   0.647  12.048  1.00  0.00    -0.000 C 
BRANCH  23  24
ATOM     24  C   UNL     1       0.189   0.261  10.622  1.00  0.00    -0.000 C 
BRANCH  24  25
ATOM     25  C   UNL     1      -0.128  -1.238  10.485  1.00  0.00    -0.000 C 
BRANCH  25  26
ATOM     26  C   UNL     1      -0.610  -1.860  11.808  1.00  0.00    -0.000 C 
BRANCH  26  27
ATOM     27  C   UNL     1      -1.972  -2.570  11.675  1.00  0.00    -0.000 C 
BRANCH  27  28
ATOM     28  C   UNL     1      -2.680  -2.376  10.321  1.00  0.00    -0.000 C 
BRANCH  28  29
ATOM     29  C   UNL     1      -3.841  -3.359  10.108  1.00  0.00    -0.003 C 
ATOM     30  C   UNL     1      -4.027  -4.263  11.324  1.00  0.00     0.004 C 
ENDBRANCH  28  29
ENDBRANCH  27  28
ENDBRANCH  26  27
ENDBRANCH  25  26
ENDBRANCH  24  25
ENDBRANCH  23  24
ENDBRANCH  22  23
ENDBRANCH  21  22
ENDBRANCH  20  21
ENDBRANCH  19  20
ENDBRANCH  18  19
ENDBRANCH  17  18
ENDBRANCH   1  17
TORSDOF 26
ENDMDL
MODEL 8
REMARK VINA RESULT:    -4.560      1.482      4.274
REMARK INTER + INTRA:         -16.081
REMARK INTER:                 -11.144
REMARK INTRA:                  -4.937
REMARK UNBOUND:                -4.591
REMARK SMILES CCCCCCCCCCCCCCCCCCCCCCCCCCCC(=O)[O-]
REMARK SMILES IDX 15 1 16 2 17 3 18 4 19 5 20 6 21 7 22 8 23 9 24 10 25 11
REMARK SMILES IDX 26 12 27 13 28 14 29 15 30 16 14 17 13 18 12 19 11 20 10 21
REMARK SMILES IDX 9 22 8 23 7 24 6 25 5 26 4 27 3 28 2 29 1 30
REMARK H PARENT
REMARK Flexibility Score: inf
ROOT
ATOM      1  C   UNL     1      -4.120   1.848  10.359  1.00  0.00     0.000 C 
ENDROOT
BRANCH   1   2
ATOM      2  C   UNL     1      -4.695   1.664  11.775  1.00  0.00     0.000 C 
BRANCH   2   3
ATOM      3  C   UNL     1      -3.931   0.611  12.592  1.00  0.00     0.000 C 
BRANCH   3   4
ATOM      4  C   UNL     1      -2.781  -0.035  11.798  1.00  0.00     0.000 C 
BRANCH   4   5
ATOM      5  C   UNL     1      -1.400   0.235  12.429  1.00  0.00     0.000 C 
BRANCH   5   6
ATOM      6  C   UNL     1      -1.342   1.506  13.300  1.00  0.00     0.000 C 
BRANCH   6   7
ATOM      7  C   UNL     1      -0.526   1.339  14.599  1.00  0.00     0.000 C 
BRANCH   7   8
ATOM      8  C   UNL     1      -1.288   1.799  15.856  1.00  0.00     0.000 C 
BRANCH   8   9
ATOM      9  C   UNL     1      -2.768   2.087  15.562  1.00  0.00     0.000 C 
BRANCH   9  10
ATOM     10  C   UNL     1      -3.099   3.566  15.815  1.00  0.00     0.000 C 
BRANCH  10  11
ATOM     11  C   UNL     1      -4.529   3.933  15.388  1.00  0.00     0.000 C 
BRANCH  11  12
ATOM     12  C   UNL     1      -5.473   2.719  15.390  1.00  0.00     0.006 C 
BRANCH  12  13
ATOM     13  C   UNL     1      -6.611   2.871  16.406  1.00  0.00     0.053 C 
BRANCH  13  14
ATOM     14  C   UNL     1      -7.577   3.944  16.003  1.00  0.00     0.041 C 
ATOM     15  O   UNL     1      -7.937   4.818  16.834  1.00  0.00    -0.550 OA
ATOM     16  O   UNL     1      -8.054   3.996  14.699  1.00  0.00    -0.550 OA
ENDBRANCH  13  14
ENDBRANCH  12  13
ENDBRANCH  11  12
ENDBRANCH  10  11
ENDBRANCH   9  10
ENDBRANCH   8   9
ENDBRANCH   7   8
ENDBRANCH   6   7
ENDBRANCH   5   6
ENDBRANCH   4   5
ENDBRANCH   3   4
ENDBRANCH   2   3
ENDBRANCH   1   2
BRANCH   1  17
ATOM     17  C   UNL     1      -3.617   3.285  10.110  1.00  0.00     0.000 C 
BRANCH  17  18
ATOM     18  C   UNL     1      -2.102   3.379   9.854  1.00  0.00     0.000 C 
BRANCH  18  19
ATOM     19  C   UNL     1      -1.535   2.141   9.145  1.00  0.00     0.000 C 
BRANCH  19  20
ATOM     20  C   UNL     1      -0.020   2.028   9.355  1.00  0.00     0.000 C 
BRANCH  20  21
ATOM     21  C   UNL     1       0.542   0.786   8.645  1.00  0.00     0.000 C 
BRANCH  21  22
ATOM     22  C   UNL     1      -0.246  -0.493   8.971  1.00  0.00    -0.000 C 
BRANCH  22  23
ATOM     23  C   UNL     1      -0.364  -1.441   7.768  1.00  0.00    -0.000 C 
BRANCH  23  24
ATOM     24  C   UNL     1      -1.662  -2.259   7.841  1.00  0.00    -0.000 C 
BRANCH  24  25
ATOM     25  C   UNL     1      -2.853  -1.435   8.361  1.00  0.00    -0.000 C 
BRANCH  25  26
ATOM     26  C   UNL     1      -3.803  -2.267   9.241  1.00  0.00    -0.000 C 
BRANCH  26  27
ATOM     27  C   UNL     1      -3.110  -3.481   9.889  1.00  0.00    -0.000 C 
BRANCH  27  28
ATOM     28  C   UNL     1      -3.309  -3.612  11.410  1.00  0.00    -0.000 C 
BRANCH  28  29
ATOM     29  C   UNL     1      -1.984  -3.714  12.180  1.00  0.00    -0.003 C 
ATOM     30  C   UNL     1      -0.802  -3.331  11.293  1.00  0.00     0.004 C 
ENDBRANCH  28  29
ENDBRANCH  27  28
ENDBRANCH  26  27
ENDBRANCH  25  26
ENDBRANCH  24  25
ENDBRANCH  23  24
ENDBRANCH  22  23
ENDBRANCH  21  22
ENDBRANCH  20  21
ENDBRANCH  19  20
ENDBRANCH  18  19
ENDBRANCH  17  18
ENDBRANCH   1  17
TORSDOF 26
ENDMDL
MODEL 9
REMARK VINA RESULT:    -4.523      1.281      2.267
REMARK INTER + INTRA:         -15.989
REMARK INTER:                 -12.361
REMARK INTRA:                  -3.629
REMARK UNBOUND:                -4.591
REMARK SMILES CCCCCCCCCCCCCCCCCCCCCCCCCCCC(=O)[O-]
REMARK SMILES IDX 15 1 16 2 17 3 18 4 19 5 20 6 21 7 22 8 23 9 24 10 25 11
REMARK SMILES IDX 26 12 27 13 28 14 29 15 30 16 14 17 13 18 12 19 11 20 10 21
REMARK SMILES IDX 9 22 8 23 7 24 6 25 5 26 4 27 3 28 2 29 1 30
REMARK H PARENT
REMARK Flexibility Score: inf
ROOT
ATOM      1  C   UNL     1      -3.567  -0.191   9.127  1.00  0.00     0.000 C 
ENDROOT
BRANCH   1   2
ATOM      2  C   UNL     1      -4.026   0.340  10.498  1.00  0.00     0.000 C 
BRANCH   2   3
ATOM      3  C   UNL     1      -3.722   1.834  10.686  1.00  0.00     0.000 C 
BRANCH   3   4
ATOM      4  C   UNL     1      -2.449   2.278   9.940  1.00  0.00     0.000 C 
BRANCH   4   5
ATOM      5  C   UNL     1      -2.515   3.749   9.482  1.00  0.00     0.000 C 
BRANCH   5   6
ATOM      6  C   UNL     1      -3.422   4.641  10.352  1.00  0.00     0.000 C 
BRANCH   6   7
ATOM      7  C   UNL     1      -2.652   5.579  11.306  1.00  0.00     0.000 C 
BRANCH   7   8
ATOM      8  C   UNL     1      -3.302   5.693  12.697  1.00  0.00     0.000 C 
BRANCH   8   9
ATOM      9  C   UNL     1      -4.477   4.719  12.869  1.00  0.00     0.000 C 
BRANCH   9  10
ATOM     10  C   UNL     1      -4.227   3.761  14.043  1.00  0.00     0.000 C 
BRANCH  10  11
ATOM     11  C   UNL     1      -5.508   3.049  14.509  1.00  0.00     0.000 C 
BRANCH  11  12
ATOM     12  C   UNL     1      -5.582   2.917  16.040  1.00  0.00     0.006 C 
BRANCH  12  13
ATOM     13  C   UNL     1      -7.027   2.805  16.542  1.00  0.00     0.053 C 
BRANCH  13  14
ATOM     14  C   UNL     1      -7.828   4.027  16.210  1.00  0.00     0.041 C 
ATOM     15  O   UNL     1      -7.657   5.092  16.859  1.00  0.00    -0.550 OA
ATOM     16  O   UNL     1      -8.740   3.998  15.162  1.00  0.00    -0.550 OA
ENDBRANCH  13  14
ENDBRANCH  12  13
ENDBRANCH  11  12
ENDBRANCH  10  11
ENDBRANCH   9  10
ENDBRANCH   8   9
ENDBRANCH   7   8
ENDBRANCH   6   7
ENDBRANCH   5   6
ENDBRANCH   4   5
ENDBRANCH   3   4
ENDBRANCH   2   3
ENDBRANCH   1   2
BRANCH   1  17
ATOM     17  C   UNL     1      -4.136  -1.591   8.818  1.00  0.00     0.000 C 
BRANCH  17  18
ATOM     18  C   UNL     1      -3.226  -2.746   9.271  1.00  0.00     0.000 C 
BRANCH  18  19
ATOM     19  C   UNL     1      -3.822  -3.564  10.425  1.00  0.00     0.000 C 
BRANCH  19  20
ATOM     20  C   UNL     1      -2.841  -3.662  11.600  1.00  0.00     0.000 C 
BRANCH  20  21
ATOM     21  C   UNL     1      -1.488  -3.030  11.239  1.00  0.00     0.000 C 
BRANCH  21  22
ATOM     22  C   UNL     1      -1.048  -1.953  12.243  1.00  0.00    -0.000 C 
BRANCH  22  23
ATOM     23  C   UNL     1      -0.691  -0.620  11.566  1.00  0.00    -0.000 C 
BRANCH  23  24
ATOM     24  C   UNL     1      -0.448   0.478  12.613  1.00  0.00    -0.000 C 
BRANCH  24  25
ATOM     25  C   UNL     1      -1.671   0.715  13.515  1.00  0.00    -0.000 C 
BRANCH  25  26
ATOM     26  C   UNL     1      -1.360   1.660  14.690  1.00  0.00    -0.000 C 
BRANCH  26  27
ATOM     27  C   UNL     1      -1.446   0.962  16.060  1.00  0.00    -0.000 C 
BRANCH  27  28
ATOM     28  C   UNL     1      -0.560   1.572  17.162  1.00  0.00    -0.000 C 
BRANCH  28  29
ATOM     29  C   UNL     1       0.252   0.518  17.930  1.00  0.00    -0.003 C 
ATOM     30  C   UNL     1      -0.612  -0.188  18.973  1.00  0.00     0.004 C 
ENDBRANCH  28  29
ENDBRANCH  27  28
ENDBRANCH  26  27
ENDBRANCH  25  26
ENDBRANCH  24  25
ENDBRANCH  23  24
ENDBRANCH  22  23
ENDBRANCH  21  22
ENDBRANCH  20  21
ENDBRANCH  19  20
ENDBRANCH  18  19
ENDBRANCH  17  18
ENDBRANCH   1  17
TORSDOF 26
ENDMDL
