MODEL 1
REMARK VINA RESULT:    -4.510      0.000      0.000
REMARK INTER + INTRA:          -8.141
REMARK INTER:                  -6.883
REMARK INTRA:                  -1.258
REMARK UNBOUND:                -1.258
REMARK SMILES CCCCCCCCCC=CC(=O)[O-]
REMARK SMILES IDX 7 1 8 2 9 3 10 4 11 5 12 6 13 7 14 8 6 9 5 10 4 11 3 12 2 13
REMARK SMILES IDX 1 14
REMARK H PARENT
REMARK Flexibility Score: inf
ROOT
ATOM      1  C   UNL     1     -32.887  41.651  41.146  1.00  0.00     0.000 C 
ENDROOT
BRANCH   1   2
ATOM      2  C   UNL     1     -34.049  42.013  42.090  1.00  0.00     0.004 C 
BRANCH   2   3
ATOM      3  C   UNL     1     -35.233  42.714  41.401  1.00  0.00     0.027 C 
BRANCH   3   4
ATOM      4  C   UNL     1     -34.844  43.376  40.109  1.00  0.00    -0.025 C 
ATOM      5  C   UNL     1     -34.745  44.706  40.006  1.00  0.00     0.020 C 
BRANCH   5   6
ATOM      6  C   UNL     1     -34.369  45.374  38.750  1.00  0.00     0.064 C 
ATOM      7  O   UNL     1     -35.244  45.853  37.980  1.00  0.00    -0.545 OA
ATOM      8  O   UNL     1     -33.027  45.477  38.406  1.00  0.00    -0.545 OA
ENDBRANCH   5   6
ENDBRANCH   3   4
ENDBRANCH   2   3
ENDBRANCH   1   2
BRANCH   1   9
ATOM      9  C   UNL     1     -32.892  40.167  40.742  1.00  0.00     0.000 C 
BRANCH   9  10
ATOM     10  C   UNL     1     -33.565  39.930  39.380  1.00  0.00     0.000 C 
BRANCH  10  11
ATOM     11  C   UNL     1     -34.631  38.822  39.428  1.00  0.00    -0.000 C 
BRANCH  11  12
ATOM     12  C   UNL     1     -35.991  39.332  39.930  1.00  0.00    -0.000 C 
BRANCH  12  13
ATOM     13  C   UNL     1     -36.276  38.922  41.383  1.00  0.00    -0.003 C 
ATOM     14  C   UNL     1     -37.503  39.648  41.927  1.00  0.00     0.004 C 
ENDBRANCH  12  13
ENDBRANCH  11  12
ENDBRANCH  10  11
ENDBRANCH   9  10
ENDBRANCH   1   9
TORSDOF 9
ENDMDL
MODEL 2
REMARK VINA RESULT:    -4.482      1.648      3.049
REMARK INTER + INTRA:          -8.097
REMARK INTER:                  -6.697
REMARK INTRA:                  -1.400
REMARK UNBOUND:                -1.258
REMARK SMILES CCCCCCCCCC=CC(=O)[O-]
REMARK SMILES IDX 7 1 8 2 9 3 10 4 11 5 12 6 13 7 14 8 6 9 5 10 4 11 3 12 2 13
REMARK SMILES IDX 1 14
REMARK H PARENT
REMARK Flexibility Score: inf
ROOT
ATOM      1  C   UNL     1     -34.202  41.224  43.696  1.00  0.00     0.000 C 
ENDROOT
BRANCH   1   2
ATOM      2  C   UNL     1     -34.976  42.472  43.234  1.00  0.00     0.004 C 
BRANCH   2   3
ATOM      3  C   UNL     1     -35.432  42.428  41.765  1.00  0.00     0.027 C 
BRANCH   3   4
ATOM      4  C   UNL     1     -35.058  43.669  41.003  1.00  0.00    -0.025 C 
ATOM      5  C   UNL     1     -34.418  43.604  39.831  1.00  0.00     0.020 C 
BRANCH   5   6
ATOM      6  C   UNL     1     -34.040  44.806  39.071  1.00  0.00     0.064 C 
ATOM      7  O   UNL     1     -34.913  45.606  38.640  1.00  0.00    -0.545 OA
ATOM      8  O   UNL     1     -32.697  45.063  38.823  1.00  0.00    -0.545 OA
ENDBRANCH   5   6
ENDBRANCH   3   4
ENDBRANCH   2   3
ENDBRANCH   1   2
BRANCH   1   9
ATOM      9  C   UNL     1     -32.746  41.537  44.081  1.00  0.00     0.000 C 
BRANCH   9  10
ATOM     10  C   UNL     1     -31.732  40.763  43.223  1.00  0.00     0.000 C 
BRANCH  10  11
ATOM     11  C   UNL     1     -31.176  41.601  42.058  1.00  0.00    -0.000 C 
BRANCH  11  12
ATOM     12  C   UNL     1     -31.751  41.174  40.698  1.00  0.00    -0.000 C 
BRANCH  12  13
ATOM     13  C   UNL     1     -32.536  39.856  40.776  1.00  0.00    -0.003 C 
ATOM     14  C   UNL     1     -33.654  39.821  39.739  1.00  0.00     0.004 C 
ENDBRANCH  12  13
ENDBRANCH  11  12
ENDBRANCH  10  11
ENDBRANCH   9  10
ENDBRANCH   1   9
TORSDOF 9
ENDMDL
MODEL 3
REMARK VINA RESULT:    -4.466      2.406      3.439
REMARK INTER + INTRA:          -8.074
REMARK INTER:                  -7.249
REMARK INTRA:                  -0.824
REMARK UNBOUND:                -1.258
REMARK SMILES CCCCCCCCCC=CC(=O)[O-]
REMARK SMILES IDX 7 1 8 2 9 3 10 4 11 5 12 6 13 7 14 8 6 9 5 10 4 11 3 12 2 13
REMARK SMILES IDX 1 14
REMARK H PARENT
REMARK Flexibility Score: inf
ROOT
ATOM      1  C   UNL     1     -32.758  42.157  40.661  1.00  0.00     0.000 C 
ENDROOT
BRANCH   1   2
ATOM      2  C   UNL     1     -34.262  42.271  40.350  1.00  0.00     0.004 C 
BRANCH   2   3
ATOM      3  C   UNL     1     -34.700  43.651  39.828  1.00  0.00     0.027 C 
BRANCH   3   4
ATOM      4  C   UNL     1     -33.900  44.103  38.638  1.00  0.00    -0.025 C 
ATOM      5  C   UNL     1     -33.673  45.398  38.399  1.00  0.00     0.020 C 
BRANCH   5   6
ATOM      6  C   UNL     1     -32.896  45.862  37.238  1.00  0.00     0.064 C 
ATOM      7  O   UNL     1     -31.679  45.562  37.107  1.00  0.00    -0.545 OA
ATOM      8  O   UNL     1     -33.514  46.644  36.271  1.00  0.00    -0.545 OA
ENDBRANCH   5   6
ENDBRANCH   3   4
ENDBRANCH   2   3
ENDBRANCH   1   2
BRANCH   1   9
ATOM      9  C   UNL     1     -32.244  40.710  40.587  1.00  0.00     0.000 C 
BRANCH   9  10
ATOM     10  C   UNL     1     -31.853  40.152  41.965  1.00  0.00     0.000 C 
BRANCH  10  11
ATOM     11  C   UNL     1     -30.994  41.134  42.782  1.00  0.00    -0.000 C 
BRANCH  11  12
ATOM     12  C   UNL     1     -31.707  41.625  44.052  1.00  0.00    -0.000 C 
BRANCH  12  13
ATOM     13  C   UNL     1     -33.117  41.034  44.204  1.00  0.00    -0.003 C 
ATOM     14  C   UNL     1     -34.168  42.137  44.287  1.00  0.00     0.004 C 
ENDBRANCH  12  13
ENDBRANCH  11  12
ENDBRANCH  10  11
ENDBRANCH   9  10
ENDBRANCH   1   9
TORSDOF 9
ENDMDL
MODEL 4
REMARK VINA RESULT:    -4.462      1.599      3.110
REMARK INTER + INTRA:          -8.067
REMARK INTER:                  -6.487
REMARK INTRA:                  -1.580
REMARK UNBOUND:                -1.258
REMARK SMILES CCCCCCCCCC=CC(=O)[O-]
REMARK SMILES IDX 7 1 8 2 9 3 10 4 11 5 12 6 13 7 14 8 6 9 5 10 4 11 3 12 2 13
REMARK SMILES IDX 1 14
REMARK H PARENT
REMARK Flexibility Score: inf
ROOT
ATOM      1  C   UNL     1     -35.444  39.857  42.443  1.00  0.00     0.000 C 
ENDROOT
BRANCH   1   2
ATOM      2  C   UNL     1     -35.763  40.991  41.450  1.00  0.00     0.004 C 
BRANCH   2   3
ATOM      3  C   UNL     1     -35.670  42.405  42.051  1.00  0.00     0.027 C 
BRANCH   3   4
ATOM      4  C   UNL     1     -35.035  43.394  41.114  1.00  0.00    -0.025 C 
ATOM      5  C   UNL     1     -34.576  43.025  39.913  1.00  0.00     0.020 C 
BRANCH   5   6
ATOM      6  C   UNL     1     -33.949  43.976  38.982  1.00  0.00     0.064 C 
ATOM      7  O   UNL     1     -34.394  44.134  37.815  1.00  0.00    -0.545 OA
ATOM      8  O   UNL     1     -32.846  44.712  39.398  1.00  0.00    -0.545 OA
ENDBRANCH   5   6
ENDBRANCH   3   4
ENDBRANCH   2   3
ENDBRANCH   1   2
BRANCH   1   9
ATOM      9  C   UNL     1     -34.299  38.951  41.960  1.00  0.00     0.000 C 
BRANCH   9  10
ATOM     10  C   UNL     1     -33.483  39.588  40.824  1.00  0.00     0.000 C 
BRANCH  10  11
ATOM     11  C   UNL     1     -32.037  39.915  41.239  1.00  0.00    -0.000 C 
BRANCH  11  12
ATOM     12  C   UNL     1     -31.898  41.326  41.832  1.00  0.00    -0.000 C 
BRANCH  12  13
ATOM     13  C   UNL     1     -31.489  41.307  43.312  1.00  0.00    -0.003 C 
ATOM     14  C   UNL     1     -32.677  41.628  44.213  1.00  0.00     0.004 C 
ENDBRANCH  12  13
ENDBRANCH  11  12
ENDBRANCH  10  11
ENDBRANCH   9  10
ENDBRANCH   1   9
TORSDOF 9
ENDMDL
MODEL 5
REMARK VINA RESULT:    -4.433      2.551      3.940
REMARK INTER + INTRA:          -8.024
REMARK INTER:                  -7.196
REMARK INTRA:                  -0.827
REMARK UNBOUND:                -1.258
REMARK SMILES CCCCCCCCCC=CC(=O)[O-]
REMARK SMILES IDX 7 1 8 2 9 3 10 4 11 5 12 6 13 7 14 8 6 9 5 10 4 11 3 12 2 13
REMARK SMILES IDX 1 14
REMARK H PARENT
REMARK Flexibility Score: inf
ROOT
ATOM      1  C   UNL     1     -35.640  43.309  42.517  1.00  0.00     0.000 C 
ENDROOT
BRANCH   1   2
ATOM      2  C   UNL     1     -35.220  44.064  41.242  1.00  0.00     0.004 C 
BRANCH   2   3
ATOM      3  C   UNL     1     -34.509  43.190  40.193  1.00  0.00     0.027 C 
BRANCH   3   4
ATOM      4  C   UNL     1     -34.169  43.948  38.940  1.00  0.00    -0.025 C 
ATOM      5  C   UNL     1     -33.104  44.753  38.876  1.00  0.00     0.020 C 
BRANCH   5   6
ATOM      6  C   UNL     1     -32.755  45.506  37.661  1.00  0.00     0.064 C 
ATOM      7  O   UNL     1     -33.617  46.192  37.051  1.00  0.00    -0.545 OA
ATOM      8  O   UNL     1     -31.453  45.459  37.178  1.00  0.00    -0.545 OA
ENDBRANCH   5   6
ENDBRANCH   3   4
ENDBRANCH   2   3
ENDBRANCH   1   2
BRANCH   1   9
ATOM      9  C   UNL     1     -35.051  41.891  42.590  1.00  0.00     0.000 C 
BRANCH   9  10
ATOM     10  C   UNL     1     -33.877  41.791  43.577  1.00  0.00     0.000 C 
BRANCH  10  11
ATOM     11  C   UNL     1     -32.730  40.910  43.051  1.00  0.00    -0.000 C 
BRANCH  11  12
ATOM     12  C   UNL     1     -31.344  41.498  43.362  1.00  0.00    -0.000 C 
BRANCH  12  13
ATOM     13  C   UNL     1     -30.393  41.439  42.158  1.00  0.00    -0.003 C 
ATOM     14  C   UNL     1     -31.133  41.750  40.860  1.00  0.00     0.004 C 
ENDBRANCH  12  13
ENDBRANCH  11  12
ENDBRANCH  10  11
ENDBRANCH   9  10
ENDBRANCH   1   9
TORSDOF 9
ENDMDL
MODEL 6
REMARK VINA RESULT:    -4.432      7.612      9.709
REMARK INTER + INTRA:          -8.022
REMARK INTER:                  -7.003
REMARK INTRA:                  -1.018
REMARK UNBOUND:                -1.258
REMARK SMILES CCCCCCCCCC=CC(=O)[O-]
REMARK SMILES IDX 7 1 8 2 9 3 10 4 11 5 12 6 13 7 14 8 6 9 5 10 4 11 3 12 2 13
REMARK SMILES IDX 1 14
REMARK H PARENT
REMARK Flexibility Score: inf
ROOT
ATOM      1  C   UNL     1     -36.951  38.793  46.044  1.00  0.00     0.000 C 
ENDROOT
BRANCH   1   2
ATOM      2  C   UNL     1     -38.148  39.314  46.861  1.00  0.00     0.004 C 
BRANCH   2   3
ATOM      3  C   UNL     1     -39.505  38.710  46.456  1.00  0.00     0.027 C 
BRANCH   3   4
ATOM      4  C   UNL     1     -40.049  37.760  47.486  1.00  0.00    -0.025 C 
ATOM      5  C   UNL     1     -40.692  38.199  48.572  1.00  0.00     0.020 C 
BRANCH   5   6
ATOM      6  C   UNL     1     -41.229  37.286  49.593  1.00  0.00     0.064 C 
ATOM      7  O   UNL     1     -41.687  37.724  50.682  1.00  0.00    -0.545 OA
ATOM      8  O   UNL     1     -41.230  35.917  49.354  1.00  0.00    -0.545 OA
ENDBRANCH   5   6
ENDBRANCH   3   4
ENDBRANCH   2   3
ENDBRANCH   1   2
BRANCH   1   9
ATOM      9  C   UNL     1     -37.323  37.609  45.136  1.00  0.00     0.000 C 
BRANCH   9  10
ATOM     10  C   UNL     1     -36.543  37.616  43.811  1.00  0.00     0.000 C 
BRANCH  10  11
ATOM     11  C   UNL     1     -37.458  37.752  42.581  1.00  0.00    -0.000 C 
BRANCH  11  12
ATOM     12  C   UNL     1     -38.395  38.967  42.674  1.00  0.00    -0.000 C 
BRANCH  12  13
ATOM     13  C   UNL     1     -37.652  40.299  42.494  1.00  0.00    -0.003 C 
ATOM     14  C   UNL     1     -38.009  41.281  43.607  1.00  0.00     0.004 C 
ENDBRANCH  12  13
ENDBRANCH  11  12
ENDBRANCH  10  11
ENDBRANCH   9  10
ENDBRANCH   1   9
TORSDOF 9
ENDMDL
MODEL 7
REMARK VINA RESULT:    -4.419      7.833      8.972
REMARK INTER + INTRA:          -8.002
REMARK INTER:                  -6.746
REMARK INTRA:                  -1.256
REMARK UNBOUND:                -1.258
REMARK SMILES CCCCCCCCCC=CC(=O)[O-]
REMARK SMILES IDX 7 1 8 2 9 3 10 4 11 5 12 6 13 7 14 8 6 9 5 10 4 11 3 12 2 13
REMARK SMILES IDX 1 14
REMARK H PARENT
REMARK Flexibility Score: inf
ROOT
ATOM      1  C   UNL     1     -35.189  39.938  46.011  1.00  0.00     0.000 C 
ENDROOT
BRANCH   1   2
ATOM      2  C   UNL     1     -36.513  40.725  46.001  1.00  0.00     0.004 C 
BRANCH   2   3
ATOM      3  C   UNL     1     -37.742  39.895  45.590  1.00  0.00     0.027 C 
BRANCH   3   4
ATOM      4  C   UNL     1     -38.390  39.199  46.755  1.00  0.00    -0.025 C 
ATOM      5  C   UNL     1     -39.514  38.490  46.609  1.00  0.00     0.020 C 
BRANCH   5   6
ATOM      6  C   UNL     1     -40.166  37.805  47.737  1.00  0.00     0.064 C 
ATOM      7  O   UNL     1     -40.627  38.453  48.714  1.00  0.00    -0.545 OA
ATOM      8  O   UNL     1     -40.274  36.420  47.724  1.00  0.00    -0.545 OA
ENDBRANCH   5   6
ENDBRANCH   3   4
ENDBRANCH   2   3
ENDBRANCH   1   2
BRANCH   1   9
ATOM      9  C   UNL     1     -34.762  39.512  47.425  1.00  0.00     0.000 C 
BRANCH   9  10
ATOM     10  C   UNL     1     -34.840  37.990  47.630  1.00  0.00     0.000 C 
BRANCH  10  11
ATOM     11  C   UNL     1     -34.922  37.215  46.303  1.00  0.00    -0.000 C 
BRANCH  11  12
ATOM     12  C   UNL     1     -36.080  36.205  46.280  1.00  0.00    -0.000 C 
BRANCH  12  13
ATOM     13  C   UNL     1     -36.890  36.265  44.977  1.00  0.00    -0.003 C 
ATOM     14  C   UNL     1     -36.594  35.059  44.091  1.00  0.00     0.004 C 
ENDBRANCH  12  13
ENDBRANCH  11  12
ENDBRANCH  10  11
ENDBRANCH   9  10
ENDBRANCH   1   9
TORSDOF 9
ENDMDL
MODEL 8
REMARK VINA RESULT:    -4.406      2.139      3.802
REMARK INTER + INTRA:          -7.982
REMARK INTER:                  -6.528
REMARK INTRA:                  -1.454
REMARK UNBOUND:                -1.258
REMARK SMILES CCCCCCCCCC=CC(=O)[O-]
REMARK SMILES IDX 7 1 8 2 9 3 10 4 11 5 12 6 13 7 14 8 6 9 5 10 4 11 3 12 2 13
REMARK SMILES IDX 1 14
REMARK H PARENT
REMARK Flexibility Score: inf
ROOT
ATOM      1  C   UNL     1     -37.761  41.510  43.630  1.00  0.00     0.000 C 
ENDROOT
BRANCH   1   2
ATOM      2  C   UNL     1     -36.326  41.410  44.182  1.00  0.00     0.004 C 
BRANCH   2   3
ATOM      3  C   UNL     1     -35.380  42.523  43.697  1.00  0.00     0.027 C 
BRANCH   3   4
ATOM      4  C   UNL     1     -34.726  42.198  42.384  1.00  0.00    -0.025 C 
ATOM      5  C   UNL     1     -35.037  42.861  41.265  1.00  0.00     0.020 C 
BRANCH   5   6
ATOM      6  C   UNL     1     -34.412  42.557  39.968  1.00  0.00     0.064 C 
ATOM      7  O   UNL     1     -34.579  43.309  38.972  1.00  0.00    -0.545 OA
ATOM      8  O   UNL     1     -33.624  41.419  39.840  1.00  0.00    -0.545 OA
ENDBRANCH   5   6
ENDBRANCH   3   4
ENDBRANCH   2   3
ENDBRANCH   1   2
BRANCH   1   9
ATOM      9  C   UNL     1     -38.611  40.272  43.959  1.00  0.00     0.000 C 
BRANCH   9  10
ATOM     10  C   UNL     1     -37.809  38.964  43.863  1.00  0.00     0.000 C 
BRANCH  10  11
ATOM     11  C   UNL     1     -37.743  38.409  42.429  1.00  0.00    -0.000 C 
BRANCH  11  12
ATOM     12  C   UNL     1     -36.317  38.419  41.857  1.00  0.00    -0.000 C 
BRANCH  12  13
ATOM     13  C   UNL     1     -36.221  39.179  40.526  1.00  0.00    -0.003 C 
ATOM     14  C   UNL     1     -37.478  40.008  40.275  1.00  0.00     0.004 C 
ENDBRANCH  12  13
ENDBRANCH  11  12
ENDBRANCH  10  11
ENDBRANCH   9  10
ENDBRANCH   1   9
TORSDOF 9
ENDMDL
MODEL 9
REMARK VINA RESULT:    -4.397      2.603      4.028
REMARK INTER + INTRA:          -7.968
REMARK INTER:                  -6.223
REMARK INTRA:                  -1.745
REMARK UNBOUND:                -1.258
REMARK SMILES CCCCCCCCCC=CC(=O)[O-]
REMARK SMILES IDX 7 1 8 2 9 3 10 4 11 5 12 6 13 7 14 8 6 9 5 10 4 11 3 12 2 13
REMARK SMILES IDX 1 14
REMARK H PARENT
REMARK Flexibility Score: inf
ROOT
ATOM      1  C   UNL     1     -36.576  41.405  44.627  1.00  0.00     0.000 C 
ENDROOT
BRANCH   1   2
ATOM      2  C   UNL     1     -35.375  42.225  44.119  1.00  0.00     0.004 C 
BRANCH   2   3
ATOM      3  C   UNL     1     -35.639  42.996  42.813  1.00  0.00     0.027 C 
BRANCH   3   4
ATOM      4  C   UNL     1     -34.724  42.578  41.697  1.00  0.00    -0.025 C 
ATOM      5  C   UNL     1     -33.645  41.820  41.923  1.00  0.00     0.020 C 
BRANCH   5   6
ATOM      6  C   UNL     1     -32.734  41.403  40.845  1.00  0.00     0.064 C 
ATOM      7  O   UNL     1     -32.968  40.374  40.157  1.00  0.00    -0.545 OA
ATOM      8  O   UNL     1     -31.597  42.156  40.582  1.00  0.00    -0.545 OA
ENDBRANCH   5   6
ENDBRANCH   3   4
ENDBRANCH   2   3
ENDBRANCH   1   2
BRANCH   1   9
ATOM      9  C   UNL     1     -37.743  41.378  43.625  1.00  0.00     0.000 C 
BRANCH   9  10
ATOM     10  C   UNL     1     -37.945  39.990  42.995  1.00  0.00     0.000 C 
BRANCH  10  11
ATOM     11  C   UNL     1     -37.442  39.916  41.542  1.00  0.00    -0.000 C 
BRANCH  11  12
ATOM     12  C   UNL     1     -36.139  39.111  41.409  1.00  0.00    -0.000 C 
BRANCH  12  13
ATOM     13  C   UNL     1     -35.833  38.272  42.658  1.00  0.00    -0.003 C 
ATOM     14  C   UNL     1     -34.379  38.438  43.088  1.00  0.00     0.004 C 
ENDBRANCH  12  13
ENDBRANCH  11  12
ENDBRANCH  10  11
ENDBRANCH   9  10
ENDBRANCH   1   9
TORSDOF 9
ENDMDL
