MODEL 1
REMARK VINA RESULT:    -4.864      0.000      0.000
REMARK INTER + INTRA:         -10.118
REMARK INTER:                  -9.129
REMARK INTRA:                  -0.990
REMARK UNBOUND:                -0.990
REMARK SMILES CCCCCCCCC=CCCCCCCCC(=O)[O-]
REMARK SMILES IDX 10 1 9 2 11 3 12 4 13 5 14 6 15 7 16 8 17 9 18 10 19 11
REMARK SMILES IDX 20 12 8 13 7 14 6 15 5 16 4 17 3 18 2 19 1 20
REMARK H PARENT
REMARK Flexibility Score: inf
ROOT
ATOM      1  C   UNL     1       2.611  19.242  33.264  1.00  0.00    -0.031 C 
ATOM      2  C   UNL     1       3.633  19.886  33.849  1.00  0.00    -0.031 C 
ENDROOT
BRANCH   1   3
ATOM      3  C   UNL     1       1.739  19.911  32.237  1.00  0.00     0.027 C 
BRANCH   3   4
ATOM      4  C   UNL     1       1.032  21.145  32.810  1.00  0.00     0.004 C 
BRANCH   4   5
ATOM      5  C   UNL     1      -0.282  21.458  32.074  1.00  0.00     0.000 C 
BRANCH   5   6
ATOM      6  C   UNL     1      -0.808  20.247  31.274  1.00  0.00     0.000 C 
BRANCH   6   7
ATOM      7  C   UNL     1      -1.360  20.616  29.884  1.00  0.00     0.000 C 
BRANCH   7   8
ATOM      8  C   UNL     1      -1.334  19.473  28.852  1.00  0.00     0.006 C 
BRANCH   8   9
ATOM      9  C   UNL     1      -1.731  19.897  27.429  1.00  0.00     0.053 C 
BRANCH   9  10
ATOM     10  C   UNL     1      -3.214  19.849  27.224  1.00  0.00     0.041 C 
ATOM     11  O   UNL     1      -3.945  20.773  27.669  1.00  0.00    -0.550 OA
ATOM     12  O   UNL     1      -3.793  18.769  26.569  1.00  0.00    -0.550 OA
ENDBRANCH   9  10
ENDBRANCH   8   9
ENDBRANCH   7   8
ENDBRANCH   6   7
ENDBRANCH   5   6
ENDBRANCH   4   5
ENDBRANCH   3   4
ENDBRANCH   1   3
BRANCH   2  13
ATOM     13  C   UNL     1       4.480  19.225  34.904  1.00  0.00     0.027 C 
BRANCH  13  14
ATOM     14  C   UNL     1       4.250  17.708  34.970  1.00  0.00     0.004 C 
BRANCH  14  15
ATOM     15  C   UNL     1       5.532  16.914  34.664  1.00  0.00     0.000 C 
BRANCH  15  16
ATOM     16  C   UNL     1       6.664  17.815  34.129  1.00  0.00     0.000 C 
BRANCH  16  17
ATOM     17  C   UNL     1       7.009  17.557  32.651  1.00  0.00    -0.000 C 
BRANCH  17  18
ATOM     18  C   UNL     1       6.670  16.126  32.202  1.00  0.00    -0.000 C 
BRANCH  18  19
ATOM     19  C   UNL     1       7.848  15.437  31.495  1.00  0.00    -0.003 C 
ATOM     20  C   UNL     1       7.426  14.185  30.727  1.00  0.00     0.004 C 
ENDBRANCH  18  19
ENDBRANCH  17  18
ENDBRANCH  16  17
ENDBRANCH  15  16
ENDBRANCH  14  15
ENDBRANCH  13  14
ENDBRANCH   2  13
TORSDOF 15
ENDMDL
MODEL 2
REMARK VINA RESULT:    -4.859      4.231      9.210
REMARK INTER + INTRA:         -10.109
REMARK INTER:                  -9.224
REMARK INTRA:                  -0.885
REMARK UNBOUND:                -0.990
REMARK SMILES CCCCCCCCC=CCCCCCCCC(=O)[O-]
REMARK SMILES IDX 10 1 9 2 11 3 12 4 13 5 14 6 15 7 16 8 17 9 18 10 19 11
REMARK SMILES IDX 20 12 8 13 7 14 6 15 5 16 4 17 3 18 2 19 1 20
REMARK H PARENT
REMARK Flexibility Score: inf
ROOT
ATOM      1  C   UNL     1      -0.443  21.324  32.089  1.00  0.00    -0.031 C 
ATOM      2  C   UNL     1      -0.224  20.547  31.018  1.00  0.00    -0.031 C 
ENDROOT
BRANCH   1   3
ATOM      3  C   UNL     1       0.628  21.574  33.118  1.00  0.00     0.027 C 
BRANCH   3   4
ATOM      4  C   UNL     1       0.353  20.808  34.418  1.00  0.00     0.004 C 
BRANCH   4   5
ATOM      5  C   UNL     1       1.219  19.543  34.541  1.00  0.00     0.000 C 
BRANCH   5   6
ATOM      6  C   UNL     1       2.696  19.804  34.175  1.00  0.00     0.000 C 
BRANCH   6   7
ATOM      7  C   UNL     1       3.625  18.608  34.457  1.00  0.00     0.000 C 
BRANCH   7   8
ATOM      8  C   UNL     1       5.054  18.752  33.899  1.00  0.00     0.006 C 
BRANCH   8   9
ATOM      9  C   UNL     1       5.370  17.818  32.720  1.00  0.00     0.053 C 
BRANCH   9  10
ATOM     10  C   UNL     1       6.301  16.713  33.115  1.00  0.00     0.041 C 
ATOM     11  O   UNL     1       6.558  16.506  34.330  1.00  0.00    -0.550 OA
ATOM     12  O   UNL     1       6.908  15.932  32.140  1.00  0.00    -0.550 OA
ENDBRANCH   9  10
ENDBRANCH   8   9
ENDBRANCH   7   8
ENDBRANCH   6   7
ENDBRANCH   5   6
ENDBRANCH   4   5
ENDBRANCH   3   4
ENDBRANCH   1   3
BRANCH   2  13
ATOM     13  C   UNL     1      -1.308  20.270  30.011  1.00  0.00     0.027 C 
BRANCH  13  14
ATOM     14  C   UNL     1      -0.924  19.149  29.034  1.00  0.00     0.004 C 
BRANCH  14  15
ATOM     15  C   UNL     1      -2.083  18.167  28.795  1.00  0.00     0.000 C 
BRANCH  15  16
ATOM     16  C   UNL     1      -2.845  18.468  27.487  1.00  0.00     0.000 C 
BRANCH  16  17
ATOM     17  C   UNL     1      -3.772  19.693  27.584  1.00  0.00    -0.000 C 
BRANCH  17  18
ATOM     18  C   UNL     1      -3.202  20.930  26.868  1.00  0.00    -0.000 C 
BRANCH  18  19
ATOM     19  C   UNL     1      -1.917  20.616  26.087  1.00  0.00    -0.003 C 
ATOM     20  C   UNL     1      -1.144  21.874  25.691  1.00  0.00     0.004 C 
ENDBRANCH  18  19
ENDBRANCH  17  18
ENDBRANCH  16  17
ENDBRANCH  15  16
ENDBRANCH  14  15
ENDBRANCH  13  14
ENDBRANCH   2  13
TORSDOF 15
ENDMDL
MODEL 3
REMARK VINA RESULT:    -4.755      4.246      9.005
REMARK INTER + INTRA:          -9.914
REMARK INTER:                  -8.879
REMARK INTRA:                  -1.035
REMARK UNBOUND:                -0.990
REMARK SMILES CCCCCCCCC=CCCCCCCCC(=O)[O-]
REMARK SMILES IDX 10 1 9 2 11 3 12 4 13 5 14 6 15 7 16 8 17 9 18 10 19 11
REMARK SMILES IDX 20 12 8 13 7 14 6 15 5 16 4 17 3 18 2 19 1 20
REMARK H PARENT
REMARK Flexibility Score: inf
ROOT
ATOM      1  C   UNL     1       2.421  20.248  33.083  1.00  0.00    -0.031 C 
ATOM      2  C   UNL     1       1.086  20.332  33.182  1.00  0.00    -0.031 C 
ENDROOT
BRANCH   1   3
ATOM      3  C   UNL     1       3.137  18.925  33.142  1.00  0.00     0.027 C 
BRANCH   3   4
ATOM      4  C   UNL     1       2.996  18.265  34.518  1.00  0.00     0.004 C 
BRANCH   4   5
ATOM      5  C   UNL     1       4.358  17.887  35.125  1.00  0.00     0.000 C 
BRANCH   5   6
ATOM      6  C   UNL     1       5.480  18.858  34.697  1.00  0.00     0.000 C 
BRANCH   6   7
ATOM      7  C   UNL     1       6.709  18.154  34.090  1.00  0.00     0.000 C 
BRANCH   7   8
ATOM      8  C   UNL     1       6.532  16.645  33.838  1.00  0.00     0.006 C 
BRANCH   8   9
ATOM      9  C   UNL     1       6.192  16.283  32.382  1.00  0.00     0.053 C 
BRANCH   9  10
ATOM     10  C   UNL     1       7.392  15.788  31.634  1.00  0.00     0.041 C 
ATOM     11  O   UNL     1       8.384  16.544  31.458  1.00  0.00    -0.550 OA
ATOM     12  O   UNL     1       7.402  14.504  31.105  1.00  0.00    -0.550 OA
ENDBRANCH   9  10
ENDBRANCH   8   9
ENDBRANCH   7   8
ENDBRANCH   6   7
ENDBRANCH   5   6
ENDBRANCH   4   5
ENDBRANCH   3   4
ENDBRANCH   1   3
BRANCH   2  13
ATOM     13  C   UNL     1       0.376  21.659  33.160  1.00  0.00     0.027 C 
BRANCH  13  14
ATOM     14  C   UNL     1      -0.646  21.755  32.018  1.00  0.00     0.004 C 
BRANCH  14  15
ATOM     15  C   UNL     1      -0.548  20.563  31.051  1.00  0.00     0.000 C 
BRANCH  15  16
ATOM     16  C   UNL     1      -1.592  20.644  29.916  1.00  0.00     0.000 C 
BRANCH  16  17
ATOM     17  C   UNL     1      -1.623  19.393  29.019  1.00  0.00    -0.000 C 
BRANCH  17  18
ATOM     18  C   UNL     1      -1.079  19.660  27.606  1.00  0.00    -0.000 C 
BRANCH  18  19
ATOM     19  C   UNL     1      -2.073  20.435  26.729  1.00  0.00    -0.003 C 
ATOM     20  C   UNL     1      -1.384  21.378  25.744  1.00  0.00     0.004 C 
ENDBRANCH  18  19
ENDBRANCH  17  18
ENDBRANCH  16  17
ENDBRANCH  15  16
ENDBRANCH  14  15
ENDBRANCH  13  14
ENDBRANCH   2  13
TORSDOF 15
ENDMDL
MODEL 4
REMARK VINA RESULT:    -4.640      1.323      2.180
REMARK INTER + INTRA:          -9.699
REMARK INTER:                  -8.665
REMARK INTRA:                  -1.034
REMARK UNBOUND:                -0.990
REMARK SMILES CCCCCCCCC=CCCCCCCCC(=O)[O-]
REMARK SMILES IDX 10 1 9 2 11 3 12 4 13 5 14 6 15 7 16 8 17 9 18 10 19 11
REMARK SMILES IDX 20 12 8 13 7 14 6 15 5 16 4 17 3 18 2 19 1 20
REMARK H PARENT
REMARK Flexibility Score: inf
ROOT
ATOM      1  C   UNL     1       1.015  21.462  34.322  1.00  0.00    -0.031 C 
ATOM      2  C   UNL     1       0.786  20.281  34.918  1.00  0.00    -0.031 C 
ENDROOT
BRANCH   1   3
ATOM      3  C   UNL     1      -0.055  22.515  34.216  1.00  0.00     0.027 C 
BRANCH   3   4
ATOM      4  C   UNL     1      -0.745  22.485  32.847  1.00  0.00     0.004 C 
BRANCH   4   5
ATOM      5  C   UNL     1       0.024  21.629  31.826  1.00  0.00     0.000 C 
BRANCH   5   6
ATOM      6  C   UNL     1      -0.795  20.411  31.348  1.00  0.00     0.000 C 
BRANCH   6   7
ATOM      7  C   UNL     1      -1.333  20.552  29.912  1.00  0.00     0.000 C 
BRANCH   7   8
ATOM      8  C   UNL     1      -1.421  19.232  29.120  1.00  0.00     0.006 C 
BRANCH   8   9
ATOM      9  C   UNL     1      -2.541  19.201  28.067  1.00  0.00     0.053 C 
BRANCH   9  10
ATOM     10  C   UNL     1      -2.424  20.331  27.092  1.00  0.00     0.041 C 
ATOM     11  O   UNL     1      -3.397  21.108  26.903  1.00  0.00    -0.550 OA
ATOM     12  O   UNL     1      -1.251  20.508  26.368  1.00  0.00    -0.550 OA
ENDBRANCH   9  10
ENDBRANCH   8   9
ENDBRANCH   7   8
ENDBRANCH   6   7
ENDBRANCH   5   6
ENDBRANCH   4   5
ENDBRANCH   3   4
ENDBRANCH   1   3
BRANCH   2  13
ATOM     13  C   UNL     1       1.848  19.216  34.990  1.00  0.00     0.027 C 
BRANCH  13  14
ATOM     14  C   UNL     1       2.342  18.792  33.600  1.00  0.00     0.004 C 
BRANCH  14  15
ATOM     15  C   UNL     1       3.834  19.106  33.394  1.00  0.00     0.000 C 
BRANCH  15  16
ATOM     16  C   UNL     1       4.696  18.657  34.593  1.00  0.00     0.000 C 
BRANCH  16  17
ATOM     17  C   UNL     1       6.194  18.533  34.261  1.00  0.00    -0.000 C 
BRANCH  17  18
ATOM     18  C   UNL     1       6.448  17.984  32.847  1.00  0.00    -0.000 C 
BRANCH  18  19
ATOM     19  C   UNL     1       6.228  16.466  32.757  1.00  0.00    -0.003 C 
ATOM     20  C   UNL     1       7.205  15.783  31.801  1.00  0.00     0.004 C 
ENDBRANCH  18  19
ENDBRANCH  17  18
ENDBRANCH  16  17
ENDBRANCH  15  16
ENDBRANCH  14  15
ENDBRANCH  13  14
ENDBRANCH   2  13
TORSDOF 15
ENDMDL
MODEL 5
REMARK VINA RESULT:    -4.547     14.500     17.145
REMARK INTER + INTRA:          -9.524
REMARK INTER:                  -9.506
REMARK INTRA:                  -0.018
REMARK UNBOUND:                -0.990
REMARK SMILES CCCCCCCCC=CCCCCCCCC(=O)[O-]
REMARK SMILES IDX 10 1 9 2 11 3 12 4 13 5 14 6 15 7 16 8 17 9 18 10 19 11
REMARK SMILES IDX 20 12 8 13 7 14 6 15 5 16 4 17 3 18 2 19 1 20
REMARK H PARENT
REMARK Flexibility Score: inf
ROOT
ATOM      1  C   UNL     1       3.006   9.273  15.795  1.00  0.00    -0.031 C 
ATOM      2  C   UNL     1       4.105   9.687  15.146  1.00  0.00    -0.031 C 
ENDROOT
BRANCH   1   3
ATOM      3  C   UNL     1       1.741   8.916  15.061  1.00  0.00     0.027 C 
BRANCH   3   4
ATOM      4  C   UNL     1       0.632   8.478  16.024  1.00  0.00     0.004 C 
BRANCH   4   5
ATOM      5  C   UNL     1       0.436   9.474  17.179  1.00  0.00     0.000 C 
BRANCH   5   6
ATOM      6  C   UNL     1      -1.045   9.612  17.590  1.00  0.00     0.000 C 
BRANCH   6   7
ATOM      7  C   UNL     1      -1.290  10.677  18.677  1.00  0.00     0.000 C 
BRANCH   7   8
ATOM      8  C   UNL     1      -2.684  10.627  19.331  1.00  0.00     0.006 C 
BRANCH   8   9
ATOM      9  C   UNL     1      -2.907   9.414  20.249  1.00  0.00     0.053 C 
BRANCH   9  10
ATOM     10  C   UNL     1      -1.791   9.244  21.233  1.00  0.00     0.041 C 
ATOM     11  O   UNL     1      -0.853  10.084  21.278  1.00  0.00    -0.550 OA
ATOM     12  O   UNL     1      -1.769   8.142  22.079  1.00  0.00    -0.550 OA
ENDBRANCH   9  10
ENDBRANCH   8   9
ENDBRANCH   7   8
ENDBRANCH   6   7
ENDBRANCH   5   6
ENDBRANCH   4   5
ENDBRANCH   3   4
ENDBRANCH   1   3
BRANCH   2  13
ATOM     13  C   UNL     1       5.355  10.079  15.886  1.00  0.00     0.027 C 
BRANCH  13  14
ATOM     14  C   UNL     1       6.609   9.985  15.004  1.00  0.00     0.004 C 
BRANCH  14  15
ATOM     15  C   UNL     1       7.900  10.234  15.803  1.00  0.00     0.000 C 
BRANCH  15  16
ATOM     16  C   UNL     1       8.380  11.697  15.695  1.00  0.00     0.000 C 
BRANCH  16  17
ATOM     17  C   UNL     1       8.134  12.521  16.971  1.00  0.00    -0.000 C 
BRANCH  17  18
ATOM     18  C   UNL     1       8.841  11.934  18.205  1.00  0.00    -0.000 C 
BRANCH  18  19
ATOM     19  C   UNL     1       9.647  12.988  18.979  1.00  0.00    -0.003 C 
ATOM     20  C   UNL     1       8.831  14.241  19.295  1.00  0.00     0.004 C 
ENDBRANCH  18  19
ENDBRANCH  17  18
ENDBRANCH  16  17
ENDBRANCH  15  16
ENDBRANCH  14  15
ENDBRANCH  13  14
ENDBRANCH   2  13
TORSDOF 15
ENDMDL
MODEL 6
REMARK VINA RESULT:    -4.364     14.314     17.290
REMARK INTER + INTRA:          -9.180
REMARK INTER:                  -8.357
REMARK INTRA:                  -0.823
REMARK UNBOUND:                -0.990
REMARK SMILES CCCCCCCCC=CCCCCCCCC(=O)[O-]
REMARK SMILES IDX 10 1 9 2 11 3 12 4 13 5 14 6 15 7 16 8 17 9 18 10 19 11
REMARK SMILES IDX 20 12 8 13 7 14 6 15 5 16 4 17 3 18 2 19 1 20
REMARK H PARENT
REMARK Flexibility Score: inf
ROOT
ATOM      1  C   UNL     1       4.731   9.616  16.244  1.00  0.00    -0.031 C 
ATOM      2  C   UNL     1       5.384   9.817  15.089  1.00  0.00    -0.031 C 
ENDROOT
BRANCH   1   3
ATOM      3  C   UNL     1       3.243   9.397  16.283  1.00  0.00     0.027 C 
BRANCH   3   4
ATOM      4  C   UNL     1       2.670   9.147  14.883  1.00  0.00     0.004 C 
BRANCH   4   5
ATOM      5  C   UNL     1       1.307   8.435  14.930  1.00  0.00     0.000 C 
BRANCH   5   6
ATOM      6  C   UNL     1       0.751   8.328  16.367  1.00  0.00     0.000 C 
BRANCH   6   7
ATOM      7  C   UNL     1      -0.135   9.519  16.778  1.00  0.00     0.000 C 
BRANCH   7   8
ATOM      8  C   UNL     1      -0.800   9.384  18.161  1.00  0.00     0.006 C 
BRANCH   8   9
ATOM      9  C   UNL     1      -1.372  10.698  18.718  1.00  0.00     0.053 C 
BRANCH   9  10
ATOM     10  C   UNL     1      -2.653  10.480  19.464  1.00  0.00     0.041 C 
ATOM     11  O   UNL     1      -2.697  10.655  20.710  1.00  0.00    -0.550 OA
ATOM     12  O   UNL     1      -3.789  10.054  18.788  1.00  0.00    -0.550 OA
ENDBRANCH   9  10
ENDBRANCH   8   9
ENDBRANCH   7   8
ENDBRANCH   6   7
ENDBRANCH   5   6
ENDBRANCH   4   5
ENDBRANCH   3   4
ENDBRANCH   1   3
BRANCH   2  13
ATOM     13  C   UNL     1       6.867  10.074  15.058  1.00  0.00     0.027 C 
BRANCH  13  14
ATOM     14  C   UNL     1       7.198  11.563  14.879  1.00  0.00     0.004 C 
BRANCH  14  15
ATOM     15  C   UNL     1       8.276  12.040  15.867  1.00  0.00     0.000 C 
BRANCH  15  16
ATOM     16  C   UNL     1       7.806  11.949  17.334  1.00  0.00     0.000 C 
BRANCH  16  17
ATOM     17  C   UNL     1       8.951  11.710  18.334  1.00  0.00    -0.000 C 
BRANCH  17  18
ATOM     18  C   UNL     1       9.815  12.962  18.562  1.00  0.00    -0.000 C 
BRANCH  18  19
ATOM     19  C   UNL     1       9.355  13.780  19.779  1.00  0.00    -0.003 C 
ATOM     20  C   UNL     1       8.429  14.934  19.400  1.00  0.00     0.004 C 
ENDBRANCH  18  19
ENDBRANCH  17  18
ENDBRANCH  16  17
ENDBRANCH  15  16
ENDBRANCH  14  15
ENDBRANCH  13  14
ENDBRANCH   2  13
TORSDOF 15
ENDMDL
MODEL 7
REMARK VINA RESULT:    -4.229      4.088      8.857
REMARK INTER + INTRA:          -8.927
REMARK INTER:                  -7.598
REMARK INTRA:                  -1.330
REMARK UNBOUND:                -0.990
REMARK SMILES CCCCCCCCC=CCCCCCCCC(=O)[O-]
REMARK SMILES IDX 10 1 9 2 11 3 12 4 13 5 14 6 15 7 16 8 17 9 18 10 19 11
REMARK SMILES IDX 20 12 8 13 7 14 6 15 5 16 4 17 3 18 2 19 1 20
REMARK H PARENT
REMARK Flexibility Score: inf
ROOT
ATOM      1  C   UNL     1      -0.511  20.722  31.412  1.00  0.00    -0.031 C 
ATOM      2  C   UNL     1      -1.241  20.545  30.300  1.00  0.00    -0.031 C 
ENDROOT
BRANCH   1   3
ATOM      3  C   UNL     1      -0.530  22.020  32.173  1.00  0.00     0.027 C 
BRANCH   3   4
ATOM      4  C   UNL     1       0.433  21.992  33.366  1.00  0.00     0.004 C 
BRANCH   4   5
ATOM      5  C   UNL     1       0.163  20.803  34.304  1.00  0.00     0.000 C 
BRANCH   5   6
ATOM      6  C   UNL     1       1.336  19.799  34.331  1.00  0.00     0.000 C 
BRANCH   6   7
ATOM      7  C   UNL     1       2.584  20.287  33.571  1.00  0.00     0.000 C 
BRANCH   7   8
ATOM      8  C   UNL     1       3.208  19.250  32.616  1.00  0.00     0.006 C 
BRANCH   8   9
ATOM      9  C   UNL     1       4.630  18.812  33.001  1.00  0.00     0.053 C 
BRANCH   9  10
ATOM     10  C   UNL     1       4.637  17.489  33.703  1.00  0.00     0.041 C 
ATOM     11  O   UNL     1       3.906  17.304  34.712  1.00  0.00    -0.550 OA
ATOM     12  O   UNL     1       5.473  16.470  33.262  1.00  0.00    -0.550 OA
ENDBRANCH   9  10
ENDBRANCH   8   9
ENDBRANCH   7   8
ENDBRANCH   6   7
ENDBRANCH   5   6
ENDBRANCH   4   5
ENDBRANCH   3   4
ENDBRANCH   1   3
BRANCH   2  13
ATOM     13  C   UNL     1      -1.191  19.258  29.521  1.00  0.00     0.027 C 
BRANCH  13  14
ATOM     14  C   UNL     1      -0.694  19.466  28.083  1.00  0.00     0.004 C 
BRANCH  14  15
ATOM     15  C   UNL     1      -1.245  20.761  27.462  1.00  0.00     0.000 C 
BRANCH  15  16
ATOM     16  C   UNL     1      -2.509  20.510  26.612  1.00  0.00     0.000 C 
BRANCH  16  17
ATOM     17  C   UNL     1      -3.797  20.393  27.446  1.00  0.00    -0.000 C 
BRANCH  17  18
ATOM     18  C   UNL     1      -4.359  18.962  27.477  1.00  0.00    -0.000 C 
BRANCH  18  19
ATOM     19  C   UNL     1      -3.421  17.947  26.806  1.00  0.00    -0.003 C 
ATOM     20  C   UNL     1      -3.033  16.797  27.735  1.00  0.00     0.004 C 
ENDBRANCH  18  19
ENDBRANCH  17  18
ENDBRANCH  16  17
ENDBRANCH  15  16
ENDBRANCH  14  15
ENDBRANCH  13  14
ENDBRANCH   2  13
TORSDOF 15
ENDMDL
MODEL 8
REMARK VINA RESULT:    -4.161     13.634     17.697
REMARK INTER + INTRA:          -8.799
REMARK INTER:                  -8.126
REMARK INTRA:                  -0.673
REMARK UNBOUND:                -0.990
REMARK SMILES CCCCCCCCC=CCCCCCCCC(=O)[O-]
REMARK SMILES IDX 10 1 9 2 11 3 12 4 13 5 14 6 15 7 16 8 17 9 18 10 19 11
REMARK SMILES IDX 20 12 8 13 7 14 6 15 5 16 4 17 3 18 2 19 1 20
REMARK H PARENT
REMARK Flexibility Score: inf
ROOT
ATOM      1  C   UNL     1       8.593  12.118  18.466  1.00  0.00    -0.031 C 
ATOM      2  C   UNL     1       8.191  12.109  17.186  1.00  0.00    -0.031 C 
ENDROOT
BRANCH   1   3
ATOM      3  C   UNL     1       9.545  13.158  18.990  1.00  0.00     0.027 C 
BRANCH   3   4
ATOM      4  C   UNL     1       8.873  14.530  19.116  1.00  0.00     0.004 C 
BRANCH   4   5
ATOM      5  C   UNL     1       8.474  14.851  20.567  1.00  0.00     0.000 C 
BRANCH   5   6
ATOM      6  C   UNL     1       9.545  14.398  21.583  1.00  0.00     0.000 C 
BRANCH   6   7
ATOM      7  C   UNL     1       9.370  15.015  22.984  1.00  0.00     0.000 C 
BRANCH   7   8
ATOM      8  C   UNL     1      10.193  14.339  24.097  1.00  0.00     0.006 C 
BRANCH   8   9
ATOM      9  C   UNL     1      11.712  14.542  23.971  1.00  0.00     0.053 C 
BRANCH   9  10
ATOM     10  C   UNL     1      12.459  13.892  25.095  1.00  0.00     0.041 C 
ATOM     11  O   UNL     1      11.910  13.748  26.219  1.00  0.00    -0.550 OA
ATOM     12  O   UNL     1      13.770  13.473  24.910  1.00  0.00    -0.550 OA
ENDBRANCH   9  10
ENDBRANCH   8   9
ENDBRANCH   7   8
ENDBRANCH   6   7
ENDBRANCH   5   6
ENDBRANCH   4   5
ENDBRANCH   3   4
ENDBRANCH   1   3
BRANCH   2  13
ATOM     13  C   UNL     1       7.267  11.045  16.657  1.00  0.00     0.027 C 
BRANCH  13  14
ATOM     14  C   UNL     1       6.489  11.511  15.419  1.00  0.00     0.004 C 
BRANCH  14  15
ATOM     15  C   UNL     1       5.448  10.474  14.963  1.00  0.00     0.000 C 
BRANCH  15  16
ATOM     16  C   UNL     1       4.821   9.715  16.152  1.00  0.00     0.000 C 
BRANCH  16  17
ATOM     17  C   UNL     1       3.282   9.691  16.123  1.00  0.00    -0.000 C 
BRANCH  17  18
ATOM     18  C   UNL     1       2.721   8.927  14.912  1.00  0.00    -0.000 C 
BRANCH  18  19
ATOM     19  C   UNL     1       1.456   8.126  15.257  1.00  0.00    -0.003 C 
ATOM     20  C   UNL     1       0.600   8.803  16.328  1.00  0.00     0.004 C 
ENDBRANCH  18  19
ENDBRANCH  17  18
ENDBRANCH  16  17
ENDBRANCH  15  16
ENDBRANCH  14  15
ENDBRANCH  13  14
ENDBRANCH   2  13
TORSDOF 15
ENDMDL
