MODEL 1
REMARK VINA RESULT:    -2.960      0.000      0.000
REMARK INTER + INTRA:          -4.217
REMARK INTER:                  -3.911
REMARK INTRA:                  -0.306
REMARK UNBOUND:                -0.306
REMARK SMILES C=C[C@@H](O)CCCCC
REMARK SMILES IDX 6 1 7 2 8 3 9 4 5 5 3 6 2 7 1 8 4 9
REMARK H PARENT 4 10
REMARK Flexibility Score: inf
ROOT
ATOM      1  C   UNL     1       6.915   3.442  -2.238  1.00  0.00     0.003 C 
ENDROOT
BRANCH   1   2
ATOM      2  C   UNL     1       6.696   4.496  -3.330  1.00  0.00    -0.000 C 
BRANCH   2   3
ATOM      3  C   UNL     1       5.525   5.420  -2.977  1.00  0.00    -0.003 C 
ATOM      4  C   UNL     1       4.830   5.934  -4.235  1.00  0.00     0.004 C 
ENDBRANCH   2   3
ENDBRANCH   1   2
BRANCH   1   5
ATOM      5  C   UNL     1       5.574   2.915  -1.705  1.00  0.00     0.036 C 
BRANCH   5   6
ATOM      6  C   UNL     1       5.535   2.869  -0.164  1.00  0.00     0.136 C 
BRANCH   6   7
ATOM      7  C   UNL     1       6.506   1.858   0.395  1.00  0.00    -0.004 C 
ATOM      8  C   UNL     1       7.389   2.166   1.352  1.00  0.00     0.007 C 
ENDBRANCH   6   7
BRANCH   6   9
ATOM      9  O   UNL     1       5.837   4.136   0.362  1.00  0.00    -0.389 OA
ATOM     10  H   UNL     1       5.996   4.739  -0.411  1.00  0.00     0.211 HD
ENDBRANCH   6   9
ENDBRANCH   5   6
ENDBRANCH   1   5
TORSDOF 6
ENDMDL
MODEL 2
REMARK VINA RESULT:    -2.941      1.191      2.249
REMARK INTER + INTRA:          -4.193
REMARK INTER:                  -3.635
REMARK INTRA:                  -0.558
REMARK UNBOUND:                -0.306
REMARK SMILES C=C[C@@H](O)CCCCC
REMARK SMILES IDX 6 1 7 2 8 3 9 4 5 5 3 6 2 7 1 8 4 9
REMARK H PARENT 4 10
REMARK Flexibility Score: inf
ROOT
ATOM      1  C   UNL     1       5.939   4.118  -2.241  1.00  0.00     0.003 C 
ENDROOT
BRANCH   1   2
ATOM      2  C   UNL     1       7.191   4.051  -3.123  1.00  0.00    -0.000 C 
BRANCH   2   3
ATOM      3  C   UNL     1       8.221   3.074  -2.543  1.00  0.00    -0.003 C 
ATOM      4  C   UNL     1       9.172   3.782  -1.582  1.00  0.00     0.004 C 
ENDBRANCH   2   3
ENDBRANCH   1   2
BRANCH   1   5
ATOM      5  C   UNL     1       5.636   2.751  -1.610  1.00  0.00     0.036 C 
BRANCH   5   6
ATOM      6  C   UNL     1       5.603   2.813  -0.070  1.00  0.00     0.136 C 
BRANCH   6   7
ATOM      7  C   UNL     1       6.508   1.781   0.557  1.00  0.00    -0.004 C 
ATOM      8  C   UNL     1       7.510   2.112   1.380  1.00  0.00     0.007 C 
ENDBRANCH   6   7
BRANCH   6   9
ATOM      9  O   UNL     1       5.990   4.090   0.368  1.00  0.00    -0.389 OA
ATOM     10  H   UNL     1       6.967   4.167   0.204  1.00  0.00     0.211 HD
ENDBRANCH   6   9
ENDBRANCH   5   6
ENDBRANCH   1   5
TORSDOF 6
ENDMDL
MODEL 3
REMARK VINA RESULT:    -2.929      1.951      3.003
REMARK INTER + INTRA:          -4.177
REMARK INTER:                  -3.578
REMARK INTRA:                  -0.599
REMARK UNBOUND:                -0.306
REMARK SMILES C=C[C@@H](O)CCCCC
REMARK SMILES IDX 6 1 7 2 8 3 9 4 5 5 3 6 2 7 1 8 4 9
REMARK H PARENT 4 10
REMARK Flexibility Score: inf
ROOT
ATOM      1  C   UNL     1       5.233   2.876  -0.636  1.00  0.00     0.003 C 
ENDROOT
BRANCH   1   2
ATOM      2  C   UNL     1       5.517   3.259  -2.093  1.00  0.00    -0.000 C 
BRANCH   2   3
ATOM      3  C   UNL     1       6.032   2.053  -2.889  1.00  0.00    -0.003 C 
ATOM      4  C   UNL     1       5.716   0.744  -2.172  1.00  0.00     0.004 C 
ENDBRANCH   2   3
ENDBRANCH   1   2
BRANCH   1   5
ATOM      5  C   UNL     1       6.330   3.410   0.298  1.00  0.00     0.036 C 
BRANCH   5   6
ATOM      6  C   UNL     1       7.082   2.277   1.023  1.00  0.00     0.136 C 
BRANCH   6   7
ATOM      7  C   UNL     1       8.389   1.943   0.346  1.00  0.00    -0.004 C 
ATOM      8  C   UNL     1       8.940   2.738  -0.579  1.00  0.00     0.007 C 
ENDBRANCH   6   7
BRANCH   6   9
ATOM      9  O   UNL     1       7.335   2.644   2.355  1.00  0.00    -0.389 OA
ATOM     10  H   UNL     1       6.752   2.079   2.926  1.00  0.00     0.211 HD
ENDBRANCH   6   9
ENDBRANCH   5   6
ENDBRANCH   1   5
TORSDOF 6
ENDMDL
MODEL 4
REMARK VINA RESULT:    -2.903      1.581      1.886
REMARK INTER + INTRA:          -4.142
REMARK INTER:                  -3.894
REMARK INTRA:                  -0.249
REMARK UNBOUND:                -0.306
REMARK SMILES C=C[C@@H](O)CCCCC
REMARK SMILES IDX 6 1 7 2 8 3 9 4 5 5 3 6 2 7 1 8 4 9
REMARK H PARENT 4 10
REMARK Flexibility Score: inf
ROOT
ATOM      1  C   UNL     1       5.679   3.809  -0.857  1.00  0.00     0.003 C 
ENDROOT
BRANCH   1   2
ATOM      2  C   UNL     1       5.810   3.382  -2.323  1.00  0.00    -0.000 C 
BRANCH   2   3
ATOM      3  C   UNL     1       4.870   4.198  -3.219  1.00  0.00    -0.003 C 
ATOM      4  C   UNL     1       5.318   5.655  -3.305  1.00  0.00     0.004 C 
ENDBRANCH   2   3
ENDBRANCH   1   2
BRANCH   1   5
ATOM      5  C   UNL     1       5.250   2.626   0.025  1.00  0.00     0.036 C 
BRANCH   5   6
ATOM      6  C   UNL     1       6.195   1.416  -0.120  1.00  0.00     0.136 C 
BRANCH   6   7
ATOM      7  C   UNL     1       7.492   1.620   0.623  1.00  0.00    -0.004 C 
ATOM      8  C   UNL     1       7.532   2.060   1.886  1.00  0.00     0.007 C 
ENDBRANCH   6   7
BRANCH   6   9
ATOM      9  O   UNL     1       5.566   0.256   0.360  1.00  0.00    -0.389 OA
ATOM     10  H   UNL     1       6.163  -0.507   0.141  1.00  0.00     0.211 HD
ENDBRANCH   6   9
ENDBRANCH   5   6
ENDBRANCH   1   5
TORSDOF 6
ENDMDL
MODEL 5
REMARK VINA RESULT:    -2.888      7.722      8.898
REMARK INTER + INTRA:          -4.122
REMARK INTER:                  -3.967
REMARK INTRA:                  -0.155
REMARK UNBOUND:                -0.306
REMARK SMILES C=C[C@@H](O)CCCCC
REMARK SMILES IDX 6 1 7 2 8 3 9 4 5 5 3 6 2 7 1 8 4 9
REMARK H PARENT 4 10
REMARK Flexibility Score: inf
ROOT
ATOM      1  C   UNL     1      -1.951   6.031  -1.019  1.00  0.00     0.003 C 
ENDROOT
BRANCH   1   2
ATOM      2  C   UNL     1      -1.176   6.701   0.121  1.00  0.00    -0.000 C 
BRANCH   2   3
ATOM      3  C   UNL     1      -1.998   7.827   0.758  1.00  0.00    -0.003 C 
ATOM      4  C   UNL     1      -1.737   7.920   2.258  1.00  0.00     0.004 C 
ENDBRANCH   2   3
ENDBRANCH   1   2
BRANCH   1   5
ATOM      5  C   UNL     1      -1.541   4.558  -1.173  1.00  0.00     0.036 C 
BRANCH   5   6
ATOM      6  C   UNL     1      -1.861   4.007  -2.577  1.00  0.00     0.136 C 
BRANCH   6   7
ATOM      7  C   UNL     1      -0.881   4.498  -3.614  1.00  0.00    -0.004 C 
ATOM      8  C   UNL     1      -1.188   5.463  -4.489  1.00  0.00     0.007 C 
ENDBRANCH   6   7
BRANCH   6   9
ATOM      9  O   UNL     1      -1.845   2.603  -2.557  1.00  0.00    -0.389 OA
ATOM     10  H   UNL     1      -2.773   2.306  -2.365  1.00  0.00     0.211 HD
ENDBRANCH   6   9
ENDBRANCH   5   6
ENDBRANCH   1   5
TORSDOF 6
ENDMDL
MODEL 6
REMARK VINA RESULT:    -2.874      1.270      4.835
REMARK INTER + INTRA:          -4.104
REMARK INTER:                  -3.894
REMARK INTRA:                  -0.209
REMARK UNBOUND:                -0.306
REMARK SMILES C=C[C@@H](O)CCCCC
REMARK SMILES IDX 6 1 7 2 8 3 9 4 5 5 3 6 2 7 1 8 4 9
REMARK H PARENT 4 10
REMARK Flexibility Score: inf
ROOT
ATOM      1  C   UNL     1       5.266   2.388   0.004  1.00  0.00     0.003 C 
ENDROOT
BRANCH   1   2
ATOM      2  C   UNL     1       6.489   1.539   0.373  1.00  0.00    -0.000 C 
BRANCH   2   3
ATOM      3  C   UNL     1       7.375   2.265   1.392  1.00  0.00    -0.003 C 
ATOM      4  C   UNL     1       8.169   1.273   2.236  1.00  0.00     0.004 C 
ENDBRANCH   2   3
ENDBRANCH   1   2
BRANCH   1   5
ATOM      5  C   UNL     1       5.692   3.759  -0.541  1.00  0.00     0.036 C 
BRANCH   5   6
ATOM      6  C   UNL     1       6.202   3.678  -1.994  1.00  0.00     0.136 C 
BRANCH   6   7
ATOM      7  C   UNL     1       5.273   4.373  -2.959  1.00  0.00    -0.004 C 
ATOM      8  C   UNL     1       5.396   5.671  -3.261  1.00  0.00     0.007 C 
ENDBRANCH   6   7
BRANCH   6   9
ATOM      9  O   UNL     1       7.479   4.254  -2.088  1.00  0.00    -0.389 OA
ATOM     10  H   UNL     1       7.465   4.860  -2.874  1.00  0.00     0.211 HD
ENDBRANCH   6   9
ENDBRANCH   5   6
ENDBRANCH   1   5
TORSDOF 6
ENDMDL
MODEL 7
REMARK VINA RESULT:    -2.797      1.724      4.099
REMARK INTER + INTRA:          -4.003
REMARK INTER:                  -3.338
REMARK INTRA:                  -0.665
REMARK UNBOUND:                -0.306
REMARK SMILES C=C[C@@H](O)CCCCC
REMARK SMILES IDX 6 1 7 2 8 3 9 4 5 5 3 6 2 7 1 8 4 9
REMARK H PARENT 4 10
REMARK Flexibility Score: inf
ROOT
ATOM      1  C   UNL     1       7.067   2.082  -1.824  1.00  0.00     0.003 C 
ENDROOT
BRANCH   1   2
ATOM      2  C   UNL     1       5.742   1.595  -1.226  1.00  0.00    -0.000 C 
BRANCH   2   3
ATOM      3  C   UNL     1       5.187   2.610  -0.220  1.00  0.00    -0.003 C 
ATOM      4  C   UNL     1       6.302   3.469   0.370  1.00  0.00     0.004 C 
ENDBRANCH   2   3
ENDBRANCH   1   2
BRANCH   1   5
ATOM      5  C   UNL     1       6.869   2.595  -3.258  1.00  0.00     0.036 C 
BRANCH   5   6
ATOM      6  C   UNL     1       7.103   4.115  -3.372  1.00  0.00     0.136 C 
BRANCH   6   7
ATOM      7  C   UNL     1       5.830   4.899  -3.173  1.00  0.00    -0.004 C 
ATOM      8  C   UNL     1       4.633   4.426  -3.539  1.00  0.00     0.007 C 
ENDBRANCH   6   7
BRANCH   6   9
ATOM      9  O   UNL     1       8.052   4.527  -2.422  1.00  0.00    -0.389 OA
ATOM     10  H   UNL     1       7.559   5.032  -1.723  1.00  0.00     0.211 HD
ENDBRANCH   6   9
ENDBRANCH   5   6
ENDBRANCH   1   5
TORSDOF 6
ENDMDL
MODEL 8
REMARK VINA RESULT:    -2.763      2.317      4.058
REMARK INTER + INTRA:          -3.957
REMARK INTER:                  -3.407
REMARK INTRA:                  -0.550
REMARK UNBOUND:                -0.306
REMARK SMILES C=C[C@@H](O)CCCCC
REMARK SMILES IDX 6 1 7 2 8 3 9 4 5 5 3 6 2 7 1 8 4 9
REMARK H PARENT 4 10
REMARK Flexibility Score: inf
ROOT
ATOM      1  C   UNL     1       6.359   1.162  -1.814  1.00  0.00     0.003 C 
ENDROOT
BRANCH   1   2
ATOM      2  C   UNL     1       5.375   0.002  -2.002  1.00  0.00    -0.000 C 
BRANCH   2   3
ATOM      3  C   UNL     1       5.290  -0.859  -0.737  1.00  0.00    -0.003 C 
ATOM      4  C   UNL     1       6.661  -1.408  -0.351  1.00  0.00     0.004 C 
ENDBRANCH   2   3
ENDBRANCH   1   2
BRANCH   1   5
ATOM      5  C   UNL     1       5.637   2.422  -1.313  1.00  0.00     0.036 C 
BRANCH   5   6
ATOM      6  C   UNL     1       5.999   2.762   0.146  1.00  0.00     0.136 C 
BRANCH   6   7
ATOM      7  C   UNL     1       7.358   2.229   0.529  1.00  0.00    -0.004 C 
ATOM      8  C   UNL     1       7.615   1.730   1.744  1.00  0.00     0.007 C 
ENDBRANCH   6   7
BRANCH   6   9
ATOM      9  O   UNL     1       5.980   4.153   0.335  1.00  0.00    -0.389 OA
ATOM     10  H   UNL     1       6.877   4.492   0.074  1.00  0.00     0.211 HD
ENDBRANCH   6   9
ENDBRANCH   5   6
ENDBRANCH   1   5
TORSDOF 6
ENDMDL
MODEL 9
REMARK VINA RESULT:    -2.749     11.651     12.659
REMARK INTER + INTRA:          -3.939
REMARK INTER:                  -3.410
REMARK INTRA:                  -0.529
REMARK UNBOUND:                -0.306
REMARK SMILES C=C[C@@H](O)CCCCC
REMARK SMILES IDX 6 1 7 2 8 3 9 4 5 5 3 6 2 7 1 8 4 9
REMARK H PARENT 4 10
REMARK Flexibility Score: inf
ROOT
ATOM      1  C   UNL     1      -1.873  -5.934  -5.242  1.00  0.00     0.003 C 
ENDROOT
BRANCH   1   2
ATOM      2  C   UNL     1      -1.881  -6.940  -6.399  1.00  0.00    -0.000 C 
BRANCH   2   3
ATOM      3  C   UNL     1      -1.639  -6.237  -7.740  1.00  0.00    -0.003 C 
ATOM      4  C   UNL     1      -2.841  -5.386  -8.141  1.00  0.00     0.004 C 
ENDBRANCH   2   3
ENDBRANCH   1   2
BRANCH   1   5
ATOM      5  C   UNL     1      -0.586  -5.094  -5.250  1.00  0.00     0.036 C 
BRANCH   5   6
ATOM      6  C   UNL     1      -0.875  -3.583  -5.160  1.00  0.00     0.136 C 
BRANCH   6   7
ATOM      7  C   UNL     1      -2.351  -3.296  -5.029  1.00  0.00    -0.004 C 
ATOM      8  C   UNL     1      -2.965  -2.355  -5.754  1.00  0.00     0.007 C 
ENDBRANCH   6   7
BRANCH   6   9
ATOM      9  O   UNL     1      -0.199  -3.029  -4.060  1.00  0.00    -0.389 OA
ATOM     10  H   UNL     1      -0.777  -2.306  -3.701  1.00  0.00     0.211 HD
ENDBRANCH   6   9
ENDBRANCH   5   6
ENDBRANCH   1   5
TORSDOF 6
ENDMDL
