MODEL 1
REMARK VINA RESULT:    -6.636      0.000      0.000
REMARK INTER + INTRA:         -10.524
REMARK INTER:                  -9.739
REMARK INTRA:                  -0.785
REMARK UNBOUND:                -0.785
REMARK SMILES Cc1cc2c(C(C)C)c(O)c(O)c(C=O)c2c(O)c1-c1c(C)cc2c(C(C)C)c(O)c(O)c(C=O)c2c1O
REMARK SMILES IDX 1 1 2 2 3 3 4 4 16 5 13 6 11 7 9 8 5 9 17 10 19 11 20 12
REMARK SMILES IDX 37 13 21 14 36 15 23 16 22 17 24 18 33 19 25 20 31 21 29 22
REMARK SMILES IDX 38 23 34 25 35 26 26 27 27 28 28 29 32 30 30 32 18 34 6 36
REMARK SMILES IDX 7 37 8 38 14 39 15 40 10 41 12 43
REMARK H PARENT 38 24 32 31 30 33 18 35 10 42 12 44
REMARK Flexibility Score: inf
ROOT
ATOM      1  C   UNL     1      24.692  -6.043 128.759  1.00  0.00     0.045 C 
ATOM      2  C   UNL     1      23.403  -5.637 128.086  1.00  0.00    -0.039 A 
ATOM      3  C   UNL     1      22.274  -6.447 128.221  1.00  0.00     0.013 A 
ATOM      4  C   UNL     1      21.044  -6.124 127.607  1.00  0.00    -0.006 A 
ATOM      5  C   UNL     1      20.932  -4.888 126.901  1.00  0.00     0.039 A 
ATOM      6  C   UNL     1      19.672  -4.531 126.337  1.00  0.00     0.072 A 
ATOM      7  C   UNL     1      18.534  -5.310 126.612  1.00  0.00     0.169 A 
ATOM      8  C   UNL     1      18.643  -6.486 127.373  1.00  0.00     0.162 A 
ATOM      9  C   UNL     1      19.912  -6.987 127.728  1.00  0.00     0.008 A 
ATOM     10  C   UNL     1      22.072  -4.032 126.821  1.00  0.00     0.132 A 
ATOM     11  C   UNL     1      23.308  -4.431 127.376  1.00  0.00     0.031 A 
ENDROOT
BRANCH  11  12
ATOM     12  C   UNL     1      24.502  -3.555 127.250  1.00  0.00     0.031 A 
ATOM     13  C   UNL     1      25.257  -3.550 126.056  1.00  0.00     0.132 A 
ATOM     14  C   UNL     1      24.912  -2.777 128.342  1.00  0.00    -0.039 A 
ATOM     15  C   UNL     1      26.399  -2.703 125.925  1.00  0.00     0.039 A 
ATOM     16  C   UNL     1      26.069  -2.003 128.244  1.00  0.00     0.013 A 
ATOM     17  C   UNL     1      24.165  -2.822 129.655  1.00  0.00     0.045 C 
ATOM     18  C   UNL     1      26.807  -1.912 127.042  1.00  0.00    -0.006 A 
ATOM     19  C   UNL     1      27.176  -2.654 124.730  1.00  0.00     0.072 A 
ATOM     20  C   UNL     1      27.969  -1.085 126.951  1.00  0.00     0.008 A 
ATOM     21  C   UNL     1      28.406  -1.974 124.718  1.00  0.00     0.169 A 
ATOM     22  C   UNL     1      28.834  -1.257 125.850  1.00  0.00     0.162 A 
BRANCH  13  23
ATOM     23  O   UNL     1      24.898  -4.419 125.020  1.00  0.00    -0.507 OA
ATOM     24  H   UNL     1      24.161  -5.107 125.088  1.00  0.00     0.293 HD
ENDBRANCH  13  23
BRANCH  19  25
ATOM     25  C   UNL     1      26.700  -3.240 123.455  1.00  0.00     0.264 C 
ATOM     26  O   UNL     1      27.208  -4.298 122.997  1.00  0.00    -0.298 OA
ENDBRANCH  19  25
BRANCH  20  27
ATOM     27  C   UNL     1      28.318  -0.054 128.040  1.00  0.00     0.017 C 
ATOM     28  C   UNL     1      29.485  -0.540 128.906  1.00  0.00     0.012 C 
ATOM     29  C   UNL     1      28.578   1.363 127.494  1.00  0.00     0.012 C 
ENDBRANCH  20  27
BRANCH  21  30
ATOM     30  O   UNL     1      29.166  -1.984 123.542  1.00  0.00    -0.504 OA
ATOM     31  H   UNL     1      30.137  -1.708 123.487  1.00  0.00     0.293 HD
ENDBRANCH  21  30
BRANCH  22  32
ATOM     32  O   UNL     1      30.122  -0.717 125.908  1.00  0.00    -0.504 OA
ATOM     33  H   UNL     1      30.970  -1.259 125.817  1.00  0.00     0.293 HD
ENDBRANCH  22  32
ENDBRANCH  11  12
BRANCH  10  34
ATOM     34  O   UNL     1      21.967  -2.770 126.227  1.00  0.00    -0.507 OA
ATOM     35  H   UNL     1      21.196  -2.132 126.384  1.00  0.00     0.293 HD
ENDBRANCH  10  34
BRANCH   9  36
ATOM     36  C   UNL     1      20.038  -8.421 128.272  1.00  0.00     0.017 C 
ATOM     37  C   UNL     1      21.268  -9.125 127.690  1.00  0.00     0.012 C 
ATOM     38  C   UNL     1      20.021  -8.501 129.810  1.00  0.00     0.012 C 
ENDBRANCH   9  36
BRANCH   6  39
ATOM     39  C   UNL     1      19.519  -3.401 125.388  1.00  0.00     0.264 C 
ATOM     40  O   UNL     1      19.352  -3.607 124.156  1.00  0.00    -0.298 OA
ENDBRANCH   6  39
BRANCH   8  41
ATOM     41  O   UNL     1      17.497  -7.161 127.797  1.00  0.00    -0.504 OA
ATOM     42  H   UNL     1      17.442  -8.168 127.899  1.00  0.00     0.293 HD
ENDBRANCH   8  41
BRANCH   7  43
ATOM     43  O   UNL     1      17.302  -4.928 126.067  1.00  0.00    -0.504 OA
ATOM     44  H   UNL     1      16.429  -5.384 126.292  1.00  0.00     0.293 HD
ENDBRANCH   7  43
TORSDOF 11
ENDMDL
MODEL 2
REMARK VINA RESULT:    -6.572      0.152      8.932
REMARK INTER + INTRA:         -10.430
REMARK INTER:                  -9.497
REMARK INTRA:                  -0.933
REMARK UNBOUND:                -0.785
REMARK SMILES Cc1cc2c(C(C)C)c(O)c(O)c(C=O)c2c(O)c1-c1c(C)cc2c(C(C)C)c(O)c(O)c(C=O)c2c1O
REMARK SMILES IDX 1 1 2 2 3 3 4 4 16 5 13 6 11 7 9 8 5 9 17 10 19 11 20 12
REMARK SMILES IDX 37 13 21 14 36 15 23 16 22 17 24 18 33 19 25 20 31 21 29 22
REMARK SMILES IDX 38 23 34 25 35 26 26 27 27 28 28 29 32 30 30 32 18 34 6 36
REMARK SMILES IDX 7 37 8 38 14 39 15 40 10 41 12 43
REMARK H PARENT 38 24 32 31 30 33 18 35 10 42 12 44
REMARK Flexibility Score: inf
ROOT
ATOM      1  C   UNL     1      24.151  -2.776 129.556  1.00  0.00     0.045 C 
ATOM      2  C   UNL     1      24.917  -2.782 128.255  1.00  0.00    -0.039 A 
ATOM      3  C   UNL     1      26.059  -1.988 128.127  1.00  0.00     0.013 A 
ATOM      4  C   UNL     1      26.810  -1.945 126.932  1.00  0.00    -0.006 A 
ATOM      5  C   UNL     1      26.438  -2.807 125.856  1.00  0.00     0.039 A 
ATOM      6  C   UNL     1      27.235  -2.812 124.673  1.00  0.00     0.072 A 
ATOM      7  C   UNL     1      28.447  -2.098 124.641  1.00  0.00     0.169 A 
ATOM      8  C   UNL     1      28.840  -1.313 125.737  1.00  0.00     0.162 A 
ATOM      9  C   UNL     1      27.953  -1.096 126.811  1.00  0.00     0.008 A 
ATOM     10  C   UNL     1      25.309  -3.665 126.016  1.00  0.00     0.132 A 
ATOM     11  C   UNL     1      24.533  -3.617 127.195  1.00  0.00     0.031 A 
ENDROOT
BRANCH  11  12
ATOM     12  C   UNL     1      23.332  -4.481 127.336  1.00  0.00     0.031 A 
ATOM     13  C   UNL     1      22.094  -4.073 126.790  1.00  0.00     0.132 A 
ATOM     14  C   UNL     1      23.417  -5.675 128.067  1.00  0.00    -0.039 A 
ATOM     15  C   UNL     1      20.940  -4.904 126.914  1.00  0.00     0.039 A 
ATOM     16  C   UNL     1      22.274  -6.454 128.253  1.00  0.00     0.013 A 
ATOM     17  C   UNL     1      24.711  -6.094 128.726  1.00  0.00     0.045 C 
ATOM     18  C   UNL     1      21.037  -6.120 127.657  1.00  0.00    -0.006 A 
ATOM     19  C   UNL     1      19.678  -4.539 126.359  1.00  0.00     0.072 A 
ATOM     20  C   UNL     1      19.887  -6.951 127.830  1.00  0.00     0.008 A 
ATOM     21  C   UNL     1      18.526  -5.276 126.686  1.00  0.00     0.169 A 
ATOM     22  C   UNL     1      18.623  -6.432 127.480  1.00  0.00     0.162 A 
BRANCH  13  23
ATOM     23  O   UNL     1      22.005  -2.826 126.165  1.00  0.00    -0.507 OA
ATOM     24  H   UNL     1      22.004  -1.944 126.658  1.00  0.00     0.293 HD
ENDBRANCH  13  23
BRANCH  19  25
ATOM     25  C   UNL     1      19.536  -3.437 125.378  1.00  0.00     0.264 C 
ATOM     26  O   UNL     1      19.639  -3.652 124.140  1.00  0.00    -0.298 OA
ENDBRANCH  19  25
BRANCH  20  27
ATOM     27  C   UNL     1      19.992  -8.366 128.425  1.00  0.00     0.017 C 
ATOM     28  C   UNL     1      21.189  -9.124 127.841  1.00  0.00     0.012 C 
ATOM     29  C   UNL     1      20.012  -8.392 129.966  1.00  0.00     0.012 C 
ENDBRANCH  20  27
BRANCH  21  30
ATOM     30  O   UNL     1      17.295  -4.863 126.161  1.00  0.00    -0.504 OA
ATOM     31  H   UNL     1      16.507  -5.476 126.003  1.00  0.00     0.293 HD
ENDBRANCH  21  30
BRANCH  22  32
ATOM     32  O   UNL     1      17.473  -7.077 127.945  1.00  0.00    -0.504 OA
ATOM     33  H   UNL     1      16.538  -6.702 127.859  1.00  0.00     0.293 HD
ENDBRANCH  22  32
ENDBRANCH  11  12
BRANCH  10  34
ATOM     34  O   UNL     1      24.981  -4.594 125.022  1.00  0.00    -0.507 OA
ATOM     35  H   UNL     1      25.577  -5.368 124.752  1.00  0.00     0.293 HD
ENDBRANCH  10  34
BRANCH   9  36
ATOM     36  C   UNL     1      28.257   0.008 127.838  1.00  0.00     0.017 C 
ATOM     37  C   UNL     1      29.318  -0.451 128.843  1.00  0.00     0.012 C 
ATOM     38  C   UNL     1      28.636   1.357 127.198  1.00  0.00     0.012 C 
ENDBRANCH   9  36
BRANCH   6  39
ATOM     39  C   UNL     1      26.797  -3.480 123.424  1.00  0.00     0.264 C 
ATOM     40  O   UNL     1      27.348  -4.543 123.030  1.00  0.00    -0.298 OA
ENDBRANCH   6  39
BRANCH   8  41
ATOM     41  O   UNL     1      30.118  -0.750 125.781  1.00  0.00    -0.504 OA
ATOM     42  H   UNL     1      30.579  -0.468 126.638  1.00  0.00     0.293 HD
ENDBRANCH   8  41
BRANCH   7  43
ATOM     43  O   UNL     1      29.226  -2.136 123.478  1.00  0.00    -0.504 OA
ATOM     44  H   UNL     1      29.838  -1.384 123.194  1.00  0.00     0.293 HD
ENDBRANCH   7  43
TORSDOF 11
ENDMDL
MODEL 3
REMARK VINA RESULT:    -6.071      2.143      3.482
REMARK INTER + INTRA:          -9.695
REMARK INTER:                  -8.584
REMARK INTRA:                  -1.111
REMARK UNBOUND:                -0.785
REMARK SMILES Cc1cc2c(C(C)C)c(O)c(O)c(C=O)c2c(O)c1-c1c(C)cc2c(C(C)C)c(O)c(O)c(C=O)c2c1O
REMARK SMILES IDX 1 1 2 2 3 3 4 4 16 5 13 6 11 7 9 8 5 9 17 10 19 11 20 12
REMARK SMILES IDX 37 13 21 14 36 15 23 16 22 17 24 18 33 19 25 20 31 21 29 22
REMARK SMILES IDX 38 23 34 25 35 26 26 27 27 28 28 29 32 30 30 32 18 34 6 36
REMARK SMILES IDX 7 37 8 38 14 39 15 40 10 41 12 43
REMARK H PARENT 38 24 32 31 30 33 18 35 10 42 12 44
REMARK Flexibility Score: inf
ROOT
ATOM      1  C   UNL     1      21.946  -3.242 125.317  1.00  0.00     0.045 C 
ATOM      2  C   UNL     1      22.320  -4.234 126.392  1.00  0.00    -0.039 A 
ATOM      3  C   UNL     1      21.356  -5.124 126.871  1.00  0.00     0.013 A 
ATOM      4  C   UNL     1      21.645  -6.067 127.881  1.00  0.00    -0.006 A 
ATOM      5  C   UNL     1      22.986  -6.168 128.363  1.00  0.00     0.039 A 
ATOM      6  C   UNL     1      23.291  -7.165 129.337  1.00  0.00     0.072 A 
ATOM      7  C   UNL     1      22.324  -8.123 129.689  1.00  0.00     0.169 A 
ATOM      8  C   UNL     1      21.029  -8.057 129.150  1.00  0.00     0.162 A 
ATOM      9  C   UNL     1      20.633  -6.942 128.382  1.00  0.00     0.008 A 
ATOM     10  C   UNL     1      23.982  -5.300 127.824  1.00  0.00     0.132 A 
ATOM     11  C   UNL     1      23.634  -4.313 126.875  1.00  0.00     0.031 A 
ENDROOT
BRANCH  11  12
ATOM     12  C   UNL     1      24.669  -3.382 126.352  1.00  0.00     0.031 A 
ATOM     13  C   UNL     1      25.445  -3.741 125.228  1.00  0.00     0.132 A 
ATOM     14  C   UNL     1      24.913  -2.171 127.016  1.00  0.00    -0.039 A 
ATOM     15  C   UNL     1      26.433  -2.847 124.715  1.00  0.00     0.039 A 
ATOM     16  C   UNL     1      25.928  -1.327 126.561  1.00  0.00     0.013 A 
ATOM     17  C   UNL     1      24.148  -1.799 128.264  1.00  0.00     0.045 C 
ATOM     18  C   UNL     1      26.672  -1.614 125.396  1.00  0.00    -0.006 A 
ATOM     19  C   UNL     1      27.223  -3.163 123.570  1.00  0.00     0.072 A 
ATOM     20  C   UNL     1      27.682  -0.719 124.926  1.00  0.00     0.008 A 
ATOM     21  C   UNL     1      28.323  -2.356 123.230  1.00  0.00     0.169 A 
ATOM     22  C   UNL     1      28.594  -1.181 123.954  1.00  0.00     0.162 A 
BRANCH  13  23
ATOM     23  O   UNL     1      25.264  -5.002 124.651  1.00  0.00    -0.507 OA
ATOM     24  H   UNL     1      25.131  -5.853 125.179  1.00  0.00     0.293 HD
ENDBRANCH  13  23
BRANCH  19  25
ATOM     25  C   UNL     1      26.887  -4.287 122.665  1.00  0.00     0.264 C 
ATOM     26  O   UNL     1      26.602  -4.084 121.455  1.00  0.00    -0.298 OA
ENDBRANCH  19  25
BRANCH  20  27
ATOM     27  C   UNL     1      27.825   0.708 125.487  1.00  0.00     0.017 C 
ATOM     28  C   UNL     1      28.874   0.761 126.602  1.00  0.00     0.012 C 
ATOM     29  C   UNL     1      28.099   1.774 124.409  1.00  0.00     0.012 C 
ENDBRANCH  20  27
BRANCH  21  30
ATOM     30  O   UNL     1      29.106  -2.720 122.128  1.00  0.00    -0.504 OA
ATOM     31  H   UNL     1      29.240  -3.672 121.813  1.00  0.00     0.293 HD
ENDBRANCH  21  30
BRANCH  22  32
ATOM     32  O   UNL     1      29.772  -0.461 123.732  1.00  0.00    -0.504 OA
ATOM     33  H   UNL     1      30.087  -0.156 122.821  1.00  0.00     0.293 HD
ENDBRANCH  22  32
ENDBRANCH  11  12
BRANCH  10  34
ATOM     34  O   UNL     1      25.322  -5.444 128.199  1.00  0.00    -0.507 OA
ATOM     35  H   UNL     1      26.062  -4.817 127.906  1.00  0.00     0.293 HD
ENDBRANCH  10  34
BRANCH   9  36
ATOM     36  C   UNL     1      19.143  -6.723 128.072  1.00  0.00     0.017 C 
ATOM     37  C   UNL     1      18.727  -7.477 126.804  1.00  0.00     0.012 C 
ATOM     38  C   UNL     1      18.211  -7.056 129.253  1.00  0.00     0.012 C 
ENDBRANCH   9  36
BRANCH   6  39
ATOM     39  C   UNL     1      24.581  -7.188 130.070  1.00  0.00     0.264 C 
ATOM     40  O   UNL     1      25.510  -7.964 129.723  1.00  0.00    -0.298 OA
ENDBRANCH   6  39
BRANCH   8  41
ATOM     41  O   UNL     1      20.124  -9.102 129.355  1.00  0.00    -0.504 OA
ATOM     42  H   UNL     1      19.121  -8.973 129.420  1.00  0.00     0.293 HD
ENDBRANCH   8  41
BRANCH   7  43
ATOM     43  O   UNL     1      22.653  -9.106 130.630  1.00  0.00    -0.504 OA
ATOM     44  H   UNL     1      23.516  -9.106 131.155  1.00  0.00     0.293 HD
ENDBRANCH   7  43
TORSDOF 11
ENDMDL
MODEL 4
REMARK VINA RESULT:    -6.005      2.014      9.053
REMARK INTER + INTRA:          -9.599
REMARK INTER:                  -8.368
REMARK INTRA:                  -1.231
REMARK UNBOUND:                -0.785
REMARK SMILES Cc1cc2c(C(C)C)c(O)c(O)c(C=O)c2c(O)c1-c1c(C)cc2c(C(C)C)c(O)c(O)c(C=O)c2c1O
REMARK SMILES IDX 1 1 2 2 3 3 4 4 16 5 13 6 11 7 9 8 5 9 17 10 19 11 20 12
REMARK SMILES IDX 37 13 21 14 36 15 23 16 22 17 24 18 33 19 25 20 31 21 29 22
REMARK SMILES IDX 38 23 34 25 35 26 26 27 27 28 28 29 32 30 30 32 18 34 6 36
REMARK SMILES IDX 7 37 8 38 14 39 15 40 10 41 12 43
REMARK H PARENT 38 24 32 31 30 33 18 35 10 42 12 44
REMARK Flexibility Score: inf
ROOT
ATOM      1  C   UNL     1      24.418  -1.914 128.598  1.00  0.00     0.045 C 
ATOM      2  C   UNL     1      25.096  -2.205 127.281  1.00  0.00    -0.039 A 
ATOM      3  C   UNL     1      26.130  -1.375 126.843  1.00  0.00     0.013 A 
ATOM      4  C   UNL     1      26.794  -1.593 125.616  1.00  0.00    -0.006 A 
ATOM      5  C   UNL     1      26.454  -2.746 124.845  1.00  0.00     0.039 A 
ATOM      6  C   UNL     1      27.170  -3.001 123.638  1.00  0.00     0.072 A 
ATOM      7  C   UNL     1      28.289  -2.216 123.307  1.00  0.00     0.169 A 
ATOM      8  C   UNL     1      28.661  -1.129 124.114  1.00  0.00     0.162 A 
ATOM      9  C   UNL     1      27.825  -0.709 125.170  1.00  0.00     0.008 A 
ATOM     10  C   UNL     1      25.440  -3.626 125.329  1.00  0.00     0.132 A 
ATOM     11  C   UNL     1      24.740  -3.328 126.520  1.00  0.00     0.031 A 
ENDROOT
BRANCH  11  12
ATOM     12  C   UNL     1      23.655  -4.226 126.994  1.00  0.00     0.031 A 
ATOM     13  C   UNL     1      23.935  -5.251 127.924  1.00  0.00     0.132 A 
ATOM     14  C   UNL     1      22.362  -4.090 126.467  1.00  0.00    -0.039 A 
ATOM     15  C   UNL     1      22.894  -6.110 128.390  1.00  0.00     0.039 A 
ATOM     16  C   UNL     1      21.358  -4.975 126.865  1.00  0.00     0.013 A 
ATOM     17  C   UNL     1      22.054  -3.051 125.415  1.00  0.00     0.045 C 
ATOM     18  C   UNL     1      21.580  -5.962 127.851  1.00  0.00    -0.006 A 
ATOM     19  C   UNL     1      23.132  -7.143 129.344  1.00  0.00     0.072 A 
ATOM     20  C   UNL     1      20.529  -6.834 128.271  1.00  0.00     0.008 A 
ATOM     21  C   UNL     1      22.134  -8.096 129.612  1.00  0.00     0.169 A 
ATOM     22  C   UNL     1      20.864  -7.983 129.018  1.00  0.00     0.162 A 
BRANCH  13  23
ATOM     23  O   UNL     1      25.254  -5.442 128.349  1.00  0.00    -0.507 OA
ATOM     24  H   UNL     1      26.013  -4.808 128.142  1.00  0.00     0.293 HD
ENDBRANCH  13  23
BRANCH  19  25
ATOM     25  C   UNL     1      24.385  -7.216 130.133  1.00  0.00     0.264 C 
ATOM     26  O   UNL     1      25.276  -8.064 129.860  1.00  0.00    -0.298 OA
ENDBRANCH  19  25
BRANCH  20  27
ATOM     27  C   UNL     1      19.060  -6.575 127.891  1.00  0.00     0.017 C 
ATOM     28  C   UNL     1      18.713  -7.230 126.549  1.00  0.00     0.012 C 
ATOM     29  C   UNL     1      18.054  -6.977 128.987  1.00  0.00     0.012 C 
ENDBRANCH  20  27
BRANCH  21  30
ATOM     30  O   UNL     1      22.416  -9.125 130.519  1.00  0.00    -0.504 OA
ATOM     31  H   UNL     1      21.803  -9.407 131.272  1.00  0.00     0.293 HD
ENDBRANCH  21  30
BRANCH  22  32
ATOM     32  O   UNL     1      19.922  -9.008 129.147  1.00  0.00    -0.504 OA
ATOM     33  H   UNL     1      18.936  -8.901 128.952  1.00  0.00     0.293 HD
ENDBRANCH  22  32
ENDBRANCH  11  12
BRANCH  10  34
ATOM     34  O   UNL     1      25.156  -4.817 124.651  1.00  0.00    -0.507 OA
ATOM     35  H   UNL     1      25.252  -5.738 125.061  1.00  0.00     0.293 HD
ENDBRANCH  10  34
BRANCH   9  36
ATOM     36  C   UNL     1      28.068   0.656 125.835  1.00  0.00     0.017 C 
ATOM     37  C   UNL     1      29.249   0.592 126.810  1.00  0.00     0.012 C 
ATOM     38  C   UNL     1      28.234   1.811 124.829  1.00  0.00     0.012 C 
ENDBRANCH   9  36
BRANCH   6  39
ATOM     39  C   UNL     1      26.730  -4.022 122.656  1.00  0.00     0.264 C 
ATOM     40  O   UNL     1      27.379  -5.090 122.497  1.00  0.00    -0.298 OA
ENDBRANCH   6  39
BRANCH   8  41
ATOM     41  O   UNL     1      29.867  -0.463 123.891  1.00  0.00    -0.504 OA
ATOM     42  H   UNL     1      30.158  -0.113 122.985  1.00  0.00     0.293 HD
ENDBRANCH   8  41
BRANCH   7  43
ATOM     43  O   UNL     1      28.992  -2.499 122.129  1.00  0.00    -0.504 OA
ATOM     44  H   UNL     1      29.245  -1.795 121.450  1.00  0.00     0.293 HD
ENDBRANCH   7  43
TORSDOF 11
ENDMDL
MODEL 5
REMARK VINA RESULT:    -5.866      3.346      7.841
REMARK INTER + INTRA:          -9.395
REMARK INTER:                  -8.747
REMARK INTRA:                  -0.648
REMARK UNBOUND:                -0.785
REMARK SMILES Cc1cc2c(C(C)C)c(O)c(O)c(C=O)c2c(O)c1-c1c(C)cc2c(C(C)C)c(O)c(O)c(C=O)c2c1O
REMARK SMILES IDX 1 1 2 2 3 3 4 4 16 5 13 6 11 7 9 8 5 9 17 10 19 11 20 12
REMARK SMILES IDX 37 13 21 14 36 15 23 16 22 17 24 18 33 19 25 20 31 21 29 22
REMARK SMILES IDX 38 23 34 25 35 26 26 27 27 28 28 29 32 30 30 32 18 34 6 36
REMARK SMILES IDX 7 37 8 38 14 39 15 40 10 41 12 43
REMARK H PARENT 38 24 32 31 30 33 18 35 10 42 12 44
REMARK Flexibility Score: inf
ROOT
ATOM      1  C   UNL     1      24.861  -4.218 124.431  1.00  0.00     0.045 C 
ATOM      2  C   UNL     1      24.129  -2.982 124.897  1.00  0.00    -0.039 A 
ATOM      3  C   UNL     1      24.088  -1.856 124.072  1.00  0.00     0.013 A 
ATOM      4  C   UNL     1      23.426  -0.670 124.458  1.00  0.00    -0.006 A 
ATOM      5  C   UNL     1      22.706  -0.655 125.691  1.00  0.00     0.039 A 
ATOM      6  C   UNL     1      21.984   0.521 126.050  1.00  0.00     0.072 A 
ATOM      7  C   UNL     1      21.860   1.577 125.129  1.00  0.00     0.169 A 
ATOM      8  C   UNL     1      22.512   1.519 123.887  1.00  0.00     0.162 A 
ATOM      9  C   UNL     1      23.429   0.482 123.613  1.00  0.00     0.008 A 
ATOM     10  C   UNL     1      22.697  -1.830 126.501  1.00  0.00     0.132 A 
ATOM     11  C   UNL     1      23.442  -2.969 126.120  1.00  0.00     0.031 A 
ENDROOT
BRANCH  11  12
ATOM     12  C   UNL     1      23.464  -4.173 126.991  1.00  0.00     0.031 A 
ATOM     13  C   UNL     1      22.316  -4.986 127.110  1.00  0.00     0.132 A 
ATOM     14  C   UNL     1      24.612  -4.466 127.742  1.00  0.00    -0.039 A 
ATOM     15  C   UNL     1      22.335  -6.150 127.938  1.00  0.00     0.039 A 
ATOM     16  C   UNL     1      24.610  -5.560 128.608  1.00  0.00     0.013 A 
ATOM     17  C   UNL     1      25.827  -3.568 127.690  1.00  0.00     0.045 C 
ATOM     18  C   UNL     1      23.509  -6.441 128.696  1.00  0.00    -0.006 A 
ATOM     19  C   UNL     1      21.204  -7.008 128.069  1.00  0.00     0.072 A 
ATOM     20  C   UNL     1      23.542  -7.577 129.563  1.00  0.00     0.008 A 
ATOM     21  C   UNL     1      21.193  -8.013 129.052  1.00  0.00     0.169 A 
ATOM     22  C   UNL     1      22.331  -8.244 129.845  1.00  0.00     0.162 A 
BRANCH  13  23
ATOM     23  O   UNL     1      21.145  -4.613 126.442  1.00  0.00    -0.507 OA
ATOM     24  H   UNL     1      20.251  -5.067 126.568  1.00  0.00     0.293 HD
ENDBRANCH  13  23
BRANCH  19  25
ATOM     25  C   UNL     1      20.043  -6.930 127.150  1.00  0.00     0.264 C 
ATOM     26  O   UNL     1      18.912  -6.560 127.562  1.00  0.00    -0.298 OA
ENDBRANCH  19  25
BRANCH  20  27
ATOM     27  C   UNL     1      24.847  -8.056 130.224  1.00  0.00     0.017 C 
ATOM     28  C   UNL     1      25.538  -9.125 129.370  1.00  0.00     0.012 C 
ATOM     29  C   UNL     1      25.817  -6.913 130.583  1.00  0.00     0.012 C 
ENDBRANCH  20  27
BRANCH  21  30
ATOM     30  O   UNL     1      20.048  -8.808 129.185  1.00  0.00    -0.504 OA
ATOM     31  H   UNL     1      20.051  -9.819 129.178  1.00  0.00     0.293 HD
ENDBRANCH  21  30
BRANCH  22  32
ATOM     32  O   UNL     1      22.278  -9.125 130.930  1.00  0.00    -0.504 OA
ATOM     33  H   UNL     1      22.933  -9.118 131.700  1.00  0.00     0.293 HD
ENDBRANCH  22  32
ENDBRANCH  11  12
BRANCH  10  34
ATOM     34  O   UNL     1      21.918  -1.882 127.662  1.00  0.00    -0.507 OA
ATOM     35  H   UNL     1      21.052  -2.403 127.739  1.00  0.00     0.293 HD
ENDBRANCH  10  34
BRANCH   9  36
ATOM     36  C   UNL     1      24.368   0.599 122.401  1.00  0.00     0.017 C 
ATOM     37  C   UNL     1      25.830   0.719 122.846  1.00  0.00     0.012 C 
ATOM     38  C   UNL     1      24.188  -0.532 121.370  1.00  0.00     0.012 C 
ENDBRANCH   9  36
BRANCH   6  39
ATOM     39  C   UNL     1      21.415   0.720 127.405  1.00  0.00     0.264 C 
ATOM     40  O   UNL     1      20.174   0.643 127.605  1.00  0.00    -0.298 OA
ENDBRANCH   6  39
BRANCH   8  41
ATOM     41  O   UNL     1      22.249   2.476 122.905  1.00  0.00    -0.504 OA
ATOM     42  H   UNL     1      21.960   3.426 123.107  1.00  0.00     0.293 HD
ENDBRANCH   8  41
BRANCH   7  43
ATOM     43  O   UNL     1      21.127   2.713 125.494  1.00  0.00    -0.504 OA
ATOM     44  H   UNL     1      21.179   3.591 124.997  1.00  0.00     0.293 HD
ENDBRANCH   7  43
TORSDOF 11
ENDMDL
MODEL 6
REMARK VINA RESULT:    -5.774      1.823      3.076
REMARK INTER + INTRA:          -9.260
REMARK INTER:                  -9.374
REMARK INTRA:                   0.114
REMARK UNBOUND:                -0.785
REMARK SMILES Cc1cc2c(C(C)C)c(O)c(O)c(C=O)c2c(O)c1-c1c(C)cc2c(C(C)C)c(O)c(O)c(C=O)c2c1O
REMARK SMILES IDX 1 1 2 2 3 3 4 4 16 5 13 6 11 7 9 8 5 9 17 10 19 11 20 12
REMARK SMILES IDX 37 13 21 14 36 15 23 16 22 17 24 18 33 19 25 20 31 21 29 22
REMARK SMILES IDX 38 23 34 25 35 26 26 27 27 28 28 29 32 30 30 32 18 34 6 36
REMARK SMILES IDX 7 37 8 38 14 39 15 40 10 41 12 43
REMARK H PARENT 38 24 32 31 30 33 18 35 10 42 12 44
REMARK Flexibility Score: inf
ROOT
ATOM      1  C   UNL     1      24.846  -6.358 128.800  1.00  0.00     0.045 C 
ATOM      2  C   UNL     1      23.613  -5.812 128.120  1.00  0.00    -0.039 A 
ATOM      3  C   UNL     1      22.406  -6.506 128.227  1.00  0.00     0.013 A 
ATOM      4  C   UNL     1      21.224  -6.049 127.605  1.00  0.00    -0.006 A 
ATOM      5  C   UNL     1      21.248  -4.796 126.920  1.00  0.00     0.039 A 
ATOM      6  C   UNL     1      20.038  -4.304 126.347  1.00  0.00     0.072 A 
ATOM      7  C   UNL     1      18.823  -4.968 126.595  1.00  0.00     0.169 A 
ATOM      8  C   UNL     1      18.802  -6.161 127.336  1.00  0.00     0.162 A 
ATOM      9  C   UNL     1      20.008  -6.795 127.697  1.00  0.00     0.008 A 
ATOM     10  C   UNL     1      22.469  -4.060 126.868  1.00  0.00     0.132 A 
ATOM     11  C   UNL     1      23.651  -4.591 127.431  1.00  0.00     0.031 A 
ENDROOT
BRANCH  11  12
ATOM     12  C   UNL     1      24.929  -3.839 127.333  1.00  0.00     0.031 A 
ATOM     13  C   UNL     1      25.512  -3.274 128.489  1.00  0.00     0.132 A 
ATOM     14  C   UNL     1      25.524  -3.640 126.079  1.00  0.00    -0.039 A 
ATOM     15  C   UNL     1      26.745  -2.558 128.403  1.00  0.00     0.039 A 
ATOM     16  C   UNL     1      26.690  -2.879 125.980  1.00  0.00     0.013 A 
ATOM     17  C   UNL     1      24.880  -4.170 124.818  1.00  0.00     0.045 C 
ATOM     18  C   UNL     1      27.344  -2.364 127.121  1.00  0.00    -0.006 A 
ATOM     19  C   UNL     1      27.376  -1.991 129.549  1.00  0.00     0.072 A 
ATOM     20  C   UNL     1      28.558  -1.618 127.002  1.00  0.00     0.008 A 
ATOM     21  C   UNL     1      28.466  -1.118 129.391  1.00  0.00     0.169 A 
ATOM     22  C   UNL     1      29.005  -0.875 128.115  1.00  0.00     0.162 A 
BRANCH  13  23
ATOM     23  O   UNL     1      24.843  -3.385 129.712  1.00  0.00    -0.507 OA
ATOM     24  H   UNL     1      24.782  -4.240 130.249  1.00  0.00     0.293 HD
ENDBRANCH  13  23
BRANCH  19  25
ATOM     25  C   UNL     1      26.968  -2.342 130.930  1.00  0.00     0.264 C 
ATOM     26  O   UNL     1      27.098  -3.517 131.367  1.00  0.00    -0.298 OA
ENDBRANCH  19  25
BRANCH  20  27
ATOM     27  C   UNL     1      29.354  -1.572 125.686  1.00  0.00     0.017 C 
ATOM     28  C   UNL     1      29.732  -2.982 125.219  1.00  0.00     0.012 C 
ATOM     29  C   UNL     1      28.655  -0.779 124.564  1.00  0.00     0.012 C 
ENDBRANCH  20  27
BRANCH  21  30
ATOM     30  O   UNL     1      29.033  -0.541 130.534  1.00  0.00    -0.504 OA
ATOM     31  H   UNL     1      29.243  -1.047 131.384  1.00  0.00     0.293 HD
ENDBRANCH  21  30
BRANCH  22  32
ATOM     32  O   UNL     1      29.978   0.111 127.927  1.00  0.00    -0.504 OA
ATOM     33  H   UNL     1      30.909  -0.070 127.577  1.00  0.00     0.293 HD
ENDBRANCH  22  32
ENDBRANCH  11  12
BRANCH  10  34
ATOM     34  O   UNL     1      22.501  -2.784 126.295  1.00  0.00    -0.507 OA
ATOM     35  H   UNL     1      22.061  -1.968 126.705  1.00  0.00     0.293 HD
ENDBRANCH  10  34
BRANCH   9  36
ATOM     36  C   UNL     1      19.981  -8.242 128.216  1.00  0.00     0.017 C 
ATOM     37  C   UNL     1      20.966  -9.125 127.441  1.00  0.00     0.012 C 
ATOM     38  C   UNL     1      20.203  -8.357 129.736  1.00  0.00     0.012 C 
ENDBRANCH   9  36
BRANCH   6  39
ATOM     39  C   UNL     1      20.013  -3.149 125.417  1.00  0.00     0.264 C 
ATOM     40  O   UNL     1      19.639  -2.011 125.806  1.00  0.00    -0.298 OA
ENDBRANCH   6  39
BRANCH   8  41
ATOM     41  O   UNL     1      17.587  -6.723 127.735  1.00  0.00    -0.504 OA
ATOM     42  H   UNL     1      17.083  -7.416 127.193  1.00  0.00     0.293 HD
ENDBRANCH   8  41
BRANCH   7  43
ATOM     43  O   UNL     1      17.643  -4.454 126.042  1.00  0.00    -0.504 OA
ATOM     44  H   UNL     1      16.829  -4.219 126.591  1.00  0.00     0.293 HD
ENDBRANCH   7  43
TORSDOF 11
ENDMDL
MODEL 7
REMARK VINA RESULT:    -5.718      1.788      9.046
REMARK INTER + INTRA:          -9.177
REMARK INTER:                  -9.144
REMARK INTRA:                  -0.032
REMARK UNBOUND:                -0.785
REMARK SMILES Cc1cc2c(C(C)C)c(O)c(O)c(C=O)c2c(O)c1-c1c(C)cc2c(C(C)C)c(O)c(O)c(C=O)c2c1O
REMARK SMILES IDX 1 1 2 2 3 3 4 4 16 5 13 6 11 7 9 8 5 9 17 10 19 11 20 12
REMARK SMILES IDX 37 13 21 14 36 15 23 16 22 17 24 18 33 19 25 20 31 21 29 22
REMARK SMILES IDX 38 23 34 25 35 26 26 27 27 28 28 29 32 30 30 32 18 34 6 36
REMARK SMILES IDX 7 37 8 38 14 39 15 40 10 41 12 43
REMARK H PARENT 38 24 32 31 30 33 18 35 10 42 12 44
REMARK Flexibility Score: inf
ROOT
ATOM      1  C   UNL     1      24.807  -4.127 124.696  1.00  0.00     0.045 C 
ATOM      2  C   UNL     1      25.450  -3.613 125.962  1.00  0.00    -0.039 A 
ATOM      3  C   UNL     1      26.622  -2.857 125.879  1.00  0.00     0.013 A 
ATOM      4  C   UNL     1      27.273  -2.358 127.028  1.00  0.00    -0.006 A 
ATOM      5  C   UNL     1      26.665  -2.560 128.304  1.00  0.00     0.039 A 
ATOM      6  C   UNL     1      27.288  -2.000 129.458  1.00  0.00     0.072 A 
ATOM      7  C   UNL     1      28.388  -1.136 129.312  1.00  0.00     0.169 A 
ATOM      8  C   UNL     1      28.931  -0.884 128.042  1.00  0.00     0.162 A 
ATOM      9  C   UNL     1      28.490  -1.618 126.921  1.00  0.00     0.008 A 
ATOM     10  C   UNL     1      25.433  -3.278 128.378  1.00  0.00     0.132 A 
ATOM     11  C   UNL     1      24.858  -3.835 127.214  1.00  0.00     0.031 A 
ENDROOT
BRANCH  11  12
ATOM     12  C   UNL     1      23.599  -4.620 127.304  1.00  0.00     0.031 A 
ATOM     13  C   UNL     1      22.391  -4.088 126.801  1.00  0.00     0.132 A 
ATOM     14  C   UNL     1      23.602  -5.867 127.946  1.00  0.00    -0.039 A 
ATOM     15  C   UNL     1      21.181  -4.842 126.876  1.00  0.00     0.039 A 
ATOM     16  C   UNL     1      22.408  -6.574 128.087  1.00  0.00     0.013 A 
ATOM     17  C   UNL     1      24.866  -6.423 128.560  1.00  0.00     0.045 C 
ATOM     18  C   UNL     1      21.195  -6.112 127.529  1.00  0.00    -0.006 A 
ATOM     19  C   UNL     1      19.945  -4.349 126.362  1.00  0.00     0.072 A 
ATOM     20  C   UNL     1      19.990  -6.870 127.653  1.00  0.00     0.008 A 
ATOM     21  C   UNL     1      18.745  -5.025 126.646  1.00  0.00     0.169 A 
ATOM     22  C   UNL     1      18.763  -6.239 127.355  1.00  0.00     0.162 A 
BRANCH  13  23
ATOM     23  O   UNL     1      22.387  -2.795 126.268  1.00  0.00    -0.507 OA
ATOM     24  H   UNL     1      23.222  -2.264 126.063  1.00  0.00     0.293 HD
ENDBRANCH  13  23
BRANCH  19  25
ATOM     25  C   UNL     1      19.877  -3.172 125.464  1.00  0.00     0.264 C 
ATOM     26  O   UNL     1      19.620  -2.024 125.916  1.00  0.00    -0.298 OA
ENDBRANCH  19  25
BRANCH  20  27
ATOM     27  C   UNL     1      19.996  -8.329 128.144  1.00  0.00     0.017 C 
ATOM     28  C   UNL     1      21.134  -9.124 127.496  1.00  0.00     0.012 C 
ATOM     29  C   UNL     1      20.020  -8.467 129.679  1.00  0.00     0.012 C 
ENDBRANCH  20  27
BRANCH  21  30
ATOM     30  O   UNL     1      17.545  -4.488 126.165  1.00  0.00    -0.504 OA
ATOM     31  H   UNL     1      16.894  -3.954 126.725  1.00  0.00     0.293 HD
ENDBRANCH  21  30
BRANCH  22  32
ATOM     32  O   UNL     1      17.573  -6.833 127.784  1.00  0.00    -0.504 OA
ATOM     33  H   UNL     1      17.097  -6.595 128.643  1.00  0.00     0.293 HD
ENDBRANCH  22  32
ENDBRANCH  11  12
BRANCH  10  34
ATOM     34  O   UNL     1      24.760  -3.404 129.598  1.00  0.00    -0.507 OA
ATOM     35  H   UNL     1      24.778  -2.704 130.329  1.00  0.00     0.293 HD
ENDBRANCH  10  34
BRANCH   9  36
ATOM     36  C   UNL     1      29.300  -1.571 125.614  1.00  0.00     0.017 C 
ATOM     37  C   UNL     1      29.790  -2.968 125.218  1.00  0.00     0.012 C 
ATOM     38  C   UNL     1      28.555  -0.887 124.452  1.00  0.00     0.012 C 
ENDBRANCH   9  36
BRANCH   6  39
ATOM     39  C   UNL     1      26.873  -2.359 130.837  1.00  0.00     0.264 C 
ATOM     40  O   UNL     1      27.057  -3.521 131.288  1.00  0.00    -0.298 OA
ENDBRANCH   6  39
BRANCH   8  41
ATOM     41  O   UNL     1      29.902   0.105 127.872  1.00  0.00    -0.504 OA
ATOM     42  H   UNL     1      30.850  -0.082 127.566  1.00  0.00     0.293 HD
ENDBRANCH   8  41
BRANCH   7  43
ATOM     43  O   UNL     1      28.971  -0.579 130.457  1.00  0.00    -0.504 OA
ATOM     44  H   UNL     1      29.623   0.191 130.430  1.00  0.00     0.293 HD
ENDBRANCH   7  43
TORSDOF 11
ENDMDL
MODEL 8
REMARK VINA RESULT:    -5.025      2.202      9.317
REMARK INTER + INTRA:          -8.160
REMARK INTER:                  -8.976
REMARK INTRA:                   0.816
REMARK UNBOUND:                -0.785
REMARK SMILES Cc1cc2c(C(C)C)c(O)c(O)c(C=O)c2c(O)c1-c1c(C)cc2c(C(C)C)c(O)c(O)c(C=O)c2c1O
REMARK SMILES IDX 1 1 2 2 3 3 4 4 16 5 13 6 11 7 9 8 5 9 17 10 19 11 20 12
REMARK SMILES IDX 37 13 21 14 36 15 23 16 22 17 24 18 33 19 25 20 31 21 29 22
REMARK SMILES IDX 38 23 34 25 35 26 26 27 27 28 28 29 32 30 30 32 18 34 6 36
REMARK SMILES IDX 7 37 8 38 14 39 15 40 10 41 12 43
REMARK H PARENT 38 24 32 31 30 33 18 35 10 42 12 44
REMARK Flexibility Score: inf
ROOT
ATOM      1  C   UNL     1      21.679  -2.744 123.717  1.00  0.00     0.045 C 
ATOM      2  C   UNL     1      22.725  -2.684 124.804  1.00  0.00    -0.039 A 
ATOM      3  C   UNL     1      23.949  -2.062 124.546  1.00  0.00     0.013 A 
ATOM      4  C   UNL     1      24.968  -1.984 125.520  1.00  0.00    -0.006 A 
ATOM      5  C   UNL     1      24.703  -2.481 126.833  1.00  0.00     0.039 A 
ATOM      6  C   UNL     1      25.709  -2.344 127.835  1.00  0.00     0.072 A 
ATOM      7  C   UNL     1      26.868  -1.593 127.568  1.00  0.00     0.169 A 
ATOM      8  C   UNL     1      27.082  -1.044 126.293  1.00  0.00     0.162 A 
ATOM      9  C   UNL     1      26.226  -1.376 125.223  1.00  0.00     0.008 A 
ATOM     10  C   UNL     1      23.427  -3.058 127.110  1.00  0.00     0.132 A 
ATOM     11  C   UNL     1      22.464  -3.194 126.084  1.00  0.00     0.031 A 
ENDROOT
BRANCH  11  12
ATOM     12  C   UNL     1      21.155  -3.837 126.369  1.00  0.00     0.031 A 
ATOM     13  C   UNL     1      21.101  -5.182 126.794  1.00  0.00     0.132 A 
ATOM     14  C   UNL     1      19.968  -3.120 126.154  1.00  0.00    -0.039 A 
ATOM     15  C   UNL     1      19.846  -5.802 127.079  1.00  0.00     0.039 A 
ATOM     16  C   UNL     1      18.738  -3.746 126.360  1.00  0.00     0.013 A 
ATOM     17  C   UNL     1      19.997  -1.705 125.627  1.00  0.00     0.045 C 
ATOM     18  C   UNL     1      18.644  -5.063 126.860  1.00  0.00    -0.006 A 
ATOM     19  C   UNL     1      19.750  -7.151 127.530  1.00  0.00     0.072 A 
ATOM     20  C   UNL     1      17.373  -5.673 127.100  1.00  0.00     0.008 A 
ATOM     21  C   UNL     1      18.497  -7.785 127.591  1.00  0.00     0.169 A 
ATOM     22  C   UNL     1      17.322  -7.068 127.303  1.00  0.00     0.162 A 
BRANCH  13  23
ATOM     23  O   UNL     1      22.289  -5.913 126.891  1.00  0.00    -0.507 OA
ATOM     24  H   UNL     1      22.399  -6.743 127.457  1.00  0.00     0.293 HD
ENDBRANCH  13  23
BRANCH  19  25
ATOM     25  C   UNL     1      20.929  -7.908 128.014  1.00  0.00     0.264 C 
ATOM     26  O   UNL     1      21.373  -8.898 127.375  1.00  0.00    -0.298 OA
ENDBRANCH  19  25
BRANCH  20  27
ATOM     27  C   UNL     1      16.068  -4.856 127.094  1.00  0.00     0.017 C 
ATOM     28  C   UNL     1      15.037  -5.469 126.140  1.00  0.00     0.012 C 
ATOM     29  C   UNL     1      15.469  -4.631 128.496  1.00  0.00     0.012 C 
ENDBRANCH  20  27
BRANCH  21  30
ATOM     30  O   UNL     1      18.443  -9.125 127.994  1.00  0.00    -0.504 OA
ATOM     31  H   UNL     1      17.717  -9.516 128.579  1.00  0.00     0.293 HD
ENDBRANCH  21  30
BRANCH  22  32
ATOM     32  O   UNL     1      16.092  -7.724 127.201  1.00  0.00    -0.504 OA
ATOM     33  H   UNL     1      15.307  -7.379 126.666  1.00  0.00     0.293 HD
ENDBRANCH  22  32
ENDBRANCH  11  12
BRANCH  10  34
ATOM     34  O   UNL     1      23.100  -3.459 128.409  1.00  0.00    -0.507 OA
ATOM     35  H   UNL     1      22.672  -2.851 129.098  1.00  0.00     0.293 HD
ENDBRANCH  10  34
BRANCH   9  36
ATOM     36  C   UNL     1      26.644  -1.039 123.781  1.00  0.00     0.017 C 
ATOM     37  C   UNL     1      26.596  -2.284 122.888  1.00  0.00     0.012 C 
ATOM     38  C   UNL     1      25.847   0.126 123.164  1.00  0.00     0.012 C 
ENDBRANCH   9  36
BRANCH   6  39
ATOM     39  C   UNL     1      25.625  -3.038 129.143  1.00  0.00     0.264 C 
ATOM     40  O   UNL     1      25.280  -2.418 130.185  1.00  0.00    -0.298 OA
ENDBRANCH   6  39
BRANCH   8  41
ATOM     41  O   UNL     1      28.136  -0.154 126.075  1.00  0.00    -0.504 OA
ATOM     42  H   UNL     1      28.754  -0.199 125.273  1.00  0.00     0.293 HD
ENDBRANCH   8  41
BRANCH   7  43
ATOM     43  O   UNL     1      27.832  -1.451 128.574  1.00  0.00    -0.504 OA
ATOM     44  H   UNL     1      28.158  -2.219 129.142  1.00  0.00     0.293 HD
ENDBRANCH   7  43
TORSDOF 11
ENDMDL
MODEL 9
REMARK VINA RESULT:    -4.957      2.228      4.409
REMARK INTER + INTRA:          -8.060
REMARK INTER:                  -8.986
REMARK INTRA:                   0.926
REMARK UNBOUND:                -0.785
REMARK SMILES Cc1cc2c(C(C)C)c(O)c(O)c(C=O)c2c(O)c1-c1c(C)cc2c(C(C)C)c(O)c(O)c(C=O)c2c1O
REMARK SMILES IDX 1 1 2 2 3 3 4 4 16 5 13 6 11 7 9 8 5 9 17 10 19 11 20 12
REMARK SMILES IDX 37 13 21 14 36 15 23 16 22 17 24 18 33 19 25 20 31 21 29 22
REMARK SMILES IDX 38 23 34 25 35 26 26 27 27 28 28 29 32 30 30 32 18 34 6 36
REMARK SMILES IDX 7 37 8 38 14 39 15 40 10 41 12 43
REMARK H PARENT 38 24 32 31 30 33 18 35 10 42 12 44
REMARK Flexibility Score: inf
ROOT
ATOM      1  C   UNL     1      19.975  -1.703 125.656  1.00  0.00     0.045 C 
ATOM      2  C   UNL     1      19.917  -3.126 126.157  1.00  0.00    -0.039 A 
ATOM      3  C   UNL     1      18.675  -3.728 126.374  1.00  0.00     0.013 A 
ATOM      4  C   UNL     1      18.559  -5.052 126.850  1.00  0.00    -0.006 A 
ATOM      5  C   UNL     1      19.747  -5.824 127.031  1.00  0.00     0.039 A 
ATOM      6  C   UNL     1      19.627  -7.182 127.450  1.00  0.00     0.072 A 
ATOM      7  C   UNL     1      18.357  -7.783 127.525  1.00  0.00     0.169 A 
ATOM      8  C   UNL     1      17.198  -7.033 127.271  1.00  0.00     0.162 A 
ATOM      9  C   UNL     1      17.279  -5.635 127.100  1.00  0.00     0.008 A 
ATOM     10  C   UNL     1      21.011  -5.225 126.746  1.00  0.00     0.132 A 
ATOM     11  C   UNL     1      21.090  -3.870 126.353  1.00  0.00     0.031 A 
ENDROOT
BRANCH  11  12
ATOM     12  C   UNL     1      22.412  -3.240 126.102  1.00  0.00     0.031 A 
ATOM     13  C   UNL     1      23.370  -3.160 127.136  1.00  0.00     0.132 A 
ATOM     14  C   UNL     1      22.684  -2.670 124.849  1.00  0.00    -0.039 A 
ATOM     15  C   UNL     1      24.646  -2.565 126.898  1.00  0.00     0.039 A 
ATOM     16  C   UNL     1      23.901  -2.022 124.634  1.00  0.00     0.013 A 
ATOM     17  C   UNL     1      21.647  -2.675 123.750  1.00  0.00     0.045 C 
ATOM     18  C   UNL     1      24.914  -1.990 125.618  1.00  0.00    -0.006 A 
ATOM     19  C   UNL     1      25.648  -2.484 127.910  1.00  0.00     0.072 A 
ATOM     20  C   UNL     1      26.168  -1.354 125.365  1.00  0.00     0.008 A 
ATOM     21  C   UNL     1      26.799  -1.705 127.699  1.00  0.00     0.169 A 
ATOM     22  C   UNL     1      27.019  -1.081 126.457  1.00  0.00     0.162 A 
BRANCH  13  23
ATOM     23  O   UNL     1      23.037  -3.632 128.410  1.00  0.00    -0.507 OA
ATOM     24  H   UNL     1      22.179  -3.402 128.893  1.00  0.00     0.293 HD
ENDBRANCH  13  23
BRANCH  19  25
ATOM     25  C   UNL     1      25.559  -3.256 129.172  1.00  0.00     0.264 C 
ATOM     26  O   UNL     1      25.261  -2.692 130.258  1.00  0.00    -0.298 OA
ENDBRANCH  19  25
BRANCH  20  27
ATOM     27  C   UNL     1      26.586  -0.921 123.948  1.00  0.00     0.017 C 
ATOM     28  C   UNL     1      26.577  -2.111 122.982  1.00  0.00     0.012 C 
ATOM     29  C   UNL     1      25.766   0.258 123.391  1.00  0.00     0.012 C 
ENDBRANCH  20  27
BRANCH  21  30
ATOM     30  O   UNL     1      27.741  -1.608 128.731  1.00  0.00    -0.504 OA
ATOM     31  H   UNL     1      27.663  -0.977 129.516  1.00  0.00     0.293 HD
ENDBRANCH  21  30
BRANCH  22  32
ATOM     32  O   UNL     1      28.071  -0.176 126.290  1.00  0.00    -0.504 OA
ATOM     33  H   UNL     1      28.670  -0.146 125.476  1.00  0.00     0.293 HD
ENDBRANCH  22  32
ENDBRANCH  11  12
BRANCH  10  34
ATOM     34  O   UNL     1      22.184  -5.984 126.814  1.00  0.00    -0.507 OA
ATOM     35  H   UNL     1      22.851  -6.065 126.055  1.00  0.00     0.293 HD
ENDBRANCH  10  34
BRANCH   9  36
ATOM     36  C   UNL     1      15.996  -4.788 127.145  1.00  0.00     0.017 C 
ATOM     37  C   UNL     1      14.920  -5.368 126.221  1.00  0.00     0.012 C 
ATOM     38  C   UNL     1      15.452  -4.567 128.569  1.00  0.00     0.012 C 
ENDBRANCH   9  36
BRANCH   6  39
ATOM     39  C   UNL     1      20.794  -7.981 127.896  1.00  0.00     0.264 C 
ATOM     40  O   UNL     1      21.216  -8.951 127.212  1.00  0.00    -0.298 OA
ENDBRANCH   6  39
BRANCH   8  41
ATOM     41  O   UNL     1      15.956  -7.663 127.169  1.00  0.00    -0.504 OA
ATOM     42  H   UNL     1      15.109  -7.193 126.871  1.00  0.00     0.293 HD
ENDBRANCH   8  41
BRANCH   7  43
ATOM     43  O   UNL     1      18.264  -9.125 127.916  1.00  0.00    -0.504 OA
ATOM     44  H   UNL     1      19.066  -9.730 128.022  1.00  0.00     0.293 HD
ENDBRANCH   7  43
TORSDOF 11
ENDMDL
