MODEL 1
REMARK VINA RESULT:    -3.174      0.000      0.000
REMARK INTER + INTRA:          -3.993
REMARK INTER:                  -3.916
REMARK INTRA:                  -0.077
REMARK UNBOUND:                -0.077
REMARK SMILES CCCCCC(=O)[O-]
REMARK SMILES IDX 4 1 5 2 6 3 7 4 8 5 3 6 2 7 1 8
REMARK H PARENT
REMARK Flexibility Score: inf
ROOT
ATOM      1  C   UNL     1      -4.493  16.539  22.093  1.00  0.00     0.006 C 
ENDROOT
BRANCH   1   2
ATOM      2  C   UNL     1      -3.076  16.322  22.647  1.00  0.00     0.053 C 
BRANCH   2   3
ATOM      3  C   UNL     1      -2.032  16.437  21.579  1.00  0.00     0.041 C 
ATOM      4  O   UNL     1      -1.600  17.567  21.235  1.00  0.00    -0.550 OA
ATOM      5  O   UNL     1      -1.562  15.296  20.941  1.00  0.00    -0.550 OA
ENDBRANCH   2   3
ENDBRANCH   1   2
BRANCH   1   6
ATOM      6  C   UNL     1      -5.209  15.247  21.647  1.00  0.00     0.000 C 
BRANCH   6   7
ATOM      7  C   UNL     1      -6.549  15.464  20.923  1.00  0.00    -0.003 C 
ATOM      8  C   UNL     1      -7.722  14.768  21.613  1.00  0.00     0.004 C 
ENDBRANCH   6   7
ENDBRANCH   1   6
TORSDOF 4
ENDMDL
MODEL 2
REMARK VINA RESULT:    -3.128      0.191      1.157
REMARK INTER + INTRA:          -3.936
REMARK INTER:                  -3.881
REMARK INTRA:                  -0.055
REMARK UNBOUND:                -0.077
REMARK SMILES CCCCCC(=O)[O-]
REMARK SMILES IDX 4 1 5 2 6 3 7 4 8 5 3 6 2 7 1 8
REMARK H PARENT
REMARK Flexibility Score: inf
ROOT
ATOM      1  C   UNL     1      -4.503  16.522  21.962  1.00  0.00     0.006 C 
ENDROOT
BRANCH   1   2
ATOM      2  C   UNL     1      -3.111  16.322  22.583  1.00  0.00     0.053 C 
BRANCH   2   3
ATOM      3  C   UNL     1      -2.019  16.444  21.564  1.00  0.00     0.041 C 
ATOM      4  O   UNL     1      -1.459  15.413  21.109  1.00  0.00    -0.550 OA
ATOM      5  O   UNL     1      -1.598  17.699  21.143  1.00  0.00    -0.550 OA
ENDBRANCH   2   3
ENDBRANCH   1   2
BRANCH   1   6
ATOM      6  C   UNL     1      -5.387  15.259  21.957  1.00  0.00     0.000 C 
BRANCH   6   7
ATOM      7  C   UNL     1      -6.573  15.300  20.976  1.00  0.00    -0.003 C 
ATOM      8  C   UNL     1      -7.886  14.835  21.606  1.00  0.00     0.004 C 
ENDBRANCH   6   7
ENDBRANCH   1   6
TORSDOF 4
ENDMDL
MODEL 3
REMARK VINA RESULT:    -3.115      9.942     12.455
REMARK INTER + INTRA:          -3.921
REMARK INTER:                  -3.815
REMARK INTRA:                  -0.106
REMARK UNBOUND:                -0.077
REMARK SMILES CCCCCC(=O)[O-]
REMARK SMILES IDX 4 1 5 2 6 3 7 4 8 5 3 6 2 7 1 8
REMARK H PARENT
REMARK Flexibility Score: inf
ROOT
ATOM      1  C   UNL     1       8.175  16.110  21.521  1.00  0.00     0.006 C 
ENDROOT
BRANCH   1   2
ATOM      2  C   UNL     1       7.069  16.223  22.583  1.00  0.00     0.053 C 
BRANCH   2   3
ATOM      3  C   UNL     1       5.722  15.874  22.030  1.00  0.00     0.041 C 
ATOM      4  O   UNL     1       5.120  14.844  22.429  1.00  0.00    -0.550 OA
ATOM      5  O   UNL     1       5.146  16.670  21.047  1.00  0.00    -0.550 OA
ENDBRANCH   2   3
ENDBRANCH   1   2
BRANCH   1   6
ATOM      6  C   UNL     1       8.646  17.460  20.944  1.00  0.00     0.000 C 
BRANCH   6   7
ATOM      7  C   UNL     1      10.057  17.448  20.331  1.00  0.00    -0.003 C 
ATOM      8  C   UNL     1      10.556  16.039  20.009  1.00  0.00     0.004 C 
ENDBRANCH   6   7
ENDBRANCH   1   6
TORSDOF 4
ENDMDL
MODEL 4
REMARK VINA RESULT:    -3.042      1.706      2.381
REMARK INTER + INTRA:          -3.831
REMARK INTER:                  -3.667
REMARK INTRA:                  -0.164
REMARK UNBOUND:                -0.077
REMARK SMILES CCCCCC(=O)[O-]
REMARK SMILES IDX 4 1 5 2 6 3 7 4 8 5 3 6 2 7 1 8
REMARK H PARENT
REMARK Flexibility Score: inf
ROOT
ATOM      1  C   UNL     1      -5.446  15.317  21.303  1.00  0.00     0.006 C 
ENDROOT
BRANCH   1   2
ATOM      2  C   UNL     1      -4.776  15.944  22.536  1.00  0.00     0.053 C 
BRANCH   2   3
ATOM      3  C   UNL     1      -4.341  17.354  22.282  1.00  0.00     0.041 C 
ATOM      4  O   UNL     1      -5.176  18.294  22.333  1.00  0.00    -0.550 OA
ATOM      5  O   UNL     1      -3.018  17.626  21.954  1.00  0.00    -0.550 OA
ENDBRANCH   2   3
ENDBRANCH   1   2
BRANCH   1   6
ATOM      6  C   UNL     1      -6.710  14.490  21.615  1.00  0.00     0.000 C 
BRANCH   6   7
ATOM      7  C   UNL     1      -8.023  15.293  21.631  1.00  0.00    -0.003 C 
ATOM      8  C   UNL     1      -7.939  16.593  20.832  1.00  0.00     0.004 C 
ENDBRANCH   6   7
ENDBRANCH   1   6
TORSDOF 4
ENDMDL
MODEL 5
REMARK VINA RESULT:    -3.039      4.440      5.585
REMARK INTER + INTRA:          -3.827
REMARK INTER:                  -3.721
REMARK INTRA:                  -0.105
REMARK UNBOUND:                -0.077
REMARK SMILES CCCCCC(=O)[O-]
REMARK SMILES IDX 4 1 5 2 6 3 7 4 8 5 3 6 2 7 1 8
REMARK H PARENT
REMARK Flexibility Score: inf
ROOT
ATOM      1  C   UNL     1      -7.750  17.014  21.223  1.00  0.00     0.006 C 
ENDROOT
BRANCH   1   2
ATOM      2  C   UNL     1      -8.368  17.541  19.918  1.00  0.00     0.053 C 
BRANCH   2   3
ATOM      3  C   UNL     1      -8.676  19.004  19.993  1.00  0.00     0.041 C 
ATOM      4  O   UNL     1      -8.999  19.528  21.091  1.00  0.00    -0.550 OA
ATOM      5  O   UNL     1      -8.640  19.783  18.844  1.00  0.00    -0.550 OA
ENDBRANCH   2   3
ENDBRANCH   1   2
BRANCH   1   6
ATOM      6  C   UNL     1      -8.043  15.528  21.515  1.00  0.00     0.000 C 
BRANCH   6   7
ATOM      7  C   UNL     1      -6.821  14.597  21.429  1.00  0.00    -0.003 C 
ATOM      8  C   UNL     1      -5.492  15.346  21.512  1.00  0.00     0.004 C 
ENDBRANCH   6   7
ENDBRANCH   1   6
TORSDOF 4
ENDMDL
MODEL 6
REMARK VINA RESULT:    -3.019     13.199     14.707
REMARK INTER + INTRA:          -3.802
REMARK INTER:                  -3.727
REMARK INTRA:                  -0.075
REMARK UNBOUND:                -0.077
REMARK SMILES CCCCCC(=O)[O-]
REMARK SMILES IDX 4 1 5 2 6 3 7 4 8 5 3 6 2 7 1 8
REMARK H PARENT
REMARK Flexibility Score: inf
ROOT
ATOM      1  C   UNL     1      10.338  15.188  20.160  1.00  0.00     0.006 C 
ENDROOT
BRANCH   1   2
ATOM      2  C   UNL     1      11.036  14.525  18.962  1.00  0.00     0.053 C 
BRANCH   2   3
ATOM      3  C   UNL     1      10.736  13.060  18.878  1.00  0.00     0.041 C 
ATOM      4  O   UNL     1      10.703  12.483  17.760  1.00  0.00    -0.550 OA
ATOM      5  O   UNL     1      10.459  12.339  20.033  1.00  0.00    -0.550 OA
ENDBRANCH   2   3
ENDBRANCH   1   2
BRANCH   1   6
ATOM      6  C   UNL     1      10.504  16.720  20.229  1.00  0.00     0.000 C 
BRANCH   6   7
ATOM      7  C   UNL     1       9.227  17.496  20.594  1.00  0.00    -0.003 C 
ATOM      8  C   UNL     1       8.276  16.697  21.485  1.00  0.00     0.004 C 
ENDBRANCH   6   7
ENDBRANCH   1   6
TORSDOF 4
ENDMDL
MODEL 7
REMARK VINA RESULT:    -2.979      9.089     11.677
REMARK INTER + INTRA:          -3.752
REMARK INTER:                  -3.616
REMARK INTRA:                  -0.137
REMARK UNBOUND:                -0.077
REMARK SMILES CCCCCC(=O)[O-]
REMARK SMILES IDX 4 1 5 2 6 3 7 4 8 5 3 6 2 7 1 8
REMARK H PARENT
REMARK Flexibility Score: inf
ROOT
ATOM      1  C   UNL     1       7.210  16.180  22.765  1.00  0.00     0.006 C 
ENDROOT
BRANCH   1   2
ATOM      2  C   UNL     1       6.100  15.280  22.197  1.00  0.00     0.053 C 
BRANCH   2   3
ATOM      3  C   UNL     1       4.914  16.072  21.740  1.00  0.00     0.041 C 
ATOM      4  O   UNL     1       5.031  16.907  20.806  1.00  0.00    -0.550 OA
ATOM      5  O   UNL     1       3.686  15.913  22.371  1.00  0.00    -0.550 OA
ENDBRANCH   2   3
ENDBRANCH   1   2
BRANCH   1   6
ATOM      6  C   UNL     1       8.513  16.184  21.941  1.00  0.00     0.000 C 
BRANCH   6   7
ATOM      7  C   UNL     1       8.587  17.265  20.848  1.00  0.00    -0.003 C 
ATOM      8  C   UNL     1      10.005  17.487  20.322  1.00  0.00     0.004 C 
ENDBRANCH   6   7
ENDBRANCH   1   6
TORSDOF 4
ENDMDL
MODEL 8
REMARK VINA RESULT:    -2.963      3.419      4.926
REMARK INTER + INTRA:          -3.734
REMARK INTER:                  -3.628
REMARK INTRA:                  -0.106
REMARK UNBOUND:                -0.077
REMARK SMILES CCCCCC(=O)[O-]
REMARK SMILES IDX 4 1 5 2 6 3 7 4 8 5 3 6 2 7 1 8
REMARK H PARENT
REMARK Flexibility Score: inf
ROOT
ATOM      1  C   UNL     1      -5.147  15.558  21.512  1.00  0.00     0.006 C 
ENDROOT
BRANCH   1   2
ATOM      2  C   UNL     1      -6.420  14.700  21.578  1.00  0.00     0.053 C 
BRANCH   2   3
ATOM      3  C   UNL     1      -7.660  15.520  21.393  1.00  0.00     0.041 C 
ATOM      4  O   UNL     1      -8.722  15.205  21.990  1.00  0.00    -0.550 OA
ATOM      5  O   UNL     1      -7.650  16.612  20.535  1.00  0.00    -0.550 OA
ENDBRANCH   2   3
ENDBRANCH   1   2
BRANCH   1   6
ATOM      6  C   UNL     1      -4.593  15.987  22.886  1.00  0.00     0.000 C 
BRANCH   6   7
ATOM      7  C   UNL     1      -3.098  16.351  22.899  1.00  0.00    -0.003 C 
ATOM      8  C   UNL     1      -2.379  15.971  21.604  1.00  0.00     0.004 C 
ENDBRANCH   6   7
ENDBRANCH   1   6
TORSDOF 4
ENDMDL
MODEL 9
REMARK VINA RESULT:    -2.870     12.357     13.808
REMARK INTER + INTRA:          -3.619
REMARK INTER:                  -3.448
REMARK INTRA:                  -0.170
REMARK UNBOUND:                -0.077
REMARK SMILES CCCCCC(=O)[O-]
REMARK SMILES IDX 4 1 5 2 6 3 7 4 8 5 3 6 2 7 1 8
REMARK H PARENT
REMARK Flexibility Score: inf
ROOT
ATOM      1  C   UNL     1       9.882  17.042  20.057  1.00  0.00     0.006 C 
ENDROOT
BRANCH   1   2
ATOM      2  C   UNL     1      10.763  15.881  20.545  1.00  0.00     0.053 C 
BRANCH   2   3
ATOM      3  C   UNL     1      10.512  14.622  19.773  1.00  0.00     0.041 C 
ATOM      4  O   UNL     1       9.773  13.723  20.251  1.00  0.00    -0.550 OA
ATOM      5  O   UNL     1      11.121  14.429  18.539  1.00  0.00    -0.550 OA
ENDBRANCH   2   3
ENDBRANCH   1   2
BRANCH   1   6
ATOM      6  C   UNL     1       8.834  17.523  21.081  1.00  0.00     0.000 C 
BRANCH   6   7
ATOM      7  C   UNL     1       7.706  16.519  21.375  1.00  0.00    -0.003 C 
ATOM      8  C   UNL     1       7.461  16.315  22.870  1.00  0.00     0.004 C 
ENDBRANCH   6   7
ENDBRANCH   1   6
TORSDOF 4
ENDMDL
