MODEL 1
REMARK VINA RESULT:    -4.662      0.000      0.000
REMARK INTER + INTRA:          -4.798
REMARK INTER:                  -4.798
REMARK INTRA:                   0.000
REMARK UNBOUND:                 0.000
REMARK SMILES O=c1ccc2ccc(O)cc2o1
REMARK SMILES IDX 6 1 7 2 8 3 10 4 11 5 5 6 4 7 3 8 2 9 1 10 12 11 9 12
REMARK H PARENT 9 13
REMARK Flexibility Score: inf
ROOT
ATOM      1  C   UNL     1       3.602 -15.116  16.958  1.00  0.00     0.016 A 
ATOM      2  C   UNL     1       2.493 -14.385  16.522  1.00  0.00     0.047 A 
ATOM      3  C   UNL     1       2.002 -14.554  15.218  1.00  0.00     0.119 A 
ATOM      4  C   UNL     1       2.626 -15.456  14.348  1.00  0.00     0.094 A 
ATOM      5  C   UNL     1       3.737 -16.191  14.776  1.00  0.00     0.142 A 
ATOM      6  C   UNL     1       4.228 -16.021  16.089  1.00  0.00     0.018 A 
ATOM      7  C   UNL     1       5.340 -16.769  16.487  1.00  0.00     0.019 A 
ATOM      8  C   UNL     1       5.927 -17.656  15.586  1.00  0.00     0.094 A 
ATOM      9  C   UNL     1       5.385 -17.774  14.301  1.00  0.00     0.336 A 
ATOM     10  O   UNL     1       5.900 -18.569  13.472  1.00  0.00    -0.246 OA
ATOM     11  O   UNL     1       4.326 -17.049  13.947  1.00  0.00    -0.423 OA
ENDROOT
BRANCH   3  12
ATOM     12  O   UNL     1       0.897 -13.829  14.777  1.00  0.00    -0.508 OA
ATOM     13  H   UNL     1       0.018 -14.284  14.558  1.00  0.00     0.293 HD
ENDBRANCH   3  12
TORSDOF 1
ENDMDL
MODEL 2
REMARK VINA RESULT:    -4.579      2.016      2.264
REMARK INTER + INTRA:          -4.713
REMARK INTER:                  -4.713
REMARK INTRA:                   0.000
REMARK UNBOUND:                 0.000
REMARK SMILES O=c1ccc2ccc(O)cc2o1
REMARK SMILES IDX 6 1 7 2 8 3 10 4 11 5 5 6 4 7 3 8 2 9 1 10 12 11 9 12
REMARK H PARENT 9 13
REMARK Flexibility Score: inf
ROOT
ATOM      1  C   UNL     1       2.676 -15.714  15.092  1.00  0.00     0.016 A 
ATOM      2  C   UNL     1       2.067 -14.485  15.367  1.00  0.00     0.047 A 
ATOM      3  C   UNL     1       2.821 -13.302  15.345  1.00  0.00     0.119 A 
ATOM      4  C   UNL     1       4.188 -13.350  15.047  1.00  0.00     0.094 A 
ATOM      5  C   UNL     1       4.805 -14.575  14.771  1.00  0.00     0.142 A 
ATOM      6  C   UNL     1       4.044 -15.765  14.793  1.00  0.00     0.018 A 
ATOM      7  C   UNL     1       4.689 -16.973  14.514  1.00  0.00     0.019 A 
ATOM      8  C   UNL     1       6.053 -16.970  14.223  1.00  0.00     0.094 A 
ATOM      9  C   UNL     1       6.742 -15.752  14.218  1.00  0.00     0.336 A 
ATOM     10  O   UNL     1       7.973 -15.729  13.958  1.00  0.00    -0.246 OA
ATOM     11  O   UNL     1       6.105 -14.616  14.488  1.00  0.00    -0.423 OA
ENDROOT
BRANCH   3  12
ATOM     12  O   UNL     1       2.221 -12.075  15.618  1.00  0.00    -0.508 OA
ATOM     13  H   UNL     1       1.219 -11.944  15.531  1.00  0.00     0.293 HD
ENDBRANCH   3  12
TORSDOF 1
ENDMDL
MODEL 3
REMARK VINA RESULT:    -4.458      1.337      4.404
REMARK INTER + INTRA:          -4.589
REMARK INTER:                  -4.589
REMARK INTRA:                   0.000
REMARK UNBOUND:                 0.000
REMARK SMILES O=c1ccc2ccc(O)cc2o1
REMARK SMILES IDX 6 1 7 2 8 3 10 4 11 5 5 6 4 7 3 8 2 9 1 10 12 11 9 12
REMARK H PARENT 9 13
REMARK Flexibility Score: inf
ROOT
ATOM      1  C   UNL     1       5.248 -18.270  16.783  1.00  0.00     0.016 A 
ATOM      2  C   UNL     1       5.847 -19.317  16.075  1.00  0.00     0.047 A 
ATOM      3  C   UNL     1       5.742 -19.377  14.677  1.00  0.00     0.119 A 
ATOM      4  C   UNL     1       5.034 -18.385  13.987  1.00  0.00     0.094 A 
ATOM      5  C   UNL     1       4.432 -17.335  14.686  1.00  0.00     0.142 A 
ATOM      6  C   UNL     1       4.539 -17.276  16.094  1.00  0.00     0.018 A 
ATOM      7  C   UNL     1       3.927 -16.214  16.765  1.00  0.00     0.019 A 
ATOM      8  C   UNL     1       3.233 -15.250  16.034  1.00  0.00     0.094 A 
ATOM      9  C   UNL     1       3.170 -15.372  14.641  1.00  0.00     0.336 A 
ATOM     10  O   UNL     1       2.548 -14.513  13.963  1.00  0.00    -0.246 OA
ATOM     11  O   UNL     1       3.762 -16.393  14.027  1.00  0.00    -0.423 OA
ENDROOT
BRANCH   3  12
ATOM     12  O   UNL     1       6.336 -20.417  13.966  1.00  0.00    -0.508 OA
ATOM     13  H   UNL     1       6.345 -21.365  14.323  1.00  0.00     0.293 HD
ENDBRANCH   3  12
TORSDOF 1
ENDMDL
MODEL 4
REMARK VINA RESULT:    -4.309      2.836      3.235
REMARK INTER + INTRA:          -4.435
REMARK INTER:                  -4.435
REMARK INTRA:                   0.000
REMARK UNBOUND:                 0.000
REMARK SMILES O=c1ccc2ccc(O)cc2o1
REMARK SMILES IDX 6 1 7 2 8 3 10 4 11 5 5 6 4 7 3 8 2 9 1 10 12 11 9 12
REMARK H PARENT 9 13
REMARK Flexibility Score: inf
ROOT
ATOM      1  C   UNL     1       3.909 -16.162  15.175  1.00  0.00     0.016 A 
ATOM      2  C   UNL     1       2.577 -15.782  14.983  1.00  0.00     0.047 A 
ATOM      3  C   UNL     1       2.249 -14.434  14.774  1.00  0.00     0.119 A 
ATOM      4  C   UNL     1       3.259 -13.464  14.759  1.00  0.00     0.094 A 
ATOM      5  C   UNL     1       4.594 -13.835  14.949  1.00  0.00     0.142 A 
ATOM      6  C   UNL     1       4.922 -15.193  15.158  1.00  0.00     0.018 A 
ATOM      7  C   UNL     1       6.265 -15.533  15.346  1.00  0.00     0.019 A 
ATOM      8  C   UNL     1       7.235 -14.532  15.322  1.00  0.00     0.094 A 
ATOM      9  C   UNL     1       6.836 -13.208  15.108  1.00  0.00     0.336 A 
ATOM     10  O   UNL     1       7.696 -12.289  15.083  1.00  0.00    -0.246 OA
ATOM     11  O   UNL     1       5.551 -12.911  14.932  1.00  0.00    -0.423 OA
ENDROOT
BRANCH   3  12
ATOM     12  O   UNL     1       0.924 -14.048  14.583  1.00  0.00    -0.508 OA
ATOM     13  H   UNL     1       0.681 -13.099  14.321  1.00  0.00     0.293 HD
ENDBRANCH   3  12
TORSDOF 1
ENDMDL
MODEL 5
REMARK VINA RESULT:    -4.278      1.600      4.494
REMARK INTER + INTRA:          -4.403
REMARK INTER:                  -4.403
REMARK INTRA:                   0.000
REMARK UNBOUND:                 0.000
REMARK SMILES O=c1ccc2ccc(O)cc2o1
REMARK SMILES IDX 6 1 7 2 8 3 10 4 11 5 5 6 4 7 3 8 2 9 1 10 12 11 9 12
REMARK H PARENT 9 13
REMARK Flexibility Score: inf
ROOT
ATOM      1  C   UNL     1       6.830 -16.002  14.828  1.00  0.00     0.016 A 
ATOM      2  C   UNL     1       7.134 -17.363  14.716  1.00  0.00     0.047 A 
ATOM      3  C   UNL     1       6.119 -18.295  14.451  1.00  0.00     0.119 A 
ATOM      4  C   UNL     1       4.796 -17.863  14.299  1.00  0.00     0.094 A 
ATOM      5  C   UNL     1       4.483 -16.504  14.409  1.00  0.00     0.142 A 
ATOM      6  C   UNL     1       5.506 -15.567  14.675  1.00  0.00     0.018 A 
ATOM      7  C   UNL     1       5.162 -14.216  14.780  1.00  0.00     0.019 A 
ATOM      8  C   UNL     1       3.831 -13.834  14.620  1.00  0.00     0.094 A 
ATOM      9  C   UNL     1       2.870 -14.818  14.357  1.00  0.00     0.336 A 
ATOM     10  O   UNL     1       1.663 -14.494  14.210  1.00  0.00    -0.246 OA
ATOM     11  O   UNL     1       3.225 -16.097  14.262  1.00  0.00    -0.423 OA
ENDROOT
BRANCH   3  12
ATOM     12  O   UNL     1       6.415 -19.651  14.338  1.00  0.00    -0.508 OA
ATOM     13  H   UNL     1       6.828 -20.169  15.106  1.00  0.00     0.293 HD
ENDBRANCH   3  12
TORSDOF 1
ENDMDL
MODEL 6
REMARK VINA RESULT:    -4.157      1.477      4.179
REMARK INTER + INTRA:          -4.278
REMARK INTER:                  -4.278
REMARK INTRA:                   0.000
REMARK UNBOUND:                 0.000
REMARK SMILES O=c1ccc2ccc(O)cc2o1
REMARK SMILES IDX 6 1 7 2 8 3 10 4 11 5 5 6 4 7 3 8 2 9 1 10 12 11 9 12
REMARK H PARENT 9 13
REMARK Flexibility Score: inf
ROOT
ATOM      1  C   UNL     1       4.283 -17.196  17.096  1.00  0.00     0.016 A 
ATOM      2  C   UNL     1       4.557 -18.126  16.088  1.00  0.00     0.047 A 
ATOM      3  C   UNL     1       4.449 -17.759  14.739  1.00  0.00     0.119 A 
ATOM      4  C   UNL     1       4.064 -16.456  14.398  1.00  0.00     0.094 A 
ATOM      5  C   UNL     1       3.788 -15.520  15.399  1.00  0.00     0.142 A 
ATOM      6  C   UNL     1       3.898 -15.891  16.758  1.00  0.00     0.018 A 
ATOM      7  C   UNL     1       3.615 -14.933  17.736  1.00  0.00     0.019 A 
ATOM      8  C   UNL     1       3.236 -13.649  17.347  1.00  0.00     0.094 A 
ATOM      9  C   UNL     1       3.149 -13.352  15.982  1.00  0.00     0.336 A 
ATOM     10  O   UNL     1       2.808 -12.199  15.611  1.00  0.00    -0.246 OA
ATOM     11  O   UNL     1       3.424 -14.283  15.071  1.00  0.00    -0.423 OA
ENDROOT
BRANCH   3  12
ATOM     12  O   UNL     1       4.721 -18.680  13.730  1.00  0.00    -0.508 OA
ATOM     13  H   UNL     1       5.504 -19.320  13.794  1.00  0.00     0.293 HD
ENDBRANCH   3  12
TORSDOF 1
ENDMDL
MODEL 7
REMARK VINA RESULT:    -4.114      8.221     11.316
REMARK INTER + INTRA:          -4.234
REMARK INTER:                  -4.234
REMARK INTRA:                   0.000
REMARK UNBOUND:                 0.000
REMARK SMILES O=c1ccc2ccc(O)cc2o1
REMARK SMILES IDX 6 1 7 2 8 3 10 4 11 5 5 6 4 7 3 8 2 9 1 10 12 11 9 12
REMARK H PARENT 9 13
REMARK Flexibility Score: inf
ROOT
ATOM      1  C   UNL     1      -0.418  -6.853  13.652  1.00  0.00     0.016 A 
ATOM      2  C   UNL     1       0.383  -7.914  14.083  1.00  0.00     0.047 A 
ATOM      3  C   UNL     1      -0.198  -9.042  14.683  1.00  0.00     0.119 A 
ATOM      4  C   UNL     1      -1.586  -9.106  14.851  1.00  0.00     0.094 A 
ATOM      5  C   UNL     1      -2.396  -8.049  14.423  1.00  0.00     0.142 A 
ATOM      6  C   UNL     1      -1.809  -6.915  13.818  1.00  0.00     0.018 A 
ATOM      7  C   UNL     1      -2.644  -5.875  13.401  1.00  0.00     0.019 A 
ATOM      8  C   UNL     1      -4.022  -5.985  13.590  1.00  0.00     0.094 A 
ATOM      9  C   UNL     1      -4.533  -7.139  14.194  1.00  0.00     0.336 A 
ATOM     10  O   UNL     1      -5.773  -7.257  14.374  1.00  0.00    -0.246 OA
ATOM     11  O   UNL     1      -3.715  -8.114  14.583  1.00  0.00    -0.423 OA
ENDROOT
BRANCH   3  12
ATOM     12  O   UNL     1       0.595 -10.103  15.115  1.00  0.00    -0.508 OA
ATOM     13  H   UNL     1       0.186 -10.966  15.456  1.00  0.00     0.293 HD
ENDBRANCH   3  12
TORSDOF 1
ENDMDL
MODEL 8
REMARK VINA RESULT:    -3.939      2.737      4.494
REMARK INTER + INTRA:          -4.054
REMARK INTER:                  -4.054
REMARK INTRA:                   0.000
REMARK UNBOUND:                 0.000
REMARK SMILES O=c1ccc2ccc(O)cc2o1
REMARK SMILES IDX 6 1 7 2 8 3 10 4 11 5 5 6 4 7 3 8 2 9 1 10 12 11 9 12
REMARK H PARENT 9 13
REMARK Flexibility Score: inf
ROOT
ATOM      1  C   UNL     1       3.623 -16.272  15.140  1.00  0.00     0.016 A 
ATOM      2  C   UNL     1       4.259 -17.511  15.260  1.00  0.00     0.047 A 
ATOM      3  C   UNL     1       5.649 -17.611  15.098  1.00  0.00     0.119 A 
ATOM      4  C   UNL     1       6.404 -16.466  14.813  1.00  0.00     0.094 A 
ATOM      5  C   UNL     1       5.776 -15.223  14.692  1.00  0.00     0.142 A 
ATOM      6  C   UNL     1       4.376 -15.124  14.857  1.00  0.00     0.018 A 
ATOM      7  C   UNL     1       3.777 -13.867  14.729  1.00  0.00     0.019 A 
ATOM      8  C   UNL     1       4.570 -12.756  14.446  1.00  0.00     0.094 A 
ATOM      9  C   UNL     1       5.951 -12.929  14.297  1.00  0.00     0.336 A 
ATOM     10  O   UNL     1       6.684 -11.939  14.041  1.00  0.00    -0.246 OA
ATOM     11  O   UNL     1       6.496 -14.137  14.423  1.00  0.00    -0.423 OA
ENDROOT
BRANCH   3  12
ATOM     12  O   UNL     1       6.290 -18.843  15.215  1.00  0.00    -0.508 OA
ATOM     13  H   UNL     1       7.182 -18.933  15.687  1.00  0.00     0.293 HD
ENDBRANCH   3  12
TORSDOF 1
ENDMDL
MODEL 9
REMARK VINA RESULT:    -3.937      2.326      2.928
REMARK INTER + INTRA:          -4.052
REMARK INTER:                  -4.052
REMARK INTRA:                   0.000
REMARK UNBOUND:                 0.000
REMARK SMILES O=c1ccc2ccc(O)cc2o1
REMARK SMILES IDX 6 1 7 2 8 3 10 4 11 5 5 6 4 7 3 8 2 9 1 10 12 11 9 12
REMARK H PARENT 9 13
REMARK Flexibility Score: inf
ROOT
ATOM      1  C   UNL     1       3.233 -15.674  14.451  1.00  0.00     0.016 A 
ATOM      2  C   UNL     1       2.796 -14.347  14.480  1.00  0.00     0.047 A 
ATOM      3  C   UNL     1       2.795 -13.628  15.686  1.00  0.00     0.119 A 
ATOM      4  C   UNL     1       3.234 -14.243  16.865  1.00  0.00     0.094 A 
ATOM      5  C   UNL     1       3.674 -15.570  16.845  1.00  0.00     0.142 A 
ATOM      6  C   UNL     1       3.674 -16.291  15.630  1.00  0.00     0.018 A 
ATOM      7  C   UNL     1       4.119 -17.617  15.641  1.00  0.00     0.019 A 
ATOM      8  C   UNL     1       4.547 -18.185  16.840  1.00  0.00     0.094 A 
ATOM      9  C   UNL     1       4.520 -17.410  18.005  1.00  0.00     0.336 A 
ATOM     10  O   UNL     1       4.902 -17.904  19.098  1.00  0.00    -0.246 OA
ATOM     11  O   UNL     1       4.092 -16.150  17.967  1.00  0.00    -0.423 OA
ENDROOT
BRANCH   3  12
ATOM     12  O   UNL     1       2.360 -12.306  15.722  1.00  0.00    -0.508 OA
ATOM     13  H   UNL     1       2.894 -11.585  16.195  1.00  0.00     0.293 HD
ENDBRANCH   3  12
TORSDOF 1
ENDMDL
