MODEL 1
REMARK VINA RESULT:    -4.480      0.000      0.000
REMARK INTER + INTRA:          -7.659
REMARK INTER:                  -6.838
REMARK INTRA:                  -0.821
REMARK UNBOUND:                -0.821
REMARK SMILES O=C([O-])CCCCCCCCC(=O)[O-]
REMARK SMILES IDX 7 1 6 2 5 3 4 4 2 5 1 6 3 7 8 8 9 9 10 10 11 11 12 12 13 13
REMARK SMILES IDX 14 14
REMARK H PARENT
REMARK Flexibility Score: inf
ROOT
ATOM      1  C   UNL     1      86.860  77.678  68.041  1.00  0.00     0.000 C 
ENDROOT
BRANCH   1   2
ATOM      2  C   UNL     1      85.900  76.779  67.247  1.00  0.00     0.000 C 
BRANCH   2   3
ATOM      3  C   UNL     1      86.575  75.449  66.879  1.00  0.00     0.006 C 
BRANCH   3   4
ATOM      4  C   UNL     1      87.881  75.226  67.652  1.00  0.00     0.053 C 
BRANCH   4   5
ATOM      5  C   UNL     1      88.085  73.781  67.994  1.00  0.00     0.041 C 
ATOM      6  O   UNL     1      87.613  72.882  67.249  1.00  0.00    -0.550 OA
ATOM      7  O   UNL     1      88.766  73.428  69.152  1.00  0.00    -0.550 OA
ENDBRANCH   4   5
ENDBRANCH   3   4
ENDBRANCH   2   3
ENDBRANCH   1   2
BRANCH   1   8
ATOM      8  C   UNL     1      86.284  78.106  69.400  1.00  0.00     0.000 C 
BRANCH   8   9
ATOM      9  C   UNL     1      86.616  77.112  70.523  1.00  0.00     0.000 C 
BRANCH   9  10
ATOM     10  C   UNL     1      85.503  76.064  70.675  1.00  0.00     0.006 C 
BRANCH  10  11
ATOM     11  C   UNL     1      86.059  74.657  70.926  1.00  0.00     0.053 C 
BRANCH  11  12
ATOM     12  C   UNL     1      86.480  74.472  72.352  1.00  0.00     0.041 C 
ATOM     13  O   UNL     1      85.648  74.084  73.214  1.00  0.00    -0.550 OA
ATOM     14  O   UNL     1      87.800  74.697  72.720  1.00  0.00    -0.550 OA
ENDBRANCH  11  12
ENDBRANCH  10  11
ENDBRANCH   9  10
ENDBRANCH   8   9
ENDBRANCH   1   8
TORSDOF 9
ENDMDL
MODEL 2
REMARK VINA RESULT:    -4.356      1.562      2.550
REMARK INTER + INTRA:          -7.469
REMARK INTER:                  -6.710
REMARK INTRA:                  -0.758
REMARK UNBOUND:                -0.821
REMARK SMILES O=C([O-])CCCCCCCCC(=O)[O-]
REMARK SMILES IDX 7 1 6 2 5 3 4 4 2 5 1 6 3 7 8 8 9 9 10 10 11 11 12 12 13 13
REMARK SMILES IDX 14 14
REMARK H PARENT
REMARK Flexibility Score: inf
ROOT
ATOM      1  C   UNL     1      86.663  76.941  70.192  1.00  0.00     0.000 C 
ENDROOT
BRANCH   1   2
ATOM      2  C   UNL     1      86.301  77.805  68.974  1.00  0.00     0.000 C 
BRANCH   2   3
ATOM      3  C   UNL     1      87.100  77.368  67.737  1.00  0.00     0.006 C 
BRANCH   3   4
ATOM      4  C   UNL     1      86.523  76.102  67.090  1.00  0.00     0.053 C 
BRANCH   4   5
ATOM      5  C   UNL     1      87.422  74.919  67.286  1.00  0.00     0.041 C 
ATOM      6  O   UNL     1      88.574  75.072  67.772  1.00  0.00    -0.550 OA
ATOM      7  O   UNL     1      87.000  73.652  66.901  1.00  0.00    -0.550 OA
ENDBRANCH   4   5
ENDBRANCH   3   4
ENDBRANCH   2   3
ENDBRANCH   1   2
BRANCH   1   8
ATOM      8  C   UNL     1      85.495  76.056  70.658  1.00  0.00     0.000 C 
BRANCH   8   9
ATOM      9  C   UNL     1      85.897  74.582  70.818  1.00  0.00     0.000 C 
BRANCH   9  10
ATOM     10  C   UNL     1      87.397  74.452  71.124  1.00  0.00     0.006 C 
BRANCH  10  11
ATOM     11  C   UNL     1      87.678  74.355  72.628  1.00  0.00     0.053 C 
BRANCH  11  12
ATOM     12  C   UNL     1      89.004  73.717  72.905  1.00  0.00     0.041 C 
ATOM     13  O   UNL     1      89.806  74.246  73.719  1.00  0.00    -0.550 OA
ATOM     14  O   UNL     1      89.340  72.517  72.288  1.00  0.00    -0.550 OA
ENDBRANCH  11  12
ENDBRANCH  10  11
ENDBRANCH   9  10
ENDBRANCH   8   9
ENDBRANCH   1   8
TORSDOF 9
ENDMDL
MODEL 3
REMARK VINA RESULT:    -4.323      2.250      3.720
REMARK INTER + INTRA:          -7.419
REMARK INTER:                  -6.575
REMARK INTRA:                  -0.843
REMARK UNBOUND:                -0.821
REMARK SMILES O=C([O-])CCCCCCCCC(=O)[O-]
REMARK SMILES IDX 7 1 6 2 5 3 4 4 2 5 1 6 3 7 8 8 9 9 10 10 11 11 12 12 13 13
REMARK SMILES IDX 14 14
REMARK H PARENT
REMARK Flexibility Score: inf
ROOT
ATOM      1  C   UNL     1      87.150  75.085  66.895  1.00  0.00     0.000 C 
ENDROOT
BRANCH   1   2
ATOM      2  C   UNL     1      88.360  75.993  67.157  1.00  0.00     0.000 C 
BRANCH   2   3
ATOM      3  C   UNL     1      87.908  77.396  67.588  1.00  0.00     0.006 C 
BRANCH   3   4
ATOM      4  C   UNL     1      86.443  77.422  68.041  1.00  0.00     0.053 C 
BRANCH   4   5
ATOM      5  C   UNL     1      86.255  78.257  69.271  1.00  0.00     0.041 C 
ATOM      6  O   UNL     1      86.724  77.871  70.376  1.00  0.00    -0.550 OA
ATOM      7  O   UNL     1      85.535  79.443  69.206  1.00  0.00    -0.550 OA
ENDBRANCH   4   5
ENDBRANCH   3   4
ENDBRANCH   2   3
ENDBRANCH   1   2
BRANCH   1   8
ATOM      8  C   UNL     1      87.018  73.957  67.932  1.00  0.00     0.000 C 
BRANCH   8   9
ATOM      9  C   UNL     1      88.173  73.948  68.946  1.00  0.00     0.000 C 
BRANCH   9  10
ATOM     10  C   UNL     1      87.670  74.303  70.353  1.00  0.00     0.006 C 
BRANCH  10  11
ATOM     11  C   UNL     1      86.143  74.441  70.409  1.00  0.00     0.053 C 
BRANCH  11  12
ATOM     12  C   UNL     1      85.611  74.164  71.781  1.00  0.00     0.041 C 
ATOM     13  O   UNL     1      86.334  74.356  72.794  1.00  0.00    -0.550 OA
ATOM     14  O   UNL     1      84.302  73.726  71.942  1.00  0.00    -0.550 OA
ENDBRANCH  11  12
ENDBRANCH  10  11
ENDBRANCH   9  10
ENDBRANCH   8   9
ENDBRANCH   1   8
TORSDOF 9
ENDMDL
MODEL 4
REMARK VINA RESULT:    -4.264      2.692      3.743
REMARK INTER + INTRA:          -7.328
REMARK INTER:                  -6.849
REMARK INTRA:                  -0.479
REMARK UNBOUND:                -0.821
REMARK SMILES O=C([O-])CCCCCCCCC(=O)[O-]
REMARK SMILES IDX 7 1 6 2 5 3 4 4 2 5 1 6 3 7 8 8 9 9 10 10 11 11 12 12 13 13
REMARK SMILES IDX 14 14
REMARK H PARENT
REMARK Flexibility Score: inf
ROOT
ATOM      1  C   UNL     1      86.058  75.871  70.476  1.00  0.00     0.000 C 
ENDROOT
BRANCH   1   2
ATOM      2  C   UNL     1      86.518  75.731  69.017  1.00  0.00     0.000 C 
BRANCH   2   3
ATOM      3  C   UNL     1      87.996  75.318  68.946  1.00  0.00     0.006 C 
BRANCH   3   4
ATOM      4  C   UNL     1      88.615  75.610  67.573  1.00  0.00     0.053 C 
BRANCH   4   5
ATOM      5  C   UNL     1      88.938  77.063  67.406  1.00  0.00     0.041 C 
ATOM      6  O   UNL     1      90.056  77.510  67.775  1.00  0.00    -0.550 OA
ATOM      7  O   UNL     1      87.992  77.931  66.875  1.00  0.00    -0.550 OA
ENDBRANCH   4   5
ENDBRANCH   3   4
ENDBRANCH   2   3
ENDBRANCH   1   2
BRANCH   1   8
ATOM      8  C   UNL     1      85.827  74.513  71.158  1.00  0.00     0.000 C 
BRANCH   8   9
ATOM      9  C   UNL     1      86.489  74.425  72.542  1.00  0.00     0.000 C 
BRANCH   9  10
ATOM     10  C   UNL     1      88.020  74.432  72.419  1.00  0.00     0.006 C 
BRANCH  10  11
ATOM     11  C   UNL     1      88.674  73.296  73.215  1.00  0.00     0.053 C 
BRANCH  11  12
ATOM     12  C   UNL     1      89.731  72.596  72.417  1.00  0.00     0.041 C 
ATOM     13  O   UNL     1      90.819  72.265  72.957  1.00  0.00    -0.550 OA
ATOM     14  O   UNL     1      89.499  72.279  71.084  1.00  0.00    -0.550 OA
ENDBRANCH  11  12
ENDBRANCH  10  11
ENDBRANCH   9  10
ENDBRANCH   8   9
ENDBRANCH   1   8
TORSDOF 9
ENDMDL
MODEL 5
REMARK VINA RESULT:    -4.219      2.310      5.031
REMARK INTER + INTRA:          -7.260
REMARK INTER:                  -6.369
REMARK INTRA:                  -0.891
REMARK UNBOUND:                -0.821
REMARK SMILES O=C([O-])CCCCCCCCC(=O)[O-]
REMARK SMILES IDX 7 1 6 2 5 3 4 4 2 5 1 6 3 7 8 8 9 9 10 10 11 11 12 12 13 13
REMARK SMILES IDX 14 14
REMARK H PARENT
REMARK Flexibility Score: inf
ROOT
ATOM      1  C   UNL     1      88.524  73.838  68.838  1.00  0.00     0.000 C 
ENDROOT
BRANCH   1   2
ATOM      2  C   UNL     1      88.106  73.792  70.316  1.00  0.00     0.000 C 
BRANCH   2   3
ATOM      3  C   UNL     1      87.229  75.002  70.674  1.00  0.00     0.006 C 
BRANCH   3   4
ATOM      4  C   UNL     1      85.731  74.675  70.604  1.00  0.00     0.053 C 
BRANCH   4   5
ATOM      5  C   UNL     1      85.186  74.273  71.941  1.00  0.00     0.041 C 
ATOM      6  O   UNL     1      83.945  74.127  72.100  1.00  0.00    -0.550 OA
ATOM      7  O   UNL     1      86.044  74.093  73.018  1.00  0.00    -0.550 OA
ENDBRANCH   4   5
ENDBRANCH   3   4
ENDBRANCH   2   3
ENDBRANCH   1   2
BRANCH   1   8
ATOM      8  C   UNL     1      87.608  72.994  67.937  1.00  0.00     0.000 C 
BRANCH   8   9
ATOM      9  C   UNL     1      86.861  73.841  66.895  1.00  0.00     0.000 C 
BRANCH   9  10
ATOM     10  C   UNL     1      87.353  75.295  66.915  1.00  0.00     0.006 C 
BRANCH  10  11
ATOM     11  C   UNL     1      86.232  76.285  67.254  1.00  0.00     0.053 C 
BRANCH  11  12
ATOM     12  C   UNL     1      86.775  77.588  67.758  1.00  0.00     0.041 C 
ATOM     13  O   UNL     1      86.193  78.199  68.692  1.00  0.00    -0.550 OA
ATOM     14  O   UNL     1      87.944  78.108  67.216  1.00  0.00    -0.550 OA
ENDBRANCH  11  12
ENDBRANCH  10  11
ENDBRANCH   9  10
ENDBRANCH   8   9
ENDBRANCH   1   8
TORSDOF 9
ENDMDL
MODEL 6
REMARK VINA RESULT:    -4.144      2.191      4.280
REMARK INTER + INTRA:          -7.146
REMARK INTER:                  -6.318
REMARK INTRA:                  -0.829
REMARK UNBOUND:                -0.821
REMARK SMILES O=C([O-])CCCCCCCCC(=O)[O-]
REMARK SMILES IDX 7 1 6 2 5 3 4 4 2 5 1 6 3 7 8 8 9 9 10 10 11 11 12 12 13 13
REMARK SMILES IDX 14 14
REMARK H PARENT
REMARK Flexibility Score: inf
ROOT
ATOM      1  C   UNL     1      87.262  73.879  67.632  1.00  0.00     0.000 C 
ENDROOT
BRANCH   1   2
ATOM      2  C   UNL     1      86.855  73.941  69.112  1.00  0.00     0.000 C 
BRANCH   2   3
ATOM      3  C   UNL     1      88.094  74.028  70.017  1.00  0.00     0.006 C 
BRANCH   3   4
ATOM      4  C   UNL     1      87.723  74.153  71.500  1.00  0.00     0.053 C 
BRANCH   4   5
ATOM      5  C   UNL     1      88.755  73.525  72.387  1.00  0.00     0.041 C 
ATOM      6  O   UNL     1      89.126  74.109  73.439  1.00  0.00    -0.550 OA
ATOM      7  O   UNL     1      89.331  72.311  72.034  1.00  0.00    -0.550 OA
ENDBRANCH   4   5
ENDBRANCH   3   4
ENDBRANCH   2   3
ENDBRANCH   1   2
BRANCH   1   8
ATOM      8  C   UNL     1      86.993  75.198  66.889  1.00  0.00     0.000 C 
BRANCH   8   9
ATOM      9  C   UNL     1      88.215  76.129  66.875  1.00  0.00     0.000 C 
BRANCH   9  10
ATOM     10  C   UNL     1      87.846  77.525  67.398  1.00  0.00     0.006 C 
BRANCH  10  11
ATOM     11  C   UNL     1      86.524  77.525  68.177  1.00  0.00     0.053 C 
BRANCH  11  12
ATOM     12  C   UNL     1      86.752  77.525  69.658  1.00  0.00     0.041 C 
ATOM     13  O   UNL     1      87.921  77.597  70.120  1.00  0.00    -0.550 OA
ATOM     14  O   UNL     1      85.668  77.479  70.526  1.00  0.00    -0.550 OA
ENDBRANCH  11  12
ENDBRANCH  10  11
ENDBRANCH   9  10
ENDBRANCH   8   9
ENDBRANCH   1   8
TORSDOF 9
ENDMDL
MODEL 7
REMARK VINA RESULT:    -3.952     13.361     15.067
REMARK INTER + INTRA:          -6.852
REMARK INTER:                  -6.390
REMARK INTRA:                  -0.463
REMARK UNBOUND:                -0.821
REMARK SMILES O=C([O-])CCCCCCCCC(=O)[O-]
REMARK SMILES IDX 7 1 6 2 5 3 4 4 2 5 1 6 3 7 8 8 9 9 10 10 11 11 12 12 13 13
REMARK SMILES IDX 14 14
REMARK H PARENT
REMARK Flexibility Score: inf
ROOT
ATOM      1  C   UNL     1      96.242  83.871  78.156  1.00  0.00     0.000 C 
ENDROOT
BRANCH   1   2
ATOM      2  C   UNL     1      95.705  82.944  79.256  1.00  0.00     0.000 C 
BRANCH   2   3
ATOM      3  C   UNL     1      96.643  81.746  79.468  1.00  0.00     0.006 C 
BRANCH   3   4
ATOM      4  C   UNL     1      98.085  82.054  79.045  1.00  0.00     0.053 C 
BRANCH   4   5
ATOM      5  C   UNL     1      99.002  82.153  80.226  1.00  0.00     0.041 C 
ATOM      6  O   UNL     1      98.529  82.236  81.390  1.00  0.00    -0.550 OA
ATOM      7  O   UNL     1     100.378  82.187  80.038  1.00  0.00    -0.550 OA
ENDBRANCH   4   5
ENDBRANCH   3   4
ENDBRANCH   2   3
ENDBRANCH   1   2
BRANCH   1   8
ATOM      8  C   UNL     1      95.135  84.708  77.494  1.00  0.00     0.000 C 
BRANCH   8   9
ATOM      9  C   UNL     1      93.738  84.383  78.044  1.00  0.00     0.000 C 
BRANCH   9  10
ATOM     10  C   UNL     1      92.868  83.714  76.970  1.00  0.00     0.006 C 
BRANCH  10  11
ATOM     11  C   UNL     1      91.506  83.267  77.518  1.00  0.00     0.053 C 
BRANCH  11  12
ATOM     12  C   UNL     1      90.373  83.912  76.780  1.00  0.00     0.041 C 
ATOM     13  O   UNL     1      90.601  84.781  75.899  1.00  0.00    -0.550 OA
ATOM     14  O   UNL     1      89.064  83.525  77.044  1.00  0.00    -0.550 OA
ENDBRANCH  11  12
ENDBRANCH  10  11
ENDBRANCH   9  10
ENDBRANCH   8   9
ENDBRANCH   1   8
TORSDOF 9
ENDMDL
MODEL 8
REMARK VINA RESULT:    -3.942     13.389     15.115
REMARK INTER + INTRA:          -6.837
REMARK INTER:                  -6.180
REMARK INTRA:                  -0.657
REMARK UNBOUND:                -0.821
REMARK SMILES O=C([O-])CCCCCCCCC(=O)[O-]
REMARK SMILES IDX 7 1 6 2 5 3 4 4 2 5 1 6 3 7 8 8 9 9 10 10 11 11 12 12 13 13
REMARK SMILES IDX 14 14
REMARK H PARENT
REMARK Flexibility Score: inf
ROOT
ATOM      1  C   UNL     1      94.817  84.989  77.987  1.00  0.00     0.000 C 
ENDROOT
BRANCH   1   2
ATOM      2  C   UNL     1      94.176  84.634  76.637  1.00  0.00     0.000 C 
BRANCH   2   3
ATOM      3  C   UNL     1      92.643  84.663  76.735  1.00  0.00     0.006 C 
BRANCH   3   4
ATOM      4  C   UNL     1      92.066  83.327  77.220  1.00  0.00     0.053 C 
BRANCH   4   5
ATOM      5  C   UNL     1      91.266  83.490  78.477  1.00  0.00     0.041 C 
ATOM      6  O   UNL     1      91.820  83.904  79.530  1.00  0.00    -0.550 OA
ATOM      7  O   UNL     1      89.919  83.154  78.495  1.00  0.00    -0.550 OA
ENDBRANCH   4   5
ENDBRANCH   3   4
ENDBRANCH   2   3
ENDBRANCH   1   2
BRANCH   1   8
ATOM      8  C   UNL     1      95.884  83.971  78.423  1.00  0.00     0.000 C 
BRANCH   8   9
ATOM      9  C   UNL     1      95.282  82.610  78.803  1.00  0.00     0.000 C 
BRANCH   9  10
ATOM     10  C   UNL     1      96.363  81.669  79.357  1.00  0.00     0.006 C 
BRANCH  10  11
ATOM     11  C   UNL     1      97.776  82.098  78.945  1.00  0.00     0.053 C 
BRANCH  11  12
ATOM     12  C   UNL     1      98.682  82.236  80.130  1.00  0.00     0.041 C 
ATOM     13  O   UNL     1      98.211  82.535  81.258  1.00  0.00    -0.550 OA
ATOM     14  O   UNL     1     100.045  82.000  79.992  1.00  0.00    -0.550 OA
ENDBRANCH  11  12
ENDBRANCH  10  11
ENDBRANCH   9  10
ENDBRANCH   8   9
ENDBRANCH   1   8
TORSDOF 9
ENDMDL
MODEL 9
REMARK VINA RESULT:    -3.848     13.927     15.616
REMARK INTER + INTRA:          -6.694
REMARK INTER:                  -6.182
REMARK INTRA:                  -0.512
REMARK UNBOUND:                -0.821
REMARK SMILES O=C([O-])CCCCCCCCC(=O)[O-]
REMARK SMILES IDX 7 1 6 2 5 3 4 4 2 5 1 6 3 7 8 8 9 9 10 10 11 11 12 12 13 13
REMARK SMILES IDX 14 14
REMARK H PARENT
REMARK Flexibility Score: inf
ROOT
ATOM      1  C   UNL     1      95.930  84.014  78.255  1.00  0.00     0.000 C 
ENDROOT
BRANCH   1   2
ATOM      2  C   UNL     1      94.754  84.464  77.375  1.00  0.00     0.000 C 
BRANCH   2   3
ATOM      3  C   UNL     1      93.490  83.652  77.695  1.00  0.00     0.006 C 
BRANCH   3   4
ATOM      4  C   UNL     1      92.241  84.231  77.017  1.00  0.00     0.053 C 
BRANCH   4   5
ATOM      5  C   UNL     1      90.981  83.644  77.577  1.00  0.00     0.041 C 
ATOM      6  O   UNL     1      90.998  83.057  78.692  1.00  0.00    -0.550 OA
ATOM      7  O   UNL     1      89.797  83.713  76.854  1.00  0.00    -0.550 OA
ENDBRANCH   4   5
ENDBRANCH   3   4
ENDBRANCH   2   3
ENDBRANCH   1   2
BRANCH   1   8
ATOM      8  C   UNL     1      95.525  82.948  79.287  1.00  0.00     0.000 C 
BRANCH   8   9
ATOM      9  C   UNL     1      96.406  81.691  79.215  1.00  0.00     0.000 C 
BRANCH   9  10
ATOM     10  C   UNL     1      97.885  82.067  79.048  1.00  0.00     0.006 C 
BRANCH  10  11
ATOM     11  C   UNL     1      98.655  82.006  80.374  1.00  0.00     0.053 C 
BRANCH  11  12
ATOM     12  C   UNL     1      99.398  83.279  80.643  1.00  0.00     0.041 C 
ATOM     13  O   UNL     1     100.530  83.249  81.195  1.00  0.00    -0.550 OA
ATOM     14  O   UNL     1      98.854  84.496  80.252  1.00  0.00    -0.550 OA
ENDBRANCH  11  12
ENDBRANCH  10  11
ENDBRANCH   9  10
ENDBRANCH   8   9
ENDBRANCH   1   8
TORSDOF 9
ENDMDL
