MODEL 1
REMARK VINA RESULT:    -6.083      0.000      0.000
REMARK INTER + INTRA:         -13.013
REMARK INTER:                 -11.417
REMARK INTRA:                  -1.596
REMARK UNBOUND:                -1.596
REMARK SMILES O=C([O-])CCCCCCCCCCCCCCC(=O)[O-]
REMARK SMILES IDX 10 1 9 2 8 3 7 4 6 5 5 6 4 7 2 8 1 9 3 10 11 11 12 12 13 13
REMARK SMILES IDX 14 14 15 15 16 16 17 17 18 18 19 19 20 20
REMARK H PARENT
REMARK Flexibility Score: inf
ROOT
ATOM      1  C   UNL     1      25.866   1.024  62.761  1.00  0.00     0.000 C 
ENDROOT
BRANCH   1   2
ATOM      2  C   UNL     1      25.051  -0.049  62.020  1.00  0.00     0.000 C 
BRANCH   2   3
ATOM      3  C   UNL     1      25.889  -1.288  61.656  1.00  0.00     0.000 C 
BRANCH   3   4
ATOM      4  C   UNL     1      25.227  -2.598  62.111  1.00  0.00     0.000 C 
BRANCH   4   5
ATOM      5  C   UNL     1      23.704  -2.459  62.280  1.00  0.00     0.000 C 
BRANCH   5   6
ATOM      6  C   UNL     1      22.916  -3.295  61.260  1.00  0.00     0.006 C 
BRANCH   6   7
ATOM      7  C   UNL     1      23.822  -3.987  60.233  1.00  0.00     0.053 C 
BRANCH   7   8
ATOM      8  C   UNL     1      23.907  -3.174  58.979  1.00  0.00     0.041 C 
ATOM      9  O   UNL     1      25.010  -3.027  58.391  1.00  0.00    -0.550 OA
ATOM     10  O   UNL     1      22.758  -2.609  58.439  1.00  0.00    -0.550 OA
ENDBRANCH   7   8
ENDBRANCH   6   7
ENDBRANCH   5   6
ENDBRANCH   4   5
ENDBRANCH   3   4
ENDBRANCH   2   3
ENDBRANCH   1   2
BRANCH   1  11
ATOM     11  C   UNL     1      25.609   2.442  62.221  1.00  0.00     0.000 C 
BRANCH  11  12
ATOM     12  C   UNL     1      25.451   3.479  63.345  1.00  0.00     0.000 C 
BRANCH  12  13
ATOM     13  C   UNL     1      25.340   2.834  64.735  1.00  0.00     0.000 C 
BRANCH  13  14
ATOM     14  C   UNL     1      23.975   3.131  65.368  1.00  0.00     0.000 C 
BRANCH  14  15
ATOM     15  C   UNL     1      22.957   3.567  64.303  1.00  0.00     0.000 C 
BRANCH  15  16
ATOM     16  C   UNL     1      21.909   2.483  64.008  1.00  0.00     0.006 C 
BRANCH  16  17
ATOM     17  C   UNL     1      22.040   1.906  62.593  1.00  0.00     0.053 C 
BRANCH  17  18
ATOM     18  C   UNL     1      21.282   0.621  62.480  1.00  0.00     0.041 C 
ATOM     19  O   UNL     1      20.838   0.053  63.512  1.00  0.00    -0.550 OA
ATOM     20  O   UNL     1      21.102   0.026  61.236  1.00  0.00    -0.550 OA
ENDBRANCH  17  18
ENDBRANCH  16  17
ENDBRANCH  15  16
ENDBRANCH  14  15
ENDBRANCH  13  14
ENDBRANCH  12  13
ENDBRANCH  11  12
ENDBRANCH   1  11
TORSDOF 15
ENDMDL
MODEL 2
REMARK VINA RESULT:    -6.013      1.733      2.837
REMARK INTER + INTRA:         -12.882
REMARK INTER:                 -11.397
REMARK INTRA:                  -1.486
REMARK UNBOUND:                -1.596
REMARK SMILES O=C([O-])CCCCCCCCCCCCCCC(=O)[O-]
REMARK SMILES IDX 10 1 9 2 8 3 7 4 6 5 5 6 4 7 2 8 1 9 3 10 11 11 12 12 13 13
REMARK SMILES IDX 14 14 15 15 16 16 17 17 18 18 19 19 20 20
REMARK H PARENT
REMARK Flexibility Score: inf
ROOT
ATOM      1  C   UNL     1      26.014  -1.076  61.546  1.00  0.00     0.000 C 
ENDROOT
BRANCH   1   2
ATOM      2  C   UNL     1      25.667  -2.487  62.051  1.00  0.00     0.000 C 
BRANCH   2   3
ATOM      3  C   UNL     1      25.526  -3.510  60.909  1.00  0.00     0.000 C 
BRANCH   3   4
ATOM      4  C   UNL     1      25.360  -2.838  59.537  1.00  0.00     0.000 C 
BRANCH   4   5
ATOM      5  C   UNL     1      23.957  -3.052  58.943  1.00  0.00     0.000 C 
BRANCH   5   6
ATOM      6  C   UNL     1      22.975  -3.670  59.952  1.00  0.00     0.006 C 
BRANCH   6   7
ATOM      7  C   UNL     1      21.685  -2.852  60.102  1.00  0.00     0.053 C 
BRANCH   7   8
ATOM      8  C   UNL     1      21.808  -1.888  61.241  1.00  0.00     0.041 C 
ATOM      9  O   UNL     1      22.408  -2.224  62.295  1.00  0.00    -0.550 OA
ATOM     10  O   UNL     1      21.290  -0.604  61.121  1.00  0.00    -0.550 OA
ENDBRANCH   7   8
ENDBRANCH   6   7
ENDBRANCH   5   6
ENDBRANCH   4   5
ENDBRANCH   3   4
ENDBRANCH   2   3
ENDBRANCH   1   2
BRANCH   1  11
ATOM     11  C   UNL     1      25.095   0.007  62.138  1.00  0.00     0.000 C 
BRANCH  11  12
ATOM     12  C   UNL     1      25.884   1.145  62.806  1.00  0.00     0.000 C 
BRANCH  12  13
ATOM     13  C   UNL     1      25.582   2.518  62.187  1.00  0.00     0.000 C 
BRANCH  13  14
ATOM     14  C   UNL     1      25.529   3.606  63.268  1.00  0.00     0.000 C 
BRANCH  14  15
ATOM     15  C   UNL     1      25.565   2.988  64.674  1.00  0.00     0.000 C 
BRANCH  15  16
ATOM     16  C   UNL     1      24.192   3.011  65.364  1.00  0.00     0.006 C 
BRANCH  16  17
ATOM     17  C   UNL     1      23.108   3.664  64.499  1.00  0.00     0.053 C 
BRANCH  17  18
ATOM     18  C   UNL     1      22.112   2.642  64.048  1.00  0.00     0.041 C 
ATOM     19  O   UNL     1      21.298   2.145  64.871  1.00  0.00    -0.550 OA
ATOM     20  O   UNL     1      22.111   2.205  62.729  1.00  0.00    -0.550 OA
ENDBRANCH  17  18
ENDBRANCH  16  17
ENDBRANCH  15  16
ENDBRANCH  14  15
ENDBRANCH  13  14
ENDBRANCH  12  13
ENDBRANCH  11  12
ENDBRANCH   1  11
TORSDOF 15
ENDMDL
MODEL 3
REMARK VINA RESULT:    -6.006      2.000      3.906
REMARK INTER + INTRA:         -12.869
REMARK INTER:                 -11.167
REMARK INTRA:                  -1.702
REMARK UNBOUND:                -1.596
REMARK SMILES O=C([O-])CCCCCCCCCCCCCCC(=O)[O-]
REMARK SMILES IDX 10 1 9 2 8 3 7 4 6 5 5 6 4 7 2 8 1 9 3 10 11 11 12 12 13 13
REMARK SMILES IDX 14 14 15 15 16 16 17 17 18 18 19 19 20 20
REMARK H PARENT
REMARK Flexibility Score: inf
ROOT
ATOM      1  C   UNL     1      25.598  -2.432  62.017  1.00  0.00     0.000 C 
ENDROOT
BRANCH   1   2
ATOM      2  C   UNL     1      25.454  -3.449  60.873  1.00  0.00     0.000 C 
BRANCH   2   3
ATOM      3  C   UNL     1      25.249  -2.779  59.502  1.00  0.00     0.000 C 
BRANCH   3   4
ATOM      4  C   UNL     1      23.852  -3.049  58.921  1.00  0.00     0.000 C 
BRANCH   4   5
ATOM      5  C   UNL     1      22.853  -3.525  59.989  1.00  0.00     0.000 C 
BRANCH   5   6
ATOM      6  C   UNL     1      21.796  -2.461  60.327  1.00  0.00     0.006 C 
BRANCH   6   7
ATOM      7  C   UNL     1      22.001  -1.841  61.715  1.00  0.00     0.053 C 
BRANCH   7   8
ATOM      8  C   UNL     1      21.303  -0.519  61.805  1.00  0.00     0.041 C 
ATOM      9  O   UNL     1      20.915   0.067  60.761  1.00  0.00    -0.550 OA
ATOM     10  O   UNL     1      21.047   0.047  63.049  1.00  0.00    -0.550 OA
ENDBRANCH   7   8
ENDBRANCH   6   7
ENDBRANCH   5   6
ENDBRANCH   4   5
ENDBRANCH   3   4
ENDBRANCH   2   3
ENDBRANCH   1   2
BRANCH   1  11
ATOM     11  C   UNL     1      25.961  -1.023  61.517  1.00  0.00     0.000 C 
BRANCH  11  12
ATOM     12  C   UNL     1      25.092   0.071  62.159  1.00  0.00     0.000 C 
BRANCH  12  13
ATOM     13  C   UNL     1      25.921   1.244  62.702  1.00  0.00     0.000 C 
BRANCH  13  14
ATOM     14  C   UNL     1      25.341   2.585  62.235  1.00  0.00     0.000 C 
BRANCH  14  15
ATOM     15  C   UNL     1      23.807   2.584  62.324  1.00  0.00     0.000 C 
BRANCH  15  16
ATOM     16  C   UNL     1      23.281   3.447  63.482  1.00  0.00     0.006 C 
BRANCH  16  17
ATOM     17  C   UNL     1      22.898   2.614  64.711  1.00  0.00     0.053 C 
BRANCH  17  18
ATOM     18  C   UNL     1      23.825   2.903  65.849  1.00  0.00     0.041 C 
ATOM     19  O   UNL     1      23.403   2.867  67.035  1.00  0.00    -0.550 OA
ATOM     20  O   UNL     1      25.146   3.256  65.599  1.00  0.00    -0.550 OA
ENDBRANCH  17  18
ENDBRANCH  16  17
ENDBRANCH  15  16
ENDBRANCH  14  15
ENDBRANCH  13  14
ENDBRANCH  12  13
ENDBRANCH  11  12
ENDBRANCH   1  11
TORSDOF 15
ENDMDL
MODEL 4
REMARK VINA RESULT:    -5.996      0.502      5.673
REMARK INTER + INTRA:         -12.850
REMARK INTER:                 -11.306
REMARK INTRA:                  -1.544
REMARK UNBOUND:                -1.596
REMARK SMILES O=C([O-])CCCCCCCCCCCCCCC(=O)[O-]
REMARK SMILES IDX 10 1 9 2 8 3 7 4 6 5 5 6 4 7 2 8 1 9 3 10 11 11 12 12 13 13
REMARK SMILES IDX 14 14 15 15 16 16 17 17 18 18 19 19 20 20
REMARK H PARENT
REMARK Flexibility Score: inf
ROOT
ATOM      1  C   UNL     1      25.445   2.520  62.280  1.00  0.00     0.000 C 
ENDROOT
BRANCH   1   2
ATOM      2  C   UNL     1      25.473   3.586  63.387  1.00  0.00     0.000 C 
BRANCH   2   3
ATOM      3  C   UNL     1      25.406   2.980  64.801  1.00  0.00     0.000 C 
BRANCH   3   4
ATOM      4  C   UNL     1      23.995   3.053  65.404  1.00  0.00     0.000 C 
BRANCH   4   5
ATOM      5  C   UNL     1      22.941   3.515  64.383  1.00  0.00     0.000 C 
BRANCH   5   6
ATOM      6  C   UNL     1      21.860   2.453  64.126  1.00  0.00     0.006 C 
BRANCH   6   7
ATOM      7  C   UNL     1      21.875   1.928  62.683  1.00  0.00     0.053 C 
BRANCH   7   8
ATOM      8  C   UNL     1      21.327   0.536  62.628  1.00  0.00     0.041 C 
ATOM      9  O   UNL     1      21.503  -0.176  61.605  1.00  0.00    -0.550 OA
ATOM     10  O   UNL     1      20.652   0.012  63.725  1.00  0.00    -0.550 OA
ENDBRANCH   7   8
ENDBRANCH   6   7
ENDBRANCH   5   6
ENDBRANCH   4   5
ENDBRANCH   3   4
ENDBRANCH   2   3
ENDBRANCH   1   2
BRANCH   1  11
ATOM     11  C   UNL     1      25.947   1.149  62.764  1.00  0.00     0.000 C 
BRANCH  11  12
ATOM     12  C   UNL     1      25.087  -0.011  62.236  1.00  0.00     0.000 C 
BRANCH  12  13
ATOM     13  C   UNL     1      25.924  -1.119  61.579  1.00  0.00     0.000 C 
BRANCH  13  14
ATOM     14  C   UNL     1      25.495  -2.502  62.086  1.00  0.00     0.000 C 
BRANCH  14  15
ATOM     15  C   UNL     1      23.965  -2.622  62.132  1.00  0.00     0.000 C 
BRANCH  15  16
ATOM     16  C   UNL     1      23.424  -3.666  61.142  1.00  0.00     0.006 C 
BRANCH  16  17
ATOM     17  C   UNL     1      22.788  -3.028  59.901  1.00  0.00     0.053 C 
BRANCH  17  18
ATOM     18  C   UNL     1      23.727  -3.097  58.738  1.00  0.00     0.041 C 
ATOM     19  O   UNL     1      24.926  -3.442  58.911  1.00  0.00    -0.550 OA
ATOM     20  O   UNL     1      23.291  -2.739  57.468  1.00  0.00    -0.550 OA
ENDBRANCH  17  18
ENDBRANCH  16  17
ENDBRANCH  15  16
ENDBRANCH  14  15
ENDBRANCH  13  14
ENDBRANCH  12  13
ENDBRANCH  11  12
ENDBRANCH   1  11
TORSDOF 15
ENDMDL
MODEL 5
REMARK VINA RESULT:    -5.959      2.967      5.977
REMARK INTER + INTRA:         -12.780
REMARK INTER:                 -11.050
REMARK INTRA:                  -1.730
REMARK UNBOUND:                -1.596
REMARK SMILES O=C([O-])CCCCCCCCCCCCCCC(=O)[O-]
REMARK SMILES IDX 10 1 9 2 8 3 7 4 6 5 5 6 4 7 2 8 1 9 3 10 11 11 12 12 13 13
REMARK SMILES IDX 14 14 15 15 16 16 17 17 18 18 19 19 20 20
REMARK H PARENT
REMARK Flexibility Score: inf
ROOT
ATOM      1  C   UNL     1      23.990  -3.030  58.999  1.00  0.00     0.000 C 
ENDROOT
BRANCH   1   2
ATOM      2  C   UNL     1      22.862  -3.586  59.884  1.00  0.00     0.000 C 
BRANCH   2   3
ATOM      3  C   UNL     1      21.694  -2.597  60.051  1.00  0.00     0.000 C 
BRANCH   3   4
ATOM      4  C   UNL     1      21.693  -1.919  61.431  1.00  0.00     0.000 C 
BRANCH   4   5
ATOM      5  C   UNL     1      21.419  -0.408  61.343  1.00  0.00     0.000 C 
BRANCH   5   6
ATOM      6  C   UNL     1      21.307   0.255  62.725  1.00  0.00     0.006 C 
BRANCH   6   7
ATOM      7  C   UNL     1      21.750   1.724  62.716  1.00  0.00     0.053 C 
BRANCH   7   8
ATOM      8  C   UNL     1      21.485   2.358  64.047  1.00  0.00     0.041 C 
ATOM      9  O   UNL     1      21.079   1.660  65.012  1.00  0.00    -0.550 OA
ATOM     10  O   UNL     1      21.725   3.715  64.229  1.00  0.00    -0.550 OA
ENDBRANCH   7   8
ENDBRANCH   6   7
ENDBRANCH   5   6
ENDBRANCH   4   5
ENDBRANCH   3   4
ENDBRANCH   2   3
ENDBRANCH   1   2
BRANCH   1  11
ATOM     11  C   UNL     1      25.379  -3.183  59.644  1.00  0.00     0.000 C 
BRANCH  11  12
ATOM     12  C   UNL     1      25.304  -3.741  61.074  1.00  0.00     0.000 C 
BRANCH  12  13
ATOM     13  C   UNL     1      25.289  -2.637  62.142  1.00  0.00     0.000 C 
BRANCH  13  14
ATOM     14  C   UNL     1      25.890  -1.337  61.592  1.00  0.00     0.000 C 
BRANCH  14  15
ATOM     15  C   UNL     1      25.119  -0.112  62.106  1.00  0.00     0.000 C 
BRANCH  15  16
ATOM     16  C   UNL     1      26.049   1.003  62.611  1.00  0.00     0.006 C 
BRANCH  16  17
ATOM     17  C   UNL     1      25.291   2.289  62.963  1.00  0.00     0.053 C 
BRANCH  17  18
ATOM     18  C   UNL     1      25.630   2.733  64.351  1.00  0.00     0.041 C 
ATOM     19  O   UNL     1      25.009   3.692  64.878  1.00  0.00    -0.550 OA
ATOM     20  O   UNL     1      26.663   2.115  65.047  1.00  0.00    -0.550 OA
ENDBRANCH  17  18
ENDBRANCH  16  17
ENDBRANCH  15  16
ENDBRANCH  14  15
ENDBRANCH  13  14
ENDBRANCH  12  13
ENDBRANCH  11  12
ENDBRANCH   1  11
TORSDOF 15
ENDMDL
MODEL 6
REMARK VINA RESULT:    -5.940      1.408      5.990
REMARK INTER + INTRA:         -12.745
REMARK INTER:                 -11.178
REMARK INTRA:                  -1.567
REMARK UNBOUND:                -1.596
REMARK SMILES O=C([O-])CCCCCCCCCCCCCCC(=O)[O-]
REMARK SMILES IDX 10 1 9 2 8 3 7 4 6 5 5 6 4 7 2 8 1 9 3 10 11 11 12 12 13 13
REMARK SMILES IDX 14 14 15 15 16 16 17 17 18 18 19 19 20 20
REMARK H PARENT
REMARK Flexibility Score: inf
ROOT
ATOM      1  C   UNL     1      25.654   1.088  62.271  1.00  0.00     0.000 C 
ENDROOT
BRANCH   1   2
ATOM      2  C   UNL     1      26.207   1.580  63.619  1.00  0.00     0.000 C 
BRANCH   2   3
ATOM      3  C   UNL     1      25.804   3.032  63.934  1.00  0.00     0.000 C 
BRANCH   3   4
ATOM      4  C   UNL     1      25.341   3.209  65.389  1.00  0.00     0.000 C 
BRANCH   4   5
ATOM      5  C   UNL     1      23.823   3.016  65.551  1.00  0.00     0.000 C 
BRANCH   5   6
ATOM      6  C   UNL     1      23.024   3.597  64.374  1.00  0.00     0.006 C 
BRANCH   6   7
ATOM      7  C   UNL     1      21.919   2.651  63.883  1.00  0.00     0.053 C 
BRANCH   7   8
ATOM      8  C   UNL     1      22.188   2.222  62.474  1.00  0.00     0.041 C 
ATOM      9  O   UNL     1      22.858   2.957  61.703  1.00  0.00    -0.550 OA
ATOM     10  O   UNL     1      21.727   0.990  62.024  1.00  0.00    -0.550 OA
ENDBRANCH   7   8
ENDBRANCH   6   7
ENDBRANCH   5   6
ENDBRANCH   4   5
ENDBRANCH   3   4
ENDBRANCH   2   3
ENDBRANCH   1   2
BRANCH   1  11
ATOM     11  C   UNL     1      25.037  -0.319  62.360  1.00  0.00     0.000 C 
BRANCH  11  12
ATOM     12  C   UNL     1      25.867  -1.373  61.608  1.00  0.00     0.000 C 
BRANCH  12  13
ATOM     13  C   UNL     1      25.495  -2.810  62.002  1.00  0.00     0.000 C 
BRANCH  13  14
ATOM     14  C   UNL     1      25.502  -3.731  60.775  1.00  0.00     0.000 C 
BRANCH  14  15
ATOM     15  C   UNL     1      25.434  -2.918  59.474  1.00  0.00     0.000 C 
BRANCH  15  16
ATOM     16  C   UNL     1      24.059  -3.005  58.793  1.00  0.00     0.006 C 
BRANCH  16  17
ATOM     17  C   UNL     1      22.992  -3.634  59.698  1.00  0.00     0.053 C 
BRANCH  17  18
ATOM     18  C   UNL     1      22.067  -2.582  60.225  1.00  0.00     0.041 C 
ATOM     19  O   UNL     1      21.294  -1.968  59.443  1.00  0.00    -0.550 OA
ATOM     20  O   UNL     1      22.089  -2.248  61.574  1.00  0.00    -0.550 OA
ENDBRANCH  17  18
ENDBRANCH  16  17
ENDBRANCH  15  16
ENDBRANCH  14  15
ENDBRANCH  13  14
ENDBRANCH  12  13
ENDBRANCH  11  12
ENDBRANCH   1  11
TORSDOF 15
ENDMDL
MODEL 7
REMARK VINA RESULT:    -5.919      2.625      4.319
REMARK INTER + INTRA:         -12.704
REMARK INTER:                 -11.395
REMARK INTRA:                  -1.310
REMARK UNBOUND:                -1.596
REMARK SMILES O=C([O-])CCCCCCCCCCCCCCC(=O)[O-]
REMARK SMILES IDX 10 1 9 2 8 3 7 4 6 5 5 6 4 7 2 8 1 9 3 10 11 11 12 12 13 13
REMARK SMILES IDX 14 14 15 15 16 16 17 17 18 18 19 19 20 20
REMARK H PARENT
REMARK Flexibility Score: inf
ROOT
ATOM      1  C   UNL     1      22.147  -1.315  61.834  1.00  0.00     0.000 C 
ENDROOT
BRANCH   1   2
ATOM      2  C   UNL     1      21.590  -2.090  60.629  1.00  0.00     0.000 C 
BRANCH   2   3
ATOM      3  C   UNL     1      22.571  -3.149  60.096  1.00  0.00     0.000 C 
BRANCH   3   4
ATOM      4  C   UNL     1      22.924  -2.930  58.616  1.00  0.00     0.000 C 
BRANCH   4   5
ATOM      5  C   UNL     1      24.442  -2.929  58.367  1.00  0.00     0.000 C 
BRANCH   5   6
ATOM      6  C   UNL     1      25.248  -3.303  59.621  1.00  0.00     0.006 C 
BRANCH   6   7
ATOM      7  C   UNL     1      26.131  -2.153  60.123  1.00  0.00     0.053 C 
BRANCH   7   8
ATOM      8  C   UNL     1      25.773  -1.797  61.533  1.00  0.00     0.041 C 
ATOM      9  O   UNL     1      25.382  -2.687  62.332  1.00  0.00    -0.550 OA
ATOM     10  O   UNL     1      25.908  -0.486  61.973  1.00  0.00    -0.550 OA
ENDBRANCH   7   8
ENDBRANCH   6   7
ENDBRANCH   5   6
ENDBRANCH   4   5
ENDBRANCH   3   4
ENDBRANCH   2   3
ENDBRANCH   1   2
BRANCH   1  11
ATOM     11  C   UNL     1      21.162  -0.259  62.367  1.00  0.00     0.000 C 
BRANCH  11  12
ATOM     12  C   UNL     1      21.778   1.148  62.414  1.00  0.00     0.000 C 
BRANCH  12  13
ATOM     13  C   UNL     1      21.453   1.895  63.716  1.00  0.00     0.000 C 
BRANCH  13  14
ATOM     14  C   UNL     1      22.155   3.258  63.755  1.00  0.00     0.000 C 
BRANCH  14  15
ATOM     15  C   UNL     1      23.160   3.394  62.602  1.00  0.00     0.000 C 
BRANCH  15  16
ATOM     16  C   UNL     1      24.511   3.966  63.060  1.00  0.00     0.006 C 
BRANCH  16  17
ATOM     17  C   UNL     1      25.611   2.899  63.128  1.00  0.00     0.053 C 
BRANCH  17  18
ATOM     18  C   UNL     1      25.983   2.621  64.550  1.00  0.00     0.041 C 
ATOM     19  O   UNL     1      25.243   3.018  65.488  1.00  0.00    -0.550 OA
ATOM     20  O   UNL     1      27.171   1.962  64.843  1.00  0.00    -0.550 OA
ENDBRANCH  17  18
ENDBRANCH  16  17
ENDBRANCH  15  16
ENDBRANCH  14  15
ENDBRANCH  13  14
ENDBRANCH  12  13
ENDBRANCH  11  12
ENDBRANCH   1  11
TORSDOF 15
ENDMDL
MODEL 8
REMARK VINA RESULT:    -5.912      1.701      6.139
REMARK INTER + INTRA:         -12.691
REMARK INTER:                 -11.152
REMARK INTRA:                  -1.539
REMARK UNBOUND:                -1.596
REMARK SMILES O=C([O-])CCCCCCCCCCCCCCC(=O)[O-]
REMARK SMILES IDX 10 1 9 2 8 3 7 4 6 5 5 6 4 7 2 8 1 9 3 10 11 11 12 12 13 13
REMARK SMILES IDX 14 14 15 15 16 16 17 17 18 18 19 19 20 20
REMARK H PARENT
REMARK Flexibility Score: inf
ROOT
ATOM      1  C   UNL     1      25.098   0.057  61.943  1.00  0.00     0.000 C 
ENDROOT
BRANCH   1   2
ATOM      2  C   UNL     1      25.881   1.124  62.727  1.00  0.00     0.000 C 
BRANCH   2   3
ATOM      3  C   UNL     1      25.538   2.558  62.289  1.00  0.00     0.000 C 
BRANCH   3   4
ATOM      4  C   UNL     1      25.575   3.554  63.459  1.00  0.00     0.000 C 
BRANCH   4   5
ATOM      5  C   UNL     1      25.375   2.867  64.821  1.00  0.00     0.000 C 
BRANCH   5   6
ATOM      6  C   UNL     1      23.961   3.075  65.388  1.00  0.00     0.006 C 
BRANCH   6   7
ATOM      7  C   UNL     1      22.967   3.575  64.332  1.00  0.00     0.053 C 
BRANCH   7   8
ATOM      8  C   UNL     1      22.035   2.474  63.928  1.00  0.00     0.041 C 
ATOM      9  O   UNL     1      22.055   2.025  62.753  1.00  0.00    -0.550 OA
ATOM     10  O   UNL     1      21.170   1.920  64.864  1.00  0.00    -0.550 OA
ENDBRANCH   7   8
ENDBRANCH   6   7
ENDBRANCH   5   6
ENDBRANCH   4   5
ENDBRANCH   3   4
ENDBRANCH   2   3
ENDBRANCH   1   2
BRANCH   1  11
ATOM     11  C   UNL     1      25.921  -1.218  61.691  1.00  0.00     0.000 C 
BRANCH  11  12
ATOM     12  C   UNL     1      25.151  -2.496  62.059  1.00  0.00     0.000 C 
BRANCH  12  13
ATOM     13  C   UNL     1      25.438  -3.658  61.096  1.00  0.00     0.000 C 
BRANCH  13  14
ATOM     14  C   UNL     1      24.170  -4.062  60.333  1.00  0.00     0.000 C 
BRANCH  14  15
ATOM     15  C   UNL     1      23.907  -3.109  59.157  1.00  0.00     0.000 C 
BRANCH  15  16
ATOM     16  C   UNL     1      22.446  -2.636  59.095  1.00  0.00     0.006 C 
BRANCH  16  17
ATOM     17  C   UNL     1      21.709  -2.820  60.427  1.00  0.00     0.053 C 
BRANCH  17  18
ATOM     18  C   UNL     1      21.540  -1.503  61.118  1.00  0.00     0.041 C 
ATOM     19  O   UNL     1      21.889  -1.368  62.320  1.00  0.00    -0.550 OA
ATOM     20  O   UNL     1      20.955  -0.435  60.447  1.00  0.00    -0.550 OA
ENDBRANCH  17  18
ENDBRANCH  16  17
ENDBRANCH  15  16
ENDBRANCH  14  15
ENDBRANCH  13  14
ENDBRANCH  12  13
ENDBRANCH  11  12
ENDBRANCH   1  11
TORSDOF 15
ENDMDL
MODEL 9
REMARK VINA RESULT:    -5.900      2.222      6.302
REMARK INTER + INTRA:         -12.670
REMARK INTER:                 -11.047
REMARK INTRA:                  -1.623
REMARK UNBOUND:                -1.596
REMARK SMILES O=C([O-])CCCCCCCCCCCCCCC(=O)[O-]
REMARK SMILES IDX 10 1 9 2 8 3 7 4 6 5 5 6 4 7 2 8 1 9 3 10 11 11 12 12 13 13
REMARK SMILES IDX 14 14 15 15 16 16 17 17 18 18 19 19 20 20
REMARK H PARENT
REMARK Flexibility Score: inf
ROOT
ATOM      1  C   UNL     1      25.305  -2.578  62.163  1.00  0.00     0.000 C 
ENDROOT
BRANCH   1   2
ATOM      2  C   UNL     1      25.887  -1.261  61.624  1.00  0.00     0.000 C 
BRANCH   2   3
ATOM      3  C   UNL     1      25.039  -0.034  62.003  1.00  0.00     0.000 C 
BRANCH   3   4
ATOM      4  C   UNL     1      25.880   1.090  62.628  1.00  0.00     0.000 C 
BRANCH   4   5
ATOM      5  C   UNL     1      25.403   2.489  62.200  1.00  0.00     0.000 C 
BRANCH   5   6
ATOM      6  C   UNL     1      25.453   3.509  63.349  1.00  0.00     0.006 C 
BRANCH   6   7
ATOM      7  C   UNL     1      24.058   3.917  63.841  1.00  0.00     0.053 C 
BRANCH   7   8
ATOM      8  C   UNL     1      23.713   3.185  65.100  1.00  0.00     0.041 C 
ATOM      9  O   UNL     1      22.572   2.673  65.245  1.00  0.00    -0.550 OA
ATOM     10  O   UNL     1      24.667   3.036  66.101  1.00  0.00    -0.550 OA
ENDBRANCH   7   8
ENDBRANCH   6   7
ENDBRANCH   5   6
ENDBRANCH   4   5
ENDBRANCH   3   4
ENDBRANCH   2   3
ENDBRANCH   1   2
BRANCH   1  11
ATOM     11  C   UNL     1      25.321  -3.706  61.117  1.00  0.00     0.000 C 
BRANCH  11  12
ATOM     12  C   UNL     1      25.277  -3.172  59.676  1.00  0.00     0.000 C 
BRANCH  12  13
ATOM     13  C   UNL     1      23.843  -3.003  59.150  1.00  0.00     0.000 C 
BRANCH  13  14
ATOM     14  C   UNL     1      22.839  -3.718  60.063  1.00  0.00     0.000 C 
BRANCH  14  15
ATOM     15  C   UNL     1      21.591  -2.852  60.294  1.00  0.00     0.000 C 
BRANCH  15  16
ATOM     16  C   UNL     1      21.773  -1.848  61.443  1.00  0.00     0.006 C 
BRANCH  16  17
ATOM     17  C   UNL     1      21.356  -0.424  61.053  1.00  0.00     0.053 C 
BRANCH  17  18
ATOM     18  C   UNL     1      21.404   0.480  62.244  1.00  0.00     0.041 C 
ATOM     19  O   UNL     1      21.913   1.628  62.148  1.00  0.00    -0.550 OA
ATOM     20  O   UNL     1      20.927   0.040  63.473  1.00  0.00    -0.550 OA
ENDBRANCH  17  18
ENDBRANCH  16  17
ENDBRANCH  15  16
ENDBRANCH  14  15
ENDBRANCH  13  14
ENDBRANCH  12  13
ENDBRANCH  11  12
ENDBRANCH   1  11
TORSDOF 15
ENDMDL
