MODEL 1
REMARK VINA RESULT:    -5.537      0.000      0.000
REMARK INTER + INTRA:          -5.699
REMARK INTER:                  -5.699
REMARK INTRA:                   0.000
REMARK UNBOUND:                 0.000
REMARK SMILES Oc1ccc2[nH]ccc2c1
REMARK SMILES IDX 3 1 4 2 5 3 9 4 8 5 7 6 6 7 10 8 2 9 1 11
REMARK H PARENT 6 10 1 12
REMARK Flexibility Score: inf
ROOT
ATOM      1  C   UNL     1       7.355   8.649  12.747  1.00  0.00     0.048 A 
ATOM      2  C   UNL     1       6.016   8.374  12.413  1.00  0.00     0.030 A 
ATOM      3  C   UNL     1       5.581   7.053  12.503  1.00  0.00     0.046 A 
ATOM      4  C   UNL     1       6.418   6.045  12.902  1.00  0.00     0.003 A 
ATOM      5  C   UNL     1       5.690   4.875  12.885  1.00  0.00     0.028 A 
ATOM      6  C   UNL     1       4.416   5.245  12.466  1.00  0.00     0.083 A 
ATOM      7  N   UNL     1       4.354   6.577  12.233  1.00  0.00    -0.361 N 
ATOM      8  C   UNL     1       7.749   6.282  13.239  1.00  0.00     0.056 A 
ATOM      9  C   UNL     1       8.222   7.607  13.160  1.00  0.00     0.116 A 
ATOM     10  H   UNL     1       3.522   7.119  11.911  1.00  0.00     0.166 HD
ENDROOT
BRANCH   9  11
ATOM     11  O   UNL     1       9.548   7.879  13.489  1.00  0.00    -0.508 OA
ATOM     12  H   UNL     1       9.937   8.810  13.388  1.00  0.00     0.293 HD
ENDBRANCH   9  11
TORSDOF 1
ENDMDL
MODEL 2
REMARK VINA RESULT:    -5.055      2.211      3.125
REMARK INTER + INTRA:          -5.203
REMARK INTER:                  -5.203
REMARK INTRA:                   0.000
REMARK UNBOUND:                 0.000
REMARK SMILES Oc1ccc2[nH]ccc2c1
REMARK SMILES IDX 3 1 4 2 5 3 9 4 8 5 7 6 6 7 10 8 2 9 1 11
REMARK H PARENT 6 10 1 12
REMARK Flexibility Score: inf
ROOT
ATOM      1  C   UNL     1       4.139   7.699  12.373  1.00  0.00     0.048 A 
ATOM      2  C   UNL     1       4.512   6.395  12.743  1.00  0.00     0.030 A 
ATOM      3  C   UNL     1       5.862   6.055  12.659  1.00  0.00     0.046 A 
ATOM      4  C   UNL     1       6.804   6.953  12.232  1.00  0.00     0.003 A 
ATOM      5  C   UNL     1       8.025   6.314  12.264  1.00  0.00     0.028 A 
ATOM      6  C   UNL     1       7.751   5.028  12.720  1.00  0.00     0.083 A 
ATOM      7  N   UNL     1       6.428   4.875  12.959  1.00  0.00    -0.361 N 
ATOM      8  C   UNL     1       6.469   8.252  11.859  1.00  0.00     0.056 A 
ATOM      9  C   UNL     1       5.114   8.629  11.932  1.00  0.00     0.116 A 
ATOM     10  H   UNL     1       5.950   4.015  13.307  1.00  0.00     0.166 HD
ENDROOT
BRANCH   9  11
ATOM     11  O   UNL     1       4.743   9.921  11.565  1.00  0.00    -0.508 OA
ATOM     12  H   UNL     1       4.138  10.092  10.770  1.00  0.00     0.293 HD
ENDBRANCH   9  11
TORSDOF 1
ENDMDL
MODEL 3
REMARK VINA RESULT:    -5.006      0.952      2.251
REMARK INTER + INTRA:          -5.153
REMARK INTER:                  -5.153
REMARK INTRA:                   0.000
REMARK UNBOUND:                 0.000
REMARK SMILES Oc1ccc2[nH]ccc2c1
REMARK SMILES IDX 3 1 4 2 5 3 9 4 8 5 7 6 6 7 10 8 2 9 1 11
REMARK H PARENT 6 10 1 12
REMARK Flexibility Score: inf
ROOT
ATOM      1  C   UNL     1       7.727   6.530  13.873  1.00  0.00     0.048 A 
ATOM      2  C   UNL     1       6.409   6.179  13.527  1.00  0.00     0.030 A 
ATOM      3  C   UNL     1       5.682   7.073  12.743  1.00  0.00     0.046 A 
ATOM      4  C   UNL     1       6.221   8.258  12.316  1.00  0.00     0.003 A 
ATOM      5  C   UNL     1       5.258   8.903  11.571  1.00  0.00     0.028 A 
ATOM      6  C   UNL     1       4.156   8.054  11.585  1.00  0.00     0.083 A 
ATOM      7  N   UNL     1       4.421   6.937  12.303  1.00  0.00    -0.361 N 
ATOM      8  C   UNL     1       7.522   8.636  12.640  1.00  0.00     0.056 A 
ATOM      9  C   UNL     1       8.285   7.755  13.432  1.00  0.00     0.116 A 
ATOM     10  H   UNL     1       3.774   6.136  12.477  1.00  0.00     0.166 HD
ENDROOT
BRANCH   9  11
ATOM     11  O   UNL     1       9.590   8.102  13.775  1.00  0.00    -0.508 OA
ATOM     12  H   UNL     1      10.381   7.804  13.216  1.00  0.00     0.293 HD
ENDBRANCH   9  11
TORSDOF 1
ENDMDL
MODEL 4
REMARK VINA RESULT:    -4.979      2.640      4.049
REMARK INTER + INTRA:          -5.124
REMARK INTER:                  -5.124
REMARK INTRA:                   0.000
REMARK UNBOUND:                 0.000
REMARK SMILES Oc1ccc2[nH]ccc2c1
REMARK SMILES IDX 3 1 4 2 5 3 9 4 8 5 7 6 6 7 10 8 2 9 1 11
REMARK H PARENT 6 10 1 12
REMARK Flexibility Score: inf
ROOT
ATOM      1  C   UNL     1       6.061   4.876  12.422  1.00  0.00     0.048 A 
ATOM      2  C   UNL     1       7.409   5.256  12.547  1.00  0.00     0.030 A 
ATOM      3  C   UNL     1       7.682   6.566  12.937  1.00  0.00     0.046 A 
ATOM      4  C   UNL     1       6.680   7.464  13.193  1.00  0.00     0.003 A 
ATOM      5  C   UNL     1       7.275   8.654  13.551  1.00  0.00     0.028 A 
ATOM      6  C   UNL     1       8.643   8.409  13.491  1.00  0.00     0.083 A 
ATOM      7  N   UNL     1       8.887   7.132  13.114  1.00  0.00    -0.361 N 
ATOM      8  C   UNL     1       5.335   7.120  13.079  1.00  0.00     0.056 A 
ATOM      9  C   UNL     1       5.023   5.804  12.687  1.00  0.00     0.116 A 
ATOM     10  H   UNL     1       9.821   6.683  12.990  1.00  0.00     0.166 HD
ENDROOT
BRANCH   9  11
ATOM     11  O   UNL     1       3.688   5.426  12.563  1.00  0.00    -0.508 OA
ATOM     12  H   UNL     1       3.426   4.467  12.362  1.00  0.00     0.293 HD
ENDBRANCH   9  11
TORSDOF 1
ENDMDL
MODEL 5
REMARK VINA RESULT:    -4.806      2.553      3.125
REMARK INTER + INTRA:          -4.946
REMARK INTER:                  -4.946
REMARK INTRA:                   0.000
REMARK UNBOUND:                 0.000
REMARK SMILES Oc1ccc2[nH]ccc2c1
REMARK SMILES IDX 3 1 4 2 5 3 9 4 8 5 7 6 6 7 10 8 2 9 1 11
REMARK H PARENT 6 10 1 12
REMARK Flexibility Score: inf
ROOT
ATOM      1  C   UNL     1       5.874   8.973  11.628  1.00  0.00     0.048 A 
ATOM      2  C   UNL     1       6.997   8.161  11.872  1.00  0.00     0.030 A 
ATOM      3  C   UNL     1       6.776   6.879  12.372  1.00  0.00     0.046 A 
ATOM      4  C   UNL     1       5.513   6.412  12.624  1.00  0.00     0.003 A 
ATOM      5  C   UNL     1       5.637   5.127  13.105  1.00  0.00     0.028 A 
ATOM      6  C   UNL     1       7.005   4.875  13.121  1.00  0.00     0.083 A 
ATOM      7  N   UNL     1       7.697   5.949  12.672  1.00  0.00    -0.361 N 
ATOM      8  C   UNL     1       4.380   7.190  12.394  1.00  0.00     0.056 A 
ATOM      9  C   UNL     1       4.567   8.492  11.888  1.00  0.00     0.116 A 
ATOM     10  H   UNL     1       8.733   6.032  12.580  1.00  0.00     0.166 HD
ENDROOT
BRANCH   9  11
ATOM     11  O   UNL     1       3.456   9.297  11.647  1.00  0.00    -0.508 OA
ATOM     12  H   UNL     1       2.622   8.929  11.204  1.00  0.00     0.293 HD
ENDBRANCH   9  11
TORSDOF 1
ENDMDL
MODEL 6
REMARK VINA RESULT:    -4.774      2.575      3.609
REMARK INTER + INTRA:          -4.914
REMARK INTER:                  -4.914
REMARK INTRA:                   0.000
REMARK UNBOUND:                 0.000
REMARK SMILES Oc1ccc2[nH]ccc2c1
REMARK SMILES IDX 3 1 4 2 5 3 9 4 8 5 7 6 6 7 10 8 2 9 1 11
REMARK H PARENT 6 10 1 12
REMARK Flexibility Score: inf
ROOT
ATOM      1  C   UNL     1       4.375   7.174  11.894  1.00  0.00     0.048 A 
ATOM      2  C   UNL     1       5.352   8.181  11.982  1.00  0.00     0.030 A 
ATOM      3  C   UNL     1       6.543   7.877  12.639  1.00  0.00     0.046 A 
ATOM      4  C   UNL     1       6.768   6.641  13.186  1.00  0.00     0.003 A 
ATOM      5  C   UNL     1       8.023   6.665  13.754  1.00  0.00     0.028 A 
ATOM      6  C   UNL     1       8.506   7.948  13.516  1.00  0.00     0.083 A 
ATOM      7  N   UNL     1       7.598   8.684  12.835  1.00  0.00    -0.361 N 
ATOM      8  C   UNL     1       5.821   5.621  13.117  1.00  0.00     0.056 A 
ATOM      9  C   UNL     1       4.606   5.895  12.459  1.00  0.00     0.116 A 
ATOM     10  H   UNL     1       7.701   9.676  12.526  1.00  0.00     0.166 HD
ENDROOT
BRANCH   9  11
ATOM     11  O   UNL     1       3.637   4.898  12.372  1.00  0.00    -0.508 OA
ATOM     12  H   UNL     1       3.309   4.405  13.195  1.00  0.00     0.293 HD
ENDBRANCH   9  11
TORSDOF 1
ENDMDL
MODEL 7
REMARK VINA RESULT:    -4.642      1.560      2.938
REMARK INTER + INTRA:          -4.778
REMARK INTER:                  -4.778
REMARK INTRA:                   0.000
REMARK UNBOUND:                 0.000
REMARK SMILES Oc1ccc2[nH]ccc2c1
REMARK SMILES IDX 3 1 4 2 5 3 9 4 8 5 7 6 6 7 10 8 2 9 1 11
REMARK H PARENT 6 10 1 12
REMARK Flexibility Score: inf
ROOT
ATOM      1  C   UNL     1       5.710   5.171  12.910  1.00  0.00     0.048 A 
ATOM      2  C   UNL     1       4.570   5.980  12.755  1.00  0.00     0.030 A 
ATOM      3  C   UNL     1       4.753   7.282  12.294  1.00  0.00     0.046 A 
ATOM      4  C   UNL     1       5.998   7.772  11.997  1.00  0.00     0.003 A 
ATOM      5  C   UNL     1       5.838   9.073  11.572  1.00  0.00     0.028 A 
ATOM      6  C   UNL     1       4.468   9.311  11.635  1.00  0.00     0.083 A 
ATOM      7  N   UNL     1       3.810   8.213  12.077  1.00  0.00    -0.361 N 
ATOM      8  C   UNL     1       7.148   6.998  12.139  1.00  0.00     0.056 A 
ATOM      9  C   UNL     1       6.998   5.677  12.604  1.00  0.00     0.116 A 
ATOM     10  H   UNL     1       2.781   8.115  12.218  1.00  0.00     0.166 HD
ENDROOT
BRANCH   9  11
ATOM     11  O   UNL     1       8.127   4.875  12.758  1.00  0.00    -0.508 OA
ATOM     12  H   UNL     1       8.510   4.673  13.675  1.00  0.00     0.293 HD
ENDBRANCH   9  11
TORSDOF 1
ENDMDL
MODEL 8
REMARK VINA RESULT:    -4.473      1.985      2.848
REMARK INTER + INTRA:          -4.604
REMARK INTER:                  -4.604
REMARK INTRA:                   0.000
REMARK UNBOUND:                 0.000
REMARK SMILES Oc1ccc2[nH]ccc2c1
REMARK SMILES IDX 3 1 4 2 5 3 9 4 8 5 7 6 6 7 10 8 2 9 1 11
REMARK H PARENT 6 10 1 12
REMARK Flexibility Score: inf
ROOT
ATOM      1  C   UNL     1       7.728   6.477  12.725  1.00  0.00     0.048 A 
ATOM      2  C   UNL     1       7.472   7.534  11.834  1.00  0.00     0.030 A 
ATOM      3  C   UNL     1       6.165   8.010  11.747  1.00  0.00     0.046 A 
ATOM      4  C   UNL     1       5.153   7.475  12.499  1.00  0.00     0.003 A 
ATOM      5  C   UNL     1       3.999   8.159  12.184  1.00  0.00     0.028 A 
ATOM      6  C   UNL     1       4.381   9.098  11.231  1.00  0.00     0.083 A 
ATOM      7  N   UNL     1       5.706   9.002  10.967  1.00  0.00    -0.361 N 
ATOM      8  C   UNL     1       5.372   6.427  13.391  1.00  0.00     0.056 A 
ATOM      9  C   UNL     1       6.683   5.923  13.504  1.00  0.00     0.116 A 
ATOM     10  H   UNL     1       6.254   9.584  10.295  1.00  0.00     0.166 HD
ENDROOT
BRANCH   9  11
ATOM     11  O   UNL     1       6.938   4.875  14.386  1.00  0.00    -0.508 OA
ATOM     12  H   UNL     1       6.336   4.695  15.182  1.00  0.00     0.293 HD
ENDBRANCH   9  11
TORSDOF 1
ENDMDL
MODEL 9
REMARK VINA RESULT:    -3.634      5.902      6.846
REMARK INTER + INTRA:          -3.740
REMARK INTER:                  -3.740
REMARK INTRA:                   0.000
REMARK UNBOUND:                 0.000
REMARK SMILES Oc1ccc2[nH]ccc2c1
REMARK SMILES IDX 3 1 4 2 5 3 9 4 8 5 7 6 6 7 10 8 2 9 1 11
REMARK H PARENT 6 10 1 12
REMARK Flexibility Score: inf
ROOT
ATOM      1  C   UNL     1       3.453  14.000  13.798  1.00  0.00     0.048 A 
ATOM      2  C   UNL     1       2.878  12.732  13.995  1.00  0.00     0.030 A 
ATOM      3  C   UNL     1       2.883  11.842  12.922  1.00  0.00     0.046 A 
ATOM      4  C   UNL     1       3.426  12.178  11.710  1.00  0.00     0.003 A 
ATOM      5  C   UNL     1       3.273  11.094  10.875  1.00  0.00     0.028 A 
ATOM      6  C   UNL     1       2.627  10.130  11.644  1.00  0.00     0.083 A 
ATOM      7  N   UNL     1       2.391  10.593  12.894  1.00  0.00    -0.361 N 
ATOM      8  C   UNL     1       4.004  13.426  11.482  1.00  0.00     0.056 A 
ATOM      9  C   UNL     1       4.016  14.350  12.546  1.00  0.00     0.116 A 
ATOM     10  H   UNL     1       1.922  10.080  13.673  1.00  0.00     0.166 HD
ENDROOT
BRANCH   9  11
ATOM     11  O   UNL     1       4.585  15.606  12.352  1.00  0.00    -0.508 OA
ATOM     12  H   UNL     1       5.139  16.053  13.074  1.00  0.00     0.293 HD
ENDBRANCH   9  11
TORSDOF 1
ENDMDL
