MODEL 1
REMARK VINA RESULT:    -5.592      0.000      0.000
REMARK INTER + INTRA:          -9.182
REMARK INTER:                  -7.717
REMARK INTRA:                  -1.465
REMARK UNBOUND:                -1.465
REMARK SMILES O=C([O-])[C@H]1O[C@@H](Oc2cc3oc(-c4ccccc4)cc(=O)c3c(O)c2O)[C@@H](O)[C@@H](O)[C@@H]1O
REMARK SMILES IDX 7 1 6 2 4 3 31 4 5 5 29 6 27 7 2 8 1 9 3 10 32 11 30 13
REMARK SMILES IDX 28 15 8 17 25 18 9 19 23 20 10 21 22 22 11 23 20 24 12 25
REMARK SMILES IDX 19 26 21 27 26 28 24 30 13 32 14 33 18 34 15 35 17 36 16 37
REMARK H PARENT 32 12 30 14 28 16 26 29 24 31
REMARK Flexibility Score: inf
ROOT
ATOM      1  O   UNL     1      43.526  16.947  -3.639  1.00  0.00    -0.458 OA
ENDROOT
BRANCH   1   2
ATOM      2  C   UNL     1      43.820  18.349  -3.599  1.00  0.00     0.339 C 
ATOM      3  C   UNL     1      41.766  18.966  -2.549  1.00  0.00     0.199 C 
ATOM      4  C   UNL     1      41.238  19.661  -3.835  1.00  0.00     0.180 C 
ATOM      5  O   UNL     1      43.190  18.952  -2.475  1.00  0.00    -0.328 OA
ATOM      6  C   UNL     1      41.899  19.084  -5.099  1.00  0.00     0.181 C 
ATOM      7  C   UNL     1      43.427  19.066  -4.911  1.00  0.00     0.214 C 
BRANCH   3   8
ATOM      8  C   UNL     1      41.166  17.606  -2.278  1.00  0.00     0.073 C 
ATOM      9  O   UNL     1      41.590  16.920  -1.310  1.00  0.00    -0.547 OA
ATOM     10  O   UNL     1      40.088  17.137  -3.020  1.00  0.00    -0.547 OA
ENDBRANCH   3   8
BRANCH   4  11
ATOM     11  O   UNL     1      41.513  21.039  -3.771  1.00  0.00    -0.387 OA
ATOM     12  H   UNL     1      41.282  21.338  -2.852  1.00  0.00     0.211 HD
ENDBRANCH   4  11
BRANCH   6  13
ATOM     13  O   UNL     1      41.419  17.789  -5.353  1.00  0.00    -0.387 OA
ATOM     14  H   UNL     1      41.121  17.773  -6.300  1.00  0.00     0.211 HD
ENDBRANCH   6  13
BRANCH   7  15
ATOM     15  O   UNL     1      44.090  18.530  -6.030  1.00  0.00    -0.384 OA
ATOM     16  H   UNL     1      44.519  17.678  -5.762  1.00  0.00     0.211 HD
ENDBRANCH   7  15
ENDBRANCH   1   2
BRANCH   1  17
ATOM     17  C   UNL     1      44.447  15.884  -3.601  1.00  0.00     0.172 A 
ATOM     18  C   UNL     1      44.008  14.662  -3.081  1.00  0.00     0.201 A 
ATOM     19  C   UNL     1      45.767  16.001  -4.064  1.00  0.00     0.098 A 
ATOM     20  C   UNL     1      44.872  13.550  -3.017  1.00  0.00     0.176 A 
ATOM     21  C   UNL     1      46.650  14.925  -3.976  1.00  0.00     0.146 A 
ATOM     22  C   UNL     1      46.230  13.689  -3.424  1.00  0.00     0.111 A 
ATOM     23  O   UNL     1      47.895  15.089  -4.412  1.00  0.00    -0.456 OA
ATOM     24  C   UNL     1      47.218  12.685  -3.284  1.00  0.00     0.197 A 
ATOM     25  C   UNL     1      48.825  14.142  -4.351  1.00  0.00     0.138 A 
ATOM     26  C   UNL     1      48.508  12.908  -3.765  1.00  0.00     0.100 A 
ATOM     27  O   UNL     1      46.984  11.595  -2.700  1.00  0.00    -0.289 OA
BRANCH  18  28
ATOM     28  O   UNL     1      42.686  14.561  -2.644  1.00  0.00    -0.502 OA
ATOM     29  H   UNL     1      41.951  15.171  -2.982  1.00  0.00     0.293 HD
ENDBRANCH  18  28
BRANCH  20  30
ATOM     30  O   UNL     1      44.326  12.340  -2.577  1.00  0.00    -0.504 OA
ATOM     31  H   UNL     1      44.221  11.516  -3.149  1.00  0.00     0.293 HD
ENDBRANCH  20  30
BRANCH  25  32
ATOM     32  C   UNL     1      50.180  14.434  -4.882  1.00  0.00     0.017 A 
ATOM     33  C   UNL     1      50.679  15.751  -4.957  1.00  0.00     0.012 A 
ATOM     34  C   UNL     1      51.006  13.372  -5.293  1.00  0.00     0.012 A 
ATOM     35  C   UNL     1      51.964  15.993  -5.452  1.00  0.00     0.001 A 
ATOM     36  C   UNL     1      52.290  13.621  -5.787  1.00  0.00     0.001 A 
ATOM     37  C   UNL     1      52.767  14.930  -5.871  1.00  0.00     0.000 A 
ENDBRANCH  25  32
ENDBRANCH   1  17
TORSDOF 9
ENDMDL
MODEL 2
REMARK VINA RESULT:    -5.493      0.717      2.292
REMARK INTER + INTRA:          -9.045
REMARK INTER:                  -8.534
REMARK INTRA:                  -0.512
REMARK UNBOUND:                -1.465
REMARK SMILES O=C([O-])[C@H]1O[C@@H](Oc2cc3oc(-c4ccccc4)cc(=O)c3c(O)c2O)[C@@H](O)[C@@H](O)[C@@H]1O
REMARK SMILES IDX 7 1 6 2 4 3 31 4 5 5 29 6 27 7 2 8 1 9 3 10 32 11 30 13
REMARK SMILES IDX 28 15 8 17 25 18 9 19 23 20 10 21 22 22 11 23 20 24 12 25
REMARK SMILES IDX 19 26 21 27 26 28 24 30 13 32 14 33 18 34 15 35 17 36 16 37
REMARK H PARENT 32 12 30 14 28 16 26 29 24 31
REMARK Flexibility Score: inf
ROOT
ATOM      1  O   UNL     1      43.583  17.173  -3.258  1.00  0.00    -0.458 OA
ENDROOT
BRANCH   1   2
ATOM      2  C   UNL     1      42.152  17.129  -3.322  1.00  0.00     0.339 C 
ATOM      3  C   UNL     1      41.942  19.078  -4.685  1.00  0.00     0.199 C 
ATOM      4  C   UNL     1      41.328  19.908  -3.524  1.00  0.00     0.180 C 
ATOM      5  O   UNL     1      41.698  17.680  -4.553  1.00  0.00    -0.328 OA
ATOM      6  C   UNL     1      41.748  19.353  -2.152  1.00  0.00     0.181 C 
ATOM      7  C   UNL     1      41.491  17.835  -2.117  1.00  0.00     0.214 C 
BRANCH   3   8
ATOM      8  C   UNL     1      43.394  19.380  -4.975  1.00  0.00     0.073 C 
ATOM      9  O   UNL     1      44.039  18.640  -5.765  1.00  0.00    -0.547 OA
ATOM     10  O   UNL     1      44.007  20.517  -4.460  1.00  0.00    -0.547 OA
ENDBRANCH   3   8
BRANCH   4  11
ATOM     11  O   UNL     1      39.925  19.876  -3.614  1.00  0.00    -0.387 OA
ATOM     12  H   UNL     1      39.688  20.132  -4.543  1.00  0.00     0.211 HD
ENDBRANCH   4  11
BRANCH   6  13
ATOM     13  O   UNL     1      43.104  19.629  -1.908  1.00  0.00    -0.387 OA
ATOM     14  H   UNL     1      43.325  19.229  -1.026  1.00  0.00     0.211 HD
ENDBRANCH   6  13
BRANCH   7  15
ATOM     15  O   UNL     1      41.874  17.264  -0.890  1.00  0.00    -0.384 OA
ATOM     16  H   UNL     1      41.892  16.280  -0.994  1.00  0.00     0.211 HD
ENDBRANCH   7  15
ENDBRANCH   1   2
BRANCH   1  17
ATOM     17  C   UNL     1      44.470  16.082  -3.320  1.00  0.00     0.172 A 
ATOM     18  C   UNL     1      44.005  14.840  -2.876  1.00  0.00     0.201 A 
ATOM     19  C   UNL     1      45.781  16.192  -3.807  1.00  0.00     0.098 A 
ATOM     20  C   UNL     1      44.834  13.701  -2.913  1.00  0.00     0.176 A 
ATOM     21  C   UNL     1      46.632  15.087  -3.818  1.00  0.00     0.146 A 
ATOM     22  C   UNL     1      46.186  13.828  -3.344  1.00  0.00     0.111 A 
ATOM     23  O   UNL     1      47.870  15.244  -4.274  1.00  0.00    -0.456 OA
ATOM     24  C   UNL     1      47.145  12.786  -3.302  1.00  0.00     0.197 A 
ATOM     25  C   UNL     1      48.771  14.267  -4.304  1.00  0.00     0.138 A 
ATOM     26  C   UNL     1      48.429  13.005  -3.798  1.00  0.00     0.100 A 
ATOM     27  O   UNL     1      46.889  11.665  -2.790  1.00  0.00    -0.289 OA
BRANCH  18  28
ATOM     28  O   UNL     1      42.690  14.748  -2.413  1.00  0.00    -0.502 OA
ATOM     29  H   UNL     1      42.346  13.945  -1.902  1.00  0.00     0.293 HD
ENDBRANCH  18  28
BRANCH  20  30
ATOM     30  O   UNL     1      44.260  12.479  -2.546  1.00  0.00    -0.504 OA
ATOM     31  H   UNL     1      44.679  11.576  -2.708  1.00  0.00     0.293 HD
ENDBRANCH  20  30
BRANCH  25  32
ATOM     32  C   UNL     1      50.121  14.556  -4.848  1.00  0.00     0.017 A 
ATOM     33  C   UNL     1      50.635  15.868  -4.900  1.00  0.00     0.012 A 
ATOM     34  C   UNL     1      50.929  13.494  -5.295  1.00  0.00     0.012 A 
ATOM     35  C   UNL     1      51.916  16.106  -5.408  1.00  0.00     0.001 A 
ATOM     36  C   UNL     1      52.209  13.738  -5.803  1.00  0.00     0.001 A 
ATOM     37  C   UNL     1      52.700  15.044  -5.863  1.00  0.00     0.000 A 
ENDBRANCH  25  32
ENDBRANCH   1  17
TORSDOF 9
ENDMDL
MODEL 3
REMARK VINA RESULT:    -5.379      2.668      8.728
REMARK INTER + INTRA:          -8.888
REMARK INTER:                  -7.325
REMARK INTRA:                  -1.563
REMARK UNBOUND:                -1.465
REMARK SMILES O=C([O-])[C@H]1O[C@@H](Oc2cc3oc(-c4ccccc4)cc(=O)c3c(O)c2O)[C@@H](O)[C@@H](O)[C@@H]1O
REMARK SMILES IDX 7 1 6 2 4 3 31 4 5 5 29 6 27 7 2 8 1 9 3 10 32 11 30 13
REMARK SMILES IDX 28 15 8 17 25 18 9 19 23 20 10 21 22 22 11 23 20 24 12 25
REMARK SMILES IDX 19 26 21 27 26 28 24 30 13 32 14 33 18 34 15 35 17 36 16 37
REMARK H PARENT 32 12 30 14 28 16 26 29 24 31
REMARK Flexibility Score: inf
ROOT
ATOM      1  O   UNL     1      45.751  13.598  -3.161  1.00  0.00    -0.458 OA
ENDROOT
BRANCH   1   2
ATOM      2  C   UNL     1      46.448  13.222  -1.966  1.00  0.00     0.339 C 
ATOM      3  C   UNL     1      48.586  13.047  -3.015  1.00  0.00     0.199 C 
ATOM      4  C   UNL     1      48.607  11.500  -2.871  1.00  0.00     0.180 C 
ATOM      5  O   UNL     1      47.793  13.684  -2.016  1.00  0.00    -0.328 OA
ATOM      6  C   UNL     1      47.183  10.925  -2.778  1.00  0.00     0.181 C 
ATOM      7  C   UNL     1      46.390  11.699  -1.710  1.00  0.00     0.214 C 
BRANCH   3   8
ATOM      8  C   UNL     1      48.262  13.545  -4.405  1.00  0.00     0.073 C 
ATOM      9  O   UNL     1      48.198  14.784  -4.624  1.00  0.00    -0.547 OA
ATOM     10  O   UNL     1      48.128  12.662  -5.469  1.00  0.00    -0.547 OA
ENDBRANCH   3   8
BRANCH   4  11
ATOM     11  O   UNL     1      49.314  11.146  -1.708  1.00  0.00    -0.387 OA
ATOM     12  H   UNL     1      48.647  11.068  -0.976  1.00  0.00     0.211 HD
ENDBRANCH   4  11
BRANCH   6  13
ATOM     13  O   UNL     1      46.541  11.006  -4.025  1.00  0.00    -0.387 OA
ATOM     14  H   UNL     1      47.227  10.809  -4.715  1.00  0.00     0.211 HD
ENDBRANCH   6  13
BRANCH   7  15
ATOM     15  O   UNL     1      45.069  11.229  -1.591  1.00  0.00    -0.384 OA
ATOM     16  H   UNL     1      45.061  10.261  -1.797  1.00  0.00     0.211 HD
ENDBRANCH   7  15
ENDBRANCH   1   2
BRANCH   1  17
ATOM     17  C   UNL     1      44.425  14.055  -3.263  1.00  0.00     0.172 A 
ATOM     18  C   UNL     1      43.519  13.269  -3.984  1.00  0.00     0.201 A 
ATOM     19  C   UNL     1      43.982  15.248  -2.673  1.00  0.00     0.098 A 
ATOM     20  C   UNL     1      42.173  13.659  -4.124  1.00  0.00     0.176 A 
ATOM     21  C   UNL     1      42.662  15.673  -2.830  1.00  0.00     0.146 A 
ATOM     22  C   UNL     1      41.740  14.904  -3.582  1.00  0.00     0.111 A 
ATOM     23  O   UNL     1      42.293  16.819  -2.265  1.00  0.00    -0.456 OA
ATOM     24  C   UNL     1      40.451  15.458  -3.771  1.00  0.00     0.197 A 
ATOM     25  C   UNL     1      41.072  17.331  -2.374  1.00  0.00     0.138 A 
ATOM     26  C   UNL     1      40.116  16.662  -3.151  1.00  0.00     0.100 A 
ATOM     27  O   UNL     1      39.596  14.918  -4.519  1.00  0.00    -0.289 OA
BRANCH  18  28
ATOM     28  O   UNL     1      43.976  12.075  -4.547  1.00  0.00    -0.502 OA
ATOM     29  H   UNL     1      43.352  11.330  -4.827  1.00  0.00     0.293 HD
ENDBRANCH  18  28
BRANCH  20  30
ATOM     30  O   UNL     1      41.312  12.768  -4.774  1.00  0.00    -0.504 OA
ATOM     31  H   UNL     1      40.344  12.957  -4.986  1.00  0.00     0.293 HD
ENDBRANCH  20  30
BRANCH  25  32
ATOM     32  C   UNL     1      40.770  18.613  -1.689  1.00  0.00     0.017 A 
ATOM     33  C   UNL     1      39.448  19.079  -1.538  1.00  0.00     0.012 A 
ATOM     34  C   UNL     1      41.823  19.372  -1.146  1.00  0.00     0.012 A 
ATOM     35  C   UNL     1      39.195  20.286  -0.878  1.00  0.00     0.001 A 
ATOM     36  C   UNL     1      41.564  20.578  -0.487  1.00  0.00     0.001 A 
ATOM     37  C   UNL     1      40.251  21.036  -0.357  1.00  0.00     0.000 A 
ENDBRANCH  25  32
ENDBRANCH   1  17
TORSDOF 9
ENDMDL
MODEL 4
REMARK VINA RESULT:    -5.280      1.418      2.211
REMARK INTER + INTRA:          -8.752
REMARK INTER:                  -7.361
REMARK INTRA:                  -1.391
REMARK UNBOUND:                -1.465
REMARK SMILES O=C([O-])[C@H]1O[C@@H](Oc2cc3oc(-c4ccccc4)cc(=O)c3c(O)c2O)[C@@H](O)[C@@H](O)[C@@H]1O
REMARK SMILES IDX 7 1 6 2 4 3 31 4 5 5 29 6 27 7 2 8 1 9 3 10 32 11 30 13
REMARK SMILES IDX 28 15 8 17 25 18 9 19 23 20 10 21 22 22 11 23 20 24 12 25
REMARK SMILES IDX 19 26 21 27 26 28 24 30 13 32 14 33 18 34 15 35 17 36 16 37
REMARK H PARENT 32 12 30 14 28 16 26 29 24 31
REMARK Flexibility Score: inf
ROOT
ATOM      1  O   UNL     1      42.633  17.429  -3.060  1.00  0.00    -0.458 OA
ENDROOT
BRANCH   1   2
ATOM      2  C   UNL     1      42.005  17.842  -1.840  1.00  0.00     0.339 C 
ATOM      3  C   UNL     1      39.804  17.950  -2.761  1.00  0.00     0.199 C 
ATOM      4  C   UNL     1      39.770  19.501  -2.675  1.00  0.00     0.180 C 
ATOM      5  O   UNL     1      40.666  17.363  -1.789  1.00  0.00    -0.328 OA
ATOM      6  C   UNL     1      41.188  20.097  -2.691  1.00  0.00     0.181 C 
ATOM      7  C   UNL     1      42.057  19.374  -1.646  1.00  0.00     0.214 C 
BRANCH   3   8
ATOM      8  C   UNL     1      40.050  17.403  -4.148  1.00  0.00     0.073 C 
ATOM      9  O   UNL     1      40.107  16.157  -4.325  1.00  0.00    -0.547 OA
ATOM     10  O   UNL     1      40.119  18.247  -5.250  1.00  0.00    -0.547 OA
ENDBRANCH   3   8
BRANCH   4  11
ATOM     11  O   UNL     1      39.130  19.892  -1.485  1.00  0.00    -0.387 OA
ATOM     12  H   UNL     1      39.572  19.400  -0.744  1.00  0.00     0.211 HD
ENDBRANCH   4  11
BRANCH   6  13
ATOM     13  O   UNL     1      41.754  19.975  -3.972  1.00  0.00    -0.387 OA
ATOM     14  H   UNL     1      41.682  19.019  -4.228  1.00  0.00     0.211 HD
ENDBRANCH   6  13
BRANCH   7  15
ATOM     15  O   UNL     1      43.375  19.864  -1.626  1.00  0.00    -0.384 OA
ATOM     16  H   UNL     1      43.713  19.818  -0.696  1.00  0.00     0.211 HD
ENDBRANCH   7  15
ENDBRANCH   1   2
BRANCH   1  17
ATOM     17  C   UNL     1      43.566  16.389  -3.225  1.00  0.00     0.172 A 
ATOM     18  C   UNL     1      43.161  15.092  -2.889  1.00  0.00     0.201 A 
ATOM     19  C   UNL     1      44.865  16.600  -3.713  1.00  0.00     0.098 A 
ATOM     20  C   UNL     1      44.038  13.999  -3.034  1.00  0.00     0.176 A 
ATOM     21  C   UNL     1      45.762  15.538  -3.829  1.00  0.00     0.146 A 
ATOM     22  C   UNL     1      45.378  14.224  -3.465  1.00  0.00     0.111 A 
ATOM     23  O   UNL     1      46.986  15.790  -4.281  1.00  0.00    -0.456 OA
ATOM     24  C   UNL     1      46.382  13.227  -3.523  1.00  0.00     0.197 A 
ATOM     25  C   UNL     1      47.928  14.861  -4.405  1.00  0.00     0.138 A 
ATOM     26  C   UNL     1      47.649  13.545  -4.011  1.00  0.00     0.100 A 
ATOM     27  O   UNL     1      46.182  12.055  -3.110  1.00  0.00    -0.289 OA
BRANCH  18  28
ATOM     28  O   UNL     1      41.858  14.902  -2.424  1.00  0.00    -0.502 OA
ATOM     29  H   UNL     1      41.049  15.285  -2.896  1.00  0.00     0.293 HD
ENDBRANCH  18  28
BRANCH  20  30
ATOM     30  O   UNL     1      43.523  12.726  -2.771  1.00  0.00    -0.504 OA
ATOM     31  H   UNL     1      43.506  12.291  -1.861  1.00  0.00     0.293 HD
ENDBRANCH  20  30
BRANCH  25  32
ATOM     32  C   UNL     1      49.258  15.256  -4.934  1.00  0.00     0.017 A 
ATOM     33  C   UNL     1      50.385  14.419  -4.807  1.00  0.00     0.012 A 
ATOM     34  C   UNL     1      49.398  16.483  -5.609  1.00  0.00     0.012 A 
ATOM     35  C   UNL     1      51.622  14.815  -5.326  1.00  0.00     0.001 A 
ATOM     36  C   UNL     1      50.638  16.874  -6.125  1.00  0.00     0.001 A 
ATOM     37  C   UNL     1      51.749  16.042  -5.980  1.00  0.00     0.000 A 
ENDBRANCH  25  32
ENDBRANCH   1  17
TORSDOF 9
ENDMDL
MODEL 5
REMARK VINA RESULT:    -5.014      2.192      8.389
REMARK INTER + INTRA:          -8.384
REMARK INTER:                  -6.862
REMARK INTRA:                  -1.523
REMARK UNBOUND:                -1.465
REMARK SMILES O=C([O-])[C@H]1O[C@@H](Oc2cc3oc(-c4ccccc4)cc(=O)c3c(O)c2O)[C@@H](O)[C@@H](O)[C@@H]1O
REMARK SMILES IDX 7 1 6 2 4 3 31 4 5 5 29 6 27 7 2 8 1 9 3 10 32 11 30 13
REMARK SMILES IDX 28 15 8 17 25 18 9 19 23 20 10 21 22 22 11 23 20 24 12 25
REMARK SMILES IDX 19 26 21 27 26 28 24 30 13 32 14 33 18 34 15 35 17 36 16 37
REMARK H PARENT 32 12 30 14 28 16 26 29 24 31
REMARK Flexibility Score: inf
ROOT
ATOM      1  O   UNL     1      46.199  15.081  -4.415  1.00  0.00    -0.458 OA
ENDROOT
BRANCH   1   2
ATOM      2  C   UNL     1      46.963  15.310  -5.605  1.00  0.00     0.339 C 
ATOM      3  C   UNL     1      48.514  13.539  -5.203  1.00  0.00     0.199 C 
ATOM      4  C   UNL     1      49.675  14.529  -4.911  1.00  0.00     0.180 C 
ATOM      5  O   UNL     1      47.525  14.088  -6.070  1.00  0.00    -0.328 OA
ATOM      6  C   UNL     1      49.146  15.892  -4.431  1.00  0.00     0.181 C 
ATOM      7  C   UNL     1      48.055  16.384  -5.400  1.00  0.00     0.214 C 
BRANCH   3   8
ATOM      8  C   UNL     1      47.906  12.903  -3.974  1.00  0.00     0.073 C 
ATOM      9  O   UNL     1      46.921  12.127  -4.096  1.00  0.00    -0.547 OA
ATOM     10  O   UNL     1      48.474  13.083  -2.718  1.00  0.00    -0.547 OA
ENDBRANCH   3   8
BRANCH   4  11
ATOM     11  O   UNL     1      50.430  14.725  -6.081  1.00  0.00    -0.387 OA
ATOM     12  H   UNL     1      49.787  14.791  -6.834  1.00  0.00     0.211 HD
ENDBRANCH   4  11
BRANCH   6  13
ATOM     13  O   UNL     1      48.634  15.785  -3.127  1.00  0.00    -0.387 OA
ATOM     14  H   UNL     1      49.326  15.324  -2.583  1.00  0.00     0.211 HD
ENDBRANCH   6  13
BRANCH   7  15
ATOM     15  O   UNL     1      47.517  17.622  -5.003  1.00  0.00    -0.384 OA
ATOM     16  H   UNL     1      48.047  17.963  -4.239  1.00  0.00     0.211 HD
ENDBRANCH   7  15
ENDBRANCH   1   2
BRANCH   1  17
ATOM     17  C   UNL     1      44.809  15.234  -4.255  1.00  0.00     0.172 A 
ATOM     18  C   UNL     1      43.976  14.289  -4.866  1.00  0.00     0.201 A 
ATOM     19  C   UNL     1      44.236  16.278  -3.514  1.00  0.00     0.098 A 
ATOM     20  C   UNL     1      42.575  14.372  -4.745  1.00  0.00     0.176 A 
ATOM     21  C   UNL     1      42.850  16.403  -3.413  1.00  0.00     0.146 A 
ATOM     22  C   UNL     1      41.993  15.472  -4.049  1.00  0.00     0.111 A 
ATOM     23  O   UNL     1      42.355  17.418  -2.713  1.00  0.00    -0.456 OA
ATOM     24  C   UNL     1      40.603  15.730  -3.974  1.00  0.00     0.197 A 
ATOM     25  C   UNL     1      41.053  17.648  -2.574  1.00  0.00     0.138 A 
ATOM     26  C   UNL     1      40.137  16.808  -3.221  1.00  0.00     0.100 A 
ATOM     27  O   UNL     1      39.761  15.036  -4.602  1.00  0.00    -0.289 OA
BRANCH  18  28
ATOM     28  O   UNL     1      44.568  13.246  -5.582  1.00  0.00    -0.502 OA
ATOM     29  H   UNL     1      44.102  12.778  -6.350  1.00  0.00     0.293 HD
ENDBRANCH  18  28
BRANCH  20  30
ATOM     30  O   UNL     1      41.822  13.333  -5.300  1.00  0.00    -0.504 OA
ATOM     31  H   UNL     1      41.340  12.625  -4.767  1.00  0.00     0.293 HD
ENDBRANCH  20  30
BRANCH  25  32
ATOM     32  C   UNL     1      40.614  18.807  -1.758  1.00  0.00     0.017 A 
ATOM     33  C   UNL     1      39.259  19.186  -1.675  1.00  0.00     0.012 A 
ATOM     34  C   UNL     1      41.566  19.533  -1.018  1.00  0.00     0.012 A 
ATOM     35  C   UNL     1      38.875  20.276  -0.889  1.00  0.00     0.001 A 
ATOM     36  C   UNL     1      41.177  20.623  -0.233  1.00  0.00     0.001 A 
ATOM     37  C   UNL     1      39.833  20.996  -0.172  1.00  0.00     0.000 A 
ENDBRANCH  25  32
ENDBRANCH   1  17
TORSDOF 9
ENDMDL
MODEL 6
REMARK VINA RESULT:    -4.841      1.572      3.243
REMARK INTER + INTRA:          -8.146
REMARK INTER:                  -7.901
REMARK INTRA:                  -0.245
REMARK UNBOUND:                -1.465
REMARK SMILES O=C([O-])[C@H]1O[C@@H](Oc2cc3oc(-c4ccccc4)cc(=O)c3c(O)c2O)[C@@H](O)[C@@H](O)[C@@H]1O
REMARK SMILES IDX 7 1 6 2 4 3 31 4 5 5 29 6 27 7 2 8 1 9 3 10 32 11 30 13
REMARK SMILES IDX 28 15 8 17 25 18 9 19 23 20 10 21 22 22 11 23 20 24 12 25
REMARK SMILES IDX 19 26 21 27 26 28 24 30 13 32 14 33 18 34 15 35 17 36 16 37
REMARK H PARENT 32 12 30 14 28 16 26 29 24 31
REMARK Flexibility Score: inf
ROOT
ATOM      1  O   UNL     1      41.787  17.937  -3.432  1.00  0.00    -0.458 OA
ENDROOT
BRANCH   1   2
ATOM      2  C   UNL     1      40.752  18.333  -2.524  1.00  0.00     0.339 C 
ATOM      3  C   UNL     1      40.980  20.671  -2.950  1.00  0.00     0.199 C 
ATOM      4  C   UNL     1      41.578  20.939  -1.541  1.00  0.00     0.180 C 
ATOM      5  O   UNL     1      40.129  19.528  -2.979  1.00  0.00    -0.328 OA
ATOM      6  C   UNL     1      42.245  19.680  -0.963  1.00  0.00     0.181 C 
ATOM      7  C   UNL     1      41.273  18.491  -1.077  1.00  0.00     0.214 C 
BRANCH   3   8
ATOM      8  C   UNL     1      41.994  20.658  -4.071  1.00  0.00     0.073 C 
ATOM      9  O   UNL     1      41.614  20.436  -5.252  1.00  0.00    -0.547 OA
ATOM     10  O   UNL     1      43.325  20.981  -3.837  1.00  0.00    -0.547 OA
ENDBRANCH   3   8
BRANCH   4  11
ATOM     11  O   UNL     1      40.555  21.350  -0.667  1.00  0.00    -0.387 OA
ATOM     12  H   UNL     1      39.815  20.696  -0.760  1.00  0.00     0.211 HD
ENDBRANCH   4  11
BRANCH   6  13
ATOM     13  O   UNL     1      43.443  19.405  -1.645  1.00  0.00    -0.387 OA
ATOM     14  H   UNL     1      43.466  20.002  -2.438  1.00  0.00     0.211 HD
ENDBRANCH   6  13
BRANCH   7  15
ATOM     15  O   UNL     1      41.836  17.301  -0.580  1.00  0.00    -0.384 OA
ATOM     16  H   UNL     1      41.320  17.020   0.217  1.00  0.00     0.211 HD
ENDBRANCH   7  15
ENDBRANCH   1   2
BRANCH   1  17
ATOM     17  C   UNL     1      42.522  16.737  -3.413  1.00  0.00     0.172 A 
ATOM     18  C   UNL     1      41.823  15.550  -3.163  1.00  0.00     0.201 A 
ATOM     19  C   UNL     1      43.906  16.686  -3.637  1.00  0.00     0.098 A 
ATOM     20  C   UNL     1      42.489  14.309  -3.134  1.00  0.00     0.176 A 
ATOM     21  C   UNL     1      44.593  15.473  -3.576  1.00  0.00     0.146 A 
ATOM     22  C   UNL     1      43.905  14.266  -3.295  1.00  0.00     0.111 A 
ATOM     23  O   UNL     1      45.906  15.477  -3.780  1.00  0.00    -0.456 OA
ATOM     24  C   UNL     1      44.694  13.099  -3.156  1.00  0.00     0.197 A 
ATOM     25  C   UNL     1      46.662  14.386  -3.718  1.00  0.00     0.138 A 
ATOM     26  C   UNL     1      46.069  13.160  -3.387  1.00  0.00     0.100 A 
ATOM     27  O   UNL     1      44.202  12.000  -2.791  1.00  0.00    -0.289 OA
BRANCH  18  28
ATOM     28  O   UNL     1      40.443  15.621  -2.961  1.00  0.00    -0.502 OA
ATOM     29  H   UNL     1      39.947  14.986  -2.349  1.00  0.00     0.293 HD
ENDBRANCH  18  28
BRANCH  20  30
ATOM     30  O   UNL     1      41.703  13.164  -2.978  1.00  0.00    -0.504 OA
ATOM     31  H   UNL     1      40.696  13.144  -3.048  1.00  0.00     0.293 HD
ENDBRANCH  20  30
BRANCH  25  32
ATOM     32  C   UNL     1      48.118  14.509  -3.977  1.00  0.00     0.017 A 
ATOM     33  C   UNL     1      48.971  13.386  -3.968  1.00  0.00     0.012 A 
ATOM     34  C   UNL     1      48.665  15.772  -4.271  1.00  0.00     0.012 A 
ATOM     35  C   UNL     1      50.337  13.533  -4.226  1.00  0.00     0.001 A 
ATOM     36  C   UNL     1      50.033  15.913  -4.527  1.00  0.00     0.001 A 
ATOM     37  C   UNL     1      50.868  14.794  -4.501  1.00  0.00     0.000 A 
ENDBRANCH  25  32
ENDBRANCH   1  17
TORSDOF 9
ENDMDL
MODEL 7
REMARK VINA RESULT:    -4.765      2.247      8.325
REMARK INTER + INTRA:          -8.041
REMARK INTER:                  -6.695
REMARK INTRA:                  -1.346
REMARK UNBOUND:                -1.465
REMARK SMILES O=C([O-])[C@H]1O[C@@H](Oc2cc3oc(-c4ccccc4)cc(=O)c3c(O)c2O)[C@@H](O)[C@@H](O)[C@@H]1O
REMARK SMILES IDX 7 1 6 2 4 3 31 4 5 5 29 6 27 7 2 8 1 9 3 10 32 11 30 13
REMARK SMILES IDX 28 15 8 17 25 18 9 19 23 20 10 21 22 22 11 23 20 24 12 25
REMARK SMILES IDX 19 26 21 27 26 28 24 30 13 32 14 33 18 34 15 35 17 36 16 37
REMARK H PARENT 32 12 30 14 28 16 26 29 24 31
REMARK Flexibility Score: inf
ROOT
ATOM      1  O   UNL     1      46.710  13.478  -3.926  1.00  0.00    -0.458 OA
ENDROOT
BRANCH   1   2
ATOM      2  C   UNL     1      47.231  13.048  -5.189  1.00  0.00     0.339 C 
ATOM      3  C   UNL     1      48.473  11.216  -4.293  1.00  0.00     0.199 C 
ATOM      4  C   UNL     1      49.834  11.910  -4.576  1.00  0.00     0.180 C 
ATOM      5  O   UNL     1      47.442  11.641  -5.181  1.00  0.00    -0.328 OA
ATOM      6  C   UNL     1      49.683  13.440  -4.634  1.00  0.00     0.181 C 
ATOM      7  C   UNL     1      48.522  13.803  -5.577  1.00  0.00     0.214 C 
BRANCH   3   8
ATOM      8  C   UNL     1      48.035  11.256  -2.847  1.00  0.00     0.073 C 
ATOM      9  O   UNL     1      46.875  10.875  -2.536  1.00  0.00    -0.547 OA
ATOM     10  O   UNL     1      48.922  11.617  -1.839  1.00  0.00    -0.547 OA
ENDBRANCH   3   8
BRANCH   4  11
ATOM     11  O   UNL     1      50.344  11.461  -5.807  1.00  0.00    -0.387 OA
ATOM     12  H   UNL     1      51.067  10.813  -5.602  1.00  0.00     0.211 HD
ENDBRANCH   4  11
BRANCH   6  13
ATOM     13  O   UNL     1      49.453  13.957  -3.347  1.00  0.00    -0.387 OA
ATOM     14  H   UNL     1      48.488  13.827  -3.153  1.00  0.00     0.211 HD
ENDBRANCH   6  13
BRANCH   7  15
ATOM     15  O   UNL     1      48.323  15.193  -5.657  1.00  0.00    -0.384 OA
ATOM     16  H   UNL     1      48.663  15.607  -4.824  1.00  0.00     0.211 HD
ENDBRANCH   7  15
ENDBRANCH   1   2
BRANCH   1  17
ATOM     17  C   UNL     1      45.390  13.873  -3.641  1.00  0.00     0.172 A 
ATOM     18  C   UNL     1      44.382  12.911  -3.766  1.00  0.00     0.201 A 
ATOM     19  C   UNL     1      45.054  15.174  -3.237  1.00  0.00     0.098 A 
ATOM     20  C   UNL     1      43.038  13.231  -3.491  1.00  0.00     0.176 A 
ATOM     21  C   UNL     1      43.725  15.524  -2.996  1.00  0.00     0.146 A 
ATOM     22  C   UNL     1      42.688  14.569  -3.147  1.00  0.00     0.111 A 
ATOM     23  O   UNL     1      43.453  16.772  -2.631  1.00  0.00    -0.456 OA
ATOM     24  C   UNL     1      41.362  15.035  -2.977  1.00  0.00     0.197 A 
ATOM     25  C   UNL     1      42.223  17.220  -2.404  1.00  0.00     0.138 A 
ATOM     26  C   UNL     1      41.135  16.355  -2.588  1.00  0.00     0.100 A 
ATOM     27  O   UNL     1      40.364  14.304  -3.204  1.00  0.00    -0.289 OA
BRANCH  18  28
ATOM     28  O   UNL     1      44.741  11.617  -4.151  1.00  0.00    -0.502 OA
ATOM     29  H   UNL     1      45.614  11.410  -4.619  1.00  0.00     0.293 HD
ENDBRANCH  18  28
BRANCH  20  30
ATOM     30  O   UNL     1      42.108  12.188  -3.543  1.00  0.00    -0.504 OA
ATOM     31  H   UNL     1      41.627  11.888  -4.378  1.00  0.00     0.293 HD
ENDBRANCH  20  30
BRANCH  25  32
ATOM     32  C   UNL     1      42.041  18.633  -1.988  1.00  0.00     0.017 A 
ATOM     33  C   UNL     1      42.677  19.694  -2.666  1.00  0.00     0.012 A 
ATOM     34  C   UNL     1      41.187  18.933  -0.911  1.00  0.00     0.012 A 
ATOM     35  C   UNL     1      42.477  21.016  -2.257  1.00  0.00     0.001 A 
ATOM     36  C   UNL     1      40.992  20.257  -0.506  1.00  0.00     0.001 A 
ATOM     37  C   UNL     1      41.639  21.297  -1.176  1.00  0.00     0.000 A 
ENDBRANCH  25  32
ENDBRANCH   1  17
TORSDOF 9
ENDMDL
MODEL 8
REMARK VINA RESULT:    -4.687      2.870      4.558
REMARK INTER + INTRA:          -7.934
REMARK INTER:                  -7.140
REMARK INTRA:                  -0.794
REMARK UNBOUND:                -1.465
REMARK SMILES O=C([O-])[C@H]1O[C@@H](Oc2cc3oc(-c4ccccc4)cc(=O)c3c(O)c2O)[C@@H](O)[C@@H](O)[C@@H]1O
REMARK SMILES IDX 7 1 6 2 4 3 31 4 5 5 29 6 27 7 2 8 1 9 3 10 32 11 30 13
REMARK SMILES IDX 28 15 8 17 25 18 9 19 23 20 10 21 22 22 11 23 20 24 12 25
REMARK SMILES IDX 19 26 21 27 26 28 24 30 13 32 14 33 18 34 15 35 17 36 16 37
REMARK H PARENT 32 12 30 14 28 16 26 29 24 31
REMARK Flexibility Score: inf
ROOT
ATOM      1  O   UNL     1      41.602  17.440  -3.722  1.00  0.00    -0.458 OA
ENDROOT
BRANCH   1   2
ATOM      2  C   UNL     1      40.711  18.181  -2.879  1.00  0.00     0.339 C 
ATOM      3  C   UNL     1      41.405  20.324  -3.671  1.00  0.00     0.199 C 
ATOM      4  C   UNL     1      42.104  20.671  -2.327  1.00  0.00     0.180 C 
ATOM      5  O   UNL     1      40.333  19.398  -3.512  1.00  0.00    -0.328 OA
ATOM      6  C   UNL     1      42.516  19.401  -1.563  1.00  0.00     0.181 C 
ATOM      7  C   UNL     1      41.314  18.443  -1.480  1.00  0.00     0.214 C 
BRANCH   3   8
ATOM      8  C   UNL     1      42.345  19.925  -4.784  1.00  0.00     0.073 C 
ATOM      9  O   UNL     1      41.879  19.609  -5.911  1.00  0.00    -0.547 OA
ATOM     10  O   UNL     1      43.724  19.992  -4.617  1.00  0.00    -0.547 OA
ENDBRANCH   3   8
BRANCH   4  11
ATOM     11  O   UNL     1      41.227  21.418  -1.520  1.00  0.00    -0.387 OA
ATOM     12  H   UNL     1      41.317  21.069  -0.595  1.00  0.00     0.211 HD
ENDBRANCH   4  11
BRANCH   6  13
ATOM     13  O   UNL     1      43.600  18.777  -2.203  1.00  0.00    -0.387 OA
ATOM     14  H   UNL     1      44.234  19.496  -2.463  1.00  0.00     0.211 HD
ENDBRANCH   6  13
BRANCH   7  15
ATOM     15  O   UNL     1      41.635  17.251  -0.807  1.00  0.00    -0.384 OA
ATOM     16  H   UNL     1      41.071  17.187   0.005  1.00  0.00     0.211 HD
ENDBRANCH   7  15
ENDBRANCH   1   2
BRANCH   1  17
ATOM     17  C   UNL     1      41.856  16.057  -3.683  1.00  0.00     0.172 A 
ATOM     18  C   UNL     1      40.836  15.196  -4.103  1.00  0.00     0.201 A 
ATOM     19  C   UNL     1      43.077  15.518  -3.249  1.00  0.00     0.098 A 
ATOM     20  C   UNL     1      41.019  13.799  -4.097  1.00  0.00     0.176 A 
ATOM     21  C   UNL     1      43.268  14.137  -3.200  1.00  0.00     0.146 A 
ATOM     22  C   UNL     1      42.235  13.250  -3.593  1.00  0.00     0.111 A 
ATOM     23  O   UNL     1      44.435  13.673  -2.767  1.00  0.00    -0.456 OA
ATOM     24  C   UNL     1      42.480  11.867  -3.419  1.00  0.00     0.197 A 
ATOM     25  C   UNL     1      44.714  12.379  -2.653  1.00  0.00     0.138 A 
ATOM     26  C   UNL     1      43.726  11.435  -2.966  1.00  0.00     0.100 A 
ATOM     27  O   UNL     1      41.590  11.000  -3.623  1.00  0.00    -0.289 OA
BRANCH  18  28
ATOM     28  O   UNL     1      39.636  15.754  -4.548  1.00  0.00    -0.502 OA
ATOM     29  H   UNL     1      39.521  16.748  -4.704  1.00  0.00     0.293 HD
ENDBRANCH  18  28
BRANCH  20  30
ATOM     30  O   UNL     1      39.989  13.016  -4.626  1.00  0.00    -0.504 OA
ATOM     31  H   UNL     1      39.271  12.565  -4.079  1.00  0.00     0.293 HD
ENDBRANCH  20  30
BRANCH  25  32
ATOM     32  C   UNL     1      46.059  11.977  -2.170  1.00  0.00     0.017 A 
ATOM     33  C   UNL     1      47.233  12.325  -2.869  1.00  0.00     0.012 A 
ATOM     34  C   UNL     1      46.176  11.257  -0.966  1.00  0.00     0.012 A 
ATOM     35  C   UNL     1      48.487  11.941  -2.382  1.00  0.00     0.001 A 
ATOM     36  C   UNL     1      47.432  10.875  -0.485  1.00  0.00     0.001 A 
ATOM     37  C   UNL     1      48.586  11.214  -1.195  1.00  0.00     0.000 A 
ENDBRANCH  25  32
ENDBRANCH   1  17
TORSDOF 9
ENDMDL
MODEL 9
REMARK VINA RESULT:    -4.564      2.301      4.248
REMARK INTER + INTRA:          -7.764
REMARK INTER:                  -6.678
REMARK INTRA:                  -1.085
REMARK UNBOUND:                -1.465
REMARK SMILES O=C([O-])[C@H]1O[C@@H](Oc2cc3oc(-c4ccccc4)cc(=O)c3c(O)c2O)[C@@H](O)[C@@H](O)[C@@H]1O
REMARK SMILES IDX 7 1 6 2 4 3 31 4 5 5 29 6 27 7 2 8 1 9 3 10 32 11 30 13
REMARK SMILES IDX 28 15 8 17 25 18 9 19 23 20 10 21 22 22 11 23 20 24 12 25
REMARK SMILES IDX 19 26 21 27 26 28 24 30 13 32 14 33 18 34 15 35 17 36 16 37
REMARK H PARENT 32 12 30 14 28 16 26 29 24 31
REMARK Flexibility Score: inf
ROOT
ATOM      1  O   UNL     1      41.678  17.122  -4.081  1.00  0.00    -0.458 OA
ENDROOT
BRANCH   1   2
ATOM      2  C   UNL     1      40.942  16.963  -2.862  1.00  0.00     0.339 C 
ATOM      3  C   UNL     1      39.179  18.449  -3.484  1.00  0.00     0.199 C 
ATOM      4  C   UNL     1      39.622  19.518  -2.448  1.00  0.00     0.180 C 
ATOM      5  O   UNL     1      39.549  17.126  -3.104  1.00  0.00    -0.328 OA
ATOM      6  C   UNL     1      41.116  19.388  -2.108  1.00  0.00     0.181 C 
ATOM      7  C   UNL     1      41.432  17.923  -1.754  1.00  0.00     0.214 C 
BRANCH   3   8
ATOM      8  C   UNL     1      39.561  18.760  -4.913  1.00  0.00     0.073 C 
ATOM      9  O   UNL     1      39.260  17.951  -5.830  1.00  0.00    -0.547 OA
ATOM     10  O   UNL     1      40.156  19.971  -5.248  1.00  0.00    -0.547 OA
ENDBRANCH   3   8
BRANCH   4  11
ATOM     11  O   UNL     1      38.875  19.365  -1.266  1.00  0.00    -0.387 OA
ATOM     12  H   UNL     1      38.412  18.490  -1.328  1.00  0.00     0.211 HD
ENDBRANCH   4  11
BRANCH   6  13
ATOM     13  O   UNL     1      41.903  19.814  -3.192  1.00  0.00    -0.387 OA
ATOM     14  H   UNL     1      41.993  20.800  -3.112  1.00  0.00     0.211 HD
ENDBRANCH   6  13
BRANCH   7  15
ATOM     15  O   UNL     1      42.793  17.736  -1.451  1.00  0.00    -0.384 OA
ATOM     16  H   UNL     1      43.173  17.090  -2.099  1.00  0.00     0.211 HD
ENDBRANCH   7  15
ENDBRANCH   1   2
BRANCH   1  17
ATOM     17  C   UNL     1      43.050  16.883  -4.283  1.00  0.00     0.172 A 
ATOM     18  C   UNL     1      43.748  17.767  -5.114  1.00  0.00     0.201 A 
ATOM     19  C   UNL     1      43.733  15.812  -3.688  1.00  0.00     0.098 A 
ATOM     20  C   UNL     1      45.125  17.596  -5.358  1.00  0.00     0.176 A 
ATOM     21  C   UNL     1      45.088  15.601  -3.946  1.00  0.00     0.146 A 
ATOM     22  C   UNL     1      45.803  16.469  -4.808  1.00  0.00     0.111 A 
ATOM     23  O   UNL     1      45.689  14.564  -3.372  1.00  0.00    -0.456 OA
ATOM     24  C   UNL     1      47.147  16.124  -5.089  1.00  0.00     0.197 A 
ATOM     25  C   UNL     1      46.965  14.254  -3.569  1.00  0.00     0.138 A 
ATOM     26  C   UNL     1      47.730  15.027  -4.454  1.00  0.00     0.100 A 
ATOM     27  O   UNL     1      47.836  16.756  -5.932  1.00  0.00    -0.289 OA
BRANCH  18  28
ATOM     28  O   UNL     1      43.053  18.837  -5.680  1.00  0.00    -0.502 OA
ATOM     29  H   UNL     1      42.044  18.849  -5.765  1.00  0.00     0.293 HD
ENDBRANCH  18  28
BRANCH  20  30
ATOM     30  O   UNL     1      45.768  18.579  -6.117  1.00  0.00    -0.504 OA
ATOM     31  H   UNL     1      46.188  18.423  -7.021  1.00  0.00     0.293 HD
ENDBRANCH  20  30
BRANCH  25  32
ATOM     32  C   UNL     1      47.533  13.078  -2.864  1.00  0.00     0.017 A 
ATOM     33  C   UNL     1      48.509  12.254  -3.462  1.00  0.00     0.012 A 
ATOM     34  C   UNL     1      47.116  12.790  -1.551  1.00  0.00     0.012 A 
ATOM     35  C   UNL     1      49.033  11.159  -2.767  1.00  0.00     0.001 A 
ATOM     36  C   UNL     1      47.643  11.693  -0.861  1.00  0.00     0.001 A 
ATOM     37  C   UNL     1      48.598  10.877  -1.471  1.00  0.00     0.000 A 
ENDBRANCH  25  32
ENDBRANCH   1  17
TORSDOF 9
ENDMDL
