MODEL 1
REMARK VINA RESULT:     3.036      0.000      0.000
REMARK INTER + INTRA:           4.089
REMARK INTER:                   3.657
REMARK INTRA:                   0.431
REMARK UNBOUND:                 0.431
REMARK SMILES O=c1c(O)c(-c2ccc(O)c(O)c2)oc2cc(O)cc(O)c12
REMARK SMILES IDX 5 1 3 2 2 3 1 4 22 5 20 6 19 7 17 8 16 9 15 10 14 11 6 12
REMARK SMILES IDX 7 13 8 14 9 15 13 16 11 17 10 18 12 20 4 22 21 24 18 26
REMARK H PARENT 10 19 12 21 4 23 21 25 18 27
REMARK Flexibility Score: inf
ROOT
ATOM      1  C   UNL     1      20.812   5.303   6.117  1.00  0.00     0.180 A 
ATOM      2  C   UNL     1      22.073   5.468   5.518  1.00  0.00     0.208 A 
ATOM      3  C   UNL     1      22.950   4.372   5.461  1.00  0.00     0.238 A 
ATOM      4  O   UNL     1      24.055   4.513   4.875  1.00  0.00    -0.285 OA
ATOM      5  C   UNL     1      22.563   3.131   6.019  1.00  0.00     0.111 A 
ATOM      6  C   UNL     1      23.386   1.965   6.054  1.00  0.00     0.134 A 
ATOM      7  C   UNL     1      22.851   0.756   6.514  1.00  0.00     0.093 A 
ATOM      8  C   UNL     1      21.544   0.685   7.000  1.00  0.00     0.123 A 
ATOM      9  C   UNL     1      20.752   1.830   7.025  1.00  0.00     0.094 A 
ATOM     10  C   UNL     1      21.245   3.044   6.540  1.00  0.00     0.146 A 
ATOM     11  O   UNL     1      20.453   4.108   6.573  1.00  0.00    -0.452 OA
ENDROOT
BRANCH   1  12
ATOM     12  C   UNL     1      19.844   6.417   6.236  1.00  0.00     0.025 A 
ATOM     13  C   UNL     1      18.467   6.176   6.382  1.00  0.00     0.016 A 
ATOM     14  C   UNL     1      17.568   7.243   6.466  1.00  0.00     0.051 A 
ATOM     15  C   UNL     1      18.027   8.562   6.394  1.00  0.00     0.157 A 
ATOM     16  C   UNL     1      20.299   7.741   6.141  1.00  0.00     0.062 A 
ATOM     17  C   UNL     1      19.398   8.814   6.227  1.00  0.00     0.158 A 
BRANCH  15  18
ATOM     18  O   UNL     1      17.106   9.604   6.484  1.00  0.00    -0.504 OA
ATOM     19  H   UNL     1      16.199   9.562   6.035  1.00  0.00     0.293 HD
ENDBRANCH  15  18
BRANCH  17  20
ATOM     20  O   UNL     1      19.861  10.126   6.146  1.00  0.00    -0.504 OA
ATOM     21  H   UNL     1      20.455  10.525   6.864  1.00  0.00     0.293 HD
ENDBRANCH  17  20
ENDBRANCH   1  12
BRANCH   2  22
ATOM     22  O   UNL     1      22.427   6.697   4.953  1.00  0.00    -0.502 OA
ATOM     23  H   UNL     1      23.103   6.777   4.202  1.00  0.00     0.293 HD
ENDBRANCH   2  22
BRANCH   6  24
ATOM     24  O   UNL     1      24.732   1.951   5.678  1.00  0.00    -0.507 OA
ATOM     25  H   UNL     1      25.348   1.157   5.774  1.00  0.00     0.293 HD
ENDBRANCH   6  24
BRANCH   8  26
ATOM     26  O   UNL     1      21.025  -0.520   7.470  1.00  0.00    -0.508 OA
ATOM     27  H   UNL     1      20.173  -0.552   8.019  1.00  0.00     0.293 HD
ENDBRANCH   8  26
TORSDOF 6
ENDMDL
MODEL 2
REMARK VINA RESULT:     3.661      1.218      3.063
REMARK INTER + INTRA:           4.841
REMARK INTER:                   4.462
REMARK INTRA:                   0.378
REMARK UNBOUND:                 0.431
REMARK SMILES O=c1c(O)c(-c2ccc(O)c(O)c2)oc2cc(O)cc(O)c12
REMARK SMILES IDX 5 1 3 2 2 3 1 4 22 5 20 6 19 7 17 8 16 9 15 10 14 11 6 12
REMARK SMILES IDX 7 13 8 14 9 15 13 16 11 17 10 18 12 20 4 22 21 24 18 26
REMARK H PARENT 10 19 12 21 4 23 21 25 18 27
REMARK Flexibility Score: inf
ROOT
ATOM      1  C   UNL     1      20.725   5.140   6.437  1.00  0.00     0.180 A 
ATOM      2  C   UNL     1      20.048   4.152   7.172  1.00  0.00     0.208 A 
ATOM      3  C   UNL     1      20.615   2.871   7.276  1.00  0.00     0.238 A 
ATOM      4  O   UNL     1      20.030   2.007   7.980  1.00  0.00    -0.285 OA
ATOM      5  C   UNL     1      21.842   2.590   6.629  1.00  0.00     0.111 A 
ATOM      6  C   UNL     1      22.488   1.317   6.633  1.00  0.00     0.134 A 
ATOM      7  C   UNL     1      23.763   1.187   6.070  1.00  0.00     0.093 A 
ATOM      8  C   UNL     1      24.388   2.269   5.447  1.00  0.00     0.123 A 
ATOM      9  C   UNL     1      23.741   3.501   5.386  1.00  0.00     0.094 A 
ATOM     10  C   UNL     1      22.483   3.670   5.969  1.00  0.00     0.146 A 
ATOM     11  O   UNL     1      21.906   4.864   5.897  1.00  0.00    -0.452 OA
ENDROOT
BRANCH   1  12
ATOM     12  C   UNL     1      20.179   6.505   6.263  1.00  0.00     0.025 A 
ATOM     13  C   UNL     1      21.023   7.607   6.043  1.00  0.00     0.016 A 
ATOM     14  C   UNL     1      20.487   8.892   5.907  1.00  0.00     0.051 A 
ATOM     15  C   UNL     1      19.107   9.096   6.000  1.00  0.00     0.157 A 
ATOM     16  C   UNL     1      18.796   6.716   6.378  1.00  0.00     0.062 A 
ATOM     17  C   UNL     1      18.256   8.004   6.240  1.00  0.00     0.158 A 
BRANCH  15  18
ATOM     18  O   UNL     1      18.602  10.387   5.857  1.00  0.00    -0.504 OA
ATOM     19  H   UNL     1      18.950  11.025   5.151  1.00  0.00     0.293 HD
ENDBRANCH  15  18
BRANCH  17  20
ATOM     20  O   UNL     1      16.880   8.202   6.342  1.00  0.00    -0.504 OA
ATOM     21  H   UNL     1      16.411   8.943   5.834  1.00  0.00     0.293 HD
ENDBRANCH  17  20
ENDBRANCH   1  12
BRANCH   2  22
ATOM     22  O   UNL     1      18.847   4.457   7.821  1.00  0.00    -0.502 OA
ATOM     23  H   UNL     1      17.946   4.376   7.364  1.00  0.00     0.293 HD
ENDBRANCH   2  22
BRANCH   6  24
ATOM     24  O   UNL     1      21.911   0.152   7.148  1.00  0.00    -0.507 OA
ATOM     25  H   UNL     1      22.030  -0.770   6.757  1.00  0.00     0.293 HD
ENDBRANCH   6  24
BRANCH   8  26
ATOM     26  O   UNL     1      25.652   2.128   4.875  1.00  0.00    -0.508 OA
ATOM     27  H   UNL     1      26.197   1.282   4.999  1.00  0.00     0.293 HD
ENDBRANCH   8  26
TORSDOF 6
ENDMDL
MODEL 3
REMARK VINA RESULT:     5.517      0.961      1.620
REMARK INTER + INTRA:           7.077
REMARK INTER:                   6.854
REMARK INTRA:                   0.223
REMARK UNBOUND:                 0.431
REMARK SMILES O=c1c(O)c(-c2ccc(O)c(O)c2)oc2cc(O)cc(O)c12
REMARK SMILES IDX 5 1 3 2 2 3 1 4 22 5 20 6 19 7 17 8 16 9 15 10 14 11 6 12
REMARK SMILES IDX 7 13 8 14 9 15 13 16 11 17 10 18 12 20 4 22 21 24 18 26
REMARK H PARENT 10 19 12 21 4 23 21 25 18 27
REMARK Flexibility Score: inf
ROOT
ATOM      1  C   UNL     1      21.126   4.775   6.242  1.00  0.00     0.180 A 
ATOM      2  C   UNL     1      22.348   4.662   5.557  1.00  0.00     0.208 A 
ATOM      3  C   UNL     1      23.005   3.421   5.536  1.00  0.00     0.238 A 
ATOM      4  O   UNL     1      24.071   3.314   4.876  1.00  0.00    -0.285 OA
ATOM      5  C   UNL     1      22.442   2.314   6.214  1.00  0.00     0.111 A 
ATOM      6  C   UNL     1      23.041   1.021   6.293  1.00  0.00     0.134 A 
ATOM      7  C   UNL     1      22.331  -0.034   6.879  1.00  0.00     0.093 A 
ATOM      8  C   UNL     1      21.072   0.172   7.447  1.00  0.00     0.123 A 
ATOM      9  C   UNL     1      20.504   1.444   7.427  1.00  0.00     0.094 A 
ATOM     10  C   UNL     1      21.172   2.509   6.818  1.00  0.00     0.146 A 
ATOM     11  O   UNL     1      20.590   3.702   6.813  1.00  0.00    -0.452 OA
ENDROOT
BRANCH   1  12
ATOM     12  C   UNL     1      20.386   6.055   6.328  1.00  0.00     0.025 A 
ATOM     13  C   UNL     1      21.059   7.289   6.344  1.00  0.00     0.016 A 
ATOM     14  C   UNL     1      20.342   8.484   6.452  1.00  0.00     0.051 A 
ATOM     15  C   UNL     1      18.947   8.465   6.558  1.00  0.00     0.157 A 
ATOM     16  C   UNL     1      18.988   6.038   6.458  1.00  0.00     0.062 A 
ATOM     17  C   UNL     1      18.266   7.237   6.564  1.00  0.00     0.158 A 
BRANCH  15  18
ATOM     18  O   UNL     1      18.260   9.673   6.661  1.00  0.00    -0.504 OA
ATOM     19  H   UNL     1      18.735  10.567   6.622  1.00  0.00     0.293 HD
ENDBRANCH  15  18
BRANCH  17  20
ATOM     20  O   UNL     1      16.877   7.210   6.679  1.00  0.00    -0.504 OA
ATOM     21  H   UNL     1      16.379   6.354   6.895  1.00  0.00     0.293 HD
ENDBRANCH  17  20
ENDBRANCH   1  12
BRANCH   2  22
ATOM     22  O   UNL     1      22.876   5.763   4.876  1.00  0.00    -0.502 OA
ATOM     23  H   UNL     1      23.798   6.134   5.074  1.00  0.00     0.293 HD
ENDBRANCH   2  22
BRANCH   6  24
ATOM     24  O   UNL     1      24.331   0.730   5.839  1.00  0.00    -0.507 OA
ATOM     25  H   UNL     1      24.984   0.125   6.313  1.00  0.00     0.293 HD
ENDBRANCH   6  24
BRANCH   8  26
ATOM     26  O   UNL     1      20.379  -0.881   8.042  1.00  0.00    -0.508 OA
ATOM     27  H   UNL     1      20.725  -1.335   8.880  1.00  0.00     0.293 HD
ENDBRANCH   8  26
TORSDOF 6
ENDMDL
