MODEL 1
REMARK VINA RESULT:    -5.318      0.000      0.000
REMARK INTER + INTRA:          -5.818
REMARK INTER:                  -5.785
REMARK INTRA:                  -0.033
REMARK UNBOUND:                -0.033
REMARK SMILES O=C([O-])c1ccc(O)cc1
REMARK SMILES IDX 4 1 5 2 10 3 6 4 9 5 7 6 2 7 1 8 3 9 8 10
REMARK H PARENT 8 11
REMARK Flexibility Score: inf
ROOT
ATOM      1  C   UNL     1     -33.649  44.732  38.798  1.00  0.00    -0.003 A 
ATOM      2  C   UNL     1     -34.745  45.206  38.056  1.00  0.00     0.014 A 
ATOM      3  C   UNL     1     -32.347  45.066  38.381  1.00  0.00     0.014 A 
ATOM      4  C   UNL     1     -34.543  45.997  36.920  1.00  0.00     0.047 A 
ATOM      5  C   UNL     1     -32.149  45.857  37.245  1.00  0.00     0.047 A 
ATOM      6  C   UNL     1     -33.248  46.324  36.513  1.00  0.00     0.115 A 
ENDROOT
BRANCH   1   7
ATOM      7  C   UNL     1     -33.865  43.895  39.999  1.00  0.00     0.071 C 
ATOM      8  O   UNL     1     -33.056  42.974  40.293  1.00  0.00    -0.545 OA
ATOM      9  O   UNL     1     -34.965  44.114  40.822  1.00  0.00    -0.545 OA
ENDBRANCH   1   7
BRANCH   6  10
ATOM     10  O   UNL     1     -33.061  47.114  35.379  1.00  0.00    -0.508 OA
ATOM     11  H   UNL     1     -32.263  46.985  34.769  1.00  0.00     0.293 HD
ENDBRANCH   6  10
TORSDOF 2
ENDMDL
MODEL 2
REMARK VINA RESULT:    -5.285      0.050      1.532
REMARK INTER + INTRA:          -5.781
REMARK INTER:                  -5.749
REMARK INTRA:                  -0.032
REMARK UNBOUND:                -0.033
REMARK SMILES O=C([O-])c1ccc(O)cc1
REMARK SMILES IDX 4 1 5 2 10 3 6 4 9 5 7 6 2 7 1 8 3 9 8 10
REMARK H PARENT 8 11
REMARK Flexibility Score: inf
ROOT
ATOM      1  C   UNL     1     -33.663  44.700  38.800  1.00  0.00    -0.003 A 
ATOM      2  C   UNL     1     -32.363  45.068  38.411  1.00  0.00     0.014 A 
ATOM      3  C   UNL     1     -34.756  45.148  38.036  1.00  0.00     0.014 A 
ATOM      4  C   UNL     1     -32.161  45.868  37.282  1.00  0.00     0.047 A 
ATOM      5  C   UNL     1     -34.550  45.948  36.907  1.00  0.00     0.047 A 
ATOM      6  C   UNL     1     -33.251  46.310  36.528  1.00  0.00     0.115 A 
ENDROOT
BRANCH   1   7
ATOM      7  C   UNL     1     -33.873  43.853  39.995  1.00  0.00     0.071 C 
ATOM      8  O   UNL     1     -33.090  42.898  40.250  1.00  0.00    -0.545 OA
ATOM      9  O   UNL     1     -34.939  44.098  40.854  1.00  0.00    -0.545 OA
ENDBRANCH   1   7
BRANCH   6  10
ATOM     10  O   UNL     1     -33.035  47.106  35.405  1.00  0.00    -0.508 OA
ATOM     11  H   UNL     1     -33.541  47.972  35.265  1.00  0.00     0.293 HD
ENDBRANCH   6  10
TORSDOF 2
ENDMDL
MODEL 3
REMARK VINA RESULT:    -5.007     12.716     15.339
REMARK INTER + INTRA:          -5.479
REMARK INTER:                  -5.446
REMARK INTRA:                  -0.033
REMARK UNBOUND:                -0.033
REMARK SMILES O=C([O-])c1ccc(O)cc1
REMARK SMILES IDX 4 1 5 2 10 3 6 4 9 5 7 6 2 7 1 8 3 9 8 10
REMARK H PARENT 8 11
REMARK Flexibility Score: inf
ROOT
ATOM      1  C   UNL     1     -39.972  37.298  48.130  1.00  0.00    -0.003 A 
ATOM      2  C   UNL     1     -40.464  38.356  48.914  1.00  0.00     0.014 A 
ATOM      3  C   UNL     1     -40.256  35.974  48.514  1.00  0.00     0.014 A 
ATOM      4  C   UNL     1     -41.223  38.095  50.060  1.00  0.00     0.047 A 
ATOM      5  C   UNL     1     -41.015  35.717  49.659  1.00  0.00     0.047 A 
ATOM      6  C   UNL     1     -41.501  36.778  50.435  1.00  0.00     0.115 A 
ENDROOT
BRANCH   1   7
ATOM      7  C   UNL     1     -39.169  37.577  46.918  1.00  0.00     0.071 C 
ATOM      8  O   UNL     1     -38.231  36.806  46.579  1.00  0.00    -0.545 OA
ATOM      9  O   UNL     1     -39.438  38.695  46.136  1.00  0.00    -0.545 OA
ENDBRANCH   1   7
BRANCH   6  10
ATOM     10  O   UNL     1     -42.259  36.533  51.578  1.00  0.00    -0.508 OA
ATOM     11  H   UNL     1     -41.824  36.398  52.483  1.00  0.00     0.293 HD
ENDBRANCH   6  10
TORSDOF 2
ENDMDL
MODEL 4
REMARK VINA RESULT:    -5.002     12.718     15.325
REMARK INTER + INTRA:          -5.473
REMARK INTER:                  -5.440
REMARK INTRA:                  -0.033
REMARK UNBOUND:                -0.033
REMARK SMILES O=C([O-])c1ccc(O)cc1
REMARK SMILES IDX 4 1 5 2 10 3 6 4 9 5 7 6 2 7 1 8 3 9 8 10
REMARK H PARENT 8 11
REMARK Flexibility Score: inf
ROOT
ATOM      1  C   UNL     1     -39.867  37.243  48.142  1.00  0.00    -0.003 A 
ATOM      2  C   UNL     1     -40.212  35.937  48.532  1.00  0.00     0.014 A 
ATOM      3  C   UNL     1     -40.348  38.329  48.897  1.00  0.00     0.014 A 
ATOM      4  C   UNL     1     -41.020  35.721  49.652  1.00  0.00     0.047 A 
ATOM      5  C   UNL     1     -41.156  38.110  50.018  1.00  0.00     0.047 A 
ATOM      6  C   UNL     1     -41.493  36.804  50.397  1.00  0.00     0.115 A 
ENDROOT
BRANCH   1   7
ATOM      7  C   UNL     1     -39.012  37.468  46.956  1.00  0.00     0.071 C 
ATOM      8  O   UNL     1     -38.112  36.641  46.648  1.00  0.00    -0.545 OA
ATOM      9  O   UNL     1     -39.189  38.597  46.163  1.00  0.00    -0.545 OA
ENDBRANCH   1   7
BRANCH   6  10
ATOM     10  O   UNL     1     -42.298  36.574  51.512  1.00  0.00    -0.508 OA
ATOM     11  H   UNL     1     -42.878  35.747  51.585  1.00  0.00     0.293 HD
ENDBRANCH   6  10
TORSDOF 2
ENDMDL
MODEL 5
REMARK VINA RESULT:    -4.793     10.201     12.748
REMARK INTER + INTRA:          -5.246
REMARK INTER:                  -5.211
REMARK INTRA:                  -0.036
REMARK UNBOUND:                -0.033
REMARK SMILES O=C([O-])c1ccc(O)cc1
REMARK SMILES IDX 4 1 5 2 10 3 6 4 9 5 7 6 2 7 1 8 3 9 8 10
REMARK H PARENT 8 11
REMARK Flexibility Score: inf
ROOT
ATOM      1  C   UNL     1     -39.381  38.997  45.998  1.00  0.00    -0.003 A 
ATOM      2  C   UNL     1     -40.583  38.660  46.644  1.00  0.00     0.014 A 
ATOM      3  C   UNL     1     -38.163  38.795  46.673  1.00  0.00     0.014 A 
ATOM      4  C   UNL     1     -40.567  38.132  47.940  1.00  0.00     0.047 A 
ATOM      5  C   UNL     1     -38.151  38.267  47.968  1.00  0.00     0.047 A 
ATOM      6  C   UNL     1     -39.354  37.934  48.603  1.00  0.00     0.115 A 
ENDROOT
BRANCH   1   7
ATOM      7  C   UNL     1     -39.401  39.555  44.627  1.00  0.00     0.071 C 
ATOM      8  O   UNL     1     -40.475  39.597  43.968  1.00  0.00    -0.545 OA
ATOM      9  O   UNL     1     -38.235  40.043  44.048  1.00  0.00    -0.545 OA
ENDBRANCH   1   7
BRANCH   6  10
ATOM     10  O   UNL     1     -39.353  37.407  49.894  1.00  0.00    -0.508 OA
ATOM     11  H   UNL     1     -39.454  38.000  50.709  1.00  0.00     0.293 HD
ENDBRANCH   6  10
TORSDOF 2
ENDMDL
MODEL 6
REMARK VINA RESULT:    -4.632      1.962      2.463
REMARK INTER + INTRA:          -5.071
REMARK INTER:                  -5.036
REMARK INTRA:                  -0.035
REMARK UNBOUND:                -0.033
REMARK SMILES O=C([O-])c1ccc(O)cc1
REMARK SMILES IDX 4 1 5 2 10 3 6 4 9 5 7 6 2 7 1 8 3 9 8 10
REMARK H PARENT 8 11
REMARK Flexibility Score: inf
ROOT
ATOM      1  C   UNL     1     -34.700  43.623  40.394  1.00  0.00    -0.003 A 
ATOM      2  C   UNL     1     -35.051  44.976  40.544  1.00  0.00     0.014 A 
ATOM      3  C   UNL     1     -34.329  43.151  39.122  1.00  0.00     0.014 A 
ATOM      4  C   UNL     1     -35.032  45.839  39.444  1.00  0.00     0.047 A 
ATOM      5  C   UNL     1     -34.311  44.017  38.023  1.00  0.00     0.047 A 
ATOM      6  C   UNL     1     -34.662  45.363  38.183  1.00  0.00     0.115 A 
ENDROOT
BRANCH   1   7
ATOM      7  C   UNL     1     -34.721  42.712  41.560  1.00  0.00     0.071 C 
ATOM      8  O   UNL     1     -34.164  41.583  41.502  1.00  0.00    -0.545 OA
ATOM      9  O   UNL     1     -35.357  43.089  42.738  1.00  0.00    -0.545 OA
ENDBRANCH   1   7
BRANCH   6  10
ATOM     10  O   UNL     1     -34.647  46.235  37.095  1.00  0.00    -0.508 OA
ATOM     11  H   UNL     1     -35.434  46.837  36.888  1.00  0.00     0.293 HD
ENDBRANCH   6  10
TORSDOF 2
ENDMDL
MODEL 7
REMARK VINA RESULT:    -4.611      2.034      2.815
REMARK INTER + INTRA:          -5.048
REMARK INTER:                  -5.013
REMARK INTRA:                  -0.036
REMARK UNBOUND:                -0.033
REMARK SMILES O=C([O-])c1ccc(O)cc1
REMARK SMILES IDX 4 1 5 2 10 3 6 4 9 5 7 6 2 7 1 8 3 9 8 10
REMARK H PARENT 8 11
REMARK Flexibility Score: inf
ROOT
ATOM      1  C   UNL     1     -34.712  43.520  40.424  1.00  0.00    -0.003 A 
ATOM      2  C   UNL     1     -34.337  43.097  39.137  1.00  0.00     0.014 A 
ATOM      3  C   UNL     1     -35.072  44.866  40.622  1.00  0.00     0.014 A 
ATOM      4  C   UNL     1     -34.322  44.002  38.070  1.00  0.00     0.047 A 
ATOM      5  C   UNL     1     -35.056  45.768  39.553  1.00  0.00     0.047 A 
ATOM      6  C   UNL     1     -34.681  45.337  38.275  1.00  0.00     0.115 A 
ENDROOT
BRANCH   1   7
ATOM      7  C   UNL     1     -34.727  42.560  41.551  1.00  0.00     0.071 C 
ATOM      8  O   UNL     1     -35.080  42.930  42.703  1.00  0.00    -0.545 OA
ATOM      9  O   UNL     1     -34.352  41.236  41.354  1.00  0.00    -0.545 OA
ENDBRANCH   1   7
BRANCH   6  10
ATOM     10  O   UNL     1     -34.661  46.227  37.203  1.00  0.00    -0.508 OA
ATOM     11  H   UNL     1     -33.816  46.716  36.935  1.00  0.00     0.293 HD
ENDBRANCH   6  10
TORSDOF 2
ENDMDL
MODEL 8
REMARK VINA RESULT:    -4.540     12.481     13.768
REMARK INTER + INTRA:          -4.971
REMARK INTER:                  -4.935
REMARK INTRA:                  -0.036
REMARK UNBOUND:                -0.033
REMARK SMILES O=C([O-])c1ccc(O)cc1
REMARK SMILES IDX 4 1 5 2 10 3 6 4 9 5 7 6 2 7 1 8 3 9 8 10
REMARK H PARENT 8 11
REMARK Flexibility Score: inf
ROOT
ATOM      1  C   UNL     1     -38.214  36.335  46.958  1.00  0.00    -0.003 A 
ATOM      2  C   UNL     1     -37.961  37.715  47.048  1.00  0.00     0.014 A 
ATOM      3  C   UNL     1     -39.402  35.821  47.510  1.00  0.00     0.014 A 
ATOM      4  C   UNL     1     -38.877  38.563  47.679  1.00  0.00     0.047 A 
ATOM      5  C   UNL     1     -40.316  36.673  48.139  1.00  0.00     0.047 A 
ATOM      6  C   UNL     1     -40.055  38.046  48.224  1.00  0.00     0.115 A 
ENDROOT
BRANCH   1   7
ATOM      7  C   UNL     1     -37.243  35.439  46.290  1.00  0.00     0.071 C 
ATOM      8  O   UNL     1     -36.255  35.915  45.668  1.00  0.00    -0.545 OA
ATOM      9  O   UNL     1     -37.406  34.059  46.341  1.00  0.00    -0.545 OA
ENDBRANCH   1   7
BRANCH   6  10
ATOM     10  O   UNL     1     -40.959  38.903  48.849  1.00  0.00    -0.508 OA
ATOM     11  H   UNL     1     -41.956  38.832  48.686  1.00  0.00     0.293 HD
ENDBRANCH   6  10
TORSDOF 2
ENDMDL
MODEL 9
REMARK VINA RESULT:    -4.464     11.483     13.723
REMARK INTER + INTRA:          -4.888
REMARK INTER:                  -4.861
REMARK INTRA:                  -0.027
REMARK UNBOUND:                -0.033
REMARK SMILES O=C([O-])c1ccc(O)cc1
REMARK SMILES IDX 4 1 5 2 10 3 6 4 9 5 7 6 2 7 1 8 3 9 8 10
REMARK H PARENT 8 11
REMARK Flexibility Score: inf
ROOT
ATOM      1  C   UNL     1     -40.282  37.816  48.481  1.00  0.00    -0.003 A 
ATOM      2  C   UNL     1     -38.888  37.980  48.557  1.00  0.00     0.014 A 
ATOM      3  C   UNL     1     -40.953  38.215  47.310  1.00  0.00     0.014 A 
ATOM      4  C   UNL     1     -38.180  38.533  47.485  1.00  0.00     0.047 A 
ATOM      5  C   UNL     1     -40.241  38.767  46.240  1.00  0.00     0.047 A 
ATOM      6  C   UNL     1     -38.853  38.927  46.326  1.00  0.00     0.115 A 
ENDROOT
BRANCH   1   7
ATOM      7  C   UNL     1     -41.029  37.232  49.617  1.00  0.00     0.071 C 
ATOM      8  O   UNL     1     -41.678  37.971  50.405  1.00  0.00    -0.545 OA
ATOM      9  O   UNL     1     -41.026  35.858  49.830  1.00  0.00    -0.545 OA
ENDBRANCH   1   7
BRANCH   6  10
ATOM     10  O   UNL     1     -38.134  39.475  45.265  1.00  0.00    -0.508 OA
ATOM     11  H   UNL     1     -37.148  39.690  45.348  1.00  0.00     0.293 HD
ENDBRANCH   6  10
TORSDOF 2
ENDMDL
