MODEL 1
REMARK VINA RESULT:    -3.677      0.000      0.000
REMARK INTER + INTRA:          -4.532
REMARK INTER:                  -4.322
REMARK INTRA:                  -0.210
REMARK UNBOUND:                -0.210
REMARK SMILES [NH3+][C@H](CO)C(=O)[O-]
REMARK SMILES IDX 3 1 2 2 1 3 5 7 6 8 7 9 4 10
REMARK H PARENT 1 4 1 5 1 6 4 11
REMARK Flexibility Score: inf
ROOT
ATOM      1  C   UNL     1     158.548 150.586 168.263  1.00  0.00     0.227 C 
ENDROOT
BRANCH   1   2
ATOM      2  C   UNL     1     159.888 149.974 167.819  1.00  0.00     0.253 C 
BRANCH   2   3
ATOM      3  N   UNL     1     159.685 148.924 166.814  1.00  0.00    -0.348 N 
ATOM      4  H   UNL     1     159.430 149.357 165.897  1.00  0.00     0.345 HD
ATOM      5  H   UNL     1     160.570 148.382 166.685  1.00  0.00     0.345 HD
ATOM      6  H   UNL     1     158.923 148.267 167.104  1.00  0.00     0.345 HD
ENDBRANCH   2   3
BRANCH   2   7
ATOM      7  C   UNL     1     160.813 151.043 167.299  1.00  0.00     0.102 C 
ATOM      8  O   UNL     1     161.982 151.143 167.758  1.00  0.00    -0.544 OA
ATOM      9  O   UNL     1     160.376 151.950 166.341  1.00  0.00    -0.544 OA
ENDBRANCH   2   7
ENDBRANCH   1   2
BRANCH   1  10
ATOM     10  O   UNL     1     157.680 150.726 167.172  1.00  0.00    -0.390 OA
ATOM     11  H   UNL     1     157.899 151.599 166.755  1.00  0.00     0.210 HD
ENDBRANCH   1  10
TORSDOF 4
ENDMDL
MODEL 2
REMARK VINA RESULT:    -3.677     16.442     17.022
REMARK INTER + INTRA:          -4.532
REMARK INTER:                  -4.328
REMARK INTRA:                  -0.204
REMARK UNBOUND:                -0.210
REMARK SMILES [NH3+][C@H](CO)C(=O)[O-]
REMARK SMILES IDX 3 1 2 2 1 3 5 7 6 8 7 9 4 10
REMARK H PARENT 1 4 1 5 1 6 4 11
REMARK Flexibility Score: inf
ROOT
ATOM      1  C   UNL     1     159.487 150.621 149.800  1.00  0.00     0.227 C 
ENDROOT
BRANCH   1   2
ATOM      2  C   UNL     1     158.143 149.983 150.191  1.00  0.00     0.253 C 
BRANCH   2   3
ATOM      3  N   UNL     1     158.330 148.921 151.188  1.00  0.00    -0.348 N 
ATOM      4  H   UNL     1     157.525 148.919 151.855  1.00  0.00     0.345 HD
ATOM      5  H   UNL     1     158.362 147.991 150.711  1.00  0.00     0.345 HD
ATOM      6  H   UNL     1     159.219 149.059 151.723  1.00  0.00     0.345 HD
ENDBRANCH   2   3
BRANCH   2   7
ATOM      7  C   UNL     1     157.186 151.030 150.697  1.00  0.00     0.102 C 
ATOM      8  O   UNL     1     156.019 151.097 150.227  1.00  0.00    -0.544 OA
ATOM      9  O   UNL     1     157.592 151.954 151.652  1.00  0.00    -0.544 OA
ENDBRANCH   2   7
ENDBRANCH   1   2
BRANCH   1  10
ATOM     10  O   UNL     1     160.335 150.716 150.911  1.00  0.00    -0.390 OA
ATOM     11  H   UNL     1     159.946 151.417 151.495  1.00  0.00     0.210 HD
ENDBRANCH   1  10
TORSDOF 4
ENDMDL
MODEL 3
REMARK VINA RESULT:    -3.676     23.092     23.778
REMARK INTER + INTRA:          -4.532
REMARK INTER:                  -4.322
REMARK INTRA:                  -0.209
REMARK UNBOUND:                -0.210
REMARK SMILES [NH3+][C@H](CO)C(=O)[O-]
REMARK SMILES IDX 3 1 2 2 1 3 5 7 6 8 7 9 4 10
REMARK H PARENT 1 4 1 5 1 6 4 11
REMARK Flexibility Score: inf
ROOT
ATOM      1  C   UNL     1     158.537 167.421 149.743  1.00  0.00     0.227 C 
ENDROOT
BRANCH   1   2
ATOM      2  C   UNL     1     159.870 168.051 150.181  1.00  0.00     0.253 C 
BRANCH   2   3
ATOM      3  N   UNL     1     159.657 169.098 151.188  1.00  0.00    -0.348 N 
ATOM      4  H   UNL     1     160.578 169.407 151.575  1.00  0.00     0.345 HD
ATOM      5  H   UNL     1     159.193 169.924 150.747  1.00  0.00     0.345 HD
ATOM      6  H   UNL     1     159.057 168.749 151.972  1.00  0.00     0.345 HD
ENDBRANCH   2   3
BRANCH   2   7
ATOM      7  C   UNL     1     160.813 166.995 150.695  1.00  0.00     0.102 C 
ATOM      8  O   UNL     1     161.984 166.919 150.237  1.00  0.00    -0.544 OA
ATOM      9  O   UNL     1     160.389 166.074 151.645  1.00  0.00    -0.544 OA
ENDBRANCH   2   7
ENDBRANCH   1   2
BRANCH   1  10
ATOM     10  O   UNL     1     157.672 167.278 150.835  1.00  0.00    -0.390 OA
ATOM     11  H   UNL     1     158.111 167.739 151.596  1.00  0.00     0.210 HD
ENDBRANCH   1  10
TORSDOF 4
ENDMDL
MODEL 4
REMARK VINA RESULT:    -3.670     16.582     17.137
REMARK INTER + INTRA:          -4.524
REMARK INTER:                  -4.316
REMARK INTRA:                  -0.208
REMARK UNBOUND:                -0.210
REMARK SMILES [NH3+][C@H](CO)C(=O)[O-]
REMARK SMILES IDX 3 1 2 2 1 3 5 7 6 8 7 9 4 10
REMARK H PARENT 1 4 1 5 1 6 4 11
REMARK Flexibility Score: inf
ROOT
ATOM      1  C   UNL     1     159.441 167.381 168.244  1.00  0.00     0.227 C 
ENDROOT
BRANCH   1   2
ATOM      2  C   UNL     1     158.112 168.009 167.791  1.00  0.00     0.253 C 
BRANCH   2   3
ATOM      3  N   UNL     1     158.336 169.075 166.806  1.00  0.00    -0.348 N 
ATOM      4  H   UNL     1     157.433 169.557 166.596  1.00  0.00     0.345 HD
ATOM      5  H   UNL     1     159.002 169.782 167.195  1.00  0.00     0.345 HD
ATOM      6  H   UNL     1     158.732 168.688 165.917  1.00  0.00     0.345 HD
ENDBRANCH   2   3
BRANCH   2   7
ATOM      7  C   UNL     1     157.187 166.956 167.241  1.00  0.00     0.102 C 
ATOM      8  O   UNL     1     156.000 166.881 167.654  1.00  0.00    -0.544 OA
ATOM      9  O   UNL     1     157.645 166.034 166.307  1.00  0.00    -0.544 OA
ENDBRANCH   2   7
ENDBRANCH   1   2
BRANCH   1  10
ATOM     10  O   UNL     1     160.333 167.275 167.169  1.00  0.00    -0.390 OA
ATOM     11  H   UNL     1     161.208 167.599 167.504  1.00  0.00     0.210 HD
ENDBRANCH   1  10
TORSDOF 4
ENDMDL
MODEL 5
REMARK VINA RESULT:    -3.654     16.553     17.078
REMARK INTER + INTRA:          -4.505
REMARK INTER:                  -4.260
REMARK INTRA:                  -0.245
REMARK UNBOUND:                -0.210
REMARK SMILES [NH3+][C@H](CO)C(=O)[O-]
REMARK SMILES IDX 3 1 2 2 1 3 5 7 6 8 7 9 4 10
REMARK H PARENT 1 4 1 5 1 6 4 11
REMARK Flexibility Score: inf
ROOT
ATOM      1  C   UNL     1     159.084 150.190 151.483  1.00  0.00     0.227 C 
ENDROOT
BRANCH   1   2
ATOM      2  C   UNL     1     158.020 151.287 151.307  1.00  0.00     0.253 C 
BRANCH   2   3
ATOM      3  N   UNL     1     158.633 152.621 151.276  1.00  0.00    -0.348 N 
ATOM      4  H   UNL     1     159.066 152.788 150.339  1.00  0.00     0.345 HD
ATOM      5  H   UNL     1     157.900 153.350 151.432  1.00  0.00     0.345 HD
ATOM      6  H   UNL     1     159.368 152.714 152.015  1.00  0.00     0.345 HD
ENDBRANCH   2   3
BRANCH   2   7
ATOM      7  C   UNL     1     157.205 151.042 150.064  1.00  0.00     0.102 C 
ATOM      8  O   UNL     1     155.965 151.264 150.069  1.00  0.00    -0.544 OA
ATOM      9  O   UNL     1     157.804 150.533 148.918  1.00  0.00    -0.544 OA
ENDBRANCH   2   7
ENDBRANCH   1   2
BRANCH   1  10
ATOM     10  O   UNL     1     158.511 148.917 151.354  1.00  0.00    -0.390 OA
ATOM     11  H   UNL     1     158.597 148.486 152.243  1.00  0.00     0.210 HD
ENDBRANCH   1  10
TORSDOF 4
ENDMDL
MODEL 6
REMARK VINA RESULT:    -3.619      2.306      2.514
REMARK INTER + INTRA:          -4.464
REMARK INTER:                  -4.239
REMARK INTRA:                  -0.225
REMARK UNBOUND:                -0.210
REMARK SMILES [NH3+][C@H](CO)C(=O)[O-]
REMARK SMILES IDX 3 1 2 2 1 3 5 7 6 8 7 9 4 10
REMARK H PARENT 1 4 1 5 1 6 4 11
REMARK Flexibility Score: inf
ROOT
ATOM      1  C   UNL     1     158.914 150.210 166.480  1.00  0.00     0.227 C 
ENDROOT
BRANCH   1   2
ATOM      2  C   UNL     1     160.011 151.177 166.957  1.00  0.00     0.253 C 
BRANCH   2   3
ATOM      3  N   UNL     1     159.749 152.547 166.496  1.00  0.00    -0.348 N 
ATOM      4  H   UNL     1     158.750 152.634 166.201  1.00  0.00     0.345 HD
ATOM      5  H   UNL     1     159.920 153.221 167.277  1.00  0.00     0.345 HD
ATOM      6  H   UNL     1     160.367 152.796 165.689  1.00  0.00     0.345 HD
ENDBRANCH   2   3
BRANCH   2   7
ATOM      7  C   UNL     1     160.143 151.132 168.456  1.00  0.00     0.102 C 
ATOM      8  O   UNL     1     159.495 150.281 169.121  1.00  0.00    -0.544 OA
ATOM      9  O   UNL     1     160.947 152.051 169.121  1.00  0.00    -0.544 OA
ENDBRANCH   2   7
ENDBRANCH   1   2
BRANCH   1  10
ATOM     10  O   UNL     1     159.375 148.887 166.500  1.00  0.00    -0.390 OA
ATOM     11  H   UNL     1     159.710 148.726 167.420  1.00  0.00     0.210 HD
ENDBRANCH   1  10
TORSDOF 4
ENDMDL
MODEL 7
REMARK VINA RESULT:    -3.586     16.348     16.894
REMARK INTER + INTRA:          -4.426
REMARK INTER:                  -4.203
REMARK INTRA:                  -0.223
REMARK UNBOUND:                -0.210
REMARK SMILES [NH3+][C@H](CO)C(=O)[O-]
REMARK SMILES IDX 3 1 2 2 1 3 5 7 6 8 7 9 4 10
REMARK H PARENT 1 4 1 5 1 6 4 11
REMARK Flexibility Score: inf
ROOT
ATOM      1  C   UNL     1     159.058 167.778 166.647  1.00  0.00     0.227 C 
ENDROOT
BRANCH   1   2
ATOM      2  C   UNL     1     157.919 166.744 166.656  1.00  0.00     0.253 C 
BRANCH   2   3
ATOM      3  N   UNL     1     158.446 165.374 166.661  1.00  0.00    -0.348 N 
ATOM      4  H   UNL     1     157.856 164.768 166.045  1.00  0.00     0.345 HD
ATOM      5  H   UNL     1     159.422 165.369 166.287  1.00  0.00     0.345 HD
ATOM      6  H   UNL     1     158.450 164.976 167.629  1.00  0.00     0.345 HD
ENDBRANCH   2   3
BRANCH   2   7
ATOM      7  C   UNL     1     157.005 166.972 167.832  1.00  0.00     0.102 C 
ATOM      8  O   UNL     1     156.270 167.994 167.871  1.00  0.00    -0.544 OA
ATOM      9  O   UNL     1     156.994 166.081 168.899  1.00  0.00    -0.544 OA
ENDBRANCH   2   7
ENDBRANCH   1   2
BRANCH   1  10
ATOM     10  O   UNL     1     158.547 169.080 166.577  1.00  0.00    -0.390 OA
ATOM     11  H   UNL     1     159.284 169.648 166.232  1.00  0.00     0.210 HD
ENDBRANCH   1  10
TORSDOF 4
ENDMDL
MODEL 8
REMARK VINA RESULT:    -3.480     16.851     17.333
REMARK INTER + INTRA:          -4.301
REMARK INTER:                  -4.294
REMARK INTRA:                  -0.007
REMARK UNBOUND:                -0.210
REMARK SMILES [NH3+][C@H](CO)C(=O)[O-]
REMARK SMILES IDX 3 1 2 2 1 3 5 7 6 8 7 9 4 10
REMARK H PARENT 1 4 1 5 1 6 4 11
REMARK Flexibility Score: inf
ROOT
ATOM      1  C   UNL     1     158.114 149.945 150.241  1.00  0.00     0.227 C 
ENDROOT
BRANCH   1   2
ATOM      2  C   UNL     1     158.945 151.161 150.686  1.00  0.00     0.253 C 
BRANCH   2   3
ATOM      3  N   UNL     1     160.372 150.825 150.774  1.00  0.00    -0.348 N 
ATOM      4  H   UNL     1     160.865 151.154 149.913  1.00  0.00     0.345 HD
ATOM      5  H   UNL     1     160.797 151.306 151.599  1.00  0.00     0.345 HD
ATOM      6  H   UNL     1     160.510 149.792 150.873  1.00  0.00     0.345 HD
ENDBRANCH   2   3
BRANCH   2   7
ATOM      7  C   UNL     1     158.724 152.324 149.756  1.00  0.00     0.102 C 
ATOM      8  O   UNL     1     159.591 153.233 149.665  1.00  0.00    -0.544 OA
ATOM      9  O   UNL     1     157.548 152.427 149.023  1.00  0.00    -0.544 OA
ENDBRANCH   2   7
ENDBRANCH   1   2
BRANCH   1  10
ATOM     10  O   UNL     1     158.279 148.877 151.132  1.00  0.00    -0.390 OA
ATOM     11  H   UNL     1     158.089 149.240 152.035  1.00  0.00     0.210 HD
ENDBRANCH   1  10
TORSDOF 4
ENDMDL
MODEL 9
REMARK VINA RESULT:    -2.889     23.237     23.696
REMARK INTER + INTRA:          -3.606
REMARK INTER:                  -3.380
REMARK INTRA:                  -0.226
REMARK UNBOUND:                -0.210
REMARK SMILES [NH3+][C@H](CO)C(=O)[O-]
REMARK SMILES IDX 3 1 2 2 1 3 5 7 6 8 7 9 4 10
REMARK H PARENT 1 4 1 5 1 6 4 11
REMARK Flexibility Score: inf
ROOT
ATOM      1  C   UNL     1     158.903 167.755 151.456  1.00  0.00     0.227 C 
ENDROOT
BRANCH   1   2
ATOM      2  C   UNL     1     160.024 166.784 151.048  1.00  0.00     0.253 C 
BRANCH   2   3
ATOM      3  N   UNL     1     159.735 165.418 151.504  1.00  0.00    -0.348 N 
ATOM      4  H   UNL     1     158.764 165.152 151.223  1.00  0.00     0.345 HD
ATOM      5  H   UNL     1     160.401 164.748 151.055  1.00  0.00     0.345 HD
ATOM      6  H   UNL     1     159.824 165.342 152.544  1.00  0.00     0.345 HD
ENDBRANCH   2   3
BRANCH   2   7
ATOM      7  C   UNL     1     160.241 166.818 149.558  1.00  0.00     0.102 C 
ATOM      8  O   UNL     1     159.774 167.768 148.875  1.00  0.00    -0.544 OA
ATOM      9  O   UNL     1     160.919 165.786 148.921  1.00  0.00    -0.544 OA
ENDBRANCH   2   7
ENDBRANCH   1   2
BRANCH   1  10
ATOM     10  O   UNL     1     159.373 169.075 151.477  1.00  0.00    -0.390 OA
ATOM     11  H   UNL     1     158.653 169.630 151.080  1.00  0.00     0.210 HD
ENDBRANCH   1  10
TORSDOF 4
ENDMDL
