MODEL 1
REMARK VINA RESULT:    -5.511      0.000      0.000
REMARK INTER + INTRA:          -8.190
REMARK INTER:                  -6.961
REMARK INTRA:                  -1.229
REMARK UNBOUND:                -1.229
REMARK SMILES O=C(C=Cc1ccc(O)cc1)c1ccc(O)cc1O
REMARK SMILES IDX 4 1 3 2 5 3 6 4 7 5 8 6 11 7 10 8 9 9 2 11 1 12 12 13 18 14
REMARK SMILES IDX 13 15 17 16 14 17 15 18 19 19 16 21
REMARK H PARENT 9 10 19 20 16 22
REMARK Flexibility Score: inf
ROOT
ATOM      1  C   UNL     1      12.382  36.670  50.191  1.00  0.00     0.012 C 
ATOM      2  C   UNL     1      11.896  35.463  50.520  1.00  0.00     0.053 C 
ENDROOT
BRANCH   1   3
ATOM      3  C   UNL     1      13.814  37.003  50.034  1.00  0.00    -0.025 A 
ATOM      4  C   UNL     1      14.450  36.917  48.783  1.00  0.00     0.012 A 
ATOM      5  C   UNL     1      15.793  37.282  48.648  1.00  0.00     0.047 A 
ATOM      6  C   UNL     1      16.506  37.759  49.756  1.00  0.00     0.115 A 
ATOM      7  C   UNL     1      14.525  37.509  51.132  1.00  0.00     0.012 A 
ATOM      8  C   UNL     1      15.868  37.875  50.995  1.00  0.00     0.047 A 
BRANCH   6   9
ATOM      9  O   UNL     1      17.845  38.125  49.634  1.00  0.00    -0.508 OA
ATOM     10  H   UNL     1      18.391  37.873  48.818  1.00  0.00     0.293 HD
ENDBRANCH   6   9
ENDBRANCH   1   3
BRANCH   2  11
ATOM     11  C   UNL     1      12.709  34.304  50.965  1.00  0.00     0.189 C 
ATOM     12  O   UNL     1      13.102  33.449  50.126  1.00  0.00    -0.289 OA
BRANCH  11  13
ATOM     13  C   UNL     1      13.103  34.147  52.386  1.00  0.00     0.064 A 
ATOM     14  C   UNL     1      14.467  34.100  52.747  1.00  0.00     0.130 A 
ATOM     15  C   UNL     1      12.127  34.062  53.396  1.00  0.00     0.020 A 
ATOM     16  C   UNL     1      14.832  33.965  54.096  1.00  0.00     0.093 A 
ATOM     17  C   UNL     1      12.500  33.925  54.736  1.00  0.00     0.047 A 
ATOM     18  C   UNL     1      13.850  33.876  55.089  1.00  0.00     0.119 A 
BRANCH  14  19
ATOM     19  O   UNL     1      15.459  34.173  51.768  1.00  0.00    -0.507 OA
ATOM     20  H   UNL     1      16.029  35.001  51.648  1.00  0.00     0.293 HD
ENDBRANCH  14  19
BRANCH  18  21
ATOM     21  O   UNL     1      14.205  33.740  56.429  1.00  0.00    -0.508 OA
ATOM     22  H   UNL     1      14.859  34.376  56.870  1.00  0.00     0.293 HD
ENDBRANCH  18  21
ENDBRANCH  11  13
ENDBRANCH   2  11
TORSDOF 6
ENDMDL
MODEL 2
REMARK VINA RESULT:    -5.074      1.808      3.496
REMARK INTER + INTRA:          -7.637
REMARK INTER:                  -6.510
REMARK INTRA:                  -1.127
REMARK UNBOUND:                -1.229
REMARK SMILES O=C(C=Cc1ccc(O)cc1)c1ccc(O)cc1O
REMARK SMILES IDX 4 1 3 2 5 3 6 4 7 5 8 6 11 7 10 8 9 9 2 11 1 12 12 13 18 14
REMARK SMILES IDX 13 15 17 16 14 17 15 18 19 19 16 21
REMARK H PARENT 9 10 19 20 16 22
REMARK Flexibility Score: inf
ROOT
ATOM      1  C   UNL     1      15.129  37.772  51.057  1.00  0.00     0.012 C 
ATOM      2  C   UNL     1      16.054  37.084  51.746  1.00  0.00     0.053 C 
ENDROOT
BRANCH   1   3
ATOM      3  C   UNL     1      14.094  37.178  50.185  1.00  0.00    -0.025 A 
ATOM      4  C   UNL     1      12.808  36.887  50.673  1.00  0.00     0.012 A 
ATOM      5  C   UNL     1      11.830  36.370  49.819  1.00  0.00     0.047 A 
ATOM      6  C   UNL     1      12.119  36.160  48.464  1.00  0.00     0.115 A 
ATOM      7  C   UNL     1      14.369  36.993  48.822  1.00  0.00     0.012 A 
ATOM      8  C   UNL     1      13.388  36.477  47.969  1.00  0.00     0.047 A 
BRANCH   6   9
ATOM      9  O   UNL     1      11.153  35.644  47.602  1.00  0.00    -0.508 OA
ATOM     10  H   UNL     1      10.518  34.912  47.897  1.00  0.00     0.293 HD
ENDBRANCH   6   9
ENDBRANCH   1   3
BRANCH   2  11
ATOM     11  C   UNL     1      16.320  35.631  51.608  1.00  0.00     0.189 C 
ATOM     12  O   UNL     1      16.938  35.195  50.600  1.00  0.00    -0.289 OA
BRANCH  11  13
ATOM     13  C   UNL     1      15.901  34.673  52.660  1.00  0.00     0.064 A 
ATOM     14  C   UNL     1      16.819  33.734  53.178  1.00  0.00     0.130 A 
ATOM     15  C   UNL     1      14.589  34.697  53.171  1.00  0.00     0.020 A 
ATOM     16  C   UNL     1      16.418  32.840  54.183  1.00  0.00     0.093 A 
ATOM     17  C   UNL     1      14.199  33.802  54.169  1.00  0.00     0.047 A 
ATOM     18  C   UNL     1      15.109  32.872  54.677  1.00  0.00     0.119 A 
BRANCH  14  19
ATOM     19  O   UNL     1      18.124  33.679  52.686  1.00  0.00    -0.507 OA
ATOM     20  H   UNL     1      18.317  33.480  51.712  1.00  0.00     0.293 HD
ENDBRANCH  14  19
BRANCH  18  21
ATOM     21  O   UNL     1      14.703  31.987  55.673  1.00  0.00    -0.508 OA
ATOM     22  H   UNL     1      13.772  32.028  56.070  1.00  0.00     0.293 HD
ENDBRANCH  18  21
ENDBRANCH  11  13
ENDBRANCH   2  11
TORSDOF 6
ENDMDL
MODEL 3
REMARK VINA RESULT:    -4.951      1.723      3.384
REMARK INTER + INTRA:          -7.483
REMARK INTER:                  -6.095
REMARK INTRA:                  -1.388
REMARK UNBOUND:                -1.229
REMARK SMILES O=C(C=Cc1ccc(O)cc1)c1ccc(O)cc1O
REMARK SMILES IDX 4 1 3 2 5 3 6 4 7 5 8 6 11 7 10 8 9 9 2 11 1 12 12 13 18 14
REMARK SMILES IDX 13 15 17 16 14 17 15 18 19 19 16 21
REMARK H PARENT 9 10 19 20 16 22
REMARK Flexibility Score: inf
ROOT
ATOM      1  C   UNL     1      15.049  37.747  51.150  1.00  0.00     0.012 C 
ATOM      2  C   UNL     1      15.869  36.983  51.890  1.00  0.00     0.053 C 
ENDROOT
BRANCH   1   3
ATOM      3  C   UNL     1      14.010  37.242  50.228  1.00  0.00    -0.025 A 
ATOM      4  C   UNL     1      14.299  36.977  48.878  1.00  0.00     0.012 A 
ATOM      5  C   UNL     1      13.314  36.456  48.034  1.00  0.00     0.047 A 
ATOM      6  C   UNL     1      12.037  36.171  48.536  1.00  0.00     0.115 A 
ATOM      7  C   UNL     1      12.739  36.928  50.731  1.00  0.00     0.012 A 
ATOM      8  C   UNL     1      11.755  36.405  49.886  1.00  0.00     0.047 A 
BRANCH   6   9
ATOM      9  O   UNL     1      11.047  35.652  47.705  1.00  0.00    -0.508 OA
ATOM     10  H   UNL     1      10.804  34.668  47.721  1.00  0.00     0.293 HD
ENDBRANCH   6   9
ENDBRANCH   1   3
BRANCH   2  11
ATOM     11  C   UNL     1      16.007  35.511  51.772  1.00  0.00     0.189 C 
ATOM     12  O   UNL     1      17.031  35.013  51.231  1.00  0.00    -0.289 OA
BRANCH  11  13
ATOM     13  C   UNL     1      14.971  34.600  52.315  1.00  0.00     0.064 A 
ATOM     14  C   UNL     1      14.281  33.712  51.461  1.00  0.00     0.130 A 
ATOM     15  C   UNL     1      14.673  34.591  53.691  1.00  0.00     0.020 A 
ATOM     16  C   UNL     1      13.313  32.843  51.986  1.00  0.00     0.093 A 
ATOM     17  C   UNL     1      13.705  33.724  54.204  1.00  0.00     0.047 A 
ATOM     18  C   UNL     1      13.023  32.850  53.355  1.00  0.00     0.119 A 
BRANCH  14  19
ATOM     19  O   UNL     1      14.548  33.703  50.091  1.00  0.00    -0.507 OA
ATOM     20  H   UNL     1      15.495  33.714  49.733  1.00  0.00     0.293 HD
ENDBRANCH  14  19
BRANCH  18  21
ATOM     21  O   UNL     1      12.061  31.991  53.882  1.00  0.00    -0.508 OA
ATOM     22  H   UNL     1      11.194  31.804  53.393  1.00  0.00     0.293 HD
ENDBRANCH  18  21
ENDBRANCH  11  13
ENDBRANCH   2  11
TORSDOF 6
ENDMDL
MODEL 4
REMARK VINA RESULT:    -4.785      2.206      5.500
REMARK INTER + INTRA:          -7.273
REMARK INTER:                  -6.016
REMARK INTRA:                  -1.257
REMARK UNBOUND:                -1.229
REMARK SMILES O=C(C=Cc1ccc(O)cc1)c1ccc(O)cc1O
REMARK SMILES IDX 4 1 3 2 5 3 6 4 7 5 8 6 11 7 10 8 9 9 2 11 1 12 12 13 18 14
REMARK SMILES IDX 13 15 17 16 14 17 15 18 19 19 16 21
REMARK H PARENT 9 10 19 20 16 22
REMARK Flexibility Score: inf
ROOT
ATOM      1  C   UNL     1      18.055  34.628  49.415  1.00  0.00     0.012 C 
ATOM      2  C   UNL     1      18.071  35.792  48.746  1.00  0.00     0.053 C 
ENDROOT
BRANCH   1   3
ATOM      3  C   UNL     1      17.200  34.322  50.581  1.00  0.00    -0.025 A 
ATOM      4  C   UNL     1      15.947  33.705  50.424  1.00  0.00     0.012 A 
ATOM      5  C   UNL     1      15.174  33.381  51.544  1.00  0.00     0.047 A 
ATOM      6  C   UNL     1      15.657  33.649  52.832  1.00  0.00     0.115 A 
ATOM      7  C   UNL     1      17.690  34.560  51.873  1.00  0.00     0.012 A 
ATOM      8  C   UNL     1      16.917  34.235  52.992  1.00  0.00     0.047 A 
BRANCH   6   9
ATOM      9  O   UNL     1      14.897  33.332  53.956  1.00  0.00    -0.508 OA
ATOM     10  H   UNL     1      15.208  32.640  54.628  1.00  0.00     0.293 HD
ENDBRANCH   6   9
ENDBRANCH   1   3
BRANCH   2  11
ATOM     11  C   UNL     1      17.377  37.032  49.169  1.00  0.00     0.189 C 
ATOM     12  O   UNL     1      18.005  38.125  49.213  1.00  0.00    -0.289 OA
BRANCH  11  13
ATOM     13  C   UNL     1      15.934  37.024  49.512  1.00  0.00     0.064 A 
ATOM     14  C   UNL     1      15.502  37.425  50.794  1.00  0.00     0.130 A 
ATOM     15  C   UNL     1      14.973  36.634  48.560  1.00  0.00     0.020 A 
ATOM     16  C   UNL     1      14.134  37.427  51.106  1.00  0.00     0.093 A 
ATOM     17  C   UNL     1      13.613  36.637  48.880  1.00  0.00     0.047 A 
ATOM     18  C   UNL     1      13.190  37.032  50.151  1.00  0.00     0.119 A 
BRANCH  14  19
ATOM     19  O   UNL     1      16.431  37.808  51.763  1.00  0.00    -0.507 OA
ATOM     20  H   UNL     1      16.224  37.747  52.752  1.00  0.00     0.293 HD
ENDBRANCH  14  19
BRANCH  18  21
ATOM     21  O   UNL     1      11.831  37.030  50.453  1.00  0.00    -0.508 OA
ATOM     22  H   UNL     1      11.389  36.234  50.898  1.00  0.00     0.293 HD
ENDBRANCH  18  21
ENDBRANCH  11  13
ENDBRANCH   2  11
TORSDOF 6
ENDMDL
MODEL 5
REMARK VINA RESULT:    -4.716      1.993      6.372
REMARK INTER + INTRA:          -7.185
REMARK INTER:                  -6.388
REMARK INTRA:                  -0.797
REMARK UNBOUND:                -1.229
REMARK SMILES O=C(C=Cc1ccc(O)cc1)c1ccc(O)cc1O
REMARK SMILES IDX 4 1 3 2 5 3 6 4 7 5 8 6 11 7 10 8 9 9 2 11 1 12 12 13 18 14
REMARK SMILES IDX 13 15 17 16 14 17 15 18 19 19 16 21
REMARK H PARENT 9 10 19 20 16 22
REMARK Flexibility Score: inf
ROOT
ATOM      1  C   UNL     1      15.943  34.114  52.599  1.00  0.00     0.012 C 
ATOM      2  C   UNL     1      16.529  35.071  51.861  1.00  0.00     0.053 C 
ENDROOT
BRANCH   1   3
ATOM      3  C   UNL     1      14.539  34.129  53.060  1.00  0.00    -0.025 A 
ATOM      4  C   UNL     1      13.471  34.120  52.146  1.00  0.00     0.012 A 
ATOM      5  C   UNL     1      12.150  34.086  52.604  1.00  0.00     0.047 A 
ATOM      6  C   UNL     1      11.885  34.038  53.980  1.00  0.00     0.115 A 
ATOM      7  C   UNL     1      14.267  34.052  54.434  1.00  0.00     0.012 A 
ATOM      8  C   UNL     1      12.945  34.017  54.891  1.00  0.00     0.047 A 
BRANCH   6   9
ATOM      9  O   UNL     1      10.573  34.006  54.449  1.00  0.00    -0.508 OA
ATOM     10  H   UNL     1      10.145  34.817  54.881  1.00  0.00     0.293 HD
ENDBRANCH   6   9
ENDBRANCH   1   3
BRANCH   2  11
ATOM     11  C   UNL     1      15.934  36.391  51.540  1.00  0.00     0.189 C 
ATOM     12  O   UNL     1      15.709  37.223  52.460  1.00  0.00    -0.289 OA
BRANCH  11  13
ATOM     13  C   UNL     1      15.626  36.772  50.140  1.00  0.00     0.064 A 
ATOM     14  C   UNL     1      16.499  37.616  49.421  1.00  0.00     0.130 A 
ATOM     15  C   UNL     1      14.471  36.282  49.501  1.00  0.00     0.020 A 
ATOM     16  C   UNL     1      16.208  37.960  48.092  1.00  0.00     0.093 A 
ATOM     17  C   UNL     1      14.188  36.632  48.178  1.00  0.00     0.047 A 
ATOM     18  C   UNL     1      15.053  37.471  47.472  1.00  0.00     0.119 A 
BRANCH  14  19
ATOM     19  O   UNL     1      17.648  38.125  50.030  1.00  0.00    -0.507 OA
ATOM     20  H   UNL     1      18.226  37.556  50.636  1.00  0.00     0.293 HD
ENDBRANCH  14  19
BRANCH  18  21
ATOM     21  O   UNL     1      14.756  37.810  46.154  1.00  0.00    -0.508 OA
ATOM     22  H   UNL     1      14.168  37.221  45.576  1.00  0.00     0.293 HD
ENDBRANCH  18  21
ENDBRANCH  11  13
ENDBRANCH   2  11
TORSDOF 6
ENDMDL
MODEL 6
REMARK VINA RESULT:    -4.700      1.985      3.820
REMARK INTER + INTRA:          -7.166
REMARK INTER:                  -5.803
REMARK INTRA:                  -1.363
REMARK UNBOUND:                -1.229
REMARK SMILES O=C(C=Cc1ccc(O)cc1)c1ccc(O)cc1O
REMARK SMILES IDX 4 1 3 2 5 3 6 4 7 5 8 6 11 7 10 8 9 9 2 11 1 12 12 13 18 14
REMARK SMILES IDX 13 15 17 16 14 17 15 18 19 19 16 21
REMARK H PARENT 9 10 19 20 16 22
REMARK Flexibility Score: inf
ROOT
ATOM      1  C   UNL     1      15.646  37.469  49.354  1.00  0.00     0.012 C 
ATOM      2  C   UNL     1      16.673  36.637  49.586  1.00  0.00     0.053 C 
ENDROOT
BRANCH   1   3
ATOM      3  C   UNL     1      14.217  37.089  49.363  1.00  0.00    -0.025 A 
ATOM      4  C   UNL     1      13.581  36.617  48.201  1.00  0.00     0.012 A 
ATOM      5  C   UNL     1      12.242  36.218  48.243  1.00  0.00     0.047 A 
ATOM      6  C   UNL     1      11.532  36.264  49.451  1.00  0.00     0.115 A 
ATOM      7  C   UNL     1      13.510  37.105  50.574  1.00  0.00     0.012 A 
ATOM      8  C   UNL     1      12.171  36.704  50.614  1.00  0.00     0.047 A 
BRANCH   6   9
ATOM      9  O   UNL     1      10.197  35.870  49.505  1.00  0.00    -0.508 OA
ATOM     10  H   UNL     1       9.526  36.352  50.092  1.00  0.00     0.293 HD
ENDBRANCH   6   9
ENDBRANCH   1   3
BRANCH   2  11
ATOM     11  C   UNL     1      16.571  35.162  49.705  1.00  0.00     0.189 C 
ATOM     12  O   UNL     1      16.783  34.431  48.699  1.00  0.00    -0.289 OA
BRANCH  11  13
ATOM     13  C   UNL     1      16.256  34.518  51.003  1.00  0.00     0.064 A 
ATOM     14  C   UNL     1      15.070  33.768  51.160  1.00  0.00     0.130 A 
ATOM     15  C   UNL     1      17.142  34.628  52.091  1.00  0.00     0.020 A 
ATOM     16  C   UNL     1      14.787  33.151  52.387  1.00  0.00     0.093 A 
ATOM     17  C   UNL     1      16.850  34.011  53.311  1.00  0.00     0.047 A 
ATOM     18  C   UNL     1      15.674  33.273  53.462  1.00  0.00     0.119 A 
BRANCH  14  19
ATOM     19  O   UNL     1      14.168  33.648  50.102  1.00  0.00    -0.507 OA
ATOM     20  H   UNL     1      13.867  32.745  49.758  1.00  0.00     0.293 HD
ENDBRANCH  14  19
BRANCH  18  21
ATOM     21  O   UNL     1      15.398  32.665  54.684  1.00  0.00    -0.508 OA
ATOM     22  H   UNL     1      14.815  33.114  55.380  1.00  0.00     0.293 HD
ENDBRANCH  18  21
ENDBRANCH  11  13
ENDBRANCH   2  11
TORSDOF 6
ENDMDL
MODEL 7
REMARK VINA RESULT:    -4.627      2.548      3.139
REMARK INTER + INTRA:          -7.072
REMARK INTER:                  -5.768
REMARK INTRA:                  -1.304
REMARK UNBOUND:                -1.229
REMARK SMILES O=C(C=Cc1ccc(O)cc1)c1ccc(O)cc1O
REMARK SMILES IDX 4 1 3 2 5 3 6 4 7 5 8 6 11 7 10 8 9 9 2 11 1 12 12 13 18 14
REMARK SMILES IDX 13 15 17 16 14 17 15 18 19 19 16 21
REMARK H PARENT 9 10 19 20 16 22
REMARK Flexibility Score: inf
ROOT
ATOM      1  C   UNL     1      14.113  36.731  47.809  1.00  0.00     0.012 C 
ATOM      2  C   UNL     1      13.108  36.548  48.680  1.00  0.00     0.053 C 
ENDROOT
BRANCH   1   3
ATOM      3  C   UNL     1      15.552  36.709  48.144  1.00  0.00    -0.025 A 
ATOM      4  C   UNL     1      16.202  37.851  48.645  1.00  0.00     0.012 A 
ATOM      5  C   UNL     1      17.553  37.795  49.001  1.00  0.00     0.047 A 
ATOM      6  C   UNL     1      18.262  36.592  48.882  1.00  0.00     0.115 A 
ATOM      7  C   UNL     1      16.260  35.501  48.054  1.00  0.00     0.012 A 
ATOM      8  C   UNL     1      17.611  35.447  48.412  1.00  0.00     0.047 A 
BRANCH   6   9
ATOM      9  O   UNL     1      19.609  36.524  49.232  1.00  0.00    -0.508 OA
ATOM     10  H   UNL     1      20.341  36.593  48.535  1.00  0.00     0.293 HD
ENDBRANCH   6   9
ENDBRANCH   1   3
BRANCH   2  11
ATOM     11  C   UNL     1      13.256  36.479  50.155  1.00  0.00     0.189 C 
ATOM     12  O   UNL     1      12.562  37.228  50.895  1.00  0.00    -0.289 OA
BRANCH  11  13
ATOM     13  C   UNL     1      14.185  35.512  50.787  1.00  0.00     0.064 A 
ATOM     14  C   UNL     1      15.173  35.957  51.691  1.00  0.00     0.130 A 
ATOM     15  C   UNL     1      14.084  34.135  50.512  1.00  0.00     0.020 A 
ATOM     16  C   UNL     1      16.039  35.034  52.296  1.00  0.00     0.093 A 
ATOM     17  C   UNL     1      14.952  33.223  51.117  1.00  0.00     0.047 A 
ATOM     18  C   UNL     1      15.931  33.668  52.008  1.00  0.00     0.119 A 
BRANCH  14  19
ATOM     19  O   UNL     1      15.304  37.317  51.978  1.00  0.00    -0.507 OA
ATOM     20  H   UNL     1      14.500  37.930  52.029  1.00  0.00     0.293 HD
ENDBRANCH  14  19
BRANCH  18  21
ATOM     21  O   UNL     1      16.789  32.746  52.603  1.00  0.00    -0.508 OA
ATOM     22  H   UNL     1      17.734  32.997  52.869  1.00  0.00     0.293 HD
ENDBRANCH  18  21
ENDBRANCH  11  13
ENDBRANCH   2  11
TORSDOF 6
ENDMDL
MODEL 8
REMARK VINA RESULT:    -4.614      2.268      5.995
REMARK INTER + INTRA:          -7.056
REMARK INTER:                  -6.010
REMARK INTRA:                  -1.046
REMARK UNBOUND:                -1.229
REMARK SMILES O=C(C=Cc1ccc(O)cc1)c1ccc(O)cc1O
REMARK SMILES IDX 4 1 3 2 5 3 6 4 7 5 8 6 11 7 10 8 9 9 2 11 1 12 12 13 18 14
REMARK SMILES IDX 13 15 17 16 14 17 15 18 19 19 16 21
REMARK H PARENT 9 10 19 20 16 22
REMARK Flexibility Score: inf
ROOT
ATOM      1  C   UNL     1      15.639  37.265  51.878  1.00  0.00     0.012 C 
ATOM      2  C   UNL     1      15.743  37.903  50.701  1.00  0.00     0.053 C 
ENDROOT
BRANCH   1   3
ATOM      3  C   UNL     1      15.752  35.804  52.073  1.00  0.00    -0.025 A 
ATOM      4  C   UNL     1      17.007  35.176  52.169  1.00  0.00     0.012 A 
ATOM      5  C   UNL     1      17.091  33.800  52.401  1.00  0.00     0.047 A 
ATOM      6  C   UNL     1      15.923  33.042  52.563  1.00  0.00     0.115 A 
ATOM      7  C   UNL     1      14.588  35.045  52.265  1.00  0.00     0.012 A 
ATOM      8  C   UNL     1      14.675  33.669  52.498  1.00  0.00     0.047 A 
BRANCH   6   9
ATOM      9  O   UNL     1      15.994  31.670  52.794  1.00  0.00    -0.508 OA
ATOM     10  H   UNL     1      16.846  31.231  53.122  1.00  0.00     0.293 HD
ENDBRANCH   6   9
ENDBRANCH   1   3
BRANCH   2  11
ATOM     11  C   UNL     1      15.800  37.245  49.372  1.00  0.00     0.189 C 
ATOM     12  O   UNL     1      16.910  36.886  48.893  1.00  0.00    -0.289 OA
BRANCH  11  13
ATOM     13  C   UNL     1      14.565  36.965  48.602  1.00  0.00     0.064 A 
ATOM     14  C   UNL     1      14.568  37.042  47.193  1.00  0.00     0.130 A 
ATOM     15  C   UNL     1      13.376  36.599  49.262  1.00  0.00     0.020 A 
ATOM     16  C   UNL     1      13.398  36.761  46.471  1.00  0.00     0.093 A 
ATOM     17  C   UNL     1      12.215  36.324  48.535  1.00  0.00     0.047 A 
ATOM     18  C   UNL     1      12.222  36.405  47.141  1.00  0.00     0.119 A 
BRANCH  14  19
ATOM     19  O   UNL     1      15.728  37.411  46.511  1.00  0.00    -0.507 OA
ATOM     20  H   UNL     1      16.064  38.366  46.509  1.00  0.00     0.293 HD
ENDBRANCH  14  19
BRANCH  18  21
ATOM     21  O   UNL     1      11.056  36.127  46.432  1.00  0.00    -0.508 OA
ATOM     22  H   UNL     1      10.231  35.760  46.892  1.00  0.00     0.293 HD
ENDBRANCH  18  21
ENDBRANCH  11  13
ENDBRANCH   2  11
TORSDOF 6
ENDMDL
MODEL 9
REMARK VINA RESULT:    -4.577      2.350      3.517
REMARK INTER + INTRA:          -7.010
REMARK INTER:                  -5.915
REMARK INTRA:                  -1.095
REMARK UNBOUND:                -1.229
REMARK SMILES O=C(C=Cc1ccc(O)cc1)c1ccc(O)cc1O
REMARK SMILES IDX 4 1 3 2 5 3 6 4 7 5 8 6 11 7 10 8 9 9 2 11 1 12 12 13 18 14
REMARK SMILES IDX 13 15 17 16 14 17 15 18 19 19 16 21
REMARK H PARENT 9 10 19 20 16 22
REMARK Flexibility Score: inf
ROOT
ATOM      1  C   UNL     1      16.116  38.125  50.350  1.00  0.00     0.012 C 
ATOM      2  C   UNL     1      15.345  37.673  51.352  1.00  0.00     0.053 C 
ENDROOT
BRANCH   1   3
ATOM      3  C   UNL     1      16.388  37.406  49.088  1.00  0.00    -0.025 A 
ATOM      4  C   UNL     1      17.508  36.567  48.953  1.00  0.00     0.012 A 
ATOM      5  C   UNL     1      17.720  35.858  47.766  1.00  0.00     0.047 A 
ATOM      6  C   UNL     1      16.803  35.963  46.712  1.00  0.00     0.115 A 
ATOM      7  C   UNL     1      15.459  37.483  48.039  1.00  0.00     0.012 A 
ATOM      8  C   UNL     1      15.672  36.773  46.854  1.00  0.00     0.047 A 
BRANCH   6   9
ATOM      9  O   UNL     1      17.004  35.263  45.523  1.00  0.00    -0.508 OA
ATOM     10  H   UNL     1      16.462  34.437  45.297  1.00  0.00     0.293 HD
ENDBRANCH   6   9
ENDBRANCH   1   3
BRANCH   2  11
ATOM     11  C   UNL     1      14.786  36.302  51.452  1.00  0.00     0.189 C 
ATOM     12  O   UNL     1      13.736  36.001  50.822  1.00  0.00    -0.289 OA
BRANCH  11  13
ATOM     13  C   UNL     1      15.463  35.256  52.256  1.00  0.00     0.064 A 
ATOM     14  C   UNL     1      14.726  34.464  53.163  1.00  0.00     0.130 A 
ATOM     15  C   UNL     1      16.844  35.024  52.114  1.00  0.00     0.020 A 
ATOM     16  C   UNL     1      15.371  33.467  53.909  1.00  0.00     0.093 A 
ATOM     17  C   UNL     1      17.478  34.031  52.864  1.00  0.00     0.047 A 
ATOM     18  C   UNL     1      16.746  33.251  53.762  1.00  0.00     0.119 A 
BRANCH  14  19
ATOM     19  O   UNL     1      13.357  34.676  53.332  1.00  0.00    -0.507 OA
ATOM     20  H   UNL     1      12.705  34.585  52.563  1.00  0.00     0.293 HD
ENDBRANCH  14  19
BRANCH  18  21
ATOM     21  O   UNL     1      17.394  32.264  54.502  1.00  0.00    -0.508 OA
ATOM     22  H   UNL     1      17.225  31.280  54.332  1.00  0.00     0.293 HD
ENDBRANCH  18  21
ENDBRANCH  11  13
ENDBRANCH   2  11
TORSDOF 6
ENDMDL
