MODEL 1
REMARK VINA RESULT:    -5.306      0.000      0.000
REMARK INTER + INTRA:          -7.116
REMARK INTER:                  -6.856
REMARK INTRA:                  -0.259
REMARK UNBOUND:                -0.259
REMARK SMILES CO[C@@]1(CO)O[C@H](CO)[C@H](O)[C@@H]1O
REMARK SMILES IDX 3 1 12 2 10 3 7 4 6 5 2 6 1 7 4 8 5 9 13 11 11 13 8 15 9 16
REMARK H PARENT 5 10 13 12 11 14 9 17
REMARK Flexibility Score: inf
ROOT
ATOM      1  C   UNL     1     -22.855 -27.583  17.368  1.00  0.00     0.221 C 
ATOM      2  C   UNL     1     -21.481 -27.219  16.735  1.00  0.00     0.207 C 
ATOM      3  C   UNL     1     -20.885 -28.559  16.353  1.00  0.00     0.180 C 
ATOM      4  C   UNL     1     -22.131 -29.428  16.232  1.00  0.00     0.179 C 
ATOM      5  O   UNL     1     -23.053 -28.982  17.197  1.00  0.00    -0.337 OA
ENDROOT
BRANCH   1   6
ATOM      6  O   UNL     1     -23.857 -26.827  16.688  1.00  0.00    -0.349 OA
ATOM      7  C   UNL     1     -23.322 -25.927  15.737  1.00  0.00     0.198 C 
ENDBRANCH   1   6
BRANCH   1   8
ATOM      8  C   UNL     1     -22.903 -27.271  18.886  1.00  0.00     0.224 C 
BRANCH   8   9
ATOM      9  O   UNL     1     -22.898 -25.887  19.120  1.00  0.00    -0.391 OA
ATOM     10  H   UNL     1     -22.853 -25.763  20.103  1.00  0.00     0.210 HD
ENDBRANCH   8   9
ENDBRANCH   1   8
BRANCH   2  11
ATOM     11  O   UNL     1     -20.637 -26.495  17.598  1.00  0.00    -0.385 OA
ATOM     12  H   UNL     1     -19.840 -26.240  17.065  1.00  0.00     0.211 HD
ENDBRANCH   2  11
BRANCH   3  13
ATOM     13  O   UNL     1     -19.983 -29.037  17.327  1.00  0.00    -0.387 OA
ATOM     14  H   UNL     1     -20.046 -28.450  18.125  1.00  0.00     0.211 HD
ENDBRANCH   3  13
BRANCH   4  15
ATOM     15  C   UNL     1     -21.857 -30.929  16.404  1.00  0.00     0.191 C 
BRANCH  15  16
ATOM     16  O   UNL     1     -22.912 -31.680  15.867  1.00  0.00    -0.394 OA
ATOM     17  H   UNL     1     -23.054 -31.349  14.941  1.00  0.00     0.210 HD
ENDBRANCH  15  16
ENDBRANCH   4  15
TORSDOF 7
ENDMDL
MODEL 2
REMARK VINA RESULT:    -5.290     15.497     16.485
REMARK INTER + INTRA:          -7.096
REMARK INTER:                  -6.812
REMARK INTRA:                  -0.284
REMARK UNBOUND:                -0.259
REMARK SMILES CO[C@@]1(CO)O[C@H](CO)[C@H](O)[C@@H]1O
REMARK SMILES IDX 3 1 12 2 10 3 7 4 6 5 2 6 1 7 4 8 5 9 13 11 11 13 8 15 9 16
REMARK H PARENT 5 10 13 12 11 14 9 17
REMARK Flexibility Score: inf
ROOT
ATOM      1  C   UNL     1     -20.497 -26.200   0.711  1.00  0.00     0.221 C 
ATOM      2  C   UNL     1     -20.912 -27.521   1.420  1.00  0.00     0.207 C 
ATOM      3  C   UNL     1     -19.600 -28.107   1.905  1.00  0.00     0.180 C 
ATOM      4  C   UNL     1     -18.718 -26.868   1.980  1.00  0.00     0.179 C 
ATOM      5  O   UNL     1     -19.104 -26.010   0.933  1.00  0.00    -0.337 OA
ENDROOT
BRANCH   1   6
ATOM      6  O   UNL     1     -21.266 -25.143   1.284  1.00  0.00    -0.349 OA
ATOM      7  C   UNL     1     -22.163 -25.588   2.282  1.00  0.00     0.198 C 
ENDBRANCH   1   6
BRANCH   1   8
ATOM      8  C   UNL     1     -20.738 -26.255  -0.820  1.00  0.00     0.224 C 
BRANCH   8   9
ATOM      9  O   UNL     1     -22.101 -26.113  -1.124  1.00  0.00    -0.391 OA
ATOM     10  H   UNL     1     -22.186 -26.203  -2.108  1.00  0.00     0.210 HD
ENDBRANCH   8   9
ENDBRANCH   1   8
BRANCH   2  11
ATOM     11  O   UNL     1     -21.610 -28.414   0.585  1.00  0.00    -0.385 OA
ATOM     12  H   UNL     1     -21.203 -29.308   0.725  1.00  0.00     0.211 HD
ENDBRANCH   2  11
BRANCH   3  13
ATOM     13  O   UNL     1     -19.094 -29.082   1.019  1.00  0.00    -0.387 OA
ATOM     14  H   UNL     1     -18.537 -28.624   0.337  1.00  0.00     0.211 HD
ENDBRANCH   3  13
BRANCH   4  15
ATOM     15  C   UNL     1     -17.216 -27.172   1.897  1.00  0.00     0.191 C 
BRANCH  15  16
ATOM     16  O   UNL     1     -16.476 -26.133   2.478  1.00  0.00    -0.394 OA
ATOM     17  H   UNL     1     -16.101 -25.598   1.730  1.00  0.00     0.210 HD
ENDBRANCH  15  16
ENDBRANCH   4  15
TORSDOF 7
ENDMDL
MODEL 3
REMARK VINA RESULT:    -4.886     15.344     16.411
REMARK INTER + INTRA:          -6.574
REMARK INTER:                  -6.056
REMARK INTRA:                  -0.518
REMARK UNBOUND:                -0.259
REMARK SMILES CO[C@@]1(CO)O[C@H](CO)[C@H](O)[C@@H]1O
REMARK SMILES IDX 3 1 12 2 10 3 7 4 6 5 2 6 1 7 4 8 5 9 13 11 11 13 8 15 9 16
REMARK H PARENT 5 10 13 12 11 14 9 17
REMARK Flexibility Score: inf
ROOT
ATOM      1  C   UNL     1     -18.765 -26.984   1.293  1.00  0.00     0.221 C 
ATOM      2  C   UNL     1     -19.461 -26.158   0.174  1.00  0.00     0.207 C 
ATOM      3  C   UNL     1     -20.936 -26.242   0.516  1.00  0.00     0.180 C 
ATOM      4  C   UNL     1     -20.889 -26.541   2.009  1.00  0.00     0.179 C 
ATOM      5  O   UNL     1     -19.761 -27.347   2.244  1.00  0.00    -0.337 OA
ENDROOT
BRANCH   1   6
ATOM      6  O   UNL     1     -17.761 -26.157   1.879  1.00  0.00    -0.349 OA
ATOM      7  C   UNL     1     -16.873 -26.872   2.715  1.00  0.00     0.198 C 
ENDBRANCH   1   6
BRANCH   1   8
ATOM      8  C   UNL     1     -18.121 -28.285   0.749  1.00  0.00     0.224 C 
BRANCH   8   9
ATOM      9  O   UNL     1     -18.864 -29.415   1.126  1.00  0.00    -0.391 OA
ATOM     10  H   UNL     1     -18.455 -30.193   0.665  1.00  0.00     0.210 HD
ENDBRANCH   8   9
ENDBRANCH   1   8
BRANCH   2  11
ATOM     11  O   UNL     1     -19.195 -26.632  -1.125  1.00  0.00    -0.385 OA
ATOM     12  H   UNL     1     -18.362 -26.182  -1.425  1.00  0.00     0.211 HD
ENDBRANCH   2  11
BRANCH   3  13
ATOM     13  O   UNL     1     -21.595 -27.250  -0.220  1.00  0.00    -0.387 OA
ATOM     14  H   UNL     1     -21.248 -27.235  -1.149  1.00  0.00     0.211 HD
ENDBRANCH   3  13
BRANCH   4  15
ATOM     15  C   UNL     1     -22.157 -27.223   2.542  1.00  0.00     0.191 C 
BRANCH  15  16
ATOM     16  O   UNL     1     -22.106 -28.603   2.298  1.00  0.00    -0.394 OA
ATOM     17  H   UNL     1     -22.952 -28.842   1.837  1.00  0.00     0.210 HD
ENDBRANCH  15  16
ENDBRANCH   4  15
TORSDOF 7
ENDMDL
MODEL 4
REMARK VINA RESULT:    -4.852      1.528      3.940
REMARK INTER + INTRA:          -6.530
REMARK INTER:                  -5.969
REMARK INTRA:                  -0.561
REMARK UNBOUND:                -0.259
REMARK SMILES CO[C@@]1(CO)O[C@H](CO)[C@H](O)[C@@H]1O
REMARK SMILES IDX 3 1 12 2 10 3 7 4 6 5 2 6 1 7 4 8 5 9 13 11 11 13 8 15 9 16
REMARK H PARENT 5 10 13 12 11 14 9 17
REMARK Flexibility Score: inf
ROOT
ATOM      1  C   UNL     1     -21.876 -29.108  16.721  1.00  0.00     0.221 C 
ATOM      2  C   UNL     1     -22.845 -28.566  17.810  1.00  0.00     0.207 C 
ATOM      3  C   UNL     1     -22.990 -27.095  17.475  1.00  0.00     0.180 C 
ATOM      4  C   UNL     1     -22.633 -27.079  15.995  1.00  0.00     0.179 C 
ATOM      5  O   UNL     1     -21.645 -28.059  15.786  1.00  0.00    -0.337 OA
ENDROOT
BRANCH   1   6
ATOM      6  O   UNL     1     -22.507 -30.229  16.102  1.00  0.00    -0.349 OA
ATOM      7  C   UNL     1     -21.858 -30.644  14.916  1.00  0.00     0.198 C 
ENDBRANCH   1   6
BRANCH   1   8
ATOM      8  C   UNL     1     -20.508 -29.537  17.312  1.00  0.00     0.224 C 
BRANCH   8   9
ATOM      9  O   UNL     1     -20.644 -30.658  18.145  1.00  0.00    -0.391 OA
ATOM     10  H   UNL     1     -19.893 -31.269  17.929  1.00  0.00     0.210 HD
ENDBRANCH   8   9
ENDBRANCH   1   8
BRANCH   2  11
ATOM     11  O   UNL     1     -22.381 -28.763  19.125  1.00  0.00    -0.385 OA
ATOM     12  H   UNL     1     -22.356 -29.744  19.271  1.00  0.00     0.211 HD
ENDBRANCH   2  11
BRANCH   3  13
ATOM     13  O   UNL     1     -22.130 -26.286  18.250  1.00  0.00    -0.387 OA
ATOM     14  H   UNL     1     -22.000 -26.724  19.131  1.00  0.00     0.211 HD
ENDBRANCH   3  13
BRANCH   4  15
ATOM     15  C   UNL     1     -22.148 -25.713  15.490  1.00  0.00     0.191 C 
BRANCH  15  16
ATOM     16  O   UNL     1     -20.784 -25.547  15.772  1.00  0.00    -0.394 OA
ATOM     17  H   UNL     1     -20.540 -24.634  15.468  1.00  0.00     0.210 HD
ENDBRANCH  15  16
ENDBRANCH   4  15
TORSDOF 7
ENDMDL
MODEL 5
REMARK VINA RESULT:    -4.766      1.712      3.635
REMARK INTER + INTRA:          -6.418
REMARK INTER:                  -5.779
REMARK INTRA:                  -0.639
REMARK UNBOUND:                -0.259
REMARK SMILES CO[C@@]1(CO)O[C@H](CO)[C@H](O)[C@@H]1O
REMARK SMILES IDX 3 1 12 2 10 3 7 4 6 5 2 6 1 7 4 8 5 9 13 11 11 13 8 15 9 16
REMARK H PARENT 5 10 13 12 11 14 9 17
REMARK Flexibility Score: inf
ROOT
ATOM      1  C   UNL     1     -21.323 -28.578  15.947  1.00  0.00     0.221 C 
ATOM      2  C   UNL     1     -21.690 -29.500  17.145  1.00  0.00     0.207 C 
ATOM      3  C   UNL     1     -22.766 -28.732  17.885  1.00  0.00     0.180 C 
ATOM      4  C   UNL     1     -23.310 -27.827  16.787  1.00  0.00     0.179 C 
ATOM      5  O   UNL     1     -22.233 -27.483  15.949  1.00  0.00    -0.337 OA
ENDROOT
BRANCH   1   6
ATOM      6  O   UNL     1     -21.442 -29.353  14.754  1.00  0.00    -0.349 OA
ATOM      7  C   UNL     1     -20.624 -28.880  13.703  1.00  0.00     0.198 C 
ENDBRANCH   1   6
BRANCH   1   8
ATOM      8  C   UNL     1     -19.885 -28.009  16.062  1.00  0.00     0.224 C 
BRANCH   8   9
ATOM      9  O   UNL     1     -19.847 -26.894  16.913  1.00  0.00    -0.391 OA
ATOM     10  H   UNL     1     -19.048 -26.365  16.656  1.00  0.00     0.210 HD
ENDBRANCH   8   9
ENDBRANCH   1   8
BRANCH   2  11
ATOM     11  O   UNL     1     -20.595 -29.805  17.976  1.00  0.00    -0.385 OA
ATOM     12  H   UNL     1     -19.911 -29.106  17.811  1.00  0.00     0.211 HD
ENDBRANCH   2  11
BRANCH   3  13
ATOM     13  O   UNL     1     -22.245 -28.006  18.978  1.00  0.00    -0.387 OA
ATOM     14  H   UNL     1     -22.030 -27.088  18.668  1.00  0.00     0.211 HD
ENDBRANCH   3  13
BRANCH   4  15
ATOM     15  C   UNL     1     -24.004 -26.563  17.314  1.00  0.00     0.191 C 
BRANCH  15  16
ATOM     16  O   UNL     1     -24.932 -26.898  18.311  1.00  0.00    -0.394 OA
ATOM     17  H   UNL     1     -25.743 -26.351  18.140  1.00  0.00     0.210 HD
ENDBRANCH  15  16
ENDBRANCH   4  15
TORSDOF 7
ENDMDL
MODEL 6
REMARK VINA RESULT:    -4.632      7.134      8.548
REMARK INTER + INTRA:          -6.245
REMARK INTER:                  -5.477
REMARK INTRA:                  -0.769
REMARK UNBOUND:                -0.259
REMARK SMILES CO[C@@]1(CO)O[C@H](CO)[C@H](O)[C@@H]1O
REMARK SMILES IDX 3 1 12 2 10 3 7 4 6 5 2 6 1 7 4 8 5 9 13 11 11 13 8 15 9 16
REMARK H PARENT 5 10 13 12 11 14 9 17
REMARK Flexibility Score: inf
ROOT
ATOM      1  C   UNL     1     -22.235 -31.603   9.527  1.00  0.00     0.221 C 
ATOM      2  C   UNL     1     -22.674 -32.228  10.882  1.00  0.00     0.207 C 
ATOM      3  C   UNL     1     -21.530 -31.908  11.824  1.00  0.00     0.180 C 
ATOM      4  C   UNL     1     -20.904 -30.696  11.147  1.00  0.00     0.179 C 
ATOM      5  O   UNL     1     -21.035 -30.872   9.757  1.00  0.00    -0.337 OA
ENDROOT
BRANCH   1   6
ATOM      6  O   UNL     1     -23.289 -30.749   9.084  1.00  0.00    -0.349 OA
ATOM      7  C   UNL     1     -23.192 -30.416   7.713  1.00  0.00     0.198 C 
ENDBRANCH   1   6
BRANCH   1   8
ATOM      8  C   UNL     1     -21.944 -32.680   8.450  1.00  0.00     0.224 C 
BRANCH   8   9
ATOM      9  O   UNL     1     -21.005 -33.616   8.910  1.00  0.00    -0.391 OA
ATOM     10  H   UNL     1     -20.984 -34.351   8.244  1.00  0.00     0.210 HD
ENDBRANCH   8   9
ENDBRANCH   1   8
BRANCH   2  11
ATOM     11  O   UNL     1     -22.924 -33.611  10.809  1.00  0.00    -0.385 OA
ATOM     12  H   UNL     1     -23.386 -33.860  11.652  1.00  0.00     0.211 HD
ENDBRANCH   2  11
BRANCH   3  13
ATOM     13  O   UNL     1     -20.628 -32.986  11.950  1.00  0.00    -0.387 OA
ATOM     14  H   UNL     1     -20.121 -32.871  12.795  1.00  0.00     0.211 HD
ENDBRANCH   3  13
BRANCH   4  15
ATOM     15  C   UNL     1     -19.432 -30.470  11.522  1.00  0.00     0.191 C 
BRANCH  15  16
ATOM     16  O   UNL     1     -18.597 -31.236  10.697  1.00  0.00    -0.394 OA
ATOM     17  H   UNL     1     -19.087 -31.373   9.844  1.00  0.00     0.210 HD
ENDBRANCH  15  16
ENDBRANCH   4  15
TORSDOF 7
ENDMDL
MODEL 7
REMARK VINA RESULT:    -4.623      1.726      2.617
REMARK INTER + INTRA:          -6.234
REMARK INTER:                  -5.534
REMARK INTRA:                  -0.700
REMARK UNBOUND:                -0.259
REMARK SMILES CO[C@@]1(CO)O[C@H](CO)[C@H](O)[C@@H]1O
REMARK SMILES IDX 3 1 12 2 10 3 7 4 6 5 2 6 1 7 4 8 5 9 13 11 11 13 8 15 9 16
REMARK H PARENT 5 10 13 12 11 14 9 17
REMARK Flexibility Score: inf
ROOT
ATOM      1  C   UNL     1     -21.201 -27.382  15.215  1.00  0.00     0.221 C 
ATOM      2  C   UNL     1     -20.556 -27.650  16.605  1.00  0.00     0.207 C 
ATOM      3  C   UNL     1     -20.992 -29.060  16.949  1.00  0.00     0.180 C 
ATOM      4  C   UNL     1     -21.284 -29.638  15.571  1.00  0.00     0.179 C 
ATOM      5  O   UNL     1     -21.800 -28.597  14.776  1.00  0.00    -0.337 OA
ENDROOT
BRANCH   1   6
ATOM      6  O   UNL     1     -20.163 -26.963  14.330  1.00  0.00    -0.349 OA
ATOM      7  C   UNL     1     -18.931 -26.742  14.988  1.00  0.00     0.198 C 
ENDBRANCH   1   6
BRANCH   1   8
ATOM      8  C   UNL     1     -22.306 -26.297  15.279  1.00  0.00     0.224 C 
BRANCH   8   9
ATOM      9  O   UNL     1     -23.344 -26.681  16.142  1.00  0.00    -0.391 OA
ATOM     10  H   UNL     1     -23.640 -25.861  16.617  1.00  0.00     0.210 HD
ENDBRANCH   8   9
ENDBRANCH   1   8
BRANCH   2  11
ATOM     11  O   UNL     1     -20.942 -26.723  17.592  1.00  0.00    -0.385 OA
ATOM     12  H   UNL     1     -21.106 -27.245  18.421  1.00  0.00     0.211 HD
ENDBRANCH   2  11
BRANCH   3  13
ATOM     13  O   UNL     1     -22.123 -29.075  17.794  1.00  0.00    -0.387 OA
ATOM     14  H   UNL     1     -22.802 -29.679  17.396  1.00  0.00     0.211 HD
ENDBRANCH   3  13
BRANCH   4  15
ATOM     15  C   UNL     1     -22.254 -30.828  15.591  1.00  0.00     0.191 C 
BRANCH  15  16
ATOM     16  O   UNL     1     -21.808 -31.803  16.495  1.00  0.00    -0.394 OA
ATOM     17  H   UNL     1     -22.378 -31.723  17.304  1.00  0.00     0.210 HD
ENDBRANCH  15  16
ENDBRANCH   4  15
TORSDOF 7
ENDMDL
MODEL 8
REMARK VINA RESULT:    -4.576      9.419     10.311
REMARK INTER + INTRA:          -6.174
REMARK INTER:                  -5.395
REMARK INTRA:                  -0.779
REMARK UNBOUND:                -0.259
REMARK SMILES CO[C@@]1(CO)O[C@H](CO)[C@H](O)[C@@H]1O
REMARK SMILES IDX 3 1 12 2 10 3 7 4 6 5 2 6 1 7 4 8 5 9 13 11 11 13 8 15 9 16
REMARK H PARENT 5 10 13 12 11 14 9 17
REMARK Flexibility Score: inf
ROOT
ATOM      1  C   UNL     1     -17.001 -26.618   9.041  1.00  0.00     0.221 C 
ATOM      2  C   UNL     1     -16.493 -26.312   7.603  1.00  0.00     0.207 C 
ATOM      3  C   UNL     1     -16.775 -27.587   6.833  1.00  0.00     0.180 C 
ATOM      4  C   UNL     1     -17.893 -28.207   7.662  1.00  0.00     0.179 C 
ATOM      5  O   UNL     1     -17.647 -27.887   9.010  1.00  0.00    -0.337 OA
ENDROOT
BRANCH   1   6
ATOM      6  O   UNL     1     -17.909 -25.580   9.408  1.00  0.00    -0.349 OA
ATOM      7  C   UNL     1     -18.014 -25.405  10.807  1.00  0.00     0.198 C 
ENDBRANCH   1   6
BRANCH   1   8
ATOM      8  C   UNL     1     -15.844 -26.692  10.070  1.00  0.00     0.224 C 
BRANCH   8   9
ATOM      9  O   UNL     1     -14.978 -27.758   9.784  1.00  0.00    -0.391 OA
ATOM     10  H   UNL     1     -15.149 -28.458  10.467  1.00  0.00     0.210 HD
ENDBRANCH   8   9
ENDBRANCH   1   8
BRANCH   2  11
ATOM     11  O   UNL     1     -15.132 -25.956   7.551  1.00  0.00    -0.385 OA
ATOM     12  H   UNL     1     -14.626 -26.796   7.396  1.00  0.00     0.211 HD
ENDBRANCH   2  11
BRANCH   3  13
ATOM     13  O   UNL     1     -15.638 -28.418   6.746  1.00  0.00    -0.387 OA
ATOM     14  H   UNL     1     -15.400 -28.717   7.661  1.00  0.00     0.211 HD
ENDBRANCH   3  13
BRANCH   4  15
ATOM     15  C   UNL     1     -18.022 -29.727   7.486  1.00  0.00     0.191 C 
BRANCH  15  16
ATOM     16  O   UNL     1     -17.316 -30.395   8.497  1.00  0.00    -0.394 OA
ATOM     17  H   UNL     1     -17.890 -31.149   8.794  1.00  0.00     0.210 HD
ENDBRANCH  15  16
ENDBRANCH   4  15
TORSDOF 7
ENDMDL
MODEL 9
REMARK VINA RESULT:    -4.522      9.105     10.108
REMARK INTER + INTRA:          -6.103
REMARK INTER:                  -5.273
REMARK INTRA:                  -0.830
REMARK UNBOUND:                -0.259
REMARK SMILES CO[C@@]1(CO)O[C@H](CO)[C@H](O)[C@@H]1O
REMARK SMILES IDX 3 1 12 2 10 3 7 4 6 5 2 6 1 7 4 8 5 9 13 11 11 13 8 15 9 16
REMARK H PARENT 5 10 13 12 11 14 9 17
REMARK Flexibility Score: inf
ROOT
ATOM      1  C   UNL     1     -17.499 -27.143   9.616  1.00  0.00     0.221 C 
ATOM      2  C   UNL     1     -16.368 -26.076   9.624  1.00  0.00     0.207 C 
ATOM      3  C   UNL     1     -15.823 -26.104   8.210  1.00  0.00     0.180 C 
ATOM      4  C   UNL     1     -17.006 -26.671   7.436  1.00  0.00     0.179 C 
ATOM      5  O   UNL     1     -17.658 -27.593   8.275  1.00  0.00    -0.337 OA
ENDROOT
BRANCH   1   6
ATOM      6  O   UNL     1     -18.687 -26.517  10.101  1.00  0.00    -0.349 OA
ATOM      7  C   UNL     1     -18.893 -26.717  11.485  1.00  0.00     0.198 C 
ENDBRANCH   1   6
BRANCH   1   8
ATOM      8  C   UNL     1     -17.155 -28.370  10.499  1.00  0.00     0.224 C 
BRANCH   8   9
ATOM      9  O   UNL     1     -16.102 -29.114   9.945  1.00  0.00    -0.391 OA
ATOM     10  H   UNL     1     -15.454 -29.282  10.678  1.00  0.00     0.210 HD
ENDBRANCH   8   9
ENDBRANCH   1   8
BRANCH   2  11
ATOM     11  O   UNL     1     -15.364 -26.326  10.579  1.00  0.00    -0.385 OA
ATOM     12  H   UNL     1     -15.081 -25.442  10.931  1.00  0.00     0.211 HD
ENDBRANCH   2  11
BRANCH   3  13
ATOM     13  O   UNL     1     -14.667 -26.908   8.102  1.00  0.00    -0.387 OA
ATOM     14  H   UNL     1     -14.389 -27.178   9.015  1.00  0.00     0.211 HD
ENDBRANCH   3  13
BRANCH   4  15
ATOM     15  C   UNL     1     -16.614 -27.337   6.109  1.00  0.00     0.191 C 
BRANCH  15  16
ATOM     16  O   UNL     1     -16.115 -28.627   6.341  1.00  0.00    -0.394 OA
ATOM     17  H   UNL     1     -16.654 -29.011   7.082  1.00  0.00     0.210 HD
ENDBRANCH  15  16
ENDBRANCH   4  15
TORSDOF 7
ENDMDL
