MODEL 1
REMARK VINA RESULT:    -4.926      0.000      0.000
REMARK INTER + INTRA:          -5.230
REMARK INTER:                  -5.214
REMARK INTRA:                  -0.016
REMARK UNBOUND:                -0.016
REMARK SMILES O=C([O-])c1cccnc1
REMARK SMILES IDX 4 1 5 2 9 3 6 4 8 5 7 6 2 7 1 8 3 9
REMARK H PARENT
REMARK Flexibility Score: inf
ROOT
ATOM      1  C   UNL     1      40.383  10.192  13.484  1.00  0.00     0.016 A 
ATOM      2  C   UNL     1      41.180  10.102  12.329  1.00  0.00     0.013 A 
ATOM      3  C   UNL     1      40.873   9.640  14.679  1.00  0.00     0.120 A 
ATOM      4  C   UNL     1      42.426   9.476  12.386  1.00  0.00     0.021 A 
ATOM      5  N   UNL     1      42.092   9.036  14.707  1.00  0.00    -0.264 NA
ATOM      6  C   UNL     1      42.870   8.943  13.597  1.00  0.00     0.111 A 
ENDROOT
BRANCH   1   7
ATOM      7  C   UNL     1      39.060  10.851  13.446  1.00  0.00     0.073 C 
ATOM      8  O   UNL     1      38.012  10.174  13.268  1.00  0.00    -0.545 OA
ATOM      9  O   UNL     1      38.953  12.227  13.605  1.00  0.00    -0.545 OA
ENDBRANCH   1   7
TORSDOF 1
ENDMDL
MODEL 2
REMARK VINA RESULT:    -4.913      2.604      3.221
REMARK INTER + INTRA:          -5.216
REMARK INTER:                  -5.195
REMARK INTRA:                  -0.021
REMARK UNBOUND:                -0.016
REMARK SMILES O=C([O-])c1cccnc1
REMARK SMILES IDX 4 1 5 2 9 3 6 4 8 5 7 6 2 7 1 8 3 9
REMARK H PARENT
REMARK Flexibility Score: inf
ROOT
ATOM      1  C   UNL     1      42.124  11.512  13.450  1.00  0.00     0.016 A 
ATOM      2  C   UNL     1      42.850  10.315  13.324  1.00  0.00     0.013 A 
ATOM      3  C   UNL     1      40.913  11.488  14.161  1.00  0.00     0.120 A 
ATOM      4  C   UNL     1      42.364   9.139  13.897  1.00  0.00     0.021 A 
ATOM      5  N   UNL     1      40.464  10.327  14.711  1.00  0.00    -0.264 NA
ATOM      6  C   UNL     1      41.156   9.164  14.594  1.00  0.00     0.111 A 
ENDROOT
BRANCH   1   7
ATOM      7  C   UNL     1      42.620  12.769  12.851  1.00  0.00     0.073 C 
ATOM      8  O   UNL     1      41.815  13.610  12.366  1.00  0.00    -0.545 OA
ATOM      9  O   UNL     1      43.982  13.043  12.812  1.00  0.00    -0.545 OA
ENDBRANCH   1   7
TORSDOF 1
ENDMDL
MODEL 3
REMARK VINA RESULT:    -4.728      2.487      3.290
REMARK INTER + INTRA:          -5.020
REMARK INTER:                  -4.997
REMARK INTRA:                  -0.023
REMARK UNBOUND:                -0.016
REMARK SMILES O=C([O-])c1cccnc1
REMARK SMILES IDX 4 1 5 2 9 3 6 4 8 5 7 6 2 7 1 8 3 9
REMARK H PARENT
REMARK Flexibility Score: inf
ROOT
ATOM      1  C   UNL     1      42.069  11.463  13.481  1.00  0.00     0.016 A 
ATOM      2  C   UNL     1      40.727  11.365  13.889  1.00  0.00     0.013 A 
ATOM      3  C   UNL     1      42.907  10.351  13.667  1.00  0.00     0.120 A 
ATOM      4  C   UNL     1      40.255  10.184  14.464  1.00  0.00     0.021 A 
ATOM      5  N   UNL     1      42.420   9.211  14.229  1.00  0.00    -0.264 NA
ATOM      6  C   UNL     1      41.125   9.107  14.628  1.00  0.00     0.111 A 
ENDROOT
BRANCH   1   7
ATOM      7  C   UNL     1      42.590  12.704  12.870  1.00  0.00     0.073 C 
ATOM      8  O   UNL     1      41.802  13.559  12.383  1.00  0.00    -0.545 OA
ATOM      9  O   UNL     1      43.958  12.948  12.825  1.00  0.00    -0.545 OA
ENDBRANCH   1   7
TORSDOF 1
ENDMDL
MODEL 4
REMARK VINA RESULT:    -4.609      3.002      3.874
REMARK INTER + INTRA:          -4.894
REMARK INTER:                  -4.871
REMARK INTRA:                  -0.023
REMARK UNBOUND:                -0.016
REMARK SMILES O=C([O-])c1cccnc1
REMARK SMILES IDX 4 1 5 2 9 3 6 4 8 5 7 6 2 7 1 8 3 9
REMARK H PARENT
REMARK Flexibility Score: inf
ROOT
ATOM      1  C   UNL     1      41.412  10.911  13.334  1.00  0.00     0.016 A 
ATOM      2  C   UNL     1      40.674   9.757  13.018  1.00  0.00     0.013 A 
ATOM      3  C   UNL     1      40.716  12.054  13.761  1.00  0.00     0.120 A 
ATOM      4  C   UNL     1      39.282   9.764  13.130  1.00  0.00     0.021 A 
ATOM      5  N   UNL     1      39.360  12.033  13.863  1.00  0.00    -0.264 NA
ATOM      6  C   UNL     1      38.636  10.923  13.559  1.00  0.00     0.111 A 
ENDROOT
BRANCH   1   7
ATOM      7  C   UNL     1      42.886  10.925  13.221  1.00  0.00     0.073 C 
ATOM      8  O   UNL     1      43.512  12.016  13.142  1.00  0.00    -0.545 OA
ATOM      9  O   UNL     1      43.603   9.734  13.200  1.00  0.00    -0.545 OA
ENDBRANCH   1   7
TORSDOF 1
ENDMDL
MODEL 5
REMARK VINA RESULT:    -4.581      0.988      1.932
REMARK INTER + INTRA:          -4.865
REMARK INTER:                  -4.848
REMARK INTRA:                  -0.017
REMARK UNBOUND:                -0.016
REMARK SMILES O=C([O-])c1cccnc1
REMARK SMILES IDX 4 1 5 2 9 3 6 4 8 5 7 6 2 7 1 8 3 9
REMARK H PARENT
REMARK Flexibility Score: inf
ROOT
ATOM      1  C   UNL     1      40.503  10.489  13.600  1.00  0.00     0.016 A 
ATOM      2  C   UNL     1      40.799   9.575  14.626  1.00  0.00     0.013 A 
ATOM      3  C   UNL     1      41.493  10.759  12.640  1.00  0.00     0.120 A 
ATOM      4  C   UNL     1      42.050   8.959  14.676  1.00  0.00     0.021 A 
ATOM      5  N   UNL     1      42.704  10.144  12.712  1.00  0.00    -0.264 NA
ATOM      6  C   UNL     1      43.000   9.259  13.700  1.00  0.00     0.111 A 
ENDROOT
BRANCH   1   7
ATOM      7  C   UNL     1      39.184  11.153  13.529  1.00  0.00     0.073 C 
ATOM      8  O   UNL     1      39.085  12.400  13.683  1.00  0.00    -0.545 OA
ATOM      9  O   UNL     1      38.033  10.411  13.292  1.00  0.00    -0.545 OA
ENDBRANCH   1   7
TORSDOF 1
ENDMDL
MODEL 6
REMARK VINA RESULT:    -4.573     11.836     12.618
REMARK INTER + INTRA:          -4.857
REMARK INTER:                  -4.836
REMARK INTRA:                  -0.021
REMARK UNBOUND:                -0.016
REMARK SMILES O=C([O-])c1cccnc1
REMARK SMILES IDX 4 1 5 2 9 3 6 4 8 5 7 6 2 7 1 8 3 9
REMARK H PARENT
REMARK Flexibility Score: inf
ROOT
ATOM      1  C   UNL     1      32.026  17.604  17.612  1.00  0.00     0.016 A 
ATOM      2  C   UNL     1      33.182  17.764  18.396  1.00  0.00     0.013 A 
ATOM      3  C   UNL     1      30.785  17.502  18.263  1.00  0.00     0.120 A 
ATOM      4  C   UNL     1      33.081  17.820  19.787  1.00  0.00     0.021 A 
ATOM      5  N   UNL     1      30.716  17.561  19.620  1.00  0.00    -0.264 NA
ATOM      6  C   UNL     1      31.826  17.715  20.388  1.00  0.00     0.111 A 
ENDROOT
BRANCH   1   7
ATOM      7  C   UNL     1      32.110  17.542  16.137  1.00  0.00     0.073 C 
ATOM      8  O   UNL     1      31.184  18.010  15.422  1.00  0.00    -0.545 OA
ATOM      9  O   UNL     1      33.213  16.965  15.517  1.00  0.00    -0.545 OA
ENDBRANCH   1   7
TORSDOF 1
ENDMDL
MODEL 7
REMARK VINA RESULT:    -4.557      2.866      3.894
REMARK INTER + INTRA:          -4.839
REMARK INTER:                  -4.816
REMARK INTRA:                  -0.023
REMARK UNBOUND:                -0.016
REMARK SMILES O=C([O-])c1cccnc1
REMARK SMILES IDX 4 1 5 2 9 3 6 4 8 5 7 6 2 7 1 8 3 9
REMARK H PARENT
REMARK Flexibility Score: inf
ROOT
ATOM      1  C   UNL     1      41.402  10.860  13.378  1.00  0.00     0.016 A 
ATOM      2  C   UNL     1      40.697  11.994  13.820  1.00  0.00     0.013 A 
ATOM      3  C   UNL     1      40.672   9.705  13.054  1.00  0.00     0.120 A 
ATOM      4  C   UNL     1      39.306  11.955  13.928  1.00  0.00     0.021 A 
ATOM      5  N   UNL     1      39.317   9.694  13.167  1.00  0.00    -0.264 NA
ATOM      6  C   UNL     1      38.626  10.784  13.594  1.00  0.00     0.111 A 
ENDROOT
BRANCH   1   7
ATOM      7  C   UNL     1      42.875  10.880  13.257  1.00  0.00     0.073 C 
ATOM      8  O   UNL     1      43.499  11.974  13.198  1.00  0.00    -0.545 OA
ATOM      9  O   UNL     1      43.594   9.692  13.207  1.00  0.00    -0.545 OA
ENDBRANCH   1   7
TORSDOF 1
ENDMDL
MODEL 8
REMARK VINA RESULT:    -4.510     12.657     13.600
REMARK INTER + INTRA:          -4.789
REMARK INTER:                  -4.771
REMARK INTRA:                  -0.018
REMARK UNBOUND:                -0.016
REMARK SMILES O=C([O-])c1cccnc1
REMARK SMILES IDX 4 1 5 2 9 3 6 4 8 5 7 6 2 7 1 8 3 9
REMARK H PARENT
REMARK Flexibility Score: inf
ROOT
ATOM      1  C   UNL     1      30.855  17.233  19.579  1.00  0.00     0.016 A 
ATOM      2  C   UNL     1      32.118  17.498  20.136  1.00  0.00     0.013 A 
ATOM      3  C   UNL     1      30.695  17.369  18.190  1.00  0.00     0.120 A 
ATOM      4  C   UNL     1      33.178  17.886  19.314  1.00  0.00     0.021 A 
ATOM      5  N   UNL     1      31.745  17.747  17.412  1.00  0.00    -0.264 NA
ATOM      6  C   UNL     1      32.970  18.007  17.940  1.00  0.00     0.111 A 
ENDROOT
BRANCH   1   7
ATOM      7  C   UNL     1      29.719  16.822  20.431  1.00  0.00     0.073 C 
ATOM      8  O   UNL     1      29.331  17.555  21.380  1.00  0.00    -0.545 OA
ATOM      9  O   UNL     1      29.063  15.619  20.198  1.00  0.00    -0.545 OA
ENDBRANCH   1   7
TORSDOF 1
ENDMDL
MODEL 9
REMARK VINA RESULT:    -4.202      2.459      2.908
REMARK INTER + INTRA:          -4.463
REMARK INTER:                  -4.443
REMARK INTRA:                  -0.020
REMARK UNBOUND:                -0.016
REMARK SMILES O=C([O-])c1cccnc1
REMARK SMILES IDX 4 1 5 2 9 3 6 4 8 5 7 6 2 7 1 8 3 9
REMARK H PARENT
REMARK Flexibility Score: inf
ROOT
ATOM      1  C   UNL     1      41.370  10.736  13.606  1.00  0.00     0.016 A 
ATOM      2  C   UNL     1      40.903  12.049  13.420  1.00  0.00     0.013 A 
ATOM      3  C   UNL     1      42.715  10.457  13.309  1.00  0.00     0.120 A 
ATOM      4  C   UNL     1      41.767  13.039  12.950  1.00  0.00     0.021 A 
ATOM      5  N   UNL     1      43.536  11.442  12.854  1.00  0.00    -0.264 NA
ATOM      6  C   UNL     1      43.094  12.714  12.670  1.00  0.00     0.111 A 
ENDROOT
BRANCH   1   7
ATOM      7  C   UNL     1      40.472   9.671  14.101  1.00  0.00     0.073 C 
ATOM      8  O   UNL     1      39.291   9.578  13.671  1.00  0.00    -0.545 OA
ATOM      9  O   UNL     1      40.917   8.758  15.050  1.00  0.00    -0.545 OA
ENDBRANCH   1   7
TORSDOF 1
ENDMDL
