MODEL 1
REMARK VINA RESULT:    -4.457      0.000      0.000
REMARK INTER + INTRA:          -4.858
REMARK INTER:                  -4.848
REMARK INTRA:                  -0.010
REMARK UNBOUND:                -0.010
REMARK SMILES OCc1ccccc1
REMARK SMILES IDX 2 1 3 2 6 3 5 4 7 5 4 6 8 7 1 8
REMARK H PARENT 1 9
REMARK Flexibility Score: inf
ROOT
ATOM      1  C   UNL     1      22.069  -7.403  18.281  1.00  0.00     0.191 C 
ENDROOT
BRANCH   1   2
ATOM      2  C   UNL     1      21.955  -6.003  18.818  1.00  0.00    -0.023 A 
ATOM      3  C   UNL     1      21.813  -3.374  19.789  1.00  0.00     0.000 A 
ATOM      4  C   UNL     1      21.305  -3.681  18.523  1.00  0.00     0.000 A 
ATOM      5  C   UNL     1      22.402  -4.375  20.566  1.00  0.00     0.000 A 
ATOM      6  C   UNL     1      21.380  -4.989  18.035  1.00  0.00     0.006 A 
ATOM      7  C   UNL     1      22.478  -5.685  20.083  1.00  0.00     0.006 A 
ENDBRANCH   1   2
BRANCH   1   8
ATOM      8  O   UNL     1      23.195  -7.511  17.454  1.00  0.00    -0.392 OA
ATOM      9  H   UNL     1      23.987  -7.518  18.052  1.00  0.00     0.211 HD
ENDBRANCH   1   8
TORSDOF 2
ENDMDL
MODEL 2
REMARK VINA RESULT:    -4.060     17.184     17.840
REMARK INTER + INTRA:          -4.426
REMARK INTER:                  -4.415
REMARK INTRA:                  -0.011
REMARK UNBOUND:                -0.010
REMARK SMILES OCc1ccccc1
REMARK SMILES IDX 2 1 3 2 6 3 5 4 7 5 4 6 8 7 1 8
REMARK H PARENT 1 9
REMARK Flexibility Score: inf
ROOT
ATOM      1  C   UNL     1      19.116   9.752  27.071  1.00  0.00     0.191 C 
ENDROOT
BRANCH   1   2
ATOM      2  C   UNL     1      19.640   9.378  28.429  1.00  0.00    -0.023 A 
ATOM      3  C   UNL     1      20.673   8.632  30.929  1.00  0.00     0.000 A 
ATOM      4  C   UNL     1      21.195   9.744  30.260  1.00  0.00     0.000 A 
ATOM      5  C   UNL     1      19.645   7.886  30.348  1.00  0.00     0.000 A 
ATOM      6  C   UNL     1      20.686  10.113  29.011  1.00  0.00     0.006 A 
ATOM      7  C   UNL     1      19.131   8.253  29.100  1.00  0.00     0.006 A 
ENDBRANCH   1   2
BRANCH   1   8
ATOM      8  O   UNL     1      19.500   8.792  26.125  1.00  0.00    -0.392 OA
ATOM      9  H   UNL     1      20.484   8.686  26.212  1.00  0.00     0.211 HD
ENDBRANCH   1   8
TORSDOF 2
ENDMDL
MODEL 3
REMARK VINA RESULT:    -4.032     10.589     11.546
REMARK INTER + INTRA:          -4.396
REMARK INTER:                  -4.382
REMARK INTRA:                  -0.014
REMARK UNBOUND:                -0.010
REMARK SMILES OCc1ccccc1
REMARK SMILES IDX 2 1 3 2 6 3 5 4 7 5 4 6 8 7 1 8
REMARK H PARENT 1 9
REMARK Flexibility Score: inf
ROOT
ATOM      1  C   UNL     1      23.719   2.574  26.101  1.00  0.00     0.191 C 
ENDROOT
BRANCH   1   2
ATOM      2  C   UNL     1      24.967   3.108  25.455  1.00  0.00    -0.023 A 
ATOM      3  C   UNL     1      27.336   4.092  24.317  1.00  0.00     0.000 A 
ATOM      4  C   UNL     1      27.035   2.728  24.238  1.00  0.00     0.000 A 
ATOM      5  C   UNL     1      26.461   4.963  24.972  1.00  0.00     0.000 A 
ATOM      6  C   UNL     1      25.859   2.235  24.810  1.00  0.00     0.006 A 
ATOM      7  C   UNL     1      25.282   4.474  25.544  1.00  0.00     0.006 A 
ENDBRANCH   1   2
BRANCH   1   8
ATOM      8  O   UNL     1      24.033   1.488  26.930  1.00  0.00    -0.392 OA
ATOM      9  H   UNL     1      23.270   1.378  27.555  1.00  0.00     0.211 HD
ENDBRANCH   1   8
TORSDOF 2
ENDMDL
MODEL 4
REMARK VINA RESULT:    -4.030     10.559     11.517
REMARK INTER + INTRA:          -4.394
REMARK INTER:                  -4.382
REMARK INTRA:                  -0.012
REMARK UNBOUND:                -0.010
REMARK SMILES OCc1ccccc1
REMARK SMILES IDX 2 1 3 2 6 3 5 4 7 5 4 6 8 7 1 8
REMARK H PARENT 1 9
REMARK Flexibility Score: inf
ROOT
ATOM      1  C   UNL     1      23.827   2.521  25.985  1.00  0.00     0.191 C 
ENDROOT
BRANCH   1   2
ATOM      2  C   UNL     1      25.096   3.077  25.401  1.00  0.00    -0.023 A 
ATOM      3  C   UNL     1      27.426   4.129  24.244  1.00  0.00     0.000 A 
ATOM      4  C   UNL     1      26.557   4.966  24.951  1.00  0.00     0.000 A 
ATOM      5  C   UNL     1      27.129   2.771  24.104  1.00  0.00     0.000 A 
ATOM      6  C   UNL     1      25.392   4.444  25.523  1.00  0.00     0.006 A 
ATOM      7  C   UNL     1      25.966   2.245  24.676  1.00  0.00     0.006 A 
ENDBRANCH   1   2
BRANCH   1   8
ATOM      8  O   UNL     1      24.122   1.467  26.860  1.00  0.00    -0.392 OA
ATOM      9  H   UNL     1      23.870   1.774  27.770  1.00  0.00     0.211 HD
ENDBRANCH   1   8
TORSDOF 2
ENDMDL
MODEL 5
REMARK VINA RESULT:    -3.901     16.238     17.419
REMARK INTER + INTRA:          -4.253
REMARK INTER:                  -4.233
REMARK INTRA:                  -0.020
REMARK UNBOUND:                -0.010
REMARK SMILES OCc1ccccc1
REMARK SMILES IDX 2 1 3 2 6 3 5 4 7 5 4 6 8 7 1 8
REMARK H PARENT 1 9
REMARK Flexibility Score: inf
ROOT
ATOM      1  C   UNL     1      23.116   9.292  29.265  1.00  0.00     0.191 C 
ENDROOT
BRANCH   1   2
ATOM      2  C   UNL     1      21.849   9.352  28.458  1.00  0.00    -0.023 A 
ATOM      3  C   UNL     1      19.457   9.400  26.992  1.00  0.00     0.000 A 
ATOM      4  C   UNL     1      19.562  10.125  28.183  1.00  0.00     0.000 A 
ATOM      5  C   UNL     1      20.540   8.643  26.537  1.00  0.00     0.000 A 
ATOM      6  C   UNL     1      20.751  10.097  28.918  1.00  0.00     0.006 A 
ATOM      7  C   UNL     1      21.732   8.614  27.268  1.00  0.00     0.006 A 
ENDBRANCH   1   2
BRANCH   1   8
ATOM      8  O   UNL     1      23.997   8.354  28.709  1.00  0.00    -0.392 OA
ATOM      9  H   UNL     1      23.861   7.507  29.207  1.00  0.00     0.211 HD
ENDBRANCH   1   8
TORSDOF 2
ENDMDL
MODEL 6
REMARK VINA RESULT:    -3.879      2.229      4.092
REMARK INTER + INTRA:          -4.229
REMARK INTER:                  -4.215
REMARK INTRA:                  -0.015
REMARK UNBOUND:                -0.010
REMARK SMILES OCc1ccccc1
REMARK SMILES IDX 2 1 3 2 6 3 5 4 7 5 4 6 8 7 1 8
REMARK H PARENT 1 9
REMARK Flexibility Score: inf
ROOT
ATOM      1  C   UNL     1      21.569  -5.043  18.684  1.00  0.00     0.191 C 
ENDROOT
BRANCH   1   2
ATOM      2  C   UNL     1      21.114  -6.182  17.813  1.00  0.00    -0.023 A 
ATOM      3  C   UNL     1      20.273  -8.259  16.125  1.00  0.00     0.000 A 
ATOM      4  C   UNL     1      21.632  -8.102  16.418  1.00  0.00     0.000 A 
ATOM      5  C   UNL     1      19.336  -7.375  16.664  1.00  0.00     0.000 A 
ATOM      6  C   UNL     1      22.053  -7.063  17.254  1.00  0.00     0.006 A 
ATOM      7  C   UNL     1      19.752  -6.336  17.502  1.00  0.00     0.006 A 
ENDBRANCH   1   2
BRANCH   1   8
ATOM      8  O   UNL     1      22.556  -5.484  19.575  1.00  0.00    -0.392 OA
ATOM      9  H   UNL     1      22.319  -6.415  19.825  1.00  0.00     0.211 HD
ENDBRANCH   1   8
TORSDOF 2
ENDMDL
MODEL 7
REMARK VINA RESULT:    -3.866      2.603      3.800
REMARK INTER + INTRA:          -4.215
REMARK INTER:                  -4.196
REMARK INTRA:                  -0.019
REMARK UNBOUND:                -0.010
REMARK SMILES OCc1ccccc1
REMARK SMILES IDX 2 1 3 2 6 3 5 4 7 5 4 6 8 7 1 8
REMARK H PARENT 1 9
REMARK Flexibility Score: inf
ROOT
ATOM      1  C   UNL     1      19.494  -8.789  15.631  1.00  0.00     0.191 C 
ENDROOT
BRANCH   1   2
ATOM      2  C   UNL     1      20.311  -7.877  16.503  1.00  0.00    -0.023 A 
ATOM      3  C   UNL     1      21.814  -6.217  18.194  1.00  0.00     0.000 A 
ATOM      4  C   UNL     1      22.401  -7.352  17.625  1.00  0.00     0.000 A 
ATOM      5  C   UNL     1      20.476  -5.916  17.928  1.00  0.00     0.000 A 
ATOM      6  C   UNL     1      21.651  -8.184  16.788  1.00  0.00     0.006 A 
ATOM      7  C   UNL     1      19.723  -6.744  17.090  1.00  0.00     0.006 A 
ENDBRANCH   1   2
BRANCH   1   8
ATOM      8  O   UNL     1      20.073 -10.065  15.594  1.00  0.00    -0.392 OA
ATOM      9  H   UNL     1      20.977  -9.978  15.993  1.00  0.00     0.211 HD
ENDBRANCH   1   8
TORSDOF 2
ENDMDL
MODEL 8
REMARK VINA RESULT:    -3.852     17.488     18.141
REMARK INTER + INTRA:          -4.199
REMARK INTER:                  -4.180
REMARK INTRA:                  -0.019
REMARK UNBOUND:                -0.010
REMARK SMILES OCc1ccccc1
REMARK SMILES IDX 2 1 3 2 6 3 5 4 7 5 4 6 8 7 1 8
REMARK H PARENT 1 9
REMARK Flexibility Score: inf
ROOT
ATOM      1  C   UNL     1      18.031   6.357  31.335  1.00  0.00     0.191 C 
ENDROOT
BRANCH   1   2
ATOM      2  C   UNL     1      19.062   7.369  30.917  1.00  0.00    -0.023 A 
ATOM      3  C   UNL     1      20.935   9.316  30.159  1.00  0.00     0.000 A 
ATOM      4  C   UNL     1      20.935   8.817  31.466  1.00  0.00     0.000 A 
ATOM      5  C   UNL     1      19.996   8.852  29.234  1.00  0.00     0.000 A 
ATOM      6  C   UNL     1      19.997   7.851  31.847  1.00  0.00     0.006 A 
ATOM      7  C   UNL     1      19.058   7.886  29.611  1.00  0.00     0.006 A 
ENDBRANCH   1   2
BRANCH   1   8
ATOM      8  O   UNL     1      18.367   5.817  32.584  1.00  0.00    -0.392 OA
ATOM      9  H   UNL     1      19.304   6.088  32.768  1.00  0.00     0.211 HD
ENDBRANCH   1   8
TORSDOF 2
ENDMDL
