MODEL 1
REMARK VINA RESULT:     1.625      0.000      0.000
REMARK INTER + INTRA:           1.720
REMARK INTER:                   1.720
REMARK INTRA:                   0.000
REMARK UNBOUND:                 0.000
REMARK SMILES O=c1ccc2cc(O)c(O)cc2o1
REMARK SMILES IDX 4 1 3 2 2 3 1 4 13 5 12 6 11 7 9 8 7 9 6 10 5 11 8 12 10 14
REMARK H PARENT 8 13 10 15
REMARK Flexibility Score: inf
ROOT
ATOM      1  C   UNL     1      20.928  41.638  12.398  1.00  0.00     0.019 A 
ATOM      2  C   UNL     1      21.224  42.899  12.915  1.00  0.00     0.094 A 
ATOM      3  C   UNL     1      20.397  43.979  12.585  1.00  0.00     0.336 A 
ATOM      4  O   UNL     1      20.649  45.125  13.042  1.00  0.00    -0.246 OA
ATOM      5  O   UNL     1      19.346  43.803  11.789  1.00  0.00    -0.423 OA
ATOM      6  C   UNL     1      19.028  42.618  11.274  1.00  0.00     0.142 A 
ATOM      7  C   UNL     1      17.909  42.492  10.445  1.00  0.00     0.098 A 
ATOM      8  C   UNL     1      17.569  41.245   9.900  1.00  0.00     0.161 A 
ATOM      9  C   UNL     1      18.352  40.118  10.188  1.00  0.00     0.158 A 
ATOM     10  C   UNL     1      19.475  40.237  11.020  1.00  0.00     0.062 A 
ATOM     11  C   UNL     1      19.816  41.482  11.565  1.00  0.00     0.022 A 
ENDROOT
BRANCH   9  12
ATOM     12  O   UNL     1      18.008  38.882   9.642  1.00  0.00    -0.504 OA
ATOM     13  H   UNL     1      17.891  38.757   8.644  1.00  0.00     0.293 HD
ENDBRANCH   9  12
BRANCH   8  14
ATOM     14  O   UNL     1      16.456  41.119   9.072  1.00  0.00    -0.504 OA
ATOM     15  H   UNL     1      15.931  40.254   9.016  1.00  0.00     0.293 HD
ENDBRANCH   8  14
TORSDOF 2
ENDMDL
MODEL 2
REMARK VINA RESULT:     3.070      1.065      4.497
REMARK INTER + INTRA:           3.249
REMARK INTER:                   3.249
REMARK INTRA:                   0.000
REMARK UNBOUND:                 0.000
REMARK SMILES O=c1ccc2cc(O)c(O)cc2o1
REMARK SMILES IDX 4 1 3 2 2 3 1 4 13 5 12 6 11 7 9 8 7 9 6 10 5 11 8 12 10 14
REMARK H PARENT 8 13 10 15
REMARK Flexibility Score: inf
ROOT
ATOM      1  C   UNL     1      19.122  39.846  10.878  1.00  0.00     0.019 A 
ATOM      2  C   UNL     1      17.955  39.654  10.140  1.00  0.00     0.094 A 
ATOM      3  C   UNL     1      17.174  40.765   9.803  1.00  0.00     0.336 A 
ATOM      4  O   UNL     1      16.117  40.611   9.137  1.00  0.00    -0.246 OA
ATOM      5  O   UNL     1      17.542  41.986  10.182  1.00  0.00    -0.423 OA
ATOM      6  C   UNL     1      18.648  42.214  10.887  1.00  0.00     0.142 A 
ATOM      7  C   UNL     1      18.985  43.520  11.257  1.00  0.00     0.098 A 
ATOM      8  C   UNL     1      20.149  43.766  12.000  1.00  0.00     0.161 A 
ATOM      9  C   UNL     1      20.980  42.700  12.373  1.00  0.00     0.158 A 
ATOM     10  C   UNL     1      20.648  41.389  12.005  1.00  0.00     0.062 A 
ATOM     11  C   UNL     1      19.485  41.141  11.263  1.00  0.00     0.022 A 
ENDROOT
BRANCH   9  12
ATOM     12  O   UNL     1      22.135  42.953  13.112  1.00  0.00    -0.504 OA
ATOM     13  H   UNL     1      22.294  42.518  14.013  1.00  0.00     0.293 HD
ENDBRANCH   9  12
BRANCH   8  14
ATOM     14  O   UNL     1      20.485  45.066  12.371  1.00  0.00    -0.504 OA
ATOM     15  H   UNL     1      19.847  45.841  12.230  1.00  0.00     0.293 HD
ENDBRANCH   8  14
TORSDOF 2
ENDMDL
