MODEL 1
REMARK VINA RESULT:    -5.751      0.000      0.000
REMARK INTER + INTRA:          -5.751
REMARK INTER:                  -5.751
REMARK INTRA:                   0.000
REMARK UNBOUND:                 0.000
REMARK SMILES CC(C)=C1CC[C@H](C)CC1=O
REMARK SMILES IDX 8 1 7 2 6 3 5 4 4 5 2 6 1 7 3 8 10 9 11 10 9 11
REMARK H PARENT
REMARK Flexibility Score: inf
ROOT
ATOM      1  C   UNL     1      32.015  20.425  21.412  1.00  0.00     0.008 C 
ATOM      2  C   UNL     1      32.242  20.332  19.898  1.00  0.00    -0.006 C 
ATOM      3  C   UNL     1      33.625  20.886  19.523  1.00  0.00     0.008 C 
ATOM      4  C   UNL     1      33.830  20.896  18.002  1.00  0.00     0.039 C 
ATOM      5  C   UNL     1      33.551  19.539  17.367  1.00  0.00    -0.006 C 
ATOM      6  C   UNL     1      34.227  19.123  16.257  1.00  0.00    -0.070 C 
ATOM      7  C   UNL     1      35.270  20.000  15.600  1.00  0.00     0.039 C 
ATOM      8  C   UNL     1      34.001  17.757  15.651  1.00  0.00     0.039 C 
ATOM      9  C   UNL     1      32.425  18.757  17.960  1.00  0.00     0.159 C 
ATOM     10  O   UNL     1      31.716  17.993  17.252  1.00  0.00    -0.295 OA
ATOM     11  C   UNL     1      32.113  18.877  19.424  1.00  0.00     0.084 C 
ENDROOT
TORSDOF 0
ENDMDL
MODEL 2
REMARK VINA RESULT:    -5.750      1.823      2.603
REMARK INTER + INTRA:          -5.750
REMARK INTER:                  -5.750
REMARK INTRA:                   0.000
REMARK UNBOUND:                 0.000
REMARK SMILES CC(C)=C1CC[C@H](C)CC1=O
REMARK SMILES IDX 8 1 7 2 6 3 5 4 4 5 2 6 1 7 3 8 10 9 11 10 9 11
REMARK H PARENT
REMARK Flexibility Score: inf
ROOT
ATOM      1  C   UNL     1      30.649  19.608  20.916  1.00  0.00     0.008 C 
ATOM      2  C   UNL     1      31.924  19.558  20.066  1.00  0.00    -0.006 C 
ATOM      3  C   UNL     1      31.665  18.818  18.745  1.00  0.00     0.008 C 
ATOM      4  C   UNL     1      32.954  18.669  17.926  1.00  0.00     0.039 C 
ATOM      5  C   UNL     1      33.673  19.997  17.722  1.00  0.00    -0.006 C 
ATOM      6  C   UNL     1      34.398  20.244  16.592  1.00  0.00    -0.070 C 
ATOM      7  C   UNL     1      34.532  19.203  15.503  1.00  0.00     0.039 C 
ATOM      8  C   UNL     1      35.068  21.578  16.352  1.00  0.00     0.039 C 
ATOM      9  C   UNL     1      33.630  20.948  18.871  1.00  0.00     0.159 C 
ATOM     10  O   UNL     1      34.587  21.735  19.105  1.00  0.00    -0.295 OA
ATOM     11  C   UNL     1      32.436  20.978  19.781  1.00  0.00     0.084 C 
ENDROOT
TORSDOF 0
ENDMDL
MODEL 3
REMARK VINA RESULT:    -5.648     10.853     12.900
REMARK INTER + INTRA:          -5.648
REMARK INTER:                  -5.648
REMARK INTRA:                   0.000
REMARK UNBOUND:                 0.000
REMARK SMILES CC(C)=C1CC[C@H](C)CC1=O
REMARK SMILES IDX 8 1 7 2 6 3 5 4 4 5 2 6 1 7 3 8 10 9 11 10 9 11
REMARK H PARENT
REMARK Flexibility Score: inf
ROOT
ATOM      1  C   UNL     1      30.506  17.770  27.708  1.00  0.00     0.008 C 
ATOM      2  C   UNL     1      29.225  18.571  27.967  1.00  0.00    -0.006 C 
ATOM      3  C   UNL     1      28.138  18.197  26.948  1.00  0.00     0.008 C 
ATOM      4  C   UNL     1      26.883  19.061  27.129  1.00  0.00     0.039 C 
ATOM      5  C   UNL     1      26.368  19.052  28.563  1.00  0.00    -0.006 C 
ATOM      6  C   UNL     1      25.037  19.170  28.839  1.00  0.00    -0.070 C 
ATOM      7  C   UNL     1      24.018  19.333  27.734  1.00  0.00     0.039 C 
ATOM      8  C   UNL     1      24.509  19.105  30.255  1.00  0.00     0.039 C 
ATOM      9  C   UNL     1      27.410  19.025  29.632  1.00  0.00     0.159 C 
ATOM     10  O   UNL     1      27.223  19.591  30.743  1.00  0.00    -0.295 OA
ATOM     11  C   UNL     1      28.715  18.321  29.395  1.00  0.00     0.084 C 
ENDROOT
TORSDOF 0
ENDMDL
MODEL 4
REMARK VINA RESULT:    -5.619      1.647      3.712
REMARK INTER + INTRA:          -5.619
REMARK INTER:                  -5.619
REMARK INTRA:                   0.000
REMARK UNBOUND:                 0.000
REMARK SMILES CC(C)=C1CC[C@H](C)CC1=O
REMARK SMILES IDX 8 1 7 2 6 3 5 4 4 5 2 6 1 7 3 8 10 9 11 10 9 11
REMARK H PARENT
REMARK Flexibility Score: inf
ROOT
ATOM      1  C   UNL     1      31.103  17.309  15.739  1.00  0.00     0.008 C 
ATOM      2  C   UNL     1      32.126  17.965  16.674  1.00  0.00    -0.006 C 
ATOM      3  C   UNL     1      32.826  19.139  15.973  1.00  0.00     0.008 C 
ATOM      4  C   UNL     1      33.924  19.743  16.858  1.00  0.00     0.039 C 
ATOM      5  C   UNL     1      33.418  20.109  18.248  1.00  0.00    -0.006 C 
ATOM      6  C   UNL     1      33.941  21.165  18.938  1.00  0.00    -0.070 C 
ATOM      7  C   UNL     1      35.058  22.004  18.358  1.00  0.00     0.039 C 
ATOM      8  C   UNL     1      33.409  21.573  20.293  1.00  0.00     0.039 C 
ATOM      9  C   UNL     1      32.412  19.182  18.844  1.00  0.00     0.159 C 
ATOM     10  O   UNL     1      32.358  18.986  20.088  1.00  0.00    -0.295 OA
ATOM     11  C   UNL     1      31.441  18.453  17.960  1.00  0.00     0.084 C 
ENDROOT
TORSDOF 0
ENDMDL
MODEL 5
REMARK VINA RESULT:    -5.582      1.839      3.998
REMARK INTER + INTRA:          -5.582
REMARK INTER:                  -5.582
REMARK INTRA:                   0.000
REMARK UNBOUND:                 0.000
REMARK SMILES CC(C)=C1CC[C@H](C)CC1=O
REMARK SMILES IDX 8 1 7 2 6 3 5 4 4 5 2 6 1 7 3 8 10 9 11 10 9 11
REMARK H PARENT
REMARK Flexibility Score: inf
ROOT
ATOM      1  C   UNL     1      31.484  17.154  16.119  1.00  0.00     0.008 C 
ATOM      2  C   UNL     1      31.771  18.533  16.725  1.00  0.00    -0.006 C 
ATOM      3  C   UNL     1      31.862  18.443  18.256  1.00  0.00     0.008 C 
ATOM      4  C   UNL     1      32.048  19.830  18.886  1.00  0.00     0.039 C 
ATOM      5  C   UNL     1      33.214  20.598  18.275  1.00  0.00    -0.006 C 
ATOM      6  C   UNL     1      33.950  21.477  19.015  1.00  0.00    -0.070 C 
ATOM      7  C   UNL     1      33.629  21.739  20.469  1.00  0.00     0.039 C 
ATOM      8  C   UNL     1      35.144  22.201  18.435  1.00  0.00     0.039 C 
ATOM      9  C   UNL     1      33.420  20.416  16.807  1.00  0.00     0.159 C 
ATOM     10  O   UNL     1      33.875  21.348  16.090  1.00  0.00    -0.295 OA
ATOM     11  C   UNL     1      33.076  19.109  16.154  1.00  0.00     0.084 C 
ENDROOT
TORSDOF 0
ENDMDL
MODEL 6
REMARK VINA RESULT:    -5.539      1.795      4.402
REMARK INTER + INTRA:          -5.539
REMARK INTER:                  -5.539
REMARK INTRA:                   0.000
REMARK UNBOUND:                 0.000
REMARK SMILES CC(C)=C1CC[C@H](C)CC1=O
REMARK SMILES IDX 8 1 7 2 6 3 5 4 4 5 2 6 1 7 3 8 10 9 11 10 9 11
REMARK H PARENT
REMARK Flexibility Score: inf
ROOT
ATOM      1  C   UNL     1      34.492  21.822  16.528  1.00  0.00     0.008 C 
ATOM      2  C   UNL     1      34.053  21.072  17.792  1.00  0.00    -0.006 C 
ATOM      3  C   UNL     1      34.191  21.970  19.030  1.00  0.00     0.008 C 
ATOM      4  C   UNL     1      33.853  21.204  20.316  1.00  0.00     0.039 C 
ATOM      5  C   UNL     1      32.497  20.512  20.244  1.00  0.00    -0.006 C 
ATOM      6  C   UNL     1      31.727  20.343  21.358  1.00  0.00    -0.070 C 
ATOM      7  C   UNL     1      32.195  20.820  22.714  1.00  0.00     0.039 C 
ATOM      8  C   UNL     1      30.357  19.709  21.290  1.00  0.00     0.039 C 
ATOM      9  C   UNL     1      32.126  19.936  18.918  1.00  0.00     0.159 C 
ATOM     10  O   UNL     1      31.419  18.895  18.831  1.00  0.00    -0.295 OA
ATOM     11  C   UNL     1      32.601  20.589  17.652  1.00  0.00     0.084 C 
ENDROOT
TORSDOF 0
ENDMDL
MODEL 7
REMARK VINA RESULT:    -5.533      1.798      2.605
REMARK INTER + INTRA:          -5.533
REMARK INTER:                  -5.533
REMARK INTRA:                   0.000
REMARK UNBOUND:                 0.000
REMARK SMILES CC(C)=C1CC[C@H](C)CC1=O
REMARK SMILES IDX 8 1 7 2 6 3 5 4 4 5 2 6 1 7 3 8 10 9 11 10 9 11
REMARK H PARENT
REMARK Flexibility Score: inf
ROOT
ATOM      1  C   UNL     1      33.266  21.652  21.213  1.00  0.00     0.008 C 
ATOM      2  C   UNL     1      33.478  20.738  19.999  1.00  0.00    -0.006 C 
ATOM      3  C   UNL     1      32.197  19.951  19.684  1.00  0.00     0.008 C 
ATOM      4  C   UNL     1      32.420  18.957  18.537  1.00  0.00     0.039 C 
ATOM      5  C   UNL     1      33.021  19.617  17.301  1.00  0.00    -0.006 C 
ATOM      6  C   UNL     1      32.730  19.167  16.046  1.00  0.00    -0.070 C 
ATOM      7  C   UNL     1      31.814  17.984  15.829  1.00  0.00     0.039 C 
ATOM      8  C   UNL     1      33.274  19.848  14.811  1.00  0.00     0.039 C 
ATOM      9  C   UNL     1      34.023  20.693  17.556  1.00  0.00     0.159 C 
ATOM     10  O   UNL     1      34.985  20.891  16.766  1.00  0.00    -0.295 OA
ATOM     11  C   UNL     1      33.904  21.562  18.774  1.00  0.00     0.084 C 
ENDROOT
TORSDOF 0
ENDMDL
MODEL 8
REMARK VINA RESULT:    -5.521      7.643     10.220
REMARK INTER + INTRA:          -5.521
REMARK INTER:                  -5.521
REMARK INTRA:                   0.000
REMARK UNBOUND:                 0.000
REMARK SMILES CC(C)=C1CC[C@H](C)CC1=O
REMARK SMILES IDX 8 1 7 2 6 3 5 4 4 5 2 6 1 7 3 8 10 9 11 10 9 11
REMARK H PARENT
REMARK Flexibility Score: inf
ROOT
ATOM      1  C   UNL     1      26.388  19.225  29.666  1.00  0.00     0.008 C 
ATOM      2  C   UNL     1      27.245  18.742  28.490  1.00  0.00    -0.006 C 
ATOM      3  C   UNL     1      27.284  19.801  27.378  1.00  0.00     0.008 C 
ATOM      4  C   UNL     1      28.053  19.295  26.151  1.00  0.00     0.039 C 
ATOM      5  C   UNL     1      29.438  18.769  26.506  1.00  0.00    -0.006 C 
ATOM      6  C   UNL     1      30.481  18.872  25.632  1.00  0.00    -0.070 C 
ATOM      7  C   UNL     1      30.302  19.497  24.267  1.00  0.00     0.039 C 
ATOM      8  C   UNL     1      31.873  18.405  25.995  1.00  0.00     0.039 C 
ATOM      9  C   UNL     1      29.548  18.039  27.803  1.00  0.00     0.159 C 
ATOM     10  O   UNL     1      30.366  17.091  27.954  1.00  0.00    -0.295 OA
ATOM     11  C   UNL     1      28.672  18.422  28.961  1.00  0.00     0.084 C 
ENDROOT
TORSDOF 0
ENDMDL
