MODEL 1
REMARK VINA RESULT:    -2.574      0.000      0.000
REMARK INTER + INTRA:          -2.574
REMARK INTER:                  -2.574
REMARK INTRA:                   0.000
REMARK UNBOUND:                 0.000
REMARK SMILES CC(=O)[O-]
REMARK SMILES IDX 1 1 2 2 3 3 4 4
REMARK H PARENT
REMARK Flexibility Score: inf
ROOT
ATOM      1  C   UNL     1      19.165  25.929  36.197  1.00  0.00     0.063 C 
ATOM      2  C   UNL     1      19.543  24.724  35.404  1.00  0.00     0.038 C 
ATOM      3  O   UNL     1      18.759  23.741  35.335  1.00  0.00    -0.550 OA
ATOM      4  O   UNL     1      20.737  24.705  34.695  1.00  0.00    -0.550 OA
ENDROOT
TORSDOF 0
ENDMDL
MODEL 2
REMARK VINA RESULT:    -2.540      1.394      1.993
REMARK INTER + INTRA:          -2.540
REMARK INTER:                  -2.540
REMARK INTRA:                   0.000
REMARK UNBOUND:                 0.000
REMARK SMILES CC(=O)[O-]
REMARK SMILES IDX 1 1 2 2 3 3 4 4
REMARK H PARENT
REMARK Flexibility Score: inf
ROOT
ATOM      1  C   UNL     1      18.634  23.908  35.251  1.00  0.00     0.063 C 
ATOM      2  C   UNL     1      19.753  24.888  35.342  1.00  0.00     0.038 C 
ATOM      3  O   UNL     1      20.839  24.665  34.747  1.00  0.00    -0.550 OA
ATOM      4  O   UNL     1      19.582  26.077  36.041  1.00  0.00    -0.550 OA
ENDROOT
TORSDOF 0
ENDMDL
MODEL 3
REMARK VINA RESULT:    -2.442      1.766      2.065
REMARK INTER + INTRA:          -2.442
REMARK INTER:                  -2.442
REMARK INTRA:                   0.000
REMARK UNBOUND:                 0.000
REMARK SMILES CC(=O)[O-]
REMARK SMILES IDX 1 1 2 2 3 3 4 4
REMARK H PARENT
REMARK Flexibility Score: inf
ROOT
ATOM      1  C   UNL     1      19.972  24.233  35.686  1.00  0.00     0.063 C 
ATOM      2  C   UNL     1      18.633  24.749  35.280  1.00  0.00     0.038 C 
ATOM      3  O   UNL     1      18.070  24.301  34.247  1.00  0.00    -0.550 OA
ATOM      4  O   UNL     1      17.980  25.685  36.071  1.00  0.00    -0.550 OA
ENDROOT
TORSDOF 0
ENDMDL
MODEL 4
REMARK VINA RESULT:    -2.349      2.848      3.104
REMARK INTER + INTRA:          -2.349
REMARK INTER:                  -2.349
REMARK INTRA:                   0.000
REMARK UNBOUND:                 0.000
REMARK SMILES CC(=O)[O-]
REMARK SMILES IDX 1 1 2 2 3 3 4 4
REMARK H PARENT
REMARK Flexibility Score: inf
ROOT
ATOM      1  C   UNL     1      20.260  28.310  36.827  1.00  0.00     0.063 C 
ATOM      2  C   UNL     1      19.175  27.353  36.469  1.00  0.00     0.038 C 
ATOM      3  O   UNL     1      17.972  27.725  36.489  1.00  0.00    -0.550 OA
ATOM      4  O   UNL     1      19.490  26.064  36.060  1.00  0.00    -0.550 OA
ENDROOT
TORSDOF 0
ENDMDL
MODEL 5
REMARK VINA RESULT:    -2.329      2.118      2.334
REMARK INTER + INTRA:          -2.329
REMARK INTER:                  -2.329
REMARK INTRA:                   0.000
REMARK UNBOUND:                 0.000
REMARK SMILES CC(=O)[O-]
REMARK SMILES IDX 1 1 2 2 3 3 4 4
REMARK H PARENT
REMARK Flexibility Score: inf
ROOT
ATOM      1  C   UNL     1      17.286  26.737  36.702  1.00  0.00     0.063 C 
ATOM      2  C   UNL     1      18.682  26.348  36.350  1.00  0.00     0.038 C 
ATOM      3  O   UNL     1      18.942  25.163  36.015  1.00  0.00    -0.550 OA
ATOM      4  O   UNL     1      19.688  27.305  36.338  1.00  0.00    -0.550 OA
ENDROOT
TORSDOF 0
ENDMDL
MODEL 6
REMARK VINA RESULT:    -2.119      9.429      9.843
REMARK INTER + INTRA:          -2.119
REMARK INTER:                  -2.119
REMARK INTRA:                   0.000
REMARK UNBOUND:                 0.000
REMARK SMILES CC(=O)[O-]
REMARK SMILES IDX 1 1 2 2 3 3 4 4
REMARK H PARENT
REMARK Flexibility Score: inf
ROOT
ATOM      1  C   UNL     1      21.049  34.017  33.227  1.00  0.00     0.063 C 
ATOM      2  C   UNL     1      21.783  34.184  34.514  1.00  0.00     0.038 C 
ATOM      3  O   UNL     1      21.483  35.125  35.295  1.00  0.00    -0.550 OA
ATOM      4  O   UNL     1      22.762  33.269  34.880  1.00  0.00    -0.550 OA
ENDROOT
TORSDOF 0
ENDMDL
MODEL 7
REMARK VINA RESULT:    -2.116      7.392      7.961
REMARK INTER + INTRA:          -2.116
REMARK INTER:                  -2.116
REMARK INTRA:                   0.000
REMARK UNBOUND:                 0.000
REMARK SMILES CC(=O)[O-]
REMARK SMILES IDX 1 1 2 2 3 3 4 4
REMARK H PARENT
REMARK Flexibility Score: inf
ROOT
ATOM      1  C   UNL     1      20.736  32.476  36.669  1.00  0.00     0.063 C 
ATOM      2  C   UNL     1      21.818  32.306  35.656  1.00  0.00     0.038 C 
ATOM      3  O   UNL     1      21.907  31.235  35.001  1.00  0.00    -0.550 OA
ATOM      4  O   UNL     1      22.696  33.350  35.395  1.00  0.00    -0.550 OA
ENDROOT
TORSDOF 0
ENDMDL
MODEL 8
REMARK VINA RESULT:    -2.057     16.722     17.162
REMARK INTER + INTRA:          -2.057
REMARK INTER:                  -2.057
REMARK INTRA:                   0.000
REMARK UNBOUND:                 0.000
REMARK SMILES CC(=O)[O-]
REMARK SMILES IDX 1 1 2 2 3 3 4 4
REMARK H PARENT
REMARK Flexibility Score: inf
ROOT
ATOM      1  C   UNL     1      22.187  22.700  19.568  1.00  0.00     0.063 C 
ATOM      2  C   UNL     1      21.481  23.380  18.444  1.00  0.00     0.038 C 
ATOM      3  O   UNL     1      21.203  22.742  17.395  1.00  0.00    -0.550 OA
ATOM      4  O   UNL     1      21.081  24.704  18.573  1.00  0.00    -0.550 OA
ENDROOT
TORSDOF 0
ENDMDL
MODEL 9
REMARK VINA RESULT:    -2.048     14.542     15.008
REMARK INTER + INTRA:          -2.048
REMARK INTER:                  -2.048
REMARK INTRA:                   0.000
REMARK UNBOUND:                 0.000
REMARK SMILES CC(=O)[O-]
REMARK SMILES IDX 1 1 2 2 3 3 4 4
REMARK H PARENT
REMARK Flexibility Score: inf
ROOT
ATOM      1  C   UNL     1      22.144  22.700  19.513  1.00  0.00     0.063 C 
ATOM      2  C   UNL     1      21.923  22.363  20.949  1.00  0.00     0.038 C 
ATOM      3  O   UNL     1      21.214  23.111  21.671  1.00  0.00    -0.550 OA
ATOM      4  O   UNL     1      22.455  21.195  21.479  1.00  0.00    -0.550 OA
ENDROOT
TORSDOF 0
ENDMDL
