MODEL 1
REMARK VINA RESULT:    -4.988      0.000      0.000
REMARK INTER + INTRA:          -4.988
REMARK INTER:                  -4.988
REMARK INTRA:                   0.000
REMARK UNBOUND:                 0.000
REMARK SMILES C=C1CCC[C@]2(C)CC(=O)C(=C(C)C)C[C@@H]12
REMARK SMILES IDX 13 1 12 2 11 3 15 4 16 5 2 6 1 7 3 8 4 9 5 10 6 11 8 12 9 13
REMARK SMILES IDX 10 14 7 15 14 16
REMARK H PARENT
REMARK Flexibility Score: inf
ROOT
ATOM      1  C   UNL     1     -49.157  -1.856  44.566  1.00  0.00     0.039 C 
ATOM      2  C   UNL     1     -50.288  -0.999  44.046  1.00  0.00    -0.070 C 
ATOM      3  C   UNL     1     -50.489   0.269  44.512  1.00  0.00    -0.006 C 
ATOM      4  C   UNL     1     -49.595   0.863  45.591  1.00  0.00     0.047 C 
ATOM      5  C   UNL     1     -50.336   1.886  46.487  1.00  0.00     0.025 C 
ATOM      6  C   UNL     1     -49.476   2.548  47.565  1.00  0.00    -0.073 C 
ATOM      7  C   UNL     1     -48.165   2.293  47.747  1.00  0.00     0.008 C 
ATOM      8  C   UNL     1     -50.187   3.506  48.492  1.00  0.00     0.031 C 
ATOM      9  C   UNL     1     -50.943   4.565  47.685  1.00  0.00     0.005 C 
ATOM     10  C   UNL     1     -51.851   3.927  46.620  1.00  0.00     0.008 C 
ATOM     11  C   UNL     1     -51.084   2.974  45.654  1.00  0.00    -0.018 C 
ATOM     12  C   UNL     1     -52.123   2.273  44.745  1.00  0.00     0.088 C 
ATOM     13  C   UNL     1     -51.505   1.185  43.913  1.00  0.00     0.159 C 
ATOM     14  O   UNL     1     -51.853   1.077  42.707  1.00  0.00    -0.295 OA
ATOM     15  C   UNL     1     -50.107   3.803  44.774  1.00  0.00     0.012 C 
ATOM     16  C   UNL     1     -51.203  -1.625  43.018  1.00  0.00     0.039 C 
ENDROOT
TORSDOF 0
ENDMDL
MODEL 2
REMARK VINA RESULT:    -4.777      2.556      4.654
REMARK INTER + INTRA:          -4.777
REMARK INTER:                  -4.777
REMARK INTRA:                   0.000
REMARK UNBOUND:                 0.000
REMARK SMILES C=C1CCC[C@]2(C)CC(=O)C(=C(C)C)C[C@@H]12
REMARK SMILES IDX 13 1 12 2 11 3 15 4 16 5 2 6 1 7 3 8 4 9 5 10 6 11 8 12 9 13
REMARK SMILES IDX 10 14 7 15 14 16
REMARK H PARENT
REMARK Flexibility Score: inf
ROOT
ATOM      1  C   UNL     1     -46.891  -2.461  45.705  1.00  0.00     0.039 C 
ATOM      2  C   UNL     1     -47.052  -1.001  46.062  1.00  0.00    -0.070 C 
ATOM      3  C   UNL     1     -48.123  -0.276  45.619  1.00  0.00    -0.006 C 
ATOM      4  C   UNL     1     -49.186  -0.905  44.729  1.00  0.00     0.047 C 
ATOM      5  C   UNL     1     -49.838   0.114  43.762  1.00  0.00     0.025 C 
ATOM      6  C   UNL     1     -50.944  -0.453  42.870  1.00  0.00    -0.073 C 
ATOM      7  C   UNL     1     -51.355  -1.736  42.901  1.00  0.00     0.008 C 
ATOM      8  C   UNL     1     -51.556   0.505  41.875  1.00  0.00     0.031 C 
ATOM      9  C   UNL     1     -52.038   1.774  42.585  1.00  0.00     0.005 C 
ATOM     10  C   UNL     1     -50.931   2.392  43.456  1.00  0.00     0.008 C 
ATOM     11  C   UNL     1     -50.344   1.393  44.500  1.00  0.00    -0.018 C 
ATOM     12  C   UNL     1     -49.139   2.074  45.193  1.00  0.00     0.088 C 
ATOM     13  C   UNL     1     -48.380   1.122  46.073  1.00  0.00     0.159 C 
ATOM     14  O   UNL     1     -47.985   1.527  47.199  1.00  0.00    -0.295 OA
ATOM     15  C   UNL     1     -51.427   1.057  45.563  1.00  0.00     0.012 C 
ATOM     16  C   UNL     1     -45.957  -0.375  46.895  1.00  0.00     0.039 C 
ENDROOT
TORSDOF 0
ENDMDL
MODEL 3
REMARK VINA RESULT:    -4.761      2.026      2.800
REMARK INTER + INTRA:          -4.761
REMARK INTER:                  -4.761
REMARK INTRA:                   0.000
REMARK UNBOUND:                 0.000
REMARK SMILES C=C1CCC[C@]2(C)CC(=O)C(=C(C)C)C[C@@H]12
REMARK SMILES IDX 13 1 12 2 11 3 15 4 16 5 2 6 1 7 3 8 4 9 5 10 6 11 8 12 9 13
REMARK SMILES IDX 10 14 7 15 14 16
REMARK H PARENT
REMARK Flexibility Score: inf
ROOT
ATOM      1  C   UNL     1     -45.739  -0.318  45.875  1.00  0.00     0.039 C 
ATOM      2  C   UNL     1     -47.067  -0.993  45.618  1.00  0.00    -0.070 C 
ATOM      3  C   UNL     1     -48.225  -0.272  45.543  1.00  0.00    -0.006 C 
ATOM      4  C   UNL     1     -48.228   1.238  45.738  1.00  0.00     0.047 C 
ATOM      5  C   UNL     1     -49.553   1.760  46.349  1.00  0.00     0.025 C 
ATOM      6  C   UNL     1     -49.630   3.277  46.530  1.00  0.00    -0.073 C 
ATOM      7  C   UNL     1     -48.644   4.129  46.187  1.00  0.00     0.008 C 
ATOM      8  C   UNL     1     -50.886   3.809  47.179  1.00  0.00     0.031 C 
ATOM      9  C   UNL     1     -52.125   3.294  46.441  1.00  0.00     0.005 C 
ATOM     10  C   UNL     1     -52.096   1.764  46.282  1.00  0.00     0.008 C 
ATOM     11  C   UNL     1     -50.807   1.247  45.575  1.00  0.00    -0.018 C 
ATOM     12  C   UNL     1     -50.820  -0.301  45.624  1.00  0.00     0.088 C 
ATOM     13  C   UNL     1     -49.524  -0.893  45.147  1.00  0.00     0.159 C 
ATOM     14  O   UNL     1     -49.564  -1.907  44.401  1.00  0.00    -0.295 OA
ATOM     15  C   UNL     1     -50.804   1.714  44.093  1.00  0.00     0.012 C 
ATOM     16  C   UNL     1     -47.055  -2.498  45.487  1.00  0.00     0.039 C 
ENDROOT
TORSDOF 0
ENDMDL
MODEL 4
REMARK VINA RESULT:    -4.709     20.235     22.269
REMARK INTER + INTRA:          -4.709
REMARK INTER:                  -4.709
REMARK INTRA:                   0.000
REMARK UNBOUND:                 0.000
REMARK SMILES C=C1CCC[C@]2(C)CC(=O)C(=C(C)C)C[C@@H]12
REMARK SMILES IDX 13 1 12 2 11 3 15 4 16 5 2 6 1 7 3 8 4 9 5 10 6 11 8 12 9 13
REMARK SMILES IDX 10 14 7 15 14 16
REMARK H PARENT
REMARK Flexibility Score: inf
ROOT
ATOM      1  C   UNL     1     -33.496   2.143  55.756  1.00  0.00     0.039 C 
ATOM      2  C   UNL     1     -32.761   2.106  57.076  1.00  0.00    -0.070 C 
ATOM      3  C   UNL     1     -32.869   3.127  57.977  1.00  0.00    -0.006 C 
ATOM      4  C   UNL     1     -33.717   4.356  57.677  1.00  0.00     0.047 C 
ATOM      5  C   UNL     1     -33.176   5.638  58.359  1.00  0.00     0.025 C 
ATOM      6  C   UNL     1     -34.011   6.898  58.126  1.00  0.00    -0.073 C 
ATOM      7  C   UNL     1     -35.144   6.929  57.398  1.00  0.00     0.008 C 
ATOM      8  C   UNL     1     -33.475   8.175  58.730  1.00  0.00     0.031 C 
ATOM      9  C   UNL     1     -33.199   7.983  60.224  1.00  0.00     0.005 C 
ATOM     10  C   UNL     1     -32.323   6.746  60.485  1.00  0.00     0.008 C 
ATOM     11  C   UNL     1     -32.919   5.436  59.885  1.00  0.00    -0.018 C 
ATOM     12  C   UNL     1     -31.877   4.306  60.067  1.00  0.00     0.088 C 
ATOM     13  C   UNL     1     -32.273   3.050  59.343  1.00  0.00     0.159 C 
ATOM     14  O   UNL     1     -32.103   1.943  59.921  1.00  0.00    -0.295 OA
ATOM     15  C   UNL     1     -34.222   5.063  60.647  1.00  0.00     0.012 C 
ATOM     16  C   UNL     1     -31.876   0.908  57.333  1.00  0.00     0.039 C 
ENDROOT
TORSDOF 0
ENDMDL
MODEL 5
REMARK VINA RESULT:    -4.629     13.804     15.871
REMARK INTER + INTRA:          -4.629
REMARK INTER:                  -4.629
REMARK INTRA:                   0.000
REMARK UNBOUND:                 0.000
REMARK SMILES C=C1CCC[C@]2(C)CC(=O)C(=C(C)C)C[C@@H]12
REMARK SMILES IDX 13 1 12 2 11 3 15 4 16 5 2 6 1 7 3 8 4 9 5 10 6 11 8 12 9 13
REMARK SMILES IDX 10 14 7 15 14 16
REMARK H PARENT
REMARK Flexibility Score: inf
ROOT
ATOM      1  C   UNL     1     -34.510  -6.611  44.806  1.00  0.00     0.039 C 
ATOM      2  C   UNL     1     -34.618  -6.685  46.312  1.00  0.00    -0.070 C 
ATOM      3  C   UNL     1     -35.443  -5.845  47.006  1.00  0.00    -0.006 C 
ATOM      4  C   UNL     1     -36.270  -4.785  46.292  1.00  0.00     0.047 C 
ATOM      5  C   UNL     1     -36.518  -3.530  47.165  1.00  0.00     0.025 C 
ATOM      6  C   UNL     1     -37.379  -2.446  46.514  1.00  0.00    -0.073 C 
ATOM      7  C   UNL     1     -37.909  -2.544  45.279  1.00  0.00     0.008 C 
ATOM      8  C   UNL     1     -37.588  -1.186  47.320  1.00  0.00     0.031 C 
ATOM      9  C   UNL     1     -38.120  -1.527  48.714  1.00  0.00     0.005 C 
ATOM     10  C   UNL     1     -37.247  -2.584  49.412  1.00  0.00     0.008 C 
ATOM     11  C   UNL     1     -37.081  -3.889  48.576  1.00  0.00    -0.018 C 
ATOM     12  C   UNL     1     -36.058  -4.798  49.300  1.00  0.00     0.088 C 
ATOM     13  C   UNL     1     -35.676  -5.993  48.473  1.00  0.00     0.159 C 
ATOM     14  O   UNL     1     -35.575  -7.112  49.043  1.00  0.00    -0.295 OA
ATOM     15  C   UNL     1     -38.447  -4.624  48.484  1.00  0.00     0.012 C 
ATOM     16  C   UNL     1     -33.745  -7.702  47.011  1.00  0.00     0.039 C 
ENDROOT
TORSDOF 0
ENDMDL
MODEL 6
REMARK VINA RESULT:    -4.613     14.340     16.397
REMARK INTER + INTRA:          -4.613
REMARK INTER:                  -4.613
REMARK INTRA:                   0.000
REMARK UNBOUND:                 0.000
REMARK SMILES C=C1CCC[C@]2(C)CC(=O)C(=C(C)C)C[C@@H]12
REMARK SMILES IDX 13 1 12 2 11 3 15 4 16 5 2 6 1 7 3 8 4 9 5 10 6 11 8 12 9 13
REMARK SMILES IDX 10 14 7 15 14 16
REMARK H PARENT
REMARK Flexibility Score: inf
ROOT
ATOM      1  C   UNL     1     -40.188  -6.413  50.129  1.00  0.00     0.039 C 
ATOM      2  C   UNL     1     -39.864  -7.542  49.177  1.00  0.00    -0.070 C 
ATOM      3  C   UNL     1     -38.724  -7.531  48.425  1.00  0.00    -0.006 C 
ATOM      4  C   UNL     1     -37.742  -6.369  48.499  1.00  0.00     0.047 C 
ATOM      5  C   UNL     1     -36.989  -6.136  47.166  1.00  0.00     0.025 C 
ATOM      6  C   UNL     1     -35.958  -5.006  47.192  1.00  0.00    -0.073 C 
ATOM      7  C   UNL     1     -35.690  -4.253  48.277  1.00  0.00     0.008 C 
ATOM      8  C   UNL     1     -35.251  -4.717  45.889  1.00  0.00     0.031 C 
ATOM      9  C   UNL     1     -34.628  -5.998  45.326  1.00  0.00     0.005 C 
ATOM     10  C   UNL     1     -35.654  -7.142  45.247  1.00  0.00     0.008 C 
ATOM     11  C   UNL     1     -36.339  -7.444  46.614  1.00  0.00    -0.018 C 
ATOM     12  C   UNL     1     -37.457  -8.487  46.372  1.00  0.00     0.088 C 
ATOM     13  C   UNL     1     -38.310  -8.697  47.590  1.00  0.00     0.159 C 
ATOM     14  O   UNL     1     -38.651  -9.872  47.892  1.00  0.00    -0.295 OA
ATOM     15  C   UNL     1     -35.293  -8.031  47.602  1.00  0.00     0.012 C 
ATOM     16  C   UNL     1     -40.878  -8.658  49.071  1.00  0.00     0.039 C 
ENDROOT
TORSDOF 0
ENDMDL
MODEL 7
REMARK VINA RESULT:    -4.581      2.138      5.553
REMARK INTER + INTRA:          -4.581
REMARK INTER:                  -4.581
REMARK INTRA:                   0.000
REMARK UNBOUND:                 0.000
REMARK SMILES C=C1CCC[C@]2(C)CC(=O)C(=C(C)C)C[C@@H]12
REMARK SMILES IDX 13 1 12 2 11 3 15 4 16 5 2 6 1 7 3 8 4 9 5 10 6 11 8 12 9 13
REMARK SMILES IDX 10 14 7 15 14 16
REMARK H PARENT
REMARK Flexibility Score: inf
ROOT
ATOM      1  C   UNL     1     -50.031   3.948  48.103  1.00  0.00     0.039 C 
ATOM      2  C   UNL     1     -48.844   3.020  47.980  1.00  0.00    -0.070 C 
ATOM      3  C   UNL     1     -48.817   2.024  47.045  1.00  0.00    -0.006 C 
ATOM      4  C   UNL     1     -49.992   1.794  46.104  1.00  0.00     0.047 C 
ATOM      5  C   UNL     1     -50.143   0.310  45.687  1.00  0.00     0.025 C 
ATOM      6  C   UNL     1     -51.284   0.025  44.708  1.00  0.00    -0.073 C 
ATOM      7  C   UNL     1     -52.110   0.968  44.215  1.00  0.00     0.008 C 
ATOM      8  C   UNL     1     -51.492  -1.423  44.329  1.00  0.00     0.031 C 
ATOM      9  C   UNL     1     -50.183  -2.034  43.820  1.00  0.00     0.005 C 
ATOM     10  C   UNL     1     -49.026  -1.800  44.807  1.00  0.00     0.008 C 
ATOM     11  C   UNL     1     -48.809  -0.295  45.149  1.00  0.00    -0.018 C 
ATOM     12  C   UNL     1     -47.740  -0.205  46.265  1.00  0.00     0.088 C 
ATOM     13  C   UNL     1     -47.603   1.189  46.807  1.00  0.00     0.159 C 
ATOM     14  O   UNL     1     -46.447   1.635  47.038  1.00  0.00    -0.295 OA
ATOM     15  C   UNL     1     -48.300   0.456  43.887  1.00  0.00     0.012 C 
ATOM     16  C   UNL     1     -47.713   3.223  48.961  1.00  0.00     0.039 C 
ENDROOT
TORSDOF 0
ENDMDL
MODEL 8
REMARK VINA RESULT:    -4.556      2.093      4.743
REMARK INTER + INTRA:          -4.556
REMARK INTER:                  -4.556
REMARK INTRA:                   0.000
REMARK UNBOUND:                 0.000
REMARK SMILES C=C1CCC[C@]2(C)CC(=O)C(=C(C)C)C[C@@H]12
REMARK SMILES IDX 13 1 12 2 11 3 15 4 16 5 2 6 1 7 3 8 4 9 5 10 6 11 8 12 9 13
REMARK SMILES IDX 10 14 7 15 14 16
REMARK H PARENT
REMARK Flexibility Score: inf
ROOT
ATOM      1  C   UNL     1     -47.059   3.673  45.503  1.00  0.00     0.039 C 
ATOM      2  C   UNL     1     -48.499   3.946  45.134  1.00  0.00    -0.070 C 
ATOM      3  C   UNL     1     -49.403   2.930  45.002  1.00  0.00    -0.006 C 
ATOM      4  C   UNL     1     -48.989   1.478  45.200  1.00  0.00     0.047 C 
ATOM      5  C   UNL     1     -49.823   0.496  44.340  1.00  0.00     0.025 C 
ATOM      6  C   UNL     1     -49.479  -0.983  44.528  1.00  0.00    -0.073 C 
ATOM      7  C   UNL     1     -48.536  -1.438  45.376  1.00  0.00     0.008 C 
ATOM      8  C   UNL     1     -50.235  -1.960  43.658  1.00  0.00     0.031 C 
ATOM      9  C   UNL     1     -51.744  -1.738  43.796  1.00  0.00     0.005 C 
ATOM     10  C   UNL     1     -52.125  -0.265  43.569  1.00  0.00     0.008 C 
ATOM     11  C   UNL     1     -51.359   0.716  44.506  1.00  0.00    -0.018 C 
ATOM     12  C   UNL     1     -51.701   2.162  44.072  1.00  0.00     0.088 C 
ATOM     13  C   UNL     1     -50.857   3.182  44.783  1.00  0.00     0.159 C 
ATOM     14  O   UNL     1     -51.408   4.236  45.197  1.00  0.00    -0.295 OA
ATOM     15  C   UNL     1     -51.819   0.498  45.975  1.00  0.00     0.012 C 
ATOM     16  C   UNL     1     -48.879   5.387  44.882  1.00  0.00     0.039 C 
ENDROOT
TORSDOF 0
ENDMDL
MODEL 9
REMARK VINA RESULT:    -4.538     15.196     17.381
REMARK INTER + INTRA:          -4.538
REMARK INTER:                  -4.538
REMARK INTRA:                   0.000
REMARK UNBOUND:                 0.000
REMARK SMILES C=C1CCC[C@]2(C)CC(=O)C(=C(C)C)C[C@@H]12
REMARK SMILES IDX 13 1 12 2 11 3 15 4 16 5 2 6 1 7 3 8 4 9 5 10 6 11 8 12 9 13
REMARK SMILES IDX 10 14 7 15 14 16
REMARK H PARENT
REMARK Flexibility Score: inf
ROOT
ATOM      1  C   UNL     1     -33.703  -7.341  44.083  1.00  0.00     0.039 C 
ATOM      2  C   UNL     1     -33.832  -8.003  45.435  1.00  0.00    -0.070 C 
ATOM      3  C   UNL     1     -34.635  -7.479  46.408  1.00  0.00    -0.006 C 
ATOM      4  C   UNL     1     -35.415  -6.192  46.177  1.00  0.00     0.047 C 
ATOM      5  C   UNL     1     -35.629  -5.380  47.478  1.00  0.00     0.025 C 
ATOM      6  C   UNL     1     -36.443  -4.095  47.315  1.00  0.00    -0.073 C 
ATOM      7  C   UNL     1     -36.961  -3.673  46.144  1.00  0.00     0.008 C 
ATOM      8  C   UNL     1     -36.618  -3.252  48.556  1.00  0.00     0.031 C 
ATOM      9  C   UNL     1     -37.179  -4.100  49.701  1.00  0.00     0.005 C 
ATOM     10  C   UNL     1     -36.353  -5.379  49.918  1.00  0.00     0.008 C 
ATOM     11  C   UNL     1     -36.222  -6.249  48.631  1.00  0.00    -0.018 C 
ATOM     12  C   UNL     1     -35.242  -7.408  48.931  1.00  0.00     0.088 C 
ATOM     13  C   UNL     1     -34.892  -8.189  47.696  1.00  0.00     0.159 C 
ATOM     14  O   UNL     1     -34.838  -9.445  47.772  1.00  0.00    -0.295 OA
ATOM     15  C   UNL     1     -37.613  -6.835  48.257  1.00  0.00     0.012 C 
ATOM     16  C   UNL     1     -33.004  -9.246  45.669  1.00  0.00     0.039 C 
ENDROOT
TORSDOF 0
ENDMDL
