MODEL 1
REMARK VINA RESULT:     4.459      0.000      0.000
REMARK INTER + INTRA:           5.058
REMARK INTER:                   5.371
REMARK INTRA:                  -0.313
REMARK UNBOUND:                -0.313
REMARK SMILES O=c1c(O)c(-c2ccc(O)c(O)c2)oc2cc(O)cc(O)c12
REMARK SMILES IDX 5 1 3 2 2 3 1 4 22 5 20 6 19 7 17 8 16 9 15 10 14 11 6 12
REMARK SMILES IDX 7 13 8 14 9 15 13 16 11 17 10 18 12 20 4 22 21 24 18 26
REMARK H PARENT 10 19 12 21 4 23 21 25 18 27
REMARK Flexibility Score: inf
ROOT
ATOM      1  C   UNL     1     110.037 107.451 107.649  1.00  0.00     0.180 A 
ATOM      2  C   UNL     1     110.951 108.291 106.990  1.00  0.00     0.208 A 
ATOM      3  C   UNL     1     111.628 109.274 107.729  1.00  0.00     0.238 A 
ATOM      4  O   UNL     1     112.388 110.070 107.119  1.00  0.00    -0.285 OA
ATOM      5  C   UNL     1     111.426 109.369 109.127  1.00  0.00     0.111 A 
ATOM      6  C   UNL     1     112.094 110.296 109.984  1.00  0.00     0.134 A 
ATOM      7  C   UNL     1     111.735 110.370 111.335  1.00  0.00     0.093 A 
ATOM      8  C   UNL     1     110.780 109.506 111.876  1.00  0.00     0.123 A 
ATOM      9  C   UNL     1     110.164 108.560 111.061  1.00  0.00     0.094 A 
ATOM     10  C   UNL     1     110.472 108.487 109.700  1.00  0.00     0.146 A 
ATOM     11  O   UNL     1     109.845 107.585 108.956  1.00  0.00    -0.452 OA
ENDROOT
BRANCH   1  12
ATOM     12  C   UNL     1     109.275 106.402 106.935  1.00  0.00     0.025 A 
ATOM     13  C   UNL     1     108.111 106.708 106.209  1.00  0.00     0.016 A 
ATOM     14  C   UNL     1     107.394 105.696 105.564  1.00  0.00     0.051 A 
ATOM     15  C   UNL     1     107.821 104.364 105.645  1.00  0.00     0.157 A 
ATOM     16  C   UNL     1     109.687 105.062 107.032  1.00  0.00     0.062 A 
ATOM     17  C   UNL     1     108.971 104.047 106.387  1.00  0.00     0.158 A 
BRANCH  15  18
ATOM     18  O   UNL     1     107.104 103.359 104.999  1.00  0.00    -0.504 OA
ATOM     19  H   UNL     1     106.714 103.495 104.074  1.00  0.00     0.293 HD
ENDBRANCH  15  18
BRANCH  17  20
ATOM     20  O   UNL     1     109.418 102.730 106.494  1.00  0.00    -0.504 OA
ATOM     21  H   UNL     1     109.162 102.019 105.820  1.00  0.00     0.293 HD
ENDBRANCH  17  20
ENDBRANCH   1  12
BRANCH   2  22
ATOM     22  O   UNL     1     111.193 108.131 105.623  1.00  0.00    -0.502 OA
ATOM     23  H   UNL     1     112.120 107.958 105.252  1.00  0.00     0.293 HD
ENDBRANCH   2  22
BRANCH   6  24
ATOM     24  O   UNL     1     113.125 111.145 109.567  1.00  0.00    -0.507 OA
ATOM     25  H   UNL     1     113.210 111.540 108.643  1.00  0.00     0.293 HD
ENDBRANCH   6  24
BRANCH   8  26
ATOM     26  O   UNL     1     110.443 109.574 113.226  1.00  0.00    -0.508 OA
ATOM     27  H   UNL     1     109.484 109.702 113.526  1.00  0.00     0.293 HD
ENDBRANCH   8  26
TORSDOF 6
ENDMDL
MODEL 2
REMARK VINA RESULT:     5.894      0.586      1.442
REMARK INTER + INTRA:           6.787
REMARK INTER:                   7.078
REMARK INTRA:                  -0.291
REMARK UNBOUND:                -0.313
REMARK SMILES O=c1c(O)c(-c2ccc(O)c(O)c2)oc2cc(O)cc(O)c12
REMARK SMILES IDX 5 1 3 2 2 3 1 4 22 5 20 6 19 7 17 8 16 9 15 10 14 11 6 12
REMARK SMILES IDX 7 13 8 14 9 15 13 16 11 17 10 18 12 20 4 22 21 24 18 26
REMARK H PARENT 10 19 12 21 4 23 21 25 18 27
REMARK Flexibility Score: inf
ROOT
ATOM      1  C   UNL     1     110.122 107.319 107.700  1.00  0.00     0.180 A 
ATOM      2  C   UNL     1     111.002 108.171 107.012  1.00  0.00     0.208 A 
ATOM      3  C   UNL     1     111.658 109.190 107.721  1.00  0.00     0.238 A 
ATOM      4  O   UNL     1     112.387 109.995 107.084  1.00  0.00    -0.285 OA
ATOM      5  C   UNL     1     111.469 109.310 109.119  1.00  0.00     0.111 A 
ATOM      6  C   UNL     1     112.118 110.276 109.947  1.00  0.00     0.134 A 
ATOM      7  C   UNL     1     111.773 110.370 111.300  1.00  0.00     0.093 A 
ATOM      8  C   UNL     1     110.850 109.489 111.871  1.00  0.00     0.123 A 
ATOM      9  C   UNL     1     110.254 108.508 111.085  1.00  0.00     0.094 A 
ATOM     10  C   UNL     1     110.549 108.414 109.723  1.00  0.00     0.146 A 
ATOM     11  O   UNL     1     109.940 107.477 109.006  1.00  0.00    -0.452 OA
ENDROOT
BRANCH   1  12
ATOM     12  C   UNL     1     109.383 106.232 107.019  1.00  0.00     0.025 A 
ATOM     13  C   UNL     1     109.842 104.904 107.048  1.00  0.00     0.016 A 
ATOM     14  C   UNL     1     109.139 103.899 106.377  1.00  0.00     0.051 A 
ATOM     15  C   UNL     1     107.978 104.208 105.656  1.00  0.00     0.157 A 
ATOM     16  C   UNL     1     108.230 106.541 106.277  1.00  0.00     0.062 A 
ATOM     17  C   UNL     1     107.524 105.537 105.605  1.00  0.00     0.158 A 
BRANCH  15  18
ATOM     18  O   UNL     1     107.279 103.203 104.990  1.00  0.00    -0.504 OA
ATOM     19  H   UNL     1     106.917 103.338 104.054  1.00  0.00     0.293 HD
ENDBRANCH  15  18
BRANCH  17  20
ATOM     20  O   UNL     1     106.375 105.878 104.891  1.00  0.00    -0.504 OA
ATOM     21  H   UNL     1     105.477 105.998 105.342  1.00  0.00     0.293 HD
ENDBRANCH  17  20
ENDBRANCH   1  12
BRANCH   2  22
ATOM     22  O   UNL     1     111.234 107.988 105.646  1.00  0.00    -0.502 OA
ATOM     23  H   UNL     1     111.667 108.698 105.068  1.00  0.00     0.293 HD
ENDBRANCH   2  22
BRANCH   6  24
ATOM     24  O   UNL     1     113.118 111.146 109.499  1.00  0.00    -0.507 OA
ATOM     25  H   UNL     1     113.391 112.000 109.961  1.00  0.00     0.293 HD
ENDBRANCH   6  24
BRANCH   8  26
ATOM     26  O   UNL     1     110.526 109.578 113.223  1.00  0.00    -0.508 OA
ATOM     27  H   UNL     1     109.923 108.897 113.669  1.00  0.00     0.293 HD
ENDBRANCH   8  26
TORSDOF 6
ENDMDL
