MODEL 1
REMARK VINA RESULT:    -6.219      0.000      0.000
REMARK INTER + INTRA:          -8.130
REMARK INTER:                  -7.673
REMARK INTRA:                  -0.457
REMARK UNBOUND:                -0.457
REMARK SMILES C=CC(=C)CCC=C(C)C
REMARK SMILES IDX 5 1 6 2 7 3 9 4 8 5 10 6 3 7 4 8 2 9 1 10
REMARK H PARENT
REMARK Flexibility Score: inf
ROOT
ATOM      1  C   UNL     1       1.202 -17.979  16.106  1.00  0.00     0.039 C 
ENDROOT
BRANCH   1   2
ATOM      2  C   UNL     1       2.561 -18.575  16.486  1.00  0.00     0.032 C 
BRANCH   2   3
ATOM      3  C   UNL     1       3.473 -17.513  17.049  1.00  0.00    -0.028 C 
ATOM      4  C   UNL     1       5.438 -16.008  17.093  1.00  0.00     0.039 C 
ATOM      5  C   UNL     1       4.618 -17.099  16.457  1.00  0.00    -0.080 C 
ATOM      6  C   UNL     1       5.136 -17.728  15.188  1.00  0.00     0.039 C 
ENDBRANCH   2   3
ENDBRANCH   1   2
BRANCH   1   7
ATOM      7  C   UNL     1       0.885 -18.248  14.651  1.00  0.00    -0.055 C 
ATOM      8  C   UNL     1       1.840 -18.753  13.861  1.00  0.00     0.012 C 
BRANCH   7   9
ATOM      9  C   UNL     1      -0.466 -18.018  14.078  1.00  0.00    -0.005 C 
ATOM     10  C   UNL     1      -1.509 -17.574  14.781  1.00  0.00     0.009 C 
ENDBRANCH   7   9
ENDBRANCH   1   7
TORSDOF 4
ENDMDL
MODEL 2
REMARK VINA RESULT:    -5.943      8.459      9.674
REMARK INTER + INTRA:          -7.790
REMARK INTER:                  -6.924
REMARK INTRA:                  -0.866
REMARK UNBOUND:                -0.457
REMARK SMILES C=CC(=C)CCC=C(C)C
REMARK SMILES IDX 5 1 6 2 7 3 9 4 8 5 10 6 3 7 4 8 2 9 1 10
REMARK H PARENT
REMARK Flexibility Score: inf
ROOT
ATOM      1  C   UNL     1      -5.003 -16.050   7.214  1.00  0.00     0.039 C 
ENDROOT
BRANCH   1   2
ATOM      2  C   UNL     1      -3.757 -15.224   6.880  1.00  0.00     0.032 C 
BRANCH   2   3
ATOM      3  C   UNL     1      -3.428 -14.275   8.006  1.00  0.00    -0.028 C 
ATOM      4  C   UNL     1      -2.042 -13.295   9.809  1.00  0.00     0.039 C 
ATOM      5  C   UNL     1      -2.281 -14.313   8.724  1.00  0.00    -0.080 C 
ATOM      6  C   UNL     1      -1.234 -15.376   8.506  1.00  0.00     0.039 C 
ENDBRANCH   2   3
ENDBRANCH   1   2
BRANCH   1   7
ATOM      7  C   UNL     1      -4.734 -16.983   8.375  1.00  0.00    -0.055 C 
ATOM      8  C   UNL     1      -3.875 -17.996   8.208  1.00  0.00     0.012 C 
BRANCH   7   9
ATOM      9  C   UNL     1      -5.352 -16.785   9.711  1.00  0.00    -0.005 C 
ATOM     10  C   UNL     1      -4.663 -16.504  10.818  1.00  0.00     0.009 C 
ENDBRANCH   7   9
ENDBRANCH   1   7
TORSDOF 4
ENDMDL
MODEL 3
REMARK VINA RESULT:    -5.924      7.556      8.715
REMARK INTER + INTRA:          -7.767
REMARK INTER:                  -6.843
REMARK INTRA:                  -0.923
REMARK UNBOUND:                -0.457
REMARK SMILES C=CC(=C)CCC=C(C)C
REMARK SMILES IDX 5 1 6 2 7 3 9 4 8 5 10 6 3 7 4 8 2 9 1 10
REMARK H PARENT
REMARK Flexibility Score: inf
ROOT
ATOM      1  C   UNL     1      -4.193 -17.336  10.264  1.00  0.00     0.039 C 
ENDROOT
BRANCH   1   2
ATOM      2  C   UNL     1      -2.809 -16.883  10.742  1.00  0.00     0.032 C 
BRANCH   2   3
ATOM      3  C   UNL     1      -2.715 -15.377  10.756  1.00  0.00    -0.028 C 
ATOM      4  C   UNL     1      -2.008 -13.146   9.950  1.00  0.00     0.039 C 
ATOM      5  C   UNL     1      -2.009 -14.650   9.860  1.00  0.00    -0.080 C 
ATOM      6  C   UNL     1      -1.174 -15.296   8.783  1.00  0.00     0.039 C 
ENDBRANCH   2   3
ENDBRANCH   1   2
BRANCH   1   7
ATOM      7  C   UNL     1      -4.234 -17.436   8.755  1.00  0.00    -0.055 C 
ATOM      8  C   UNL     1      -3.457 -18.337   8.142  1.00  0.00     0.012 C 
BRANCH   7   9
ATOM      9  C   UNL     1      -5.145 -16.601   7.929  1.00  0.00    -0.005 C 
ATOM     10  C   UNL     1      -4.821 -15.405   7.438  1.00  0.00     0.009 C 
ENDBRANCH   7   9
ENDBRANCH   1   7
TORSDOF 4
ENDMDL
MODEL 4
REMARK VINA RESULT:    -5.837      6.985      9.788
REMARK INTER + INTRA:          -7.659
REMARK INTER:                  -7.013
REMARK INTRA:                  -0.645
REMARK UNBOUND:                -0.457
REMARK SMILES C=CC(=C)CCC=C(C)C
REMARK SMILES IDX 5 1 6 2 7 3 9 4 8 5 10 6 3 7 4 8 2 9 1 10
REMARK H PARENT
REMARK Flexibility Score: inf
ROOT
ATOM      1  C   UNL     1      -0.910 -15.036   9.109  1.00  0.00     0.039 C 
ENDROOT
BRANCH   1   2
ATOM      2  C   UNL     1      -1.762 -15.910   8.182  1.00  0.00     0.032 C 
BRANCH   2   3
ATOM      3  C   UNL     1      -2.723 -15.064   7.384  1.00  0.00    -0.028 C 
ATOM      4  C   UNL     1      -4.937 -14.279   6.603  1.00  0.00     0.039 C 
ATOM      5  C   UNL     1      -4.069 -15.199   7.421  1.00  0.00    -0.080 C 
ATOM      6  C   UNL     1      -4.744 -16.280   8.227  1.00  0.00     0.039 C 
ENDBRANCH   2   3
ENDBRANCH   1   2
BRANCH   1   7
ATOM      7  C   UNL     1      -1.762 -14.418  10.196  1.00  0.00    -0.055 C 
ATOM      8  C   UNL     1      -1.815 -13.085  10.300  1.00  0.00     0.012 C 
BRANCH   7   9
ATOM      9  C   UNL     1      -2.582 -15.239  11.124  1.00  0.00    -0.005 C 
ATOM     10  C   UNL     1      -2.651 -15.034  12.440  1.00  0.00     0.009 C 
ENDBRANCH   7   9
ENDBRANCH   1   7
TORSDOF 4
ENDMDL
MODEL 5
REMARK VINA RESULT:    -5.786      8.273     10.211
REMARK INTER + INTRA:          -7.596
REMARK INTER:                  -6.688
REMARK INTRA:                  -0.908
REMARK UNBOUND:                -0.457
REMARK SMILES C=CC(=C)CCC=C(C)C
REMARK SMILES IDX 5 1 6 2 7 3 9 4 8 5 10 6 3 7 4 8 2 9 1 10
REMARK H PARENT
REMARK Flexibility Score: inf
ROOT
ATOM      1  C   UNL     1      -2.047 -16.517   9.141  1.00  0.00     0.039 C 
ENDROOT
BRANCH   1   2
ATOM      2  C   UNL     1      -2.003 -15.752   7.814  1.00  0.00     0.032 C 
BRANCH   2   3
ATOM      3  C   UNL     1      -3.033 -14.650   7.798  1.00  0.00    -0.028 C 
ATOM      4  C   UNL     1      -5.131 -13.521   7.124  1.00  0.00     0.039 C 
ATOM      5  C   UNL     1      -4.153 -14.664   7.038  1.00  0.00    -0.080 C 
ATOM      6  C   UNL     1      -4.445 -15.776   6.062  1.00  0.00     0.039 C 
ENDBRANCH   2   3
ENDBRANCH   1   2
BRANCH   1   7
ATOM      7  C   UNL     1      -3.224 -17.467   9.175  1.00  0.00    -0.055 C 
ATOM      8  C   UNL     1      -3.274 -18.470   8.292  1.00  0.00     0.012 C 
BRANCH   7   9
ATOM      9  C   UNL     1      -4.304 -17.355  10.190  1.00  0.00    -0.005 C 
ATOM     10  C   UNL     1      -5.406 -16.624  10.029  1.00  0.00     0.009 C 
ENDBRANCH   7   9
ENDBRANCH   1   7
TORSDOF 4
ENDMDL
MODEL 6
REMARK VINA RESULT:    -5.738      7.572     10.582
REMARK INTER + INTRA:          -7.537
REMARK INTER:                  -6.756
REMARK INTRA:                  -0.781
REMARK UNBOUND:                -0.457
REMARK SMILES C=CC(=C)CCC=C(C)C
REMARK SMILES IDX 5 1 6 2 7 3 9 4 8 5 10 6 3 7 4 8 2 9 1 10
REMARK H PARENT
REMARK Flexibility Score: inf
ROOT
ATOM      1  C   UNL     1      -3.577 -16.986   9.419  1.00  0.00     0.039 C 
ENDROOT
BRANCH   1   2
ATOM      2  C   UNL     1      -4.971 -16.437   9.102  1.00  0.00     0.032 C 
BRANCH   2   3
ATOM      3  C   UNL     1      -5.207 -16.404   7.612  1.00  0.00    -0.028 C 
ATOM      4  C   UNL     1      -5.270 -15.396   5.352  1.00  0.00     0.039 C 
ATOM      5  C   UNL     1      -5.034 -15.308   6.837  1.00  0.00    -0.080 C 
ATOM      6  C   UNL     1      -4.648 -13.970   7.416  1.00  0.00     0.039 C 
ENDBRANCH   2   3
ENDBRANCH   1   2
BRANCH   1   7
ATOM      7  C   UNL     1      -2.724 -15.931  10.089  1.00  0.00    -0.055 C 
ATOM      8  C   UNL     1      -2.982 -15.597  11.359  1.00  0.00     0.012 C 
BRANCH   7   9
ATOM      9  C   UNL     1      -1.573 -15.287   9.403  1.00  0.00    -0.005 C 
ATOM     10  C   UNL     1      -1.247 -15.507   8.129  1.00  0.00     0.009 C 
ENDBRANCH   7   9
ENDBRANCH   1   7
TORSDOF 4
ENDMDL
MODEL 7
REMARK VINA RESULT:    -5.706      8.151      9.953
REMARK INTER + INTRA:          -7.498
REMARK INTER:                  -6.682
REMARK INTRA:                  -0.816
REMARK UNBOUND:                -0.457
REMARK SMILES C=CC(=C)CCC=C(C)C
REMARK SMILES IDX 5 1 6 2 7 3 9 4 8 5 10 6 3 7 4 8 2 9 1 10
REMARK H PARENT
REMARK Flexibility Score: inf
ROOT
ATOM      1  C   UNL     1      -3.498 -15.027   7.096  1.00  0.00     0.039 C 
ENDROOT
BRANCH   1   2
ATOM      2  C   UNL     1      -4.174 -16.365   7.413  1.00  0.00     0.032 C 
BRANCH   2   3
ATOM      3  C   UNL     1      -5.057 -16.244   8.630  1.00  0.00    -0.028 C 
ATOM      4  C   UNL     1      -5.718 -16.589  10.990  1.00  0.00     0.039 C 
ATOM      5  C   UNL     1      -4.778 -16.800   9.832  1.00  0.00    -0.080 C 
ATOM      6  C   UNL     1      -3.567 -17.671  10.051  1.00  0.00     0.039 C 
ENDBRANCH   2   3
ENDBRANCH   1   2
BRANCH   1   7
ATOM      7  C   UNL     1      -2.402 -14.729   8.096  1.00  0.00    -0.055 C 
ATOM      8  C   UNL     1      -1.298 -15.484   8.094  1.00  0.00     0.012 C 
BRANCH   7   9
ATOM      9  C   UNL     1      -2.487 -13.592   9.049  1.00  0.00    -0.005 C 
ATOM     10  C   UNL     1      -2.095 -13.655  10.322  1.00  0.00     0.009 C 
ENDBRANCH   7   9
ENDBRANCH   1   7
TORSDOF 4
ENDMDL
MODEL 8
REMARK VINA RESULT:    -5.552      7.081      9.246
REMARK INTER + INTRA:          -7.307
REMARK INTER:                  -6.604
REMARK INTRA:                  -0.703
REMARK UNBOUND:                -0.457
REMARK SMILES C=CC(=C)CCC=C(C)C
REMARK SMILES IDX 5 1 6 2 7 3 9 4 8 5 10 6 3 7 4 8 2 9 1 10
REMARK H PARENT
REMARK Flexibility Score: inf
ROOT
ATOM      1  C   UNL     1      -3.629 -17.878   8.049  1.00  0.00     0.039 C 
ENDROOT
BRANCH   1   2
ATOM      2  C   UNL     1      -2.311 -17.435   8.691  1.00  0.00     0.032 C 
BRANCH   2   3
ATOM      3  C   UNL     1      -2.531 -16.997  10.118  1.00  0.00    -0.028 C 
ATOM      4  C   UNL     1      -2.669 -15.392  11.997  1.00  0.00     0.039 C 
ATOM      5  C   UNL     1      -2.395 -15.723  10.553  1.00  0.00    -0.080 C 
ATOM      6  C   UNL     1      -1.933 -14.611   9.646  1.00  0.00     0.039 C 
ENDBRANCH   2   3
ENDBRANCH   1   2
BRANCH   1   7
ATOM      7  C   UNL     1      -4.517 -16.686   7.768  1.00  0.00    -0.055 C 
ATOM      8  C   UNL     1      -5.619 -16.508   8.506  1.00  0.00     0.012 C 
BRANCH   7   9
ATOM      9  C   UNL     1      -4.182 -15.675   6.732  1.00  0.00    -0.005 C 
ATOM     10  C   UNL     1      -4.765 -14.479   6.640  1.00  0.00     0.009 C 
ENDBRANCH   7   9
ENDBRANCH   1   7
TORSDOF 4
ENDMDL
MODEL 9
REMARK VINA RESULT:    -5.507      7.013      9.061
REMARK INTER + INTRA:          -7.252
REMARK INTER:                  -6.510
REMARK INTRA:                  -0.742
REMARK UNBOUND:                -0.457
REMARK SMILES C=CC(=C)CCC=C(C)C
REMARK SMILES IDX 5 1 6 2 7 3 9 4 8 5 10 6 3 7 4 8 2 9 1 10
REMARK H PARENT
REMARK Flexibility Score: inf
ROOT
ATOM      1  C   UNL     1      -2.359 -14.999   7.418  1.00  0.00     0.039 C 
ENDROOT
BRANCH   1   2
ATOM      2  C   UNL     1      -1.701 -15.670   8.628  1.00  0.00     0.032 C 
BRANCH   2   3
ATOM      3  C   UNL     1      -1.851 -14.815   9.862  1.00  0.00    -0.028 C 
ATOM      4  C   UNL     1      -2.360 -14.338  12.237  1.00  0.00     0.039 C 
ATOM      5  C   UNL     1      -2.275 -15.277  11.061  1.00  0.00    -0.080 C 
ATOM      6  C   UNL     1      -2.714 -16.705  11.261  1.00  0.00     0.039 C 
ENDBRANCH   2   3
ENDBRANCH   1   2
BRANCH   1   7
ATOM      7  C   UNL     1      -3.854 -15.230   7.422  1.00  0.00    -0.055 C 
ATOM      8  C   UNL     1      -4.665 -14.244   7.022  1.00  0.00     0.012 C 
BRANCH   7   9
ATOM      9  C   UNL     1      -4.453 -16.534   7.807  1.00  0.00    -0.005 C 
ATOM     10  C   UNL     1      -5.397 -16.675   8.738  1.00  0.00     0.009 C 
ENDBRANCH   7   9
ENDBRANCH   1   7
TORSDOF 4
ENDMDL
