MODEL 1
REMARK VINA RESULT:    -4.089      0.000      0.000
REMARK INTER + INTRA:          -5.449
REMARK INTER:                  -5.284
REMARK INTRA:                  -0.165
REMARK UNBOUND:                -0.165
REMARK SMILES CCCCCCC(=O)[O-]
REMARK SMILES IDX 5 1 6 2 7 3 8 4 9 5 4 6 3 7 2 8 1 9
REMARK H PARENT
REMARK Flexibility Score: inf
ROOT
ATOM      1  C   UNL     1      -2.644  37.873  19.011  1.00  0.00     0.006 C 
ENDROOT
BRANCH   1   2
ATOM      2  C   UNL     1      -3.742  36.811  19.199  1.00  0.00     0.053 C 
BRANCH   2   3
ATOM      3  C   UNL     1      -4.918  37.326  19.972  1.00  0.00     0.041 C 
ATOM      4  O   UNL     1      -5.644  36.533  20.629  1.00  0.00    -0.550 OA
ATOM      5  O   UNL     1      -5.195  38.687  19.993  1.00  0.00    -0.550 OA
ENDBRANCH   2   3
ENDBRANCH   1   2
BRANCH   1   6
ATOM      6  C   UNL     1      -1.981  37.848  17.621  1.00  0.00     0.000 C 
BRANCH   6   7
ATOM      7  C   UNL     1      -2.762  37.011  16.597  1.00  0.00    -0.000 C 
BRANCH   7   8
ATOM      8  C   UNL     1      -2.316  37.339  15.167  1.00  0.00    -0.003 C 
ATOM      9  C   UNL     1      -3.465  37.926  14.352  1.00  0.00     0.004 C 
ENDBRANCH   7   8
ENDBRANCH   6   7
ENDBRANCH   1   6
TORSDOF 5
ENDMDL
MODEL 2
REMARK VINA RESULT:    -4.055      1.363      1.645
REMARK INTER + INTRA:          -5.405
REMARK INTER:                  -5.148
REMARK INTRA:                  -0.258
REMARK UNBOUND:                -0.165
REMARK SMILES CCCCCCC(=O)[O-]
REMARK SMILES IDX 5 1 6 2 7 3 8 4 9 5 4 6 3 7 2 8 1 9
REMARK H PARENT
REMARK Flexibility Score: inf
ROOT
ATOM      1  C   UNL     1      -3.182  38.040  18.591  1.00  0.00     0.006 C 
ENDROOT
BRANCH   1   2
ATOM      2  C   UNL     1      -3.564  36.945  19.604  1.00  0.00     0.053 C 
BRANCH   2   3
ATOM      3  C   UNL     1      -4.646  36.040  19.098  1.00  0.00     0.041 C 
ATOM      4  O   UNL     1      -5.789  36.058  19.625  1.00  0.00    -0.550 OA
ATOM      5  O   UNL     1      -4.400  35.197  18.021  1.00  0.00    -0.550 OA
ENDBRANCH   2   3
ENDBRANCH   1   2
BRANCH   1   6
ATOM      6  C   UNL     1      -1.762  37.891  18.015  1.00  0.00     0.000 C 
BRANCH   6   7
ATOM      7  C   UNL     1      -1.753  37.506  16.529  1.00  0.00    -0.000 C 
BRANCH   7   8
ATOM      8  C   UNL     1      -2.840  38.264  15.758  1.00  0.00    -0.003 C 
ATOM      9  C   UNL     1      -3.266  37.498  14.509  1.00  0.00     0.004 C 
ENDBRANCH   7   8
ENDBRANCH   6   7
ENDBRANCH   1   6
TORSDOF 5
ENDMDL
MODEL 3
REMARK VINA RESULT:    -3.961      0.977      1.093
REMARK INTER + INTRA:          -5.284
REMARK INTER:                  -5.170
REMARK INTRA:                  -0.114
REMARK UNBOUND:                -0.165
REMARK SMILES CCCCCCC(=O)[O-]
REMARK SMILES IDX 5 1 6 2 7 3 8 4 9 5 4 6 3 7 2 8 1 9
REMARK H PARENT
REMARK Flexibility Score: inf
ROOT
ATOM      1  C   UNL     1      -3.505  37.180  18.877  1.00  0.00     0.006 C 
ENDROOT
BRANCH   1   2
ATOM      2  C   UNL     1      -4.479  38.130  19.596  1.00  0.00     0.053 C 
BRANCH   2   3
ATOM      3  C   UNL     1      -5.019  37.551  20.868  1.00  0.00     0.041 C 
ATOM      4  O   UNL     1      -5.759  36.532  20.840  1.00  0.00    -0.550 OA
ATOM      5  O   UNL     1      -4.679  38.118  22.090  1.00  0.00    -0.550 OA
ENDBRANCH   2   3
ENDBRANCH   1   2
BRANCH   1   6
ATOM      6  C   UNL     1      -2.806  37.807  17.657  1.00  0.00     0.000 C 
BRANCH   6   7
ATOM      7  C   UNL     1      -2.291  36.764  16.655  1.00  0.00    -0.000 C 
BRANCH   7   8
ATOM      8  C   UNL     1      -2.050  37.396  15.279  1.00  0.00    -0.003 C 
ATOM      9  C   UNL     1      -3.368  37.766  14.604  1.00  0.00     0.004 C 
ENDBRANCH   7   8
ENDBRANCH   6   7
ENDBRANCH   1   6
TORSDOF 5
ENDMDL
MODEL 4
REMARK VINA RESULT:    -3.869      2.729      5.018
REMARK INTER + INTRA:          -5.165
REMARK INTER:                  -4.936
REMARK INTRA:                  -0.229
REMARK UNBOUND:                -0.165
REMARK SMILES CCCCCCC(=O)[O-]
REMARK SMILES IDX 5 1 6 2 7 3 8 4 9 5 4 6 3 7 2 8 1 9
REMARK H PARENT
REMARK Flexibility Score: inf
ROOT
ATOM      1  C   UNL     1      -3.210  38.015  19.026  1.00  0.00     0.006 C 
ENDROOT
BRANCH   1   2
ATOM      2  C   UNL     1      -1.905  38.019  18.209  1.00  0.00     0.053 C 
BRANCH   2   3
ATOM      3  C   UNL     1      -2.118  37.641  16.775  1.00  0.00     0.041 C 
ATOM      4  O   UNL     1      -2.803  38.378  16.018  1.00  0.00    -0.550 OA
ATOM      5  O   UNL     1      -1.534  36.488  16.266  1.00  0.00    -0.550 OA
ENDBRANCH   2   3
ENDBRANCH   1   2
BRANCH   1   6
ATOM      6  C   UNL     1      -3.891  36.636  19.110  1.00  0.00     0.000 C 
BRANCH   6   7
ATOM      7  C   UNL     1      -5.065  36.603  20.099  1.00  0.00    -0.000 C 
BRANCH   7   8
ATOM      8  C   UNL     1      -4.961  37.751  21.111  1.00  0.00    -0.003 C 
ATOM      9  C   UNL     1      -4.966  37.224  22.544  1.00  0.00     0.004 C 
ENDBRANCH   7   8
ENDBRANCH   6   7
ENDBRANCH   1   6
TORSDOF 5
ENDMDL
MODEL 5
REMARK VINA RESULT:    -3.868      1.570      2.364
REMARK INTER + INTRA:          -5.163
REMARK INTER:                  -4.886
REMARK INTRA:                  -0.277
REMARK UNBOUND:                -0.165
REMARK SMILES CCCCCCC(=O)[O-]
REMARK SMILES IDX 5 1 6 2 7 3 8 4 9 5 4 6 3 7 2 8 1 9
REMARK H PARENT
REMARK Flexibility Score: inf
ROOT
ATOM      1  C   UNL     1      -4.209  35.882  18.400  1.00  0.00     0.006 C 
ENDROOT
BRANCH   1   2
ATOM      2  C   UNL     1      -3.898  36.426  19.806  1.00  0.00     0.053 C 
BRANCH   2   3
ATOM      3  C   UNL     1      -5.052  37.169  20.407  1.00  0.00     0.041 C 
ATOM      4  O   UNL     1      -5.806  36.605  21.243  1.00  0.00    -0.550 OA
ATOM      5  O   UNL     1      -5.277  38.497  20.066  1.00  0.00    -0.550 OA
ENDBRANCH   2   3
ENDBRANCH   1   2
BRANCH   1   6
ATOM      6  C   UNL     1      -3.276  36.421  17.300  1.00  0.00     0.000 C 
BRANCH   6   7
ATOM      7  C   UNL     1      -2.768  37.842  17.585  1.00  0.00    -0.000 C 
BRANCH   7   8
ATOM      8  C   UNL     1      -1.239  37.865  17.698  1.00  0.00    -0.003 C 
ATOM      9  C   UNL     1      -0.791  38.564  18.979  1.00  0.00     0.004 C 
ENDBRANCH   7   8
ENDBRANCH   6   7
ENDBRANCH   1   6
TORSDOF 5
ENDMDL
MODEL 6
REMARK VINA RESULT:    -3.735      2.970      5.273
REMARK INTER + INTRA:          -4.992
REMARK INTER:                  -4.802
REMARK INTRA:                  -0.190
REMARK UNBOUND:                -0.165
REMARK SMILES CCCCCCC(=O)[O-]
REMARK SMILES IDX 5 1 6 2 7 3 8 4 9 5 4 6 3 7 2 8 1 9
REMARK H PARENT
REMARK Flexibility Score: inf
ROOT
ATOM      1  C   UNL     1      -3.775  36.760  19.312  1.00  0.00     0.006 C 
ENDROOT
BRANCH   1   2
ATOM      2  C   UNL     1      -3.420  38.035  18.526  1.00  0.00     0.053 C 
BRANCH   2   3
ATOM      3  C   UNL     1      -1.949  38.170  18.275  1.00  0.00     0.041 C 
ATOM      4  O   UNL     1      -1.426  37.644  17.257  1.00  0.00    -0.550 OA
ATOM      5  O   UNL     1      -1.158  38.903  19.151  1.00  0.00    -0.550 OA
ENDBRANCH   2   3
ENDBRANCH   1   2
BRANCH   1   6
ATOM      6  C   UNL     1      -4.956  36.934  20.285  1.00  0.00     0.000 C 
BRANCH   6   7
ATOM      7  C   UNL     1      -4.799  38.148  21.212  1.00  0.00    -0.000 C 
BRANCH   7   8
ATOM      8  C   UNL     1      -5.126  37.776  22.663  1.00  0.00    -0.003 C 
ATOM      9  C   UNL     1      -5.087  36.264  22.867  1.00  0.00     0.004 C 
ENDBRANCH   7   8
ENDBRANCH   6   7
ENDBRANCH   1   6
TORSDOF 5
ENDMDL
MODEL 7
REMARK VINA RESULT:    -3.724      2.506      3.327
REMARK INTER + INTRA:          -4.977
REMARK INTER:                  -4.827
REMARK INTRA:                  -0.151
REMARK UNBOUND:                -0.165
REMARK SMILES CCCCCCC(=O)[O-]
REMARK SMILES IDX 5 1 6 2 7 3 8 4 9 5 4 6 3 7 2 8 1 9
REMARK H PARENT
REMARK Flexibility Score: inf
ROOT
ATOM      1  C   UNL     1      -4.715  38.183  20.916  1.00  0.00     0.006 C 
ENDROOT
BRANCH   1   2
ATOM      2  C   UNL     1      -4.947  36.736  21.389  1.00  0.00     0.053 C 
BRANCH   2   3
ATOM      3  C   UNL     1      -4.985  36.615  22.882  1.00  0.00     0.041 C 
ATOM      4  O   UNL     1      -5.322  35.529  23.424  1.00  0.00    -0.550 OA
ATOM      5  O   UNL     1      -4.617  37.693  23.677  1.00  0.00    -0.550 OA
ENDBRANCH   2   3
ENDBRANCH   1   2
BRANCH   1   6
ATOM      6  C   UNL     1      -4.284  38.298  19.443  1.00  0.00     0.000 C 
BRANCH   6   7
ATOM      7  C   UNL     1      -3.155  37.326  19.069  1.00  0.00    -0.000 C 
BRANCH   7   8
ATOM      8  C   UNL     1      -2.124  38.006  18.159  1.00  0.00    -0.003 C 
ATOM      9  C   UNL     1      -0.853  38.352  18.929  1.00  0.00     0.004 C 
ENDBRANCH   7   8
ENDBRANCH   6   7
ENDBRANCH   1   6
TORSDOF 5
ENDMDL
MODEL 8
REMARK VINA RESULT:    -3.683      3.177      6.190
REMARK INTER + INTRA:          -4.925
REMARK INTER:                  -4.754
REMARK INTRA:                  -0.171
REMARK UNBOUND:                -0.165
REMARK SMILES CCCCCCC(=O)[O-]
REMARK SMILES IDX 5 1 6 2 7 3 8 4 9 5 4 6 3 7 2 8 1 9
REMARK H PARENT
REMARK Flexibility Score: inf
ROOT
ATOM      1  C   UNL     1      -4.629  38.201  21.088  1.00  0.00     0.006 C 
ENDROOT
BRANCH   1   2
ATOM      2  C   UNL     1      -4.696  36.769  20.526  1.00  0.00     0.053 C 
BRANCH   2   3
ATOM      3  C   UNL     1      -3.965  36.623  19.226  1.00  0.00     0.041 C 
ATOM      4  O   UNL     1      -3.053  37.434  18.914  1.00  0.00    -0.550 OA
ATOM      5  O   UNL     1      -4.270  35.571  18.371  1.00  0.00    -0.550 OA
ENDBRANCH   2   3
ENDBRANCH   1   2
BRANCH   1   6
ATOM      6  C   UNL     1      -4.943  38.297  22.592  1.00  0.00     0.000 C 
BRANCH   6   7
ATOM      7  C   UNL     1      -4.975  36.930  23.289  1.00  0.00    -0.000 C 
BRANCH   7   8
ATOM      8  C   UNL     1      -5.310  37.080  24.778  1.00  0.00    -0.003 C 
ATOM      9  C   UNL     1      -4.533  38.235  25.403  1.00  0.00     0.004 C 
ENDBRANCH   7   8
ENDBRANCH   6   7
ENDBRANCH   1   6
TORSDOF 5
ENDMDL
MODEL 9
REMARK VINA RESULT:    -3.594      3.351      4.960
REMARK INTER + INTRA:          -4.809
REMARK INTER:                  -4.579
REMARK INTRA:                  -0.230
REMARK UNBOUND:                -0.165
REMARK SMILES CCCCCCC(=O)[O-]
REMARK SMILES IDX 5 1 6 2 7 3 8 4 9 5 4 6 3 7 2 8 1 9
REMARK H PARENT
REMARK Flexibility Score: inf
ROOT
ATOM      1  C   UNL     1      -4.918  36.716  22.766  1.00  0.00     0.006 C 
ENDROOT
BRANCH   1   2
ATOM      2  C   UNL     1      -5.882  37.339  23.792  1.00  0.00     0.053 C 
BRANCH   2   3
ATOM      3  C   UNL     1      -5.252  38.447  24.580  1.00  0.00     0.041 C 
ATOM      4  O   UNL     1      -4.515  39.294  24.009  1.00  0.00    -0.550 OA
ATOM      5  O   UNL     1      -5.503  38.562  25.942  1.00  0.00    -0.550 OA
ENDBRANCH   2   3
ENDBRANCH   1   2
BRANCH   1   6
ATOM      6  C   UNL     1      -5.381  36.861  21.305  1.00  0.00     0.000 C 
BRANCH   6   7
ATOM      7  C   UNL     1      -4.990  38.208  20.680  1.00  0.00    -0.000 C 
BRANCH   7   8
ATOM      8  C   UNL     1      -4.074  38.006  19.468  1.00  0.00    -0.003 C 
ATOM      9  C   UNL     1      -3.889  36.523  19.158  1.00  0.00     0.004 C 
ENDBRANCH   7   8
ENDBRANCH   6   7
ENDBRANCH   1   6
TORSDOF 5
ENDMDL
