MODEL 1
REMARK VINA RESULT:     5.533      0.000      0.000
REMARK INTER + INTRA:           7.859
REMARK INTER:                   8.444
REMARK INTRA:                  -0.585
REMARK UNBOUND:                -0.585
REMARK SMILES CCCCCCCCCC=CC(=O)[O-]
REMARK SMILES IDX 7 1 8 2 9 3 10 4 11 5 12 6 13 7 14 8 6 9 5 10 4 11 3 12 2 13
REMARK SMILES IDX 1 14
REMARK H PARENT
REMARK Flexibility Score: inf
ROOT
ATOM      1  C   UNL     1      -3.628 106.679  64.558  1.00  0.00     0.000 C 
ENDROOT
BRANCH   1   2
ATOM      2  C   UNL     1      -4.468 107.958  64.757  1.00  0.00     0.004 C 
BRANCH   2   3
ATOM      3  C   UNL     1      -4.669 108.367  66.227  1.00  0.00     0.027 C 
BRANCH   3   4
ATOM      4  C   UNL     1      -5.550 107.406  66.982  1.00  0.00    -0.025 C 
ATOM      5  C   UNL     1      -6.870 107.539  67.190  1.00  0.00     0.020 C 
BRANCH   5   6
ATOM      6  C   UNL     1      -7.740 108.616  66.674  1.00  0.00     0.064 C 
ATOM      7  O   UNL     1      -8.125 109.570  67.399  1.00  0.00    -0.545 OA
ATOM      8  O   UNL     1      -8.118 108.592  65.338  1.00  0.00    -0.545 OA
ENDBRANCH   5   6
ENDBRANCH   3   4
ENDBRANCH   2   3
ENDBRANCH   1   2
BRANCH   1   9
ATOM      9  C   UNL     1      -3.991 105.844  63.317  1.00  0.00     0.000 C 
BRANCH   9  10
ATOM     10  C   UNL     1      -4.369 104.396  63.659  1.00  0.00     0.000 C 
BRANCH  10  11
ATOM     11  C   UNL     1      -4.757 103.617  62.393  1.00  0.00    -0.000 C 
BRANCH  11  12
ATOM     12  C   UNL     1      -4.164 102.199  62.367  1.00  0.00    -0.000 C 
BRANCH  12  13
ATOM     13  C   UNL     1      -3.627 101.756  63.736  1.00  0.00    -0.003 C 
ATOM     14  C   UNL     1      -2.312 100.997  63.591  1.00  0.00     0.004 C 
ENDBRANCH  12  13
ENDBRANCH  11  12
ENDBRANCH  10  11
ENDBRANCH   9  10
ENDBRANCH   1   9
TORSDOF 9
ENDMDL
MODEL 2
REMARK VINA RESULT:     5.868      3.378      6.920
REMARK INTER + INTRA:           8.371
REMARK INTER:                   8.850
REMARK INTRA:                  -0.478
REMARK UNBOUND:                -0.585
REMARK SMILES CCCCCCCCCC=CC(=O)[O-]
REMARK SMILES IDX 7 1 8 2 9 3 10 4 11 5 12 6 13 7 14 8 6 9 5 10 4 11 3 12 2 13
REMARK SMILES IDX 1 14
REMARK H PARENT
REMARK Flexibility Score: inf
ROOT
ATOM      1  C   UNL     1      -3.448 107.303  65.092  1.00  0.00     0.000 C 
ENDROOT
BRANCH   1   2
ATOM      2  C   UNL     1      -4.292 106.133  64.544  1.00  0.00     0.004 C 
BRANCH   2   3
ATOM      3  C   UNL     1      -3.620 105.340  63.408  1.00  0.00     0.027 C 
BRANCH   3   4
ATOM      4  C   UNL     1      -4.605 104.535  62.600  1.00  0.00    -0.025 C 
ATOM      5  C   UNL     1      -4.606 103.200  62.455  1.00  0.00     0.020 C 
BRANCH   5   6
ATOM      6  C   UNL     1      -3.684 102.242  63.101  1.00  0.00     0.064 C 
ATOM      7  O   UNL     1      -3.607 102.126  64.351  1.00  0.00    -0.545 OA
ATOM      8  O   UNL     1      -2.902 101.421  62.300  1.00  0.00    -0.545 OA
ENDBRANCH   5   6
ENDBRANCH   3   4
ENDBRANCH   2   3
ENDBRANCH   1   2
BRANCH   1   9
ATOM      9  C   UNL     1      -4.227 108.339  65.922  1.00  0.00     0.000 C 
BRANCH   9  10
ATOM     10  C   UNL     1      -4.528 107.860  67.349  1.00  0.00     0.000 C 
BRANCH  10  11
ATOM     11  C   UNL     1      -6.040 107.711  67.571  1.00  0.00    -0.000 C 
BRANCH  11  12
ATOM     12  C   UNL     1      -6.833 107.701  66.254  1.00  0.00    -0.000 C 
BRANCH  12  13
ATOM     13  C   UNL     1      -8.125 108.528  66.335  1.00  0.00    -0.003 C 
ATOM     14  C   UNL     1      -8.030 109.589  67.427  1.00  0.00     0.004 C 
ENDBRANCH  12  13
ENDBRANCH  11  12
ENDBRANCH  10  11
ENDBRANCH   9  10
ENDBRANCH   1   9
TORSDOF 9
ENDMDL
MODEL 3
REMARK VINA RESULT:     5.915      4.554      8.581
REMARK INTER + INTRA:           8.442
REMARK INTER:                   8.942
REMARK INTRA:                  -0.499
REMARK UNBOUND:                -0.585
REMARK SMILES CCCCCCCCCC=CC(=O)[O-]
REMARK SMILES IDX 7 1 8 2 9 3 10 4 11 5 12 6 13 7 14 8 6 9 5 10 4 11 3 12 2 13
REMARK SMILES IDX 1 14
REMARK H PARENT
REMARK Flexibility Score: inf
ROOT
ATOM      1  C   UNL     1      -4.271 110.922  66.615  1.00  0.00     0.000 C 
ENDROOT
BRANCH   1   2
ATOM      2  C   UNL     1      -3.667 109.703  65.886  1.00  0.00     0.004 C 
BRANCH   2   3
ATOM      3  C   UNL     1      -4.705 108.774  65.230  1.00  0.00     0.027 C 
BRANCH   3   4
ATOM      4  C   UNL     1      -6.011 108.740  65.981  1.00  0.00    -0.025 C 
ATOM      5  C   UNL     1      -6.368 107.837  66.908  1.00  0.00     0.020 C 
BRANCH   5   6
ATOM      6  C   UNL     1      -5.537 106.730  67.428  1.00  0.00     0.064 C 
ATOM      7  O   UNL     1      -5.870 105.525  67.294  1.00  0.00    -0.545 OA
ATOM      8  O   UNL     1      -4.336 107.031  68.054  1.00  0.00    -0.545 OA
ENDBRANCH   5   6
ENDBRANCH   3   4
ENDBRANCH   2   3
ENDBRANCH   1   2
BRANCH   1   9
ATOM      9  C   UNL     1      -3.534 112.253  66.386  1.00  0.00     0.000 C 
BRANCH   9  10
ATOM     10  C   UNL     1      -3.984 113.361  67.349  1.00  0.00     0.000 C 
BRANCH  10  11
ATOM     11  C   UNL     1      -5.506 113.556  67.289  1.00  0.00    -0.000 C 
BRANCH  11  12
ATOM     12  C   UNL     1      -5.912 115.038  67.253  1.00  0.00    -0.000 C 
BRANCH  12  13
ATOM     13  C   UNL     1      -5.332 115.838  68.430  1.00  0.00    -0.003 C 
ATOM     14  C   UNL     1      -6.020 115.465  69.740  1.00  0.00     0.004 C 
ENDBRANCH  12  13
ENDBRANCH  11  12
ENDBRANCH  10  11
ENDBRANCH   9  10
ENDBRANCH   1   9
TORSDOF 9
ENDMDL
MODEL 4
REMARK VINA RESULT:     6.101      4.364      7.956
REMARK INTER + INTRA:           8.727
REMARK INTER:                   9.034
REMARK INTRA:                  -0.307
REMARK UNBOUND:                -0.585
REMARK SMILES CCCCCCCCCC=CC(=O)[O-]
REMARK SMILES IDX 7 1 8 2 9 3 10 4 11 5 12 6 13 7 14 8 6 9 5 10 4 11 3 12 2 13
REMARK SMILES IDX 1 14
REMARK H PARENT
REMARK Flexibility Score: inf
ROOT
ATOM      1  C   UNL     1      -2.499 110.642  64.365  1.00  0.00     0.000 C 
ENDROOT
BRANCH   1   2
ATOM      2  C   UNL     1      -3.058 109.767  65.506  1.00  0.00     0.004 C 
BRANCH   2   3
ATOM      3  C   UNL     1      -4.056 108.687  65.051  1.00  0.00     0.027 C 
BRANCH   3   4
ATOM      4  C   UNL     1      -5.410 108.840  65.694  1.00  0.00    -0.025 C 
ATOM      5  C   UNL     1      -5.906 108.082  66.686  1.00  0.00     0.020 C 
BRANCH   5   6
ATOM      6  C   UNL     1      -5.208 106.986  67.391  1.00  0.00     0.064 C 
ATOM      7  O   UNL     1      -4.176 107.185  68.082  1.00  0.00    -0.545 OA
ATOM      8  O   UNL     1      -5.729 105.701  67.315  1.00  0.00    -0.545 OA
ENDBRANCH   5   6
ENDBRANCH   3   4
ENDBRANCH   2   3
ENDBRANCH   1   2
BRANCH   1   9
ATOM      9  C   UNL     1      -2.819 112.144  64.475  1.00  0.00     0.000 C 
BRANCH   9  10
ATOM     10  C   UNL     1      -2.696 112.679  65.909  1.00  0.00     0.000 C 
BRANCH  10  11
ATOM     11  C   UNL     1      -4.044 112.602  66.640  1.00  0.00    -0.000 C 
BRANCH  11  12
ATOM     12  C   UNL     1      -4.269 113.787  67.593  1.00  0.00    -0.000 C 
BRANCH  12  13
ATOM     13  C   UNL     1      -5.655 114.428  67.423  1.00  0.00    -0.003 C 
ATOM     14  C   UNL     1      -5.828 115.618  68.361  1.00  0.00     0.004 C 
ENDBRANCH  12  13
ENDBRANCH  11  12
ENDBRANCH  10  11
ENDBRANCH   9  10
ENDBRANCH   1   9
TORSDOF 9
ENDMDL
MODEL 5
REMARK VINA RESULT:     6.240      4.544      8.263
REMARK INTER + INTRA:           8.939
REMARK INTER:                   8.920
REMARK INTRA:                   0.019
REMARK UNBOUND:                -0.585
REMARK SMILES CCCCCCCCCC=CC(=O)[O-]
REMARK SMILES IDX 7 1 8 2 9 3 10 4 11 5 12 6 13 7 14 8 6 9 5 10 4 11 3 12 2 13
REMARK SMILES IDX 1 14
REMARK H PARENT
REMARK Flexibility Score: inf
ROOT
ATOM      1  C   UNL     1      -3.852 109.948  65.732  1.00  0.00     0.000 C 
ENDROOT
BRANCH   1   2
ATOM      2  C   UNL     1      -4.897 108.912  65.269  1.00  0.00     0.004 C 
BRANCH   2   3
ATOM      3  C   UNL     1      -6.123 108.788  66.191  1.00  0.00     0.027 C 
BRANCH   3   4
ATOM      4  C   UNL     1      -6.257 107.415  66.799  1.00  0.00    -0.025 C 
ATOM      5  C   UNL     1      -5.308 106.758  67.486  1.00  0.00     0.020 C 
BRANCH   5   6
ATOM      6  C   UNL     1      -3.965 107.264  67.840  1.00  0.00     0.064 C 
ATOM      7  O   UNL     1      -3.731 107.827  68.940  1.00  0.00    -0.545 OA
ATOM      8  O   UNL     1      -2.922 107.082  66.942  1.00  0.00    -0.545 OA
ENDBRANCH   5   6
ENDBRANCH   3   4
ENDBRANCH   2   3
ENDBRANCH   1   2
BRANCH   1   9
ATOM      9  C   UNL     1      -4.370 111.002  66.726  1.00  0.00     0.000 C 
BRANCH   9  10
ATOM     10  C   UNL     1      -3.774 112.397  66.487  1.00  0.00     0.000 C 
BRANCH  10  11
ATOM     11  C   UNL     1      -4.248 113.387  67.560  1.00  0.00    -0.000 C 
BRANCH  11  12
ATOM     12  C   UNL     1      -5.583 114.057  67.199  1.00  0.00    -0.000 C 
BRANCH  12  13
ATOM     13  C   UNL     1      -5.704 115.480  67.766  1.00  0.00    -0.003 C 
ATOM     14  C   UNL     1      -5.916 115.452  69.277  1.00  0.00     0.004 C 
ENDBRANCH  12  13
ENDBRANCH  11  12
ENDBRANCH  10  11
ENDBRANCH   9  10
ENDBRANCH   1   9
TORSDOF 9
ENDMDL
MODEL 6
REMARK VINA RESULT:     8.005      2.075      3.167
REMARK INTER + INTRA:          11.632
REMARK INTER:                  11.776
REMARK INTRA:                  -0.144
REMARK UNBOUND:                -0.585
REMARK SMILES CCCCCCCCCC=CC(=O)[O-]
REMARK SMILES IDX 7 1 8 2 9 3 10 4 11 5 12 6 13 7 14 8 6 9 5 10 4 11 3 12 2 13
REMARK SMILES IDX 1 14
REMARK H PARENT
REMARK Flexibility Score: inf
ROOT
ATOM      1  C   UNL     1      -6.815 105.610  67.351  1.00  0.00     0.000 C 
ENDROOT
BRANCH   1   2
ATOM      2  C   UNL     1      -8.125 106.141  66.731  1.00  0.00     0.004 C 
BRANCH   2   3
ATOM      3  C   UNL     1      -7.967 107.443  65.926  1.00  0.00     0.027 C 
BRANCH   3   4
ATOM      4  C   UNL     1      -7.540 108.607  66.782  1.00  0.00    -0.025 C 
ATOM      5  C   UNL     1      -6.278 108.920  67.121  1.00  0.00     0.020 C 
BRANCH   5   6
ATOM      6  C   UNL     1      -5.049 108.229  66.679  1.00  0.00     0.064 C 
ATOM      7  O   UNL     1      -4.638 108.289  65.491  1.00  0.00    -0.545 OA
ATOM      8  O   UNL     1      -4.307 107.518  67.612  1.00  0.00    -0.545 OA
ENDBRANCH   5   6
ENDBRANCH   3   4
ENDBRANCH   2   3
ENDBRANCH   1   2
BRANCH   1   9
ATOM      9  C   UNL     1      -6.203 104.389  66.641  1.00  0.00     0.000 C 
BRANCH   9  10
ATOM     10  C   UNL     1      -5.226 104.775  65.521  1.00  0.00     0.000 C 
BRANCH  10  11
ATOM     11  C   UNL     1      -4.754 103.532  64.752  1.00  0.00    -0.000 C 
BRANCH  11  12
ATOM     12  C   UNL     1      -4.448 103.831  63.276  1.00  0.00    -0.000 C 
BRANCH  12  13
ATOM     13  C   UNL     1      -4.160 102.560  62.463  1.00  0.00    -0.003 C 
ATOM     14  C   UNL     1      -3.285 101.590  63.251  1.00  0.00     0.004 C 
ENDBRANCH  12  13
ENDBRANCH  11  12
ENDBRANCH  10  11
ENDBRANCH   9  10
ENDBRANCH   1   9
TORSDOF 9
ENDMDL
