MODEL 1
REMARK VINA RESULT:    -3.456      0.000      0.000
REMARK INTER + INTRA:          -3.557
REMARK INTER:                  -3.557
REMARK INTRA:                   0.000
REMARK UNBOUND:                 0.000
REMARK SMILES Oc1ccc2[nH]ccc2c1
REMARK SMILES IDX 3 1 4 2 5 3 9 4 8 5 7 6 6 7 10 8 2 9 1 11
REMARK H PARENT 6 10 1 12
REMARK Flexibility Score: inf
ROOT
ATOM      1  C   UNL     1     109.091 107.568 103.883  1.00  0.00     0.048 A 
ATOM      2  C   UNL     1     108.215 106.596 104.399  1.00  0.00     0.030 A 
ATOM      3  C   UNL     1     107.762 106.757 105.707  1.00  0.00     0.046 A 
ATOM      4  C   UNL     1     108.149 107.821 106.476  1.00  0.00     0.003 A 
ATOM      5  C   UNL     1     107.533 107.689 107.701  1.00  0.00     0.028 A 
ATOM      6  C   UNL     1     106.786 106.519 107.608  1.00  0.00     0.083 A 
ATOM      7  N   UNL     1     106.928 105.954 106.387  1.00  0.00    -0.361 N 
ATOM      8  C   UNL     1     109.015 108.801 105.997  1.00  0.00     0.056 A 
ATOM      9  C   UNL     1     109.493 108.669 104.675  1.00  0.00     0.116 A 
ATOM     10  H   UNL     1     106.480 105.074 106.048  1.00  0.00     0.166 HD
ENDROOT
BRANCH   9  11
ATOM     11  O   UNL     1     110.362 109.616 104.141  1.00  0.00    -0.508 OA
ATOM     12  H   UNL     1     111.366 109.536 104.251  1.00  0.00     0.293 HD
ENDBRANCH   9  11
TORSDOF 1
ENDMDL
MODEL 2
REMARK VINA RESULT:    -3.455      5.572      6.797
REMARK INTER + INTRA:          -3.556
REMARK INTER:                  -3.556
REMARK INTRA:                   0.000
REMARK UNBOUND:                 0.000
REMARK SMILES Oc1ccc2[nH]ccc2c1
REMARK SMILES IDX 3 1 4 2 5 3 9 4 8 5 7 6 6 7 10 8 2 9 1 11
REMARK H PARENT 6 10 1 12
REMARK Flexibility Score: inf
ROOT
ATOM      1  C   UNL     1     110.813 112.642 104.103  1.00  0.00     0.048 A 
ATOM      2  C   UNL     1     111.923 113.407 104.505  1.00  0.00     0.030 A 
ATOM      3  C   UNL     1     112.278 113.380 105.852  1.00  0.00     0.046 A 
ATOM      4  C   UNL     1     111.579 112.638 106.766  1.00  0.00     0.003 A 
ATOM      5  C   UNL     1     112.178 112.825 107.992  1.00  0.00     0.028 A 
ATOM      6  C   UNL     1     113.237 113.694 107.752  1.00  0.00     0.083 A 
ATOM      7  N   UNL     1     113.294 114.030 106.442  1.00  0.00    -0.361 N 
ATOM      8  C   UNL     1     110.476 111.870 106.402  1.00  0.00     0.056 A 
ATOM      9  C   UNL     1     110.088 111.874 105.044  1.00  0.00     0.116 A 
ATOM     10  H   UNL     1     113.988 114.665 105.988  1.00  0.00     0.166 HD
ENDROOT
BRANCH   9  11
ATOM     11  O   UNL     1     108.993 111.126 104.621  1.00  0.00    -0.508 OA
ATOM     12  H   UNL     1     108.512 110.492 105.247  1.00  0.00     0.293 HD
ENDBRANCH   9  11
TORSDOF 1
ENDMDL
MODEL 3
REMARK VINA RESULT:    -3.437      4.398      4.884
REMARK INTER + INTRA:          -3.537
REMARK INTER:                  -3.537
REMARK INTRA:                   0.000
REMARK UNBOUND:                 0.000
REMARK SMILES Oc1ccc2[nH]ccc2c1
REMARK SMILES IDX 3 1 4 2 5 3 9 4 8 5 7 6 6 7 10 8 2 9 1 11
REMARK H PARENT 6 10 1 12
REMARK Flexibility Score: inf
ROOT
ATOM      1  C   UNL     1     112.561 109.189 103.875  1.00  0.00     0.048 A 
ATOM      2  C   UNL     1     113.455 108.216 104.355  1.00  0.00     0.030 A 
ATOM      3  C   UNL     1     113.385 107.875 105.704  1.00  0.00     0.046 A 
ATOM      4  C   UNL     1     112.479 108.461 106.547  1.00  0.00     0.003 A 
ATOM      5  C   UNL     1     112.664 107.912 107.797  1.00  0.00     0.028 A 
ATOM      6  C   UNL     1     113.701 106.998 107.642  1.00  0.00     0.083 A 
ATOM      7  N   UNL     1     114.137 106.978 106.361  1.00  0.00    -0.361 N 
ATOM      8  C   UNL     1     111.579 109.428 106.105  1.00  0.00     0.056 A 
ATOM      9  C   UNL     1     111.624 109.797 104.743  1.00  0.00     0.116 A 
ATOM     10  H   UNL     1     114.903 106.387 105.969  1.00  0.00     0.166 HD
ENDROOT
BRANCH   9  11
ATOM     11  O   UNL     1     110.750 110.758 104.244  1.00  0.00    -0.508 OA
ATOM     12  H   UNL     1     111.048 111.438 103.554  1.00  0.00     0.293 HD
ENDBRANCH   9  11
TORSDOF 1
ENDMDL
MODEL 4
REMARK VINA RESULT:    -3.360      4.158      4.766
REMARK INTER + INTRA:          -3.458
REMARK INTER:                  -3.458
REMARK INTRA:                   0.000
REMARK UNBOUND:                 0.000
REMARK SMILES Oc1ccc2[nH]ccc2c1
REMARK SMILES IDX 3 1 4 2 5 3 9 4 8 5 7 6 6 7 10 8 2 9 1 11
REMARK H PARENT 6 10 1 12
REMARK Flexibility Score: inf
ROOT
ATOM      1  C   UNL     1     107.662 111.060 103.875  1.00  0.00     0.048 A 
ATOM      2  C   UNL     1     106.615 111.812 104.436  1.00  0.00     0.030 A 
ATOM      3  C   UNL     1     106.783 112.300 105.730  1.00  0.00     0.046 A 
ATOM      4  C   UNL     1     107.927 112.063 106.444  1.00  0.00     0.003 A 
ATOM      5  C   UNL     1     107.781 112.673 107.671  1.00  0.00     0.028 A 
ATOM      6  C   UNL     1     106.522 113.264 107.635  1.00  0.00     0.083 A 
ATOM      7  N   UNL     1     105.917 113.034 106.446  1.00  0.00    -0.361 N 
ATOM      8  C   UNL     1     108.983 111.322 105.920  1.00  0.00     0.056 A 
ATOM      9  C   UNL     1     108.845 110.812 104.611  1.00  0.00     0.116 A 
ATOM     10  H   UNL     1     104.970 113.361 106.152  1.00  0.00     0.166 HD
ENDROOT
BRANCH   9  11
ATOM     11  O   UNL     1     109.867 110.065 104.033  1.00  0.00    -0.508 OA
ATOM     12  H   UNL     1     110.000 110.035 103.029  1.00  0.00     0.293 HD
ENDBRANCH   9  11
TORSDOF 1
ENDMDL
MODEL 5
REMARK VINA RESULT:    -3.300      3.921      5.091
REMARK INTER + INTRA:          -3.397
REMARK INTER:                  -3.397
REMARK INTRA:                   0.000
REMARK UNBOUND:                 0.000
REMARK SMILES Oc1ccc2[nH]ccc2c1
REMARK SMILES IDX 3 1 4 2 5 3 9 4 8 5 7 6 6 7 10 8 2 9 1 11
REMARK H PARENT 6 10 1 12
REMARK Flexibility Score: inf
ROOT
ATOM      1  C   UNL     1     107.395 110.180 103.875  1.00  0.00     0.048 A 
ATOM      2  C   UNL     1     108.690 109.642 103.990  1.00  0.00     0.030 A 
ATOM      3  C   UNL     1     109.743 110.524 104.223  1.00  0.00     0.046 A 
ATOM      4  C   UNL     1     109.539 111.873 104.339  1.00  0.00     0.003 A 
ATOM      5  C   UNL     1     110.767 112.457 104.564  1.00  0.00     0.028 A 
ATOM      6  C   UNL     1     111.675 111.403 104.573  1.00  0.00     0.083 A 
ATOM      7  N   UNL     1     111.044 110.224 104.365  1.00  0.00    -0.361 N 
ATOM      8  C   UNL     1     108.271 112.439 104.230  1.00  0.00     0.056 A 
ATOM      9  C   UNL     1     107.181 111.573 103.993  1.00  0.00     0.116 A 
ATOM     10  H   UNL     1     111.484 109.278 104.323  1.00  0.00     0.166 HD
ENDROOT
BRANCH   9  11
ATOM     11  O   UNL     1     105.891 112.081 103.875  1.00  0.00    -0.508 OA
ATOM     12  H   UNL     1     105.711 112.975 103.433  1.00  0.00     0.293 HD
ENDBRANCH   9  11
TORSDOF 1
ENDMDL
MODEL 6
REMARK VINA RESULT:    -3.267      3.161      4.100
REMARK INTER + INTRA:          -3.362
REMARK INTER:                  -3.362
REMARK INTRA:                   0.000
REMARK UNBOUND:                 0.000
REMARK SMILES Oc1ccc2[nH]ccc2c1
REMARK SMILES IDX 3 1 4 2 5 3 9 4 8 5 7 6 6 7 10 8 2 9 1 11
REMARK H PARENT 6 10 1 12
REMARK Flexibility Score: inf
ROOT
ATOM      1  C   UNL     1     109.713 107.764 104.502  1.00  0.00     0.048 A 
ATOM      2  C   UNL     1     110.110 109.099 104.700  1.00  0.00     0.030 A 
ATOM      3  C   UNL     1     109.159 110.098 104.501  1.00  0.00     0.046 A 
ATOM      4  C   UNL     1     107.876 109.804 104.125  1.00  0.00     0.003 A 
ATOM      5  C   UNL     1     107.196 110.997 104.014  1.00  0.00     0.028 A 
ATOM      6  C   UNL     1     108.128 111.978 104.338  1.00  0.00     0.083 A 
ATOM      7  N   UNL     1     109.326 111.423 104.635  1.00  0.00    -0.361 N 
ATOM      8  C   UNL     1     107.450 108.494 103.920  1.00  0.00     0.056 A 
ATOM      9  C   UNL     1     108.388 107.457 104.113  1.00  0.00     0.116 A 
ATOM     10  H   UNL     1     110.198 111.926 104.911  1.00  0.00     0.166 HD
ENDROOT
BRANCH   9  11
ATOM     11  O   UNL     1     108.020 106.128 103.923  1.00  0.00    -0.508 OA
ATOM     12  H   UNL     1     107.761 105.534 104.701  1.00  0.00     0.293 HD
ENDBRANCH   9  11
TORSDOF 1
ENDMDL
MODEL 7
REMARK VINA RESULT:    -3.227      3.697      4.953
REMARK INTER + INTRA:          -3.322
REMARK INTER:                  -3.322
REMARK INTRA:                   0.000
REMARK UNBOUND:                 0.000
REMARK SMILES Oc1ccc2[nH]ccc2c1
REMARK SMILES IDX 3 1 4 2 5 3 9 4 8 5 7 6 6 7 10 8 2 9 1 11
REMARK H PARENT 6 10 1 12
REMARK Flexibility Score: inf
ROOT
ATOM      1  C   UNL     1     112.538 111.668 103.953  1.00  0.00     0.048 A 
ATOM      2  C   UNL     1     112.000 110.368 103.967  1.00  0.00     0.030 A 
ATOM      3  C   UNL     1     110.613 110.238 103.938  1.00  0.00     0.046 A 
ATOM      4  C   UNL     1     109.789 111.331 103.897  1.00  0.00     0.003 A 
ATOM      5  C   UNL     1     108.491 110.868 103.876  1.00  0.00     0.028 A 
ATOM      6  C   UNL     1     108.600 109.482 103.907  1.00  0.00     0.083 A 
ATOM      7  N   UNL     1     109.898 109.102 103.944  1.00  0.00    -0.361 N 
ATOM      8  C   UNL     1     110.289 112.631 103.882  1.00  0.00     0.056 A 
ATOM      9  C   UNL     1     111.690 112.799 103.911  1.00  0.00     0.116 A 
ATOM     10  H   UNL     1     110.264 108.124 103.973  1.00  0.00     0.166 HD
ENDROOT
BRANCH   9  11
ATOM     11  O   UNL     1     112.248 114.074 103.898  1.00  0.00    -0.508 OA
ATOM     12  H   UNL     1     113.085 114.281 103.366  1.00  0.00     0.293 HD
ENDBRANCH   9  11
TORSDOF 1
ENDMDL
MODEL 8
REMARK VINA RESULT:    -3.206      3.703      4.500
REMARK INTER + INTRA:          -3.300
REMARK INTER:                  -3.300
REMARK INTRA:                   0.000
REMARK UNBOUND:                 0.000
REMARK SMILES Oc1ccc2[nH]ccc2c1
REMARK SMILES IDX 3 1 4 2 5 3 9 4 8 5 7 6 6 7 10 8 2 9 1 11
REMARK H PARENT 6 10 1 12
REMARK Flexibility Score: inf
ROOT
ATOM      1  C   UNL     1     113.525 108.130 104.521  1.00  0.00     0.048 A 
ATOM      2  C   UNL     1     112.548 108.910 103.875  1.00  0.00     0.030 A 
ATOM      3  C   UNL     1     111.411 109.260 104.600  1.00  0.00     0.046 A 
ATOM      4  C   UNL     1     111.237 108.865 105.900  1.00  0.00     0.003 A 
ATOM      5  C   UNL     1     110.027 109.368 106.325  1.00  0.00     0.028 A 
ATOM      6  C   UNL     1     109.517 110.060 105.231  1.00  0.00     0.083 A 
ATOM      7  N   UNL     1     110.367 109.992 104.180  1.00  0.00    -0.361 N 
ATOM      8  C   UNL     1     112.184 108.093 106.568  1.00  0.00     0.056 A 
ATOM      9  C   UNL     1     113.348 107.720 105.863  1.00  0.00     0.116 A 
ATOM     10  H   UNL     1     110.233 110.421 103.238  1.00  0.00     0.166 HD
ENDROOT
BRANCH   9  11
ATOM     11  O   UNL     1     114.330 106.949 106.478  1.00  0.00    -0.508 OA
ATOM     12  H   UNL     1     114.550 106.015 106.155  1.00  0.00     0.293 HD
ENDBRANCH   9  11
TORSDOF 1
ENDMDL
MODEL 9
REMARK VINA RESULT:    -3.199      4.212      4.737
REMARK INTER + INTRA:          -3.293
REMARK INTER:                  -3.293
REMARK INTRA:                   0.000
REMARK UNBOUND:                 0.000
REMARK SMILES Oc1ccc2[nH]ccc2c1
REMARK SMILES IDX 3 1 4 2 5 3 9 4 8 5 7 6 6 7 10 8 2 9 1 11
REMARK H PARENT 6 10 1 12
REMARK Flexibility Score: inf
ROOT
ATOM      1  C   UNL     1     106.582 111.808 104.519  1.00  0.00     0.048 A 
ATOM      2  C   UNL     1     107.546 111.010 103.875  1.00  0.00     0.030 A 
ATOM      3  C   UNL     1     108.709 110.700 104.577  1.00  0.00     0.046 A 
ATOM      4  C   UNL     1     108.920 111.150 105.853  1.00  0.00     0.003 A 
ATOM      5  C   UNL     1     110.147 110.674 106.259  1.00  0.00     0.028 A 
ATOM      6  C   UNL     1     110.629 109.941 105.179  1.00  0.00     0.083 A 
ATOM      7  N   UNL     1     109.746 109.959 104.154  1.00  0.00    -0.361 N 
ATOM      8  C   UNL     1     107.988 111.941 106.519  1.00  0.00     0.056 A 
ATOM      9  C   UNL     1     106.798 112.274 105.836  1.00  0.00     0.116 A 
ATOM     10  H   UNL     1     109.853 109.493 103.226  1.00  0.00     0.166 HD
ENDROOT
BRANCH   9  11
ATOM     11  O   UNL     1     105.829 113.062 106.451  1.00  0.00    -0.508 OA
ATOM     12  H   UNL     1     105.792 113.167 107.458  1.00  0.00     0.293 HD
ENDBRANCH   9  11
TORSDOF 1
ENDMDL
