MODEL 1
REMARK VINA RESULT:    -3.506      0.000      0.000
REMARK INTER + INTRA:          -5.533
REMARK INTER:                  -5.145
REMARK INTRA:                  -0.388
REMARK UNBOUND:                -0.388
REMARK SMILES O=C([O-])CCCCCCCC(=O)[O-]
REMARK SMILES IDX 7 1 6 2 5 3 4 4 2 5 1 6 3 7 8 8 9 9 10 10 11 11 12 12 13 13
REMARK H PARENT
REMARK Flexibility Score: inf
ROOT
ATOM      1  C   UNL     1       7.841  -2.608  20.679  1.00  0.00     0.000 C 
ENDROOT
BRANCH   1   2
ATOM      2  C   UNL     1       9.358  -2.362  20.735  1.00  0.00     0.000 C 
BRANCH   2   3
ATOM      3  C   UNL     1      10.178  -3.625  20.417  1.00  0.00     0.006 C 
BRANCH   3   4
ATOM      4  C   UNL     1       9.589  -4.499  19.297  1.00  0.00     0.053 C 
BRANCH   4   5
ATOM      5  C   UNL     1       9.676  -5.960  19.620  1.00  0.00     0.041 C 
ATOM      6  O   UNL     1       9.197  -6.813  18.827  1.00  0.00    -0.550 OA
ATOM      7  O   UNL     1      10.316  -6.380  20.779  1.00  0.00    -0.550 OA
ENDBRANCH   4   5
ENDBRANCH   3   4
ENDBRANCH   2   3
ENDBRANCH   1   2
BRANCH   1   8
ATOM      8  C   UNL     1       7.140  -1.731  19.628  1.00  0.00     0.000 C 
BRANCH   8   9
ATOM      9  C   UNL     1       6.118  -2.514  18.786  1.00  0.00     0.006 C 
BRANCH   9  10
ATOM     10  C   UNL     1       5.362  -1.610  17.804  1.00  0.00     0.053 C 
BRANCH  10  11
ATOM     11  C   UNL     1       5.758  -1.875  16.385  1.00  0.00     0.041 C 
ATOM     12  O   UNL     1       4.980  -1.572  15.442  1.00  0.00    -0.550 OA
ATOM     13  O   UNL     1       6.970  -2.492  16.104  1.00  0.00    -0.550 OA
ENDBRANCH  10  11
ENDBRANCH   9  10
ENDBRANCH   8   9
ENDBRANCH   1   8
TORSDOF 8
ENDMDL
MODEL 2
REMARK VINA RESULT:    -3.377      1.235      5.123
REMARK INTER + INTRA:          -5.345
REMARK INTER:                  -4.726
REMARK INTRA:                  -0.619
REMARK UNBOUND:                -0.388
REMARK SMILES O=C([O-])CCCCCCCC(=O)[O-]
REMARK SMILES IDX 7 1 6 2 5 3 4 4 2 5 1 6 3 7 8 8 9 9 10 10 11 11 12 12 13 13
REMARK H PARENT
REMARK Flexibility Score: inf
ROOT
ATOM      1  C   UNL     1       8.839  -2.160  19.674  1.00  0.00     0.000 C 
ENDROOT
BRANCH   1   2
ATOM      2  C   UNL     1       7.329  -2.231  19.954  1.00  0.00     0.000 C 
BRANCH   2   3
ATOM      3  C   UNL     1       6.537  -2.859  18.792  1.00  0.00     0.006 C 
BRANCH   3   4
ATOM      4  C   UNL     1       5.746  -1.850  17.944  1.00  0.00     0.053 C 
BRANCH   4   5
ATOM      5  C   UNL     1       6.005  -2.022  16.479  1.00  0.00     0.041 C 
ATOM      6  O   UNL     1       7.094  -2.513  16.081  1.00  0.00    -0.550 OA
ATOM      7  O   UNL     1       5.028  -1.671  15.554  1.00  0.00    -0.550 OA
ENDBRANCH   4   5
ENDBRANCH   3   4
ENDBRANCH   2   3
ENDBRANCH   1   2
BRANCH   1   8
ATOM      8  C   UNL     1       9.645  -3.148  20.534  1.00  0.00     0.000 C 
BRANCH   8   9
ATOM      9  C   UNL     1      10.327  -4.245  19.698  1.00  0.00     0.006 C 
BRANCH   9  10
ATOM     10  C   UNL     1       9.473  -5.516  19.604  1.00  0.00     0.053 C 
BRANCH  10  11
ATOM     11  C   UNL     1       8.855  -5.672  18.249  1.00  0.00     0.041 C 
ATOM     12  O   UNL     1       9.122  -4.851  17.333  1.00  0.00    -0.550 OA
ATOM     13  O   UNL     1       7.958  -6.704  18.008  1.00  0.00    -0.550 OA
ENDBRANCH  10  11
ENDBRANCH   9  10
ENDBRANCH   8   9
ENDBRANCH   1   8
TORSDOF 8
ENDMDL
MODEL 3
REMARK VINA RESULT:    -3.357      0.790      5.502
REMARK INTER + INTRA:          -5.315
REMARK INTER:                  -4.754
REMARK INTRA:                  -0.561
REMARK UNBOUND:                -0.388
REMARK SMILES O=C([O-])CCCCCCCC(=O)[O-]
REMARK SMILES IDX 7 1 6 2 5 3 4 4 2 5 1 6 3 7 8 8 9 9 10 10 11 11 12 12 13 13
REMARK H PARENT
REMARK Flexibility Score: inf
ROOT
ATOM      1  C   UNL     1       8.439  -1.338  19.139  1.00  0.00     0.000 C 
ENDROOT
BRANCH   1   2
ATOM      2  C   UNL     1       7.285  -2.126  19.780  1.00  0.00     0.000 C 
BRANCH   2   3
ATOM      3  C   UNL     1       6.349  -2.765  18.738  1.00  0.00     0.006 C 
BRANCH   3   4
ATOM      4  C   UNL     1       5.605  -1.755  17.850  1.00  0.00     0.053 C 
BRANCH   4   5
ATOM      5  C   UNL     1       5.896  -1.963  16.395  1.00  0.00     0.041 C 
ATOM      6  O   UNL     1       5.025  -1.687  15.528  1.00  0.00    -0.550 OA
ATOM      7  O   UNL     1       7.142  -2.431  15.995  1.00  0.00    -0.550 OA
ENDBRANCH   4   5
ENDBRANCH   3   4
ENDBRANCH   2   3
ENDBRANCH   1   2
BRANCH   1   8
ATOM      8  C   UNL     1       9.820  -1.872  19.553  1.00  0.00     0.000 C 
BRANCH   8   9
ATOM      9  C   UNL     1       9.730  -3.066  20.519  1.00  0.00     0.006 C 
BRANCH   9  10
ATOM     10  C   UNL     1      10.556  -4.265  20.036  1.00  0.00     0.053 C 
BRANCH  10  11
ATOM     11  C   UNL     1       9.704  -5.477  19.819  1.00  0.00     0.041 C 
ATOM     12  O   UNL     1       9.850  -6.493  20.548  1.00  0.00    -0.550 OA
ATOM     13  O   UNL     1       8.773  -5.498  18.789  1.00  0.00    -0.550 OA
ENDBRANCH  10  11
ENDBRANCH   9  10
ENDBRANCH   8   9
ENDBRANCH   1   8
TORSDOF 8
ENDMDL
MODEL 4
REMARK VINA RESULT:    -3.272      8.231      9.793
REMARK INTER + INTRA:          -5.191
REMARK INTER:                  -4.771
REMARK INTRA:                  -0.419
REMARK UNBOUND:                -0.388
REMARK SMILES O=C([O-])CCCCCCCC(=O)[O-]
REMARK SMILES IDX 7 1 6 2 5 3 4 4 2 5 1 6 3 7 8 8 9 9 10 10 11 11 12 12 13 13
REMARK H PARENT
REMARK Flexibility Score: inf
ROOT
ATOM      1  C   UNL     1       0.233  -2.471  10.201  1.00  0.00     0.000 C 
ENDROOT
BRANCH   1   2
ATOM      2  C   UNL     1       0.652  -3.948  10.124  1.00  0.00     0.000 C 
BRANCH   2   3
ATOM      3  C   UNL     1       1.059  -4.524  11.493  1.00  0.00     0.006 C 
BRANCH   3   4
ATOM      4  C   UNL     1       1.212  -6.054  11.518  1.00  0.00     0.053 C 
BRANCH   4   5
ATOM      5  C   UNL     1       2.557  -6.477  12.025  1.00  0.00     0.041 C 
ATOM      6  O   UNL     1       3.600  -6.163  11.394  1.00  0.00    -0.550 OA
ATOM      7  O   UNL     1       2.660  -7.187  13.215  1.00  0.00    -0.550 OA
ENDBRANCH   4   5
ENDBRANCH   3   4
ENDBRANCH   2   3
ENDBRANCH   1   2
BRANCH   1   8
ATOM      8  C   UNL     1       1.401  -1.547  10.588  1.00  0.00     0.000 C 
BRANCH   8   9
ATOM      9  C   UNL     1       1.211  -0.895  11.969  1.00  0.00     0.006 C 
BRANCH   9  10
ATOM     10  C   UNL     1       2.526  -0.344  12.534  1.00  0.00     0.053 C 
BRANCH  10  11
ATOM     11  C   UNL     1       3.620  -1.366  12.494  1.00  0.00     0.041 C 
ATOM     12  O   UNL     1       4.643  -1.171  11.786  1.00  0.00    -0.550 OA
ATOM     13  O   UNL     1       3.494  -2.549  13.209  1.00  0.00    -0.550 OA
ENDBRANCH  10  11
ENDBRANCH   9  10
ENDBRANCH   8   9
ENDBRANCH   1   8
TORSDOF 8
ENDMDL
MODEL 5
REMARK VINA RESULT:    -3.233      1.270      5.724
REMARK INTER + INTRA:          -5.133
REMARK INTER:                  -4.539
REMARK INTRA:                  -0.595
REMARK UNBOUND:                -0.388
REMARK SMILES O=C([O-])CCCCCCCC(=O)[O-]
REMARK SMILES IDX 7 1 6 2 5 3 4 4 2 5 1 6 3 7 8 8 9 9 10 10 11 11 12 12 13 13
REMARK H PARENT
REMARK Flexibility Score: inf
ROOT
ATOM      1  C   UNL     1       7.276  -2.621  19.941  1.00  0.00     0.000 C 
ENDROOT
BRANCH   1   2
ATOM      2  C   UNL     1       6.553  -1.415  19.318  1.00  0.00     0.000 C 
BRANCH   2   3
ATOM      3  C   UNL     1       5.480  -1.828  18.294  1.00  0.00     0.006 C 
BRANCH   3   4
ATOM      4  C   UNL     1       5.997  -1.959  16.851  1.00  0.00     0.053 C 
BRANCH   4   5
ATOM      5  C   UNL     1       5.243  -1.079  15.902  1.00  0.00     0.041 C 
ATOM      6  O   UNL     1       4.756  -1.558  14.844  1.00  0.00    -0.550 OA
ATOM      7  O   UNL     1       5.048   0.264  16.203  1.00  0.00    -0.550 OA
ENDBRANCH   4   5
ENDBRANCH   3   4
ENDBRANCH   2   3
ENDBRANCH   1   2
BRANCH   1   8
ATOM      8  C   UNL     1       8.806  -2.516  19.822  1.00  0.00     0.000 C 
BRANCH   8   9
ATOM      9  C   UNL     1       9.392  -3.508  18.802  1.00  0.00     0.006 C 
BRANCH   9  10
ATOM     10  C   UNL     1       8.365  -4.560  18.364  1.00  0.00     0.053 C 
BRANCH  10  11
ATOM     11  C   UNL     1       8.828  -5.951  18.673  1.00  0.00     0.041 C 
ATOM     12  O   UNL     1       8.527  -6.904  17.906  1.00  0.00    -0.550 OA
ATOM     13  O   UNL     1       9.559  -6.201  19.826  1.00  0.00    -0.550 OA
ENDBRANCH  10  11
ENDBRANCH   9  10
ENDBRANCH   8   9
ENDBRANCH   1   8
TORSDOF 8
ENDMDL
MODEL 6
REMARK VINA RESULT:    -3.200      8.081      8.824
REMARK INTER + INTRA:          -5.084
REMARK INTER:                  -4.735
REMARK INTRA:                  -0.349
REMARK UNBOUND:                -0.388
REMARK SMILES O=C([O-])CCCCCCCC(=O)[O-]
REMARK SMILES IDX 7 1 6 2 5 3 4 4 2 5 1 6 3 7 8 8 9 9 10 10 11 11 12 12 13 13
REMARK H PARENT
REMARK Flexibility Score: inf
ROOT
ATOM      1  C   UNL     1      -0.998  -1.400  22.315  1.00  0.00     0.000 C 
ENDROOT
BRANCH   1   2
ATOM      2  C   UNL     1      -0.135  -2.640  22.601  1.00  0.00     0.000 C 
BRANCH   2   3
ATOM      3  C   UNL     1       0.461  -2.637  24.021  1.00  0.00     0.006 C 
BRANCH   3   4
ATOM      4  C   UNL     1       1.395  -3.821  24.320  1.00  0.00     0.053 C 
BRANCH   4   5
ATOM      5  C   UNL     1       0.654  -5.122  24.376  1.00  0.00     0.041 C 
ATOM      6  O   UNL     1      -0.370  -5.237  25.100  1.00  0.00    -0.550 OA
ATOM      7  O   UNL     1       1.075  -6.197  23.602  1.00  0.00    -0.550 OA
ENDBRANCH   4   5
ENDBRANCH   3   4
ENDBRANCH   2   3
ENDBRANCH   1   2
BRANCH   1   8
ATOM      8  C   UNL     1      -1.049  -1.049  20.818  1.00  0.00     0.000 C 
BRANCH   8   9
ATOM      9  C   UNL     1       0.309  -0.577  20.271  1.00  0.00     0.006 C 
BRANCH   9  10
ATOM     10  C   UNL     1       0.765   0.739  20.915  1.00  0.00     0.053 C 
BRANCH  10  11
ATOM     11  C   UNL     1       1.087   1.779  19.886  1.00  0.00     0.041 C 
ATOM     12  O   UNL     1       1.047   3.001  20.186  1.00  0.00    -0.550 OA
ATOM     13  O   UNL     1       1.395   1.400  18.586  1.00  0.00    -0.550 OA
ENDBRANCH  10  11
ENDBRANCH   9  10
ENDBRANCH   8   9
ENDBRANCH   1   8
TORSDOF 8
ENDMDL
MODEL 7
REMARK VINA RESULT:    -3.185      8.198     10.118
REMARK INTER + INTRA:          -5.063
REMARK INTER:                  -4.428
REMARK INTRA:                  -0.635
REMARK UNBOUND:                -0.388
REMARK SMILES O=C([O-])CCCCCCCC(=O)[O-]
REMARK SMILES IDX 7 1 6 2 5 3 4 4 2 5 1 6 3 7 8 8 9 9 10 10 11 11 12 12 13 13
REMARK H PARENT
REMARK Flexibility Score: inf
ROOT
ATOM      1  C   UNL     1       0.552  -2.146  10.491  1.00  0.00     0.000 C 
ENDROOT
BRANCH   1   2
ATOM      2  C   UNL     1       1.058  -1.388  11.730  1.00  0.00     0.000 C 
BRANCH   2   3
ATOM      3  C   UNL     1       1.810  -0.094  11.370  1.00  0.00     0.006 C 
BRANCH   3   4
ATOM      4  C   UNL     1       3.020   0.207  12.269  1.00  0.00     0.053 C 
BRANCH   4   5
ATOM      5  C   UNL     1       3.928  -0.976  12.407  1.00  0.00     0.041 C 
ATOM      6  O   UNL     1       4.627  -1.356  11.430  1.00  0.00    -0.550 OA
ATOM      7  O   UNL     1       4.028  -1.639  13.625  1.00  0.00    -0.550 OA
ENDBRANCH   4   5
ENDBRANCH   3   4
ENDBRANCH   2   3
ENDBRANCH   1   2
BRANCH   1   8
ATOM      8  C   UNL     1       0.800  -3.661  10.584  1.00  0.00     0.000 C 
BRANCH   8   9
ATOM      9  C   UNL     1       2.266  -4.004  10.906  1.00  0.00     0.006 C 
BRANCH   9  10
ATOM     10  C   UNL     1       2.413  -4.679  12.276  1.00  0.00     0.053 C 
BRANCH  10  11
ATOM     11  C   UNL     1       2.004  -6.119  12.233  1.00  0.00     0.041 C 
ATOM     12  O   UNL     1       2.588  -6.921  11.458  1.00  0.00    -0.550 OA
ATOM     13  O   UNL     1       0.953  -6.568  13.022  1.00  0.00    -0.550 OA
ENDBRANCH  10  11
ENDBRANCH   9  10
ENDBRANCH   8   9
ENDBRANCH   1   8
TORSDOF 8
ENDMDL
MODEL 8
REMARK VINA RESULT:    -3.118      1.444      2.500
REMARK INTER + INTRA:          -4.964
REMARK INTER:                  -4.673
REMARK INTRA:                  -0.291
REMARK UNBOUND:                -0.388
REMARK SMILES O=C([O-])CCCCCCCC(=O)[O-]
REMARK SMILES IDX 7 1 6 2 5 3 4 4 2 5 1 6 3 7 8 8 9 9 10 10 11 11 12 12 13 13
REMARK H PARENT
REMARK Flexibility Score: inf
ROOT
ATOM      1  C   UNL     1       6.156  -2.591  18.913  1.00  0.00     0.000 C 
ENDROOT
BRANCH   1   2
ATOM      2  C   UNL     1       7.272  -1.818  19.635  1.00  0.00     0.000 C 
BRANCH   2   3
ATOM      3  C   UNL     1       8.072  -2.700  20.611  1.00  0.00     0.006 C 
BRANCH   3   4
ATOM      4  C   UNL     1       9.429  -3.177  20.069  1.00  0.00     0.053 C 
BRANCH   4   5
ATOM      5  C   UNL     1       9.366  -4.581  19.550  1.00  0.00     0.041 C 
ATOM      6  O   UNL     1       9.772  -5.538  20.261  1.00  0.00    -0.550 OA
ATOM      7  O   UNL     1       8.826  -4.835  18.295  1.00  0.00    -0.550 OA
ENDBRANCH   4   5
ENDBRANCH   3   4
ENDBRANCH   2   3
ENDBRANCH   1   2
BRANCH   1   8
ATOM      8  C   UNL     1       5.191  -1.663  18.156  1.00  0.00     0.000 C 
BRANCH   8   9
ATOM      9  C   UNL     1       5.477  -1.613  16.645  1.00  0.00     0.006 C 
BRANCH   9  10
ATOM     10  C   UNL     1       5.120  -0.252  16.034  1.00  0.00     0.053 C 
BRANCH  10  11
ATOM     11  C   UNL     1       4.810  -0.362  14.573  1.00  0.00     0.041 C 
ATOM     12  O   UNL     1       4.327  -1.428  14.107  1.00  0.00    -0.550 OA
ATOM     13  O   UNL     1       5.087   0.698  13.720  1.00  0.00    -0.550 OA
ENDBRANCH  10  11
ENDBRANCH   9  10
ENDBRANCH   8   9
ENDBRANCH   1   8
TORSDOF 8
ENDMDL
MODEL 9
REMARK VINA RESULT:    -3.116      8.503     10.855
REMARK INTER + INTRA:          -4.962
REMARK INTER:                  -4.664
REMARK INTRA:                  -0.298
REMARK UNBOUND:                -0.388
REMARK SMILES O=C([O-])CCCCCCCC(=O)[O-]
REMARK SMILES IDX 7 1 6 2 5 3 4 4 2 5 1 6 3 7 8 8 9 9 10 10 11 11 12 12 13 13
REMARK H PARENT
REMARK Flexibility Score: inf
ROOT
ATOM      1  C   UNL     1       0.232  -3.125  22.797  1.00  0.00     0.000 C 
ENDROOT
BRANCH   1   2
ATOM      2  C   UNL     1      -1.029  -2.269  23.000  1.00  0.00     0.000 C 
BRANCH   2   3
ATOM      3  C   UNL     1      -1.283  -1.298  21.833  1.00  0.00     0.006 C 
BRANCH   3   4
ATOM      4  C   UNL     1      -0.190  -1.306  20.751  1.00  0.00     0.053 C 
BRANCH   4   5
ATOM      5  C   UNL     1       0.540   0.000  20.681  1.00  0.00     0.041 C 
ATOM      6  O   UNL     1       0.389   0.861  21.588  1.00  0.00    -0.550 OA
ATOM      7  O   UNL     1       1.415   0.253  19.630  1.00  0.00    -0.550 OA
ENDBRANCH   4   5
ENDBRANCH   3   4
ENDBRANCH   2   3
ENDBRANCH   1   2
BRANCH   1   8
ATOM      8  C   UNL     1       0.755  -3.726  24.113  1.00  0.00     0.000 C 
BRANCH   8   9
ATOM      9  C   UNL     1       0.683  -5.264  24.134  1.00  0.00     0.006 C 
BRANCH   9  10
ATOM     10  C   UNL     1      -0.259  -5.784  25.227  1.00  0.00     0.053 C 
BRANCH  10  11
ATOM     11  C   UNL     1       0.037  -7.207  25.585  1.00  0.00     0.041 C 
ATOM     12  O   UNL     1       0.075  -8.091  24.689  1.00  0.00    -0.550 OA
ATOM     13  O   UNL     1       0.233  -7.565  26.912  1.00  0.00    -0.550 OA
ENDBRANCH  10  11
ENDBRANCH   9  10
ENDBRANCH   8   9
ENDBRANCH   1   8
TORSDOF 8
ENDMDL
