MODEL 1
REMARK VINA RESULT:     6.515      0.000      0.000
REMARK INTER + INTRA:           6.705
REMARK INTER:                   6.705
REMARK INTRA:                   0.000
REMARK UNBOUND:                 0.000
REMARK SMILES C=C1[C@H]2C[C@@]3(C[C@@H]1O)[C@H](CC[C@@H]3C)C2(C)C
REMARK SMILES IDX 13 1 12 2 11 3 10 4 9 5 5 6 4 7 3 8 14 9 15 10 16 11 2 12
REMARK SMILES IDX 1 13 7 14 6 15 8 16
REMARK H PARENT 8 17
REMARK Flexibility Score: inf
ROOT
ATOM      1  C   UNL     1     -36.109  25.069   7.915  1.00  0.00     0.008 C 
ATOM      2  C   UNL     1     -37.267  24.973   6.911  1.00  0.00    -0.008 C 
ATOM      3  C   UNL     1     -36.845  24.265   5.627  1.00  0.00     0.004 C 
ATOM      4  C   UNL     1     -38.147  23.816   4.991  1.00  0.00     0.005 C 
ATOM      5  C   UNL     1     -39.024  23.386   6.177  1.00  0.00     0.002 C 
ATOM      6  C   UNL     1     -38.545  24.219   7.393  1.00  0.00    -0.020 C 
ATOM      7  C   UNL     1     -39.715  25.157   7.705  1.00  0.00     0.016 C 
ATOM      8  C   UNL     1     -40.908  24.247   7.458  1.00  0.00     0.023 C 
ATOM      9  C   UNL     1     -40.576  23.581   6.090  1.00  0.00    -0.025 C 
ATOM     10  C   UNL     1     -41.042  24.515   4.942  1.00  0.00     0.012 C 
ATOM     11  C   UNL     1     -41.301  22.228   5.883  1.00  0.00     0.012 C 
ATOM     12  C   UNL     1     -40.945  23.237   8.605  1.00  0.00    -0.045 C 
ATOM     13  C   UNL     1     -42.125  22.857   9.122  1.00  0.00     0.011 C 
ATOM     14  C   UNL     1     -39.657  22.593   9.120  1.00  0.00     0.140 C 
ATOM     15  C   UNL     1     -38.350  23.301   8.639  1.00  0.00     0.044 C 
ENDROOT
BRANCH  14  16
ATOM     16  O   UNL     1     -39.638  21.240   8.744  1.00  0.00    -0.389 OA
ATOM     17  H   UNL     1     -40.549  21.017   8.417  1.00  0.00     0.211 HD
ENDBRANCH  14  16
TORSDOF 1
ENDMDL
MODEL 2
REMARK VINA RESULT:     7.123      1.944      4.189
REMARK INTER + INTRA:           7.331
REMARK INTER:                   7.331
REMARK INTRA:                   0.000
REMARK UNBOUND:                 0.000
REMARK SMILES C=C1[C@H]2C[C@@]3(C[C@@H]1O)[C@H](CC[C@@H]3C)C2(C)C
REMARK SMILES IDX 13 1 12 2 11 3 10 4 9 5 5 6 4 7 3 8 14 9 15 10 16 11 2 12
REMARK SMILES IDX 1 13 7 14 6 15 8 16
REMARK H PARENT 8 17
REMARK Flexibility Score: inf
ROOT
ATOM      1  C   UNL     1     -42.122  20.756   9.065  1.00  0.00     0.008 C 
ATOM      2  C   UNL     1     -41.162  21.955   9.041  1.00  0.00    -0.008 C 
ATOM      3  C   UNL     1     -39.704  21.512   9.123  1.00  0.00     0.004 C 
ATOM      4  C   UNL     1     -38.914  22.696   8.597  1.00  0.00     0.005 C 
ATOM      5  C   UNL     1     -39.771  23.247   7.448  1.00  0.00     0.002 C 
ATOM      6  C   UNL     1     -41.238  22.882   7.788  1.00  0.00    -0.020 C 
ATOM      7  C   UNL     1     -41.916  24.225   8.075  1.00  0.00     0.016 C 
ATOM      8  C   UNL     1     -41.271  25.120   7.028  1.00  0.00     0.023 C 
ATOM      9  C   UNL     1     -39.755  24.786   7.153  1.00  0.00    -0.025 C 
ATOM     10  C   UNL     1     -39.135  25.649   8.284  1.00  0.00     0.012 C 
ATOM     11  C   UNL     1     -38.957  25.103   5.864  1.00  0.00     0.012 C 
ATOM     12  C   UNL     1     -41.849  24.712   5.673  1.00  0.00    -0.045 C 
ATOM     13  C   UNL     1     -42.124  25.651   4.754  1.00  0.00     0.011 C 
ATOM     14  C   UNL     1     -42.045  23.236   5.320  1.00  0.00     0.140 C 
ATOM     15  C   UNL     1     -41.950  22.268   6.543  1.00  0.00     0.044 C 
ENDROOT
BRANCH  14  16
ATOM     16  O   UNL     1     -41.106  22.869   4.342  1.00  0.00    -0.389 OA
ATOM     17  H   UNL     1     -41.608  22.731   3.497  1.00  0.00     0.211 HD
ENDBRANCH  14  16
TORSDOF 1
ENDMDL
MODEL 3
REMARK VINA RESULT:     9.090      1.961      3.260
REMARK INTER + INTRA:           9.355
REMARK INTER:                   9.355
REMARK INTRA:                   0.000
REMARK UNBOUND:                 0.000
REMARK SMILES C=C1[C@H]2C[C@@]3(C[C@@H]1O)[C@H](CC[C@@H]3C)C2(C)C
REMARK SMILES IDX 13 1 12 2 11 3 10 4 9 5 5 6 4 7 3 8 14 9 15 10 16 11 2 12
REMARK SMILES IDX 1 13 7 14 6 15 8 16
REMARK H PARENT 8 17
REMARK Flexibility Score: inf
ROOT
ATOM      1  C   UNL     1     -41.867  27.448   6.723  1.00  0.00     0.008 C 
ATOM      2  C   UNL     1     -42.040  26.044   6.124  1.00  0.00    -0.008 C 
ATOM      3  C   UNL     1     -41.687  26.018   4.639  1.00  0.00     0.004 C 
ATOM      4  C   UNL     1     -41.424  24.554   4.334  1.00  0.00     0.005 C 
ATOM      5  C   UNL     1     -40.705  24.027   5.585  1.00  0.00     0.002 C 
ATOM      6  C   UNL     1     -41.191  24.904   6.767  1.00  0.00    -0.020 C 
ATOM      7  C   UNL     1     -42.022  23.955   7.637  1.00  0.00     0.016 C 
ATOM      8  C   UNL     1     -41.212  22.671   7.545  1.00  0.00     0.023 C 
ATOM      9  C   UNL     1     -40.922  22.537   6.020  1.00  0.00    -0.025 C 
ATOM     10  C   UNL     1     -42.125  21.837   5.333  1.00  0.00     0.012 C 
ATOM     11  C   UNL     1     -39.672  21.675   5.715  1.00  0.00     0.012 C 
ATOM     12  C   UNL     1     -39.939  22.885   8.364  1.00  0.00    -0.045 C 
ATOM     13  C   UNL     1     -39.443  21.879   9.102  1.00  0.00     0.011 C 
ATOM     14  C   UNL     1     -39.177  24.210   8.292  1.00  0.00     0.140 C 
ATOM     15  C   UNL     1     -39.981  25.375   7.630  1.00  0.00     0.044 C 
ENDROOT
BRANCH  14  16
ATOM     16  O   UNL     1     -37.969  24.008   7.606  1.00  0.00    -0.389 OA
ATOM     17  H   UNL     1     -38.200  23.844   6.655  1.00  0.00     0.211 HD
ENDBRANCH  14  16
TORSDOF 1
ENDMDL
