MODEL 1
REMARK VINA RESULT:    -4.185      0.000      0.000
REMARK INTER + INTRA:          -8.128
REMARK INTER:                  -6.387
REMARK INTRA:                  -1.741
REMARK UNBOUND:                -1.741
REMARK SMILES OC[C@@H]1O[C@@H](O[C@@]2(CO)O[C@H](CO)[C@H](O)[C@H]2O)[C@@H](O)[C@@H](O)[C@H]1O
REMARK SMILES IDX 6 1 5 2 3 3 22 4 4 5 20 6 18 7 2 8 1 9 23 11 21 13 19 15
REMARK SMILES IDX 7 17 16 18 10 19 14 20 11 21 8 22 9 23 17 25 15 27 12 29
REMARK SMILES IDX 13 30
REMARK H PARENT 1 10 23 12 21 14 19 16 9 24 17 26 15 28 13 31
REMARK Flexibility Score: inf
ROOT
ATOM      1  O   UNL     1     115.311 120.027 111.809  1.00  0.00    -0.313 OA
ENDROOT
BRANCH   1   2
ATOM      2  C   UNL     1     114.721 120.765 110.744  1.00  0.00     0.285 C 
ATOM      3  C   UNL     1     116.122 119.764 109.140  1.00  0.00     0.178 C 
ATOM      4  C   UNL     1     116.893 121.080 108.867  1.00  0.00     0.177 C 
ATOM      5  O   UNL     1     114.785 120.042 109.524  1.00  0.00    -0.341 OA
ATOM      6  C   UNL     1     116.859 121.978 110.115  1.00  0.00     0.179 C 
ATOM      7  C   UNL     1     115.406 122.136 110.603  1.00  0.00     0.202 C 
BRANCH   3   8
ATOM      8  C   UNL     1     116.076 118.873 107.887  1.00  0.00     0.191 C 
BRANCH   8   9
ATOM      9  O   UNL     1     117.278 118.172 107.714  1.00  0.00    -0.394 OA
ATOM     10  H   UNL     1     118.002 118.852 107.684  1.00  0.00     0.210 HD
ENDBRANCH   8   9
ENDBRANCH   3   8
BRANCH   4  11
ATOM     11  O   UNL     1     118.225 120.800 108.520  1.00  0.00    -0.387 OA
ATOM     12  H   UNL     1     118.657 121.671 108.318  1.00  0.00     0.211 HD
ENDBRANCH   4  11
BRANCH   6  13
ATOM     13  O   UNL     1     117.664 121.418 111.125  1.00  0.00    -0.387 OA
ATOM     14  H   UNL     1     117.060 121.163 111.870  1.00  0.00     0.211 HD
ENDBRANCH   6  13
BRANCH   7  15
ATOM     15  O   UNL     1     115.362 122.816 111.831  1.00  0.00    -0.385 OA
ATOM     16  H   UNL     1     115.709 123.731 111.663  1.00  0.00     0.211 HD
ENDBRANCH   7  15
ENDBRANCH   1   2
BRANCH   1  17
ATOM     17  C   UNL     1     114.373 119.555 112.775  1.00  0.00     0.224 C 
ATOM     18  C   UNL     1     114.972 119.741 114.178  1.00  0.00     0.208 C 
ATOM     19  O   UNL     1     114.116 118.167 112.615  1.00  0.00    -0.337 OA
ATOM     20  C   UNL     1     115.718 118.447 114.390  1.00  0.00     0.180 C 
ATOM     21  C   UNL     1     114.894 117.453 113.559  1.00  0.00     0.179 C 
BRANCH  17  22
ATOM     22  C   UNL     1     113.059 120.355 112.644  1.00  0.00     0.225 C 
BRANCH  22  23
ATOM     23  O   UNL     1     113.052 121.438 113.533  1.00  0.00    -0.391 OA
ATOM     24  H   UNL     1     113.954 121.848 113.477  1.00  0.00     0.210 HD
ENDBRANCH  22  23
ENDBRANCH  17  22
BRANCH  18  25
ATOM     25  O   UNL     1     115.790 120.884 114.293  1.00  0.00    -0.385 OA
ATOM     26  H   UNL     1     116.722 120.595 114.473  1.00  0.00     0.211 HD
ENDBRANCH  18  25
BRANCH  20  27
ATOM     27  O   UNL     1     115.787 118.103 115.750  1.00  0.00    -0.387 OA
ATOM     28  H   UNL     1     116.428 117.348 115.817  1.00  0.00     0.211 HD
ENDBRANCH  20  27
BRANCH  21  29
ATOM     29  C   UNL     1     113.968 116.539 114.381  1.00  0.00     0.191 C 
BRANCH  29  30
ATOM     30  O   UNL     1     114.691 115.498 114.984  1.00  0.00    -0.394 OA
ATOM     31  H   UNL     1     115.060 115.851 115.834  1.00  0.00     0.210 HD
ENDBRANCH  29  30
ENDBRANCH  21  29
ENDBRANCH   1  17
TORSDOF 13
ENDMDL
MODEL 2
REMARK VINA RESULT:    -4.175      7.003      8.467
REMARK INTER + INTRA:          -8.113
REMARK INTER:                  -6.405
REMARK INTRA:                  -1.708
REMARK UNBOUND:                -1.741
REMARK SMILES OC[C@@H]1O[C@@H](O[C@@]2(CO)O[C@H](CO)[C@H](O)[C@H]2O)[C@@H](O)[C@@H](O)[C@H]1O
REMARK SMILES IDX 6 1 5 2 3 3 22 4 4 5 20 6 18 7 2 8 1 9 23 11 21 13 19 15
REMARK SMILES IDX 7 17 16 18 10 19 14 20 11 21 8 22 9 23 17 25 15 27 12 29
REMARK SMILES IDX 13 30
REMARK H PARENT 1 10 23 12 21 14 19 16 9 24 17 26 15 28 13 31
REMARK Flexibility Score: inf
ROOT
ATOM      1  O   UNL     1     121.897 115.854 111.819  1.00  0.00    -0.313 OA
ENDROOT
BRANCH   1   2
ATOM      2  C   UNL     1     121.535 114.985 110.751  1.00  0.00     0.285 C 
ATOM      3  C   UNL     1     121.758 116.697 109.150  1.00  0.00     0.178 C 
ATOM      4  C   UNL     1     120.236 116.749 108.869  1.00  0.00     0.177 C 
ATOM      5  O   UNL     1     122.148 115.387 109.535  1.00  0.00    -0.341 OA
ATOM      6  C   UNL     1     119.454 116.290 110.111  1.00  0.00     0.179 C 
ATOM      7  C   UNL     1     120.003 114.936 110.600  1.00  0.00     0.202 C 
BRANCH   3   8
ATOM      8  C   UNL     1     122.571 117.082 107.902  1.00  0.00     0.191 C 
BRANCH   8   9
ATOM      9  O   UNL     1     122.525 118.464 107.670  1.00  0.00    -0.394 OA
ATOM     10  H   UNL     1     122.671 118.905 108.548  1.00  0.00     0.210 HD
ENDBRANCH   8   9
ENDBRANCH   3   8
BRANCH   4  11
ATOM     11  O   UNL     1     119.850 118.054 108.520  1.00  0.00    -0.387 OA
ATOM     12  H   UNL     1     119.069 118.283 109.089  1.00  0.00     0.211 HD
ENDBRANCH   4  11
BRANCH   6  13
ATOM     13  O   UNL     1     119.557 117.263 111.123  1.00  0.00    -0.387 OA
ATOM     14  H   UNL     1     118.659 117.673 111.224  1.00  0.00     0.211 HD
ENDBRANCH   6  13
BRANCH   7  15
ATOM     15  O   UNL     1     119.419 114.572 111.824  1.00  0.00    -0.385 OA
ATOM     16  H   UNL     1     119.162 113.616 111.745  1.00  0.00     0.211 HD
ENDBRANCH   7  15
ENDBRANCH   1   2
BRANCH   1  17
ATOM     17  C   UNL     1     122.749 115.251 112.791  1.00  0.00     0.224 C 
ATOM     18  C   UNL     1     122.262 115.652 114.193  1.00  0.00     0.208 C 
ATOM     19  O   UNL     1     124.086 115.713 112.669  1.00  0.00    -0.337 OA
ATOM     20  C   UNL     1     123.015 116.935 114.447  1.00  0.00     0.180 C 
ATOM     21  C   UNL     1     124.304 116.723 113.638  1.00  0.00     0.179 C 
BRANCH  17  22
ATOM     22  C   UNL     1     122.703 113.716 112.629  1.00  0.00     0.225 C 
BRANCH  22  23
ATOM     23  O   UNL     1     121.724 113.162 113.464  1.00  0.00    -0.391 OA
ATOM     24  H   UNL     1     122.134 112.357 113.874  1.00  0.00     0.210 HD
ENDBRANCH  22  23
ENDBRANCH  17  22
BRANCH  18  25
ATOM     25  O   UNL     1     120.862 115.799 114.281  1.00  0.00    -0.385 OA
ATOM     26  H   UNL     1     120.487 115.014 114.756  1.00  0.00     0.211 HD
ENDBRANCH  18  25
BRANCH  20  27
ATOM     27  O   UNL     1     123.252 117.136 115.816  1.00  0.00    -0.387 OA
ATOM     28  H   UNL     1     124.063 116.611 116.041  1.00  0.00     0.211 HD
ENDBRANCH  20  27
BRANCH  21  29
ATOM     29  C   UNL     1     125.538 116.351 114.479  1.00  0.00     0.191 C 
BRANCH  29  30
ATOM     30  O   UNL     1     125.899 117.400 115.339  1.00  0.00    -0.394 OA
ATOM     31  H   UNL     1     125.657 117.120 116.260  1.00  0.00     0.210 HD
ENDBRANCH  29  30
ENDBRANCH  21  29
ENDBRANCH   1  17
TORSDOF 13
ENDMDL
MODEL 3
REMARK VINA RESULT:    -4.140      7.673      9.098
REMARK INTER + INTRA:          -8.060
REMARK INTER:                  -6.412
REMARK INTRA:                  -1.648
REMARK UNBOUND:                -1.741
REMARK SMILES OC[C@@H]1O[C@@H](O[C@@]2(CO)O[C@H](CO)[C@H](O)[C@H]2O)[C@@H](O)[C@@H](O)[C@H]1O
REMARK SMILES IDX 6 1 5 2 3 3 22 4 4 5 20 6 18 7 2 8 1 9 23 11 21 13 19 15
REMARK SMILES IDX 7 17 16 18 10 19 14 20 11 21 8 22 9 23 17 25 15 27 12 29
REMARK SMILES IDX 13 30
REMARK H PARENT 1 10 23 12 21 14 19 16 9 24 17 26 15 28 13 31
REMARK Flexibility Score: inf
ROOT
ATOM      1  O   UNL     1     122.142 124.475 111.647  1.00  0.00    -0.313 OA
ENDROOT
BRANCH   1   2
ATOM      2  C   UNL     1     122.209 125.891 111.780  1.00  0.00     0.285 C 
ATOM      3  C   UNL     1     119.866 126.094 111.881  1.00  0.00     0.178 C 
ATOM      4  C   UNL     1     119.783 126.797 110.503  1.00  0.00     0.177 C 
ATOM      5  O   UNL     1     121.102 126.388 112.515  1.00  0.00    -0.341 OA
ATOM      6  C   UNL     1     120.966 126.367 109.620  1.00  0.00     0.179 C 
ATOM      7  C   UNL     1     122.286 126.553 110.392  1.00  0.00     0.202 C 
BRANCH   3   8
ATOM      8  C   UNL     1     118.736 126.558 112.816  1.00  0.00     0.191 C 
BRANCH   8   9
ATOM      9  O   UNL     1     118.330 127.866 112.515  1.00  0.00    -0.394 OA
ATOM     10  H   UNL     1     117.358 127.823 112.315  1.00  0.00     0.210 HD
ENDBRANCH   8   9
ENDBRANCH   3   8
BRANCH   4  11
ATOM     11  O   UNL     1     118.573 126.475 109.866  1.00  0.00    -0.387 OA
ATOM     12  H   UNL     1     118.750 125.678 109.300  1.00  0.00     0.211 HD
ENDBRANCH   4  11
BRANCH   6  13
ATOM     13  O   UNL     1     120.803 125.025 109.229  1.00  0.00    -0.387 OA
ATOM     14  H   UNL     1     120.346 125.033 108.348  1.00  0.00     0.211 HD
ENDBRANCH   6  13
BRANCH   7  15
ATOM     15  O   UNL     1     123.366 126.018 109.672  1.00  0.00    -0.385 OA
ATOM     16  H   UNL     1     123.119 125.085 109.438  1.00  0.00     0.211 HD
ENDBRANCH   7  15
ENDBRANCH   1   2
BRANCH   1  17
ATOM     17  C   UNL     1     123.078 123.772 112.461  1.00  0.00     0.224 C 
ATOM     18  C   UNL     1     123.750 122.679 111.614  1.00  0.00     0.208 C 
ATOM     19  O   UNL     1     122.436 123.118 113.547  1.00  0.00    -0.337 OA
ATOM     20  C   UNL     1     122.825 121.503 111.804  1.00  0.00     0.180 C 
ATOM     21  C   UNL     1     122.260 121.754 113.210  1.00  0.00     0.179 C 
BRANCH  17  22
ATOM     22  C   UNL     1     124.137 124.763 112.993  1.00  0.00     0.225 C 
BRANCH  22  23
ATOM     23  O   UNL     1     125.249 124.072 113.493  1.00  0.00    -0.391 OA
ATOM     24  H   UNL     1     125.606 123.538 112.737  1.00  0.00     0.210 HD
ENDBRANCH  22  23
ENDBRANCH  17  22
BRANCH  18  25
ATOM     25  O   UNL     1     123.922 123.043 110.263  1.00  0.00    -0.385 OA
ATOM     26  H   UNL     1     123.863 124.030 110.186  1.00  0.00     0.211 HD
ENDBRANCH  18  25
BRANCH  20  27
ATOM     27  O   UNL     1     123.509 120.281 111.696  1.00  0.00    -0.387 OA
ATOM     28  H   UNL     1     122.992 119.726 111.056  1.00  0.00     0.211 HD
ENDBRANCH  20  27
BRANCH  21  29
ATOM     29  C   UNL     1     122.877 120.882 114.317  1.00  0.00     0.191 C 
BRANCH  29  30
ATOM     30  O   UNL     1     124.171 121.317 114.642  1.00  0.00    -0.394 OA
ATOM     31  H   UNL     1     124.171 121.543 115.608  1.00  0.00     0.210 HD
ENDBRANCH  29  30
ENDBRANCH  21  29
ENDBRANCH   1  17
TORSDOF 13
ENDMDL
MODEL 4
REMARK VINA RESULT:    -4.132      6.987      8.472
REMARK INTER + INTRA:          -8.048
REMARK INTER:                  -6.326
REMARK INTRA:                  -1.722
REMARK UNBOUND:                -1.741
REMARK SMILES OC[C@@H]1O[C@@H](O[C@@]2(CO)O[C@H](CO)[C@H](O)[C@H]2O)[C@@H](O)[C@@H](O)[C@H]1O
REMARK SMILES IDX 6 1 5 2 3 3 22 4 4 5 20 6 18 7 2 8 1 9 23 11 21 13 19 15
REMARK SMILES IDX 7 17 16 18 10 19 14 20 11 21 8 22 9 23 17 25 15 27 12 29
REMARK SMILES IDX 13 30
REMARK H PARENT 1 10 23 12 21 14 19 16 9 24 17 26 15 28 13 31
REMARK Flexibility Score: inf
ROOT
ATOM      1  O   UNL     1     122.226 123.560 111.839  1.00  0.00    -0.313 OA
ENDROOT
BRANCH   1   2
ATOM      2  C   UNL     1     123.176 123.686 110.786  1.00  0.00     0.285 C 
ATOM      3  C   UNL     1     121.615 123.001 109.162  1.00  0.00     0.178 C 
ATOM      4  C   UNL     1     122.349 121.663 108.898  1.00  0.00     0.177 C 
ATOM      5  O   UNL     1     122.538 124.004 109.558  1.00  0.00    -0.341 OA
ATOM      6  C   UNL     1     123.120 121.228 110.155  1.00  0.00     0.179 C 
ATOM      7  C   UNL     1     123.999 122.391 110.654  1.00  0.00     0.202 C 
BRANCH   3   8
ATOM      8  C   UNL     1     120.891 123.501 107.900  1.00  0.00     0.191 C 
BRANCH   8   9
ATOM      9  O   UNL     1     119.692 122.803 107.690  1.00  0.00    -0.394 OA
ATOM     10  H   UNL     1     119.822 122.256 106.872  1.00  0.00     0.210 HD
ENDBRANCH   8   9
ENDBRANCH   3   8
BRANCH   4  11
ATOM     11  O   UNL     1     121.426 120.665 108.539  1.00  0.00    -0.387 OA
ATOM     12  H   UNL     1     121.810 120.190 107.755  1.00  0.00     0.211 HD
ENDBRANCH   4  11
BRANCH   6  13
ATOM     13  O   UNL     1     122.214 120.826 111.154  1.00  0.00    -0.387 OA
ATOM     14  H   UNL     1     122.509 121.250 112.001  1.00  0.00     0.211 HD
ENDBRANCH   6  13
BRANCH   7  15
ATOM     15  O   UNL     1     124.589 122.078 111.889  1.00  0.00    -0.385 OA
ATOM     16  H   UNL     1     123.992 121.421 112.333  1.00  0.00     0.211 HD
ENDBRANCH   7  15
ENDBRANCH   1   2
BRANCH   1  17
ATOM     17  C   UNL     1     122.273 124.622 112.790  1.00  0.00     0.224 C 
ATOM     18  C   UNL     1     122.137 124.030 114.202  1.00  0.00     0.208 C 
ATOM     19  O   UNL     1     121.191 125.526 112.614  1.00  0.00    -0.337 OA
ATOM     20  C   UNL     1     120.643 124.018 114.410  1.00  0.00     0.180 C 
ATOM     21  C   UNL     1     120.184 125.212 113.560  1.00  0.00     0.179 C 
BRANCH  17  22
ATOM     22  C   UNL     1     123.616 125.372 112.652  1.00  0.00     0.225 C 
BRANCH  22  23
ATOM     23  O   UNL     1     124.555 124.870 113.562  1.00  0.00    -0.391 OA
ATOM     24  H   UNL     1     124.392 125.346 114.418  1.00  0.00     0.210 HD
ENDBRANCH  22  23
ENDBRANCH  17  22
BRANCH  18  25
ATOM     25  O   UNL     1     122.731 122.758 114.337  1.00  0.00    -0.385 OA
ATOM     26  H   UNL     1     122.586 122.246 113.500  1.00  0.00     0.211 HD
ENDBRANCH  18  25
BRANCH  20  27
ATOM     27  O   UNL     1     120.306 124.146 115.767  1.00  0.00    -0.387 OA
ATOM     28  H   UNL     1     119.322 124.274 115.802  1.00  0.00     0.211 HD
ENDBRANCH  20  27
BRANCH  21  29
ATOM     29  C   UNL     1     119.840 126.479 114.363  1.00  0.00     0.191 C 
BRANCH  29  30
ATOM     30  O   UNL     1     118.569 126.377 114.949  1.00  0.00    -0.394 OA
ATOM     31  H   UNL     1     118.374 125.411 115.059  1.00  0.00     0.210 HD
ENDBRANCH  29  30
ENDBRANCH  21  29
ENDBRANCH   1  17
TORSDOF 13
ENDMDL
MODEL 5
REMARK VINA RESULT:    -4.107      6.548      8.829
REMARK INTER + INTRA:          -8.009
REMARK INTER:                  -6.294
REMARK INTRA:                  -1.715
REMARK UNBOUND:                -1.741
REMARK SMILES OC[C@@H]1O[C@@H](O[C@@]2(CO)O[C@H](CO)[C@H](O)[C@H]2O)[C@@H](O)[C@@H](O)[C@H]1O
REMARK SMILES IDX 6 1 5 2 3 3 22 4 4 5 20 6 18 7 2 8 1 9 23 11 21 13 19 15
REMARK SMILES IDX 7 17 16 18 10 19 14 20 11 21 8 22 9 23 17 25 15 27 12 29
REMARK SMILES IDX 13 30
REMARK H PARENT 1 10 23 12 21 14 19 16 9 24 17 26 15 28 13 31
REMARK Flexibility Score: inf
ROOT
ATOM      1  O   UNL     1     121.170 124.224 112.683  1.00  0.00    -0.313 OA
ENDROOT
BRANCH   1   2
ATOM      2  C   UNL     1     119.795 123.901 112.513  1.00  0.00     0.285 C 
ATOM      3  C   UNL     1     119.358 125.917 111.378  1.00  0.00     0.178 C 
ATOM      4  C   UNL     1     118.497 126.481 112.536  1.00  0.00     0.177 C 
ATOM      5  O   UNL     1     119.270 124.501 111.338  1.00  0.00    -0.341 OA
ATOM      6  C   UNL     1     118.945 125.868 113.873  1.00  0.00     0.179 C 
ATOM      7  C   UNL     1     118.989 124.333 113.752  1.00  0.00     0.202 C 
BRANCH   3   8
ATOM      8  C   UNL     1     118.888 126.456 110.016  1.00  0.00     0.191 C 
BRANCH   8   9
ATOM      9  O   UNL     1     119.558 127.642 109.679  1.00  0.00    -0.394 OA
ATOM     10  H   UNL     1     118.858 128.309 109.453  1.00  0.00     0.210 HD
ENDBRANCH   8   9
ENDBRANCH   3   8
BRANCH   4  11
ATOM     11  O   UNL     1     118.615 127.880 112.591  1.00  0.00    -0.387 OA
ATOM     12  H   UNL     1     117.928 128.250 111.976  1.00  0.00     0.211 HD
ENDBRANCH   4  11
BRANCH   6  13
ATOM     13  O   UNL     1     120.209 126.375 114.228  1.00  0.00    -0.387 OA
ATOM     14  H   UNL     1     120.466 127.031 113.528  1.00  0.00     0.211 HD
ENDBRANCH   6  13
BRANCH   7  15
ATOM     15  O   UNL     1     119.549 123.757 114.904  1.00  0.00    -0.385 OA
ATOM     16  H   UNL     1     119.136 124.215 115.682  1.00  0.00     0.211 HD
ENDBRANCH   7  15
ENDBRANCH   1   2
BRANCH   1  17
ATOM     17  C   UNL     1     122.049 123.109 112.535  1.00  0.00     0.224 C 
ATOM     18  C   UNL     1     123.161 123.211 113.590  1.00  0.00     0.208 C 
ATOM     19  O   UNL     1     122.682 123.111 111.263  1.00  0.00    -0.337 OA
ATOM     20  C   UNL     1     124.211 124.030 112.880  1.00  0.00     0.180 C 
ATOM     21  C   UNL     1     123.983 123.651 111.409  1.00  0.00     0.179 C 
BRANCH  17  22
ATOM     22  C   UNL     1     121.250 121.801 112.725  1.00  0.00     0.225 C 
BRANCH  22  23
ATOM     23  O   UNL     1     121.347 121.354 114.049  1.00  0.00    -0.391 OA
ATOM     24  H   UNL     1     121.077 122.119 114.620  1.00  0.00     0.210 HD
ENDBRANCH  22  23
ENDBRANCH  17  22
BRANCH  18  25
ATOM     25  O   UNL     1     122.732 123.785 114.805  1.00  0.00    -0.385 OA
ATOM     26  H   UNL     1     123.357 123.514 115.526  1.00  0.00     0.211 HD
ENDBRANCH  18  25
BRANCH  20  27
ATOM     27  O   UNL     1     125.505 123.721 113.334  1.00  0.00    -0.387 OA
ATOM     28  H   UNL     1     125.881 124.563 113.701  1.00  0.00     0.211 HD
ENDBRANCH  20  27
BRANCH  21  29
ATOM     29  C   UNL     1     125.005 122.655 110.835  1.00  0.00     0.191 C 
BRANCH  29  30
ATOM     30  O   UNL     1     126.204 123.300 110.494  1.00  0.00    -0.394 OA
ATOM     31  H   UNL     1     125.995 123.944 109.769  1.00  0.00     0.210 HD
ENDBRANCH  29  30
ENDBRANCH  21  29
ENDBRANCH   1  17
TORSDOF 13
ENDMDL
MODEL 6
REMARK VINA RESULT:    -4.095      7.895      9.361
REMARK INTER + INTRA:          -7.992
REMARK INTER:                  -6.366
REMARK INTRA:                  -1.625
REMARK UNBOUND:                -1.741
REMARK SMILES OC[C@@H]1O[C@@H](O[C@@]2(CO)O[C@H](CO)[C@H](O)[C@H]2O)[C@@H](O)[C@@H](O)[C@H]1O
REMARK SMILES IDX 6 1 5 2 3 3 22 4 4 5 20 6 18 7 2 8 1 9 23 11 21 13 19 15
REMARK SMILES IDX 7 17 16 18 10 19 14 20 11 21 8 22 9 23 17 25 15 27 12 29
REMARK SMILES IDX 13 30
REMARK H PARENT 1 10 23 12 21 14 19 16 9 24 17 26 15 28 13 31
REMARK Flexibility Score: inf
ROOT
ATOM      1  O   UNL     1     122.730 115.436 111.574  1.00  0.00    -0.313 OA
ENDROOT
BRANCH   1   2
ATOM      2  C   UNL     1     123.900 114.643 111.747  1.00  0.00     0.285 C 
ATOM      3  C   UNL     1     125.294 116.538 111.830  1.00  0.00     0.178 C 
ATOM      4  C   UNL     1     125.963 116.210 110.472  1.00  0.00     0.177 C 
ATOM      5  O   UNL     1     124.889 115.345 112.485  1.00  0.00    -0.341 OA
ATOM      6  C   UNL     1     124.995 115.405 109.588  1.00  0.00     0.179 C 
ATOM      7  C   UNL     1     124.450 114.200 110.379  1.00  0.00     0.202 C 
BRANCH   3   8
ATOM      8  C   UNL     1     126.262 117.282 112.765  1.00  0.00     0.191 C 
BRANCH   8   9
ATOM      9  O   UNL     1     127.593 116.912 112.522  1.00  0.00    -0.394 OA
ATOM     10  H   UNL     1     128.033 117.696 112.100  1.00  0.00     0.210 HD
ENDBRANCH   8   9
ENDBRANCH   3   8
BRANCH   4  11
ATOM     11  O   UNL     1     126.331 117.396 109.813  1.00  0.00    -0.387 OA
ATOM     12  H   UNL     1     127.205 117.675 110.194  1.00  0.00     0.211 HD
ENDBRANCH   4  11
BRANCH   6  13
ATOM     13  O   UNL     1     123.942 116.234 109.159  1.00  0.00    -0.387 OA
ATOM     14  H   UNL     1     123.307 116.313 109.917  1.00  0.00     0.211 HD
ENDBRANCH   6  13
BRANCH   7  15
ATOM     15  O   UNL     1     123.443 113.541 109.655  1.00  0.00    -0.385 OA
ATOM     16  H   UNL     1     122.731 113.305 110.306  1.00  0.00     0.211 HD
ENDBRANCH   7  15
ENDBRANCH   1   2
BRANCH   1  17
ATOM     17  C   UNL     1     121.625 115.019 112.375  1.00  0.00     0.224 C 
ATOM     18  C   UNL     1     120.346 115.082 111.525  1.00  0.00     0.208 C 
ATOM     19  O   UNL     1     121.429 115.886 113.483  1.00  0.00    -0.337 OA
ATOM     20  C   UNL     1     119.872 116.496 111.750  1.00  0.00     0.180 C 
ATOM     21  C   UNL     1     120.388 116.793 113.166  1.00  0.00     0.179 C 
BRANCH  17  22
ATOM     22  C   UNL     1     121.869 113.576 112.869  1.00  0.00     0.225 C 
BRANCH  22  23
ATOM     23  O   UNL     1     120.704 113.051 113.445  1.00  0.00    -0.391 OA
ATOM     24  H   UNL     1     120.862 112.077 113.549  1.00  0.00     0.210 HD
ENDBRANCH  22  23
ENDBRANCH  17  22
BRANCH  18  25
ATOM     25  O   UNL     1     120.560 114.774 110.165  1.00  0.00    -0.385 OA
ATOM     26  H   UNL     1     119.680 114.670 109.718  1.00  0.00     0.211 HD
ENDBRANCH  18  25
BRANCH  20  27
ATOM     27  O   UNL     1     118.476 116.600 111.641  1.00  0.00    -0.387 OA
ATOM     28  H   UNL     1     118.142 115.688 111.435  1.00  0.00     0.211 HD
ENDBRANCH  20  27
BRANCH  21  29
ATOM     29  C   UNL     1     119.317 116.729 114.269  1.00  0.00     0.191 C 
BRANCH  29  30
ATOM     30  O   UNL     1     118.972 115.400 114.561  1.00  0.00    -0.394 OA
ATOM     31  H   UNL     1     119.584 115.089 115.278  1.00  0.00     0.210 HD
ENDBRANCH  29  30
ENDBRANCH  21  29
ENDBRANCH   1  17
TORSDOF 13
ENDMDL
MODEL 7
REMARK VINA RESULT:    -4.088      2.209      4.700
REMARK INTER + INTRA:          -7.979
REMARK INTER:                  -6.548
REMARK INTRA:                  -1.431
REMARK UNBOUND:                -1.741
REMARK SMILES OC[C@@H]1O[C@@H](O[C@@]2(CO)O[C@H](CO)[C@H](O)[C@H]2O)[C@@H](O)[C@@H](O)[C@H]1O
REMARK SMILES IDX 6 1 5 2 3 3 22 4 4 5 20 6 18 7 2 8 1 9 23 11 21 13 19 15
REMARK SMILES IDX 7 17 16 18 10 19 14 20 11 21 8 22 9 23 17 25 15 27 12 29
REMARK SMILES IDX 13 30
REMARK H PARENT 1 10 23 12 21 14 19 16 9 24 17 26 15 28 13 31
REMARK Flexibility Score: inf
ROOT
ATOM      1  O   UNL     1     114.540 119.595 111.573  1.00  0.00    -0.313 OA
ENDROOT
BRANCH   1   2
ATOM      2  C   UNL     1     113.216 119.102 111.747  1.00  0.00     0.285 C 
ATOM      3  C   UNL     1     113.920 116.863 111.565  1.00  0.00     0.178 C 
ATOM      4  C   UNL     1     113.207 116.660 110.205  1.00  0.00     0.177 C 
ATOM      5  O   UNL     1     113.225 117.818 112.353  1.00  0.00    -0.341 OA
ATOM      6  C   UNL     1     113.097 118.002 109.463  1.00  0.00     0.179 C 
ATOM      7  C   UNL     1     112.480 119.063 110.395  1.00  0.00     0.202 C 
BRANCH   3   8
ATOM      8  C   UNL     1     113.983 115.550 112.365  1.00  0.00     0.191 C 
BRANCH   8   9
ATOM      9  O   UNL     1     113.278 115.655 113.573  1.00  0.00    -0.394 OA
ATOM     10  H   UNL     1     112.649 114.887 113.603  1.00  0.00     0.210 HD
ENDBRANCH   8   9
ENDBRANCH   3   8
BRANCH   4  11
ATOM     11  O   UNL     1     113.918 115.739 109.417  1.00  0.00    -0.387 OA
ATOM     12  H   UNL     1     113.705 115.949 108.470  1.00  0.00     0.211 HD
ENDBRANCH   4  11
BRANCH   6  13
ATOM     13  O   UNL     1     114.371 118.408 109.023  1.00  0.00    -0.387 OA
ATOM     14  H   UNL     1     114.482 119.356 109.293  1.00  0.00     0.211 HD
ENDBRANCH   6  13
BRANCH   7  15
ATOM     15  O   UNL     1     112.517 120.334 109.800  1.00  0.00    -0.385 OA
ATOM     16  H   UNL     1     112.986 120.934 110.436  1.00  0.00     0.211 HD
ENDBRANCH   7  15
ENDBRANCH   1   2
BRANCH   1  17
ATOM     17  C   UNL     1     114.883 120.657 112.462  1.00  0.00     0.224 C 
ATOM     18  C   UNL     1     115.602 121.757 111.666  1.00  0.00     0.208 C 
ATOM     19  O   UNL     1     115.783 120.220 113.470  1.00  0.00    -0.337 OA
ATOM     20  C   UNL     1     117.046 121.331 111.747  1.00  0.00     0.180 C 
ATOM     21  C   UNL     1     117.096 120.598 113.097  1.00  0.00     0.179 C 
BRANCH  17  22
ATOM     22  C   UNL     1     113.597 121.218 113.108  1.00  0.00     0.225 C 
BRANCH  22  23
ATOM     23  O   UNL     1     113.606 122.619 113.086  1.00  0.00    -0.391 OA
ATOM     24  H   UNL     1     114.561 122.889 113.089  1.00  0.00     0.210 HD
ENDBRANCH  22  23
ENDBRANCH  17  22
BRANCH  18  25
ATOM     25  O   UNL     1     115.132 121.891 110.342  1.00  0.00    -0.385 OA
ATOM     26  H   UNL     1     114.899 122.841 110.179  1.00  0.00     0.211 HD
ENDBRANCH  18  25
BRANCH  20  27
ATOM     27  O   UNL     1     117.918 122.431 111.686  1.00  0.00    -0.387 OA
ATOM     28  H   UNL     1     118.296 122.540 112.597  1.00  0.00     0.211 HD
ENDBRANCH  20  27
BRANCH  21  29
ATOM     29  C   UNL     1     117.729 121.404 114.244  1.00  0.00     0.191 C 
BRANCH  29  30
ATOM     30  O   UNL     1     116.898 122.465 114.637  1.00  0.00    -0.394 OA
ATOM     31  H   UNL     1     117.057 122.619 115.604  1.00  0.00     0.210 HD
ENDBRANCH  29  30
ENDBRANCH  21  29
ENDBRANCH   1  17
TORSDOF 13
ENDMDL
MODEL 8
REMARK VINA RESULT:    -4.077      1.789      5.962
REMARK INTER + INTRA:          -7.963
REMARK INTER:                  -6.518
REMARK INTRA:                  -1.445
REMARK UNBOUND:                -1.741
REMARK SMILES OC[C@@H]1O[C@@H](O[C@@]2(CO)O[C@H](CO)[C@H](O)[C@H]2O)[C@@H](O)[C@@H](O)[C@H]1O
REMARK SMILES IDX 6 1 5 2 3 3 22 4 4 5 20 6 18 7 2 8 1 9 23 11 21 13 19 15
REMARK SMILES IDX 7 17 16 18 10 19 14 20 11 21 8 22 9 23 17 25 15 27 12 29
REMARK SMILES IDX 13 30
REMARK H PARENT 1 10 23 12 21 14 19 16 9 24 17 26 15 28 13 31
REMARK Flexibility Score: inf
ROOT
ATOM      1  O   UNL     1     114.711 118.552 111.279  1.00  0.00    -0.313 OA
ENDROOT
BRANCH   1   2
ATOM      2  C   UNL     1     113.748 117.961 112.144  1.00  0.00     0.285 C 
ATOM      3  C   UNL     1     115.268 117.868 113.939  1.00  0.00     0.178 C 
ATOM      4  C   UNL     1     115.348 116.322 113.903  1.00  0.00     0.177 C 
ATOM      5  O   UNL     1     113.993 118.310 113.498  1.00  0.00    -0.341 OA
ATOM      6  C   UNL     1     115.056 115.812 112.482  1.00  0.00     0.179 C 
ATOM      7  C   UNL     1     113.741 116.431 111.968  1.00  0.00     0.202 C 
BRANCH   3   8
ATOM      8  C   UNL     1     115.486 118.407 115.364  1.00  0.00     0.191 C 
BRANCH   8   9
ATOM      9  O   UNL     1     116.802 118.188 115.796  1.00  0.00    -0.394 OA
ATOM     10  H   UNL     1     117.184 119.080 116.005  1.00  0.00     0.210 HD
ENDBRANCH   8   9
ENDBRANCH   3   8
BRANCH   4  11
ATOM     11  O   UNL     1     116.623 115.892 114.308  1.00  0.00    -0.387 OA
ATOM     12  H   UNL     1     117.002 115.368 113.554  1.00  0.00     0.211 HD
ENDBRANCH   4  11
BRANCH   6  13
ATOM     13  O   UNL     1     116.127 116.141 111.630  1.00  0.00    -0.387 OA
ATOM     14  H   UNL     1     116.792 116.635 112.176  1.00  0.00     0.211 HD
ENDBRANCH   6  13
BRANCH   7  15
ATOM     15  O   UNL     1     113.534 116.112 110.616  1.00  0.00    -0.385 OA
ATOM     16  H   UNL     1     114.355 115.650 110.302  1.00  0.00     0.211 HD
ENDBRANCH   7  15
ENDBRANCH   1   2
BRANCH   1  17
ATOM     17  C   UNL     1     114.236 119.705 110.586  1.00  0.00     0.224 C 
ATOM     18  C   UNL     1     115.015 119.847 109.269  1.00  0.00     0.208 C 
ATOM     19  O   UNL     1     114.464 120.892 111.332  1.00  0.00    -0.337 OA
ATOM     20  C   UNL     1     116.202 120.683 109.678  1.00  0.00     0.180 C 
ATOM     21  C   UNL     1     115.629 121.522 110.831  1.00  0.00     0.179 C 
BRANCH  17  22
ATOM     22  C   UNL     1     112.727 119.542 110.300  1.00  0.00     0.225 C 
BRANCH  22  23
ATOM     23  O   UNL     1     112.524 118.709 109.191  1.00  0.00    -0.391 OA
ATOM     24  H   UNL     1     112.379 117.797 109.554  1.00  0.00     0.210 HD
ENDBRANCH  22  23
ENDBRANCH  17  22
BRANCH  18  25
ATOM     25  O   UNL     1     115.374 118.611 108.692  1.00  0.00    -0.385 OA
ATOM     26  H   UNL     1     114.686 118.356 108.025  1.00  0.00     0.211 HD
ENDBRANCH  18  25
BRANCH  20  27
ATOM     27  O   UNL     1     116.679 121.464 108.613  1.00  0.00    -0.387 OA
ATOM     28  H   UNL     1     115.900 121.972 108.266  1.00  0.00     0.211 HD
ENDBRANCH  20  27
BRANCH  21  29
ATOM     29  C   UNL     1     115.292 122.977 110.462  1.00  0.00     0.191 C 
BRANCH  29  30
ATOM     30  O   UNL     1     113.944 123.266 110.728  1.00  0.00    -0.394 OA
ATOM     31  H   UNL     1     113.440 122.416 110.644  1.00  0.00     0.210 HD
ENDBRANCH  29  30
ENDBRANCH  21  29
ENDBRANCH   1  17
TORSDOF 13
ENDMDL
MODEL 9
REMARK VINA RESULT:    -4.058      2.290      5.449
REMARK INTER + INTRA:          -7.935
REMARK INTER:                  -6.411
REMARK INTRA:                  -1.524
REMARK UNBOUND:                -1.741
REMARK SMILES OC[C@@H]1O[C@@H](O[C@@]2(CO)O[C@H](CO)[C@H](O)[C@H]2O)[C@@H](O)[C@@H](O)[C@H]1O
REMARK SMILES IDX 6 1 5 2 3 3 22 4 4 5 20 6 18 7 2 8 1 9 23 11 21 13 19 15
REMARK SMILES IDX 7 17 16 18 10 19 14 20 11 21 8 22 9 23 17 25 15 27 12 29
REMARK SMILES IDX 13 30
REMARK H PARENT 1 10 23 12 21 14 19 16 9 24 17 26 15 28 13 31
REMARK Flexibility Score: inf
ROOT
ATOM      1  O   UNL     1     114.976 118.497 112.614  1.00  0.00    -0.313 OA
ENDROOT
BRANCH   1   2
ATOM      2  C   UNL     1     115.866 117.422 112.336  1.00  0.00     0.285 C 
ATOM      3  C   UNL     1     114.101 115.978 111.756  1.00  0.00     0.178 C 
ATOM      4  C   UNL     1     114.312 115.081 113.001  1.00  0.00     0.177 C 
ATOM      5  O   UNL     1     115.330 116.557 111.346  1.00  0.00    -0.341 OA
ATOM      6  C   UNL     1     114.934 115.902 114.142  1.00  0.00     0.179 C 
ATOM      7  C   UNL     1     116.182 116.645 113.628  1.00  0.00     0.202 C 
BRANCH   3   8
ATOM      8  C   UNL     1     113.545 115.169 110.571  1.00  0.00     0.191 C 
BRANCH   8   9
ATOM      9  O   UNL     1     112.837 115.989 109.680  1.00  0.00    -0.394 OA
ATOM     10  H   UNL     1     112.678 116.849 110.151  1.00  0.00     0.210 HD
ENDBRANCH   8   9
ENDBRANCH   3   8
BRANCH   4  11
ATOM     11  O   UNL     1     113.086 114.536 113.421  1.00  0.00    -0.387 OA
ATOM     12  H   UNL     1     112.584 114.293 112.599  1.00  0.00     0.211 HD
ENDBRANCH   4  11
BRANCH   6  13
ATOM     13  O   UNL     1     113.985 116.812 114.644  1.00  0.00    -0.387 OA
ATOM     14  H   UNL     1     113.230 116.277 115.001  1.00  0.00     0.211 HD
ENDBRANCH   6  13
BRANCH   7  15
ATOM     15  O   UNL     1     116.676 117.527 114.602  1.00  0.00    -0.385 OA
ATOM     16  H   UNL     1     116.109 117.408 115.409  1.00  0.00     0.211 HD
ENDBRANCH   7  15
ENDBRANCH   1   2
BRANCH   1  17
ATOM     17  C   UNL     1     115.490 119.780 112.261  1.00  0.00     0.224 C 
ATOM     18  C   UNL     1     115.171 120.771 113.392  1.00  0.00     0.208 C 
ATOM     19  O   UNL     1     114.871 120.283 111.084  1.00  0.00    -0.337 OA
ATOM     20  C   UNL     1     113.813 121.295 112.996  1.00  0.00     0.180 C 
ATOM     21  C   UNL     1     113.859 121.198 111.463  1.00  0.00     0.179 C 
BRANCH  17  22
ATOM     22  C   UNL     1     117.017 119.679 112.053  1.00  0.00     0.225 C 
BRANCH  22  23
ATOM     23  O   UNL     1     117.698 120.117 113.196  1.00  0.00    -0.391 OA
ATOM     24  H   UNL     1     118.665 120.013 112.999  1.00  0.00     0.210 HD
ENDBRANCH  22  23
ENDBRANCH  17  22
BRANCH  18  25
ATOM     25  O   UNL     1     115.191 120.184 114.674  1.00  0.00    -0.385 OA
ATOM     26  H   UNL     1     115.351 119.210 114.579  1.00  0.00     0.211 HD
ENDBRANCH  18  25
BRANCH  20  27
ATOM     27  O   UNL     1     113.607 122.606 113.458  1.00  0.00    -0.387 OA
ATOM     28  H   UNL     1     113.336 122.528 114.409  1.00  0.00     0.211 HD
ENDBRANCH  20  27
BRANCH  21  29
ATOM     29  C   UNL     1     114.097 122.534 110.740  1.00  0.00     0.191 C 
BRANCH  29  30
ATOM     30  O   UNL     1     115.386 123.027 110.999  1.00  0.00    -0.394 OA
ATOM     31  H   UNL     1     115.422 123.260 111.962  1.00  0.00     0.210 HD
ENDBRANCH  29  30
ENDBRANCH  21  29
ENDBRANCH   1  17
TORSDOF 13
ENDMDL
