MODEL 1
REMARK VINA RESULT:    -3.202      0.000      0.000
REMARK INTER + INTRA:          -4.005
REMARK INTER:                  -3.670
REMARK INTRA:                  -0.334
REMARK UNBOUND:                -0.334
REMARK SMILES COc1ccc(C(C)=O)c(O)c1
REMARK SMILES IDX 6 1 10 2 12 3 3 4 4 5 5 6 7 7 8 8 9 9 11 10 2 12 1 13
REMARK H PARENT 11 11
REMARK Flexibility Score: inf
ROOT
ATOM      1  C   UNL     1       9.444   7.158  -0.189  1.00  0.00     0.059 A 
ATOM      2  C   UNL     1       8.379   6.227  -0.162  1.00  0.00     0.130 A 
ATOM      3  C   UNL     1       7.438   6.262   0.878  1.00  0.00     0.093 A 
ATOM      4  C   UNL     1       7.536   7.221   1.901  1.00  0.00     0.122 A 
ATOM      5  C   UNL     1       8.585   8.141   1.872  1.00  0.00     0.047 A 
ATOM      6  C   UNL     1       9.529   8.113   0.843  1.00  0.00     0.019 A 
ENDROOT
BRANCH   1   7
ATOM      7  C   UNL     1      10.464   7.136  -1.277  1.00  0.00     0.163 C 
ATOM      8  C   UNL     1      10.762   8.351  -2.104  1.00  0.00     0.093 C 
ATOM      9  O   UNL     1      11.125   6.087  -1.504  1.00  0.00    -0.294 OA
ENDBRANCH   1   7
BRANCH   2  10
ATOM     10  O   UNL     1       8.244   5.273  -1.171  1.00  0.00    -0.507 OA
ATOM     11  H   UNL     1       7.785   5.484  -2.049  1.00  0.00     0.293 HD
ENDBRANCH   2  10
BRANCH   4  12
ATOM     12  O   UNL     1       6.617   7.292   2.959  1.00  0.00    -0.497 OA
ATOM     13  C   UNL     1       5.202   7.269   2.797  1.00  0.00     0.278 C 
ENDBRANCH   4  12
TORSDOF 3
ENDMDL
MODEL 2
REMARK VINA RESULT:    -3.021      8.390     10.163
REMARK INTER + INTRA:          -3.797
REMARK INTER:                  -3.506
REMARK INTRA:                  -0.291
REMARK UNBOUND:                -0.334
REMARK SMILES COc1ccc(C(C)=O)c(O)c1
REMARK SMILES IDX 6 1 10 2 12 3 3 4 4 5 5 6 7 7 8 8 9 9 11 10 2 12 1 13
REMARK H PARENT 11 11
REMARK Flexibility Score: inf
ROOT
ATOM      1  C   UNL     1       8.117  -0.809  -3.088  1.00  0.00     0.059 A 
ATOM      2  C   UNL     1       9.296  -0.748  -3.867  1.00  0.00     0.130 A 
ATOM      3  C   UNL     1      10.214  -1.809  -3.841  1.00  0.00     0.093 A 
ATOM      4  C   UNL     1       9.974  -2.945  -3.049  1.00  0.00     0.122 A 
ATOM      5  C   UNL     1       8.809  -3.007  -2.284  1.00  0.00     0.047 A 
ATOM      6  C   UNL     1       7.890  -1.955  -2.300  1.00  0.00     0.019 A 
ENDROOT
BRANCH   1   7
ATOM      7  C   UNL     1       7.130   0.309  -3.088  1.00  0.00     0.163 C 
ATOM      8  C   UNL     1       6.257   0.590  -1.901  1.00  0.00     0.093 C 
ATOM      9  O   UNL     1       7.031   1.066  -4.091  1.00  0.00    -0.294 OA
ENDBRANCH   1   7
BRANCH   2  10
ATOM     10  O   UNL     1       9.556   0.359  -4.676  1.00  0.00    -0.507 OA
ATOM     11  H   UNL     1      10.492   0.576  -5.000  1.00  0.00     0.293 HD
ENDBRANCH   2  10
BRANCH   4  12
ATOM     12  O   UNL     1      10.864  -4.028  -2.995  1.00  0.00    -0.497 OA
ATOM     13  C   UNL     1      10.750  -5.119  -2.086  1.00  0.00     0.278 C 
ENDBRANCH   4  12
TORSDOF 3
ENDMDL
MODEL 3
REMARK VINA RESULT:    -2.999      2.368      3.830
REMARK INTER + INTRA:          -3.772
REMARK INTER:                  -3.598
REMARK INTRA:                  -0.174
REMARK UNBOUND:                -0.334
REMARK SMILES COc1ccc(C(C)=O)c(O)c1
REMARK SMILES IDX 6 1 10 2 12 3 3 4 4 5 5 6 7 7 8 8 9 9 11 10 2 12 1 13
REMARK H PARENT 11 11
REMARK Flexibility Score: inf
ROOT
ATOM      1  C   UNL     1       7.293   5.772  -1.576  1.00  0.00     0.059 A 
ATOM      2  C   UNL     1       8.373   6.497  -2.132  1.00  0.00     0.130 A 
ATOM      3  C   UNL     1       9.240   7.220  -1.298  1.00  0.00     0.093 A 
ATOM      4  C   UNL     1       9.052   7.229   0.095  1.00  0.00     0.122 A 
ATOM      5  C   UNL     1       7.989   6.510   0.642  1.00  0.00     0.047 A 
ATOM      6  C   UNL     1       7.118   5.790  -0.179  1.00  0.00     0.019 A 
ENDROOT
BRANCH   1   7
ATOM      7  C   UNL     1       6.349   5.005  -2.440  1.00  0.00     0.163 C 
ATOM      8  C   UNL     1       5.167   5.658  -3.092  1.00  0.00     0.093 C 
ATOM      9  O   UNL     1       6.549   3.780  -2.663  1.00  0.00    -0.294 OA
ENDBRANCH   1   7
BRANCH   2  10
ATOM     10  O   UNL     1       8.596   6.496  -3.509  1.00  0.00    -0.507 OA
ATOM     11  H   UNL     1       8.120   5.849  -4.127  1.00  0.00     0.293 HD
ENDBRANCH   2  10
BRANCH   4  12
ATOM     12  O   UNL     1       9.896   7.937   0.965  1.00  0.00    -0.497 OA
ATOM     13  C   UNL     1       9.522   8.380   2.266  1.00  0.00     0.278 C 
ENDBRANCH   4  12
TORSDOF 3
ENDMDL
MODEL 4
REMARK VINA RESULT:    -2.922      7.706      8.859
REMARK INTER + INTRA:          -3.683
REMARK INTER:                  -3.348
REMARK INTRA:                  -0.335
REMARK UNBOUND:                -0.334
REMARK SMILES COc1ccc(C(C)=O)c(O)c1
REMARK SMILES IDX 6 1 10 2 12 3 3 4 4 5 5 6 7 7 8 8 9 9 11 10 2 12 1 13
REMARK H PARENT 11 11
REMARK Flexibility Score: inf
ROOT
ATOM      1  C   UNL     1       6.601  -0.739  -2.556  1.00  0.00     0.059 A 
ATOM      2  C   UNL     1       6.001   0.276  -1.774  1.00  0.00     0.130 A 
ATOM      3  C   UNL     1       4.760   0.051  -1.159  1.00  0.00     0.093 A 
ATOM      4  C   UNL     1       4.100  -1.181  -1.305  1.00  0.00     0.122 A 
ATOM      5  C   UNL     1       4.694  -2.183  -2.073  1.00  0.00     0.047 A 
ATOM      6  C   UNL     1       5.928  -1.969  -2.692  1.00  0.00     0.019 A 
ENDROOT
BRANCH   1   7
ATOM      7  C   UNL     1       7.914  -0.524  -3.230  1.00  0.00     0.163 C 
ATOM      8  C   UNL     1       9.080  -1.437  -2.996  1.00  0.00     0.093 C 
ATOM      9  O   UNL     1       8.059   0.429  -4.043  1.00  0.00    -0.294 OA
ENDBRANCH   1   7
BRANCH   2  10
ATOM     10  O   UNL     1       6.638   1.505  -1.596  1.00  0.00    -0.507 OA
ATOM     11  H   UNL     1       6.863   1.862  -0.675  1.00  0.00     0.293 HD
ENDBRANCH   2  10
BRANCH   4  12
ATOM     12  O   UNL     1       2.860  -1.447  -0.707  1.00  0.00    -0.497 OA
ATOM     13  C   UNL     1       2.324  -0.718   0.393  1.00  0.00     0.278 C 
ENDBRANCH   4  12
TORSDOF 3
ENDMDL
MODEL 5
REMARK VINA RESULT:    -2.726      7.629      9.510
REMARK INTER + INTRA:          -3.459
REMARK INTER:                  -3.135
REMARK INTRA:                  -0.324
REMARK UNBOUND:                -0.334
REMARK SMILES COc1ccc(C(C)=O)c(O)c1
REMARK SMILES IDX 6 1 10 2 12 3 3 4 4 5 5 6 7 7 8 8 9 9 11 10 2 12 1 13
REMARK H PARENT 11 11
REMARK Flexibility Score: inf
ROOT
ATOM      1  C   UNL     1       5.413  -0.434  -1.310  1.00  0.00     0.059 A 
ATOM      2  C   UNL     1       6.321  -1.422  -1.756  1.00  0.00     0.130 A 
ATOM      3  C   UNL     1       7.213  -1.140  -2.802  1.00  0.00     0.093 A 
ATOM      4  C   UNL     1       7.220   0.125  -3.416  1.00  0.00     0.122 A 
ATOM      5  C   UNL     1       6.326   1.100  -2.973  1.00  0.00     0.047 A 
ATOM      6  C   UNL     1       5.432   0.829  -1.934  1.00  0.00     0.019 A 
ENDROOT
BRANCH   1   7
ATOM      7  C   UNL     1       4.447  -0.711  -0.208  1.00  0.00     0.163 C 
ATOM      8  C   UNL     1       2.966  -0.728  -0.442  1.00  0.00     0.093 C 
ATOM      9  O   UNL     1       4.867  -0.967   0.953  1.00  0.00    -0.294 OA
ENDBRANCH   1   7
BRANCH   2  10
ATOM     10  O   UNL     1       6.350  -2.682  -1.157  1.00  0.00    -0.507 OA
ATOM     11  H   UNL     1       6.786  -3.478  -1.607  1.00  0.00     0.293 HD
ENDBRANCH   2  10
BRANCH   4  12
ATOM     12  O   UNL     1       8.095   0.449  -4.463  1.00  0.00    -0.497 OA
ATOM     13  C   UNL     1       9.266  -0.292  -4.793  1.00  0.00     0.278 C 
ENDBRANCH   4  12
TORSDOF 3
ENDMDL
MODEL 6
REMARK VINA RESULT:    -2.721      7.214      8.763
REMARK INTER + INTRA:          -3.454
REMARK INTER:                  -3.117
REMARK INTRA:                  -0.337
REMARK UNBOUND:                -0.334
REMARK SMILES COc1ccc(C(C)=O)c(O)c1
REMARK SMILES IDX 6 1 10 2 12 3 3 4 4 5 5 6 7 7 8 8 9 9 11 10 2 12 1 13
REMARK H PARENT 11 11
REMARK Flexibility Score: inf
ROOT
ATOM      1  C   UNL     1       5.787   0.807  -2.582  1.00  0.00     0.059 A 
ATOM      2  C   UNL     1       6.905   0.057  -3.018  1.00  0.00     0.130 A 
ATOM      3  C   UNL     1       7.144  -1.222  -2.491  1.00  0.00     0.093 A 
ATOM      4  C   UNL     1       6.279  -1.775  -1.532  1.00  0.00     0.122 A 
ATOM      5  C   UNL     1       5.175  -1.036  -1.106  1.00  0.00     0.047 A 
ATOM      6  C   UNL     1       4.929   0.238  -1.621  1.00  0.00     0.019 A 
ENDROOT
BRANCH   1   7
ATOM      7  C   UNL     1       5.515   2.173  -3.116  1.00  0.00     0.163 C 
ATOM      8  C   UNL     1       4.195   2.532  -3.729  1.00  0.00     0.093 C 
ATOM      9  O   UNL     1       6.396   3.072  -3.034  1.00  0.00    -0.294 OA
ENDBRANCH   1   7
BRANCH   2  10
ATOM     10  O   UNL     1       7.774   0.572  -3.980  1.00  0.00    -0.507 OA
ATOM     11  H   UNL     1       8.759   0.334  -3.992  1.00  0.00     0.293 HD
ENDBRANCH   2  10
BRANCH   4  12
ATOM     12  O   UNL     1       6.481  -3.050  -0.981  1.00  0.00    -0.497 OA
ATOM     13  C   UNL     1       7.756  -3.665  -0.822  1.00  0.00     0.278 C 
ENDBRANCH   4  12
TORSDOF 3
ENDMDL
MODEL 7
REMARK VINA RESULT:    -2.718      7.031      8.262
REMARK INTER + INTRA:          -3.450
REMARK INTER:                  -3.128
REMARK INTRA:                  -0.323
REMARK UNBOUND:                -0.334
REMARK SMILES COc1ccc(C(C)=O)c(O)c1
REMARK SMILES IDX 6 1 10 2 12 3 3 4 4 5 5 6 7 7 8 8 9 9 11 10 2 12 1 13
REMARK H PARENT 11 11
REMARK Flexibility Score: inf
ROOT
ATOM      1  C   UNL     1       4.913   1.485  -2.891  1.00  0.00     0.059 A 
ATOM      2  C   UNL     1       5.633   0.820  -1.870  1.00  0.00     0.130 A 
ATOM      3  C   UNL     1       5.020  -0.199  -1.125  1.00  0.00     0.093 A 
ATOM      4  C   UNL     1       3.692  -0.577  -1.384  1.00  0.00     0.122 A 
ATOM      5  C   UNL     1       2.984   0.077  -2.394  1.00  0.00     0.047 A 
ATOM      6  C   UNL     1       3.583   1.094  -3.139  1.00  0.00     0.019 A 
ENDROOT
BRANCH   1   7
ATOM      7  C   UNL     1       5.536   2.579  -3.691  1.00  0.00     0.163 C 
ATOM      8  C   UNL     1       5.265   2.737  -5.157  1.00  0.00     0.093 C 
ATOM      9  O   UNL     1       6.290   3.421  -3.132  1.00  0.00    -0.294 OA
ENDBRANCH   1   7
BRANCH   2  10
ATOM     10  O   UNL     1       6.959   1.161  -1.598  1.00  0.00    -0.507 OA
ATOM     11  H   UNL     1       7.269   1.396  -0.663  1.00  0.00     0.293 HD
ENDBRANCH   2  10
BRANCH   4  12
ATOM     12  O   UNL     1       3.042  -1.591  -0.664  1.00  0.00    -0.497 OA
ATOM     13  C   UNL     1       2.786  -1.546   0.736  1.00  0.00     0.278 C 
ENDBRANCH   4  12
TORSDOF 3
ENDMDL
MODEL 8
REMARK VINA RESULT:    -2.667      8.606      9.995
REMARK INTER + INTRA:          -3.391
REMARK INTER:                  -3.078
REMARK INTRA:                  -0.313
REMARK UNBOUND:                -0.334
REMARK SMILES COc1ccc(C(C)=O)c(O)c1
REMARK SMILES IDX 6 1 10 2 12 3 3 4 4 5 5 6 7 7 8 8 9 9 11 10 2 12 1 13
REMARK H PARENT 11 11
REMARK Flexibility Score: inf
ROOT
ATOM      1  C   UNL     1       9.281  -2.713  -2.612  1.00  0.00     0.059 A 
ATOM      2  C   UNL     1       9.847  -1.747  -3.476  1.00  0.00     0.130 A 
ATOM      3  C   UNL     1       9.130  -0.585  -3.801  1.00  0.00     0.093 A 
ATOM      4  C   UNL     1       7.847  -0.363  -3.271  1.00  0.00     0.122 A 
ATOM      5  C   UNL     1       7.291  -1.315  -2.416  1.00  0.00     0.047 A 
ATOM      6  C   UNL     1       7.995  -2.476  -2.088  1.00  0.00     0.019 A 
ENDROOT
BRANCH   1   7
ATOM      7  C   UNL     1      10.016  -3.962  -2.260  1.00  0.00     0.163 C 
ATOM      8  C   UNL     1       9.819  -4.648  -0.941  1.00  0.00     0.093 C 
ATOM      9  O   UNL     1      10.808  -4.487  -3.090  1.00  0.00    -0.294 OA
ENDBRANCH   1   7
BRANCH   2  10
ATOM     10  O   UNL     1      11.125  -1.930  -4.007  1.00  0.00    -0.507 OA
ATOM     11  H   UNL     1      11.926  -1.416  -3.660  1.00  0.00     0.293 HD
ENDBRANCH   2  10
BRANCH   4  12
ATOM     12  O   UNL     1       7.097   0.785  -3.568  1.00  0.00    -0.497 OA
ATOM     13  C   UNL     1       6.070   1.313  -2.735  1.00  0.00     0.278 C 
ENDBRANCH   4  12
TORSDOF 3
ENDMDL
MODEL 9
REMARK VINA RESULT:    -2.590      7.841      9.988
REMARK INTER + INTRA:          -3.303
REMARK INTER:                  -3.076
REMARK INTRA:                  -0.227
REMARK UNBOUND:                -0.334
REMARK SMILES COc1ccc(C(C)=O)c(O)c1
REMARK SMILES IDX 6 1 10 2 12 3 3 4 4 5 5 6 7 7 8 8 9 9 11 10 2 12 1 13
REMARK H PARENT 11 11
REMARK Flexibility Score: inf
ROOT
ATOM      1  C   UNL     1       5.800  -0.947  -1.664  1.00  0.00     0.059 A 
ATOM      2  C   UNL     1       6.722   0.055  -2.045  1.00  0.00     0.130 A 
ATOM      3  C   UNL     1       7.773  -0.250  -2.924  1.00  0.00     0.093 A 
ATOM      4  C   UNL     1       7.921  -1.549  -3.440  1.00  0.00     0.122 A 
ATOM      5  C   UNL     1       7.009  -2.537  -3.066  1.00  0.00     0.047 A 
ATOM      6  C   UNL     1       5.961  -2.244  -2.190  1.00  0.00     0.019 A 
ENDROOT
BRANCH   1   7
ATOM      7  C   UNL     1       4.681  -0.653  -0.723  1.00  0.00     0.163 C 
ATOM      8  C   UNL     1       3.273  -0.467  -1.205  1.00  0.00     0.093 C 
ATOM      9  O   UNL     1       4.899  -0.583   0.517  1.00  0.00    -0.294 OA
ENDBRANCH   1   7
BRANCH   2  10
ATOM     10  O   UNL     1       6.594   1.359  -1.563  1.00  0.00    -0.507 OA
ATOM     11  H   UNL     1       5.699   1.834  -1.538  1.00  0.00     0.293 HD
ENDBRANCH   2  10
BRANCH   4  12
ATOM     12  O   UNL     1       8.955  -1.897  -4.321  1.00  0.00    -0.497 OA
ATOM     13  C   UNL     1      10.276  -2.245  -3.915  1.00  0.00     0.278 C 
ENDBRANCH   4  12
TORSDOF 3
ENDMDL
