MODEL 1
REMARK VINA RESULT:    -4.058      0.000      0.000
REMARK INTER + INTRA:          -6.591
REMARK INTER:                  -6.193
REMARK INTRA:                  -0.398
REMARK UNBOUND:                -0.398
REMARK SMILES CC1=CCC[C@H](C)C(=O)C[C@H](C(C)C)C(=O)C1
REMARK SMILES IDX 8 1 9 2 6 3 7 4 5 5 4 6 3 7 2 8 1 9 10 11 11 12 15 13 16 14
REMARK SMILES IDX 17 15 12 17 13 18 14 19
REMARK H PARENT
REMARK Flexibility Score: 70.00
ROOT
ATOM      1  C   UNL     1      15.794 -33.608  20.522  1.00  0.00     0.136 C 
ATOM      2  O   UNL     1      14.615 -33.787  20.792  1.00  0.00    -0.299 OA
ENDROOT
BRANCH   1   3
ATOM      3  C   UNL     1      16.509 -34.606  19.632  1.00  0.00     0.053 C 
ATOM      4  C   UNL     1      17.774 -33.986  19.027  1.00  0.00     0.016 C 
BRANCH   3   5
ATOM      5  C   UNL     1      16.839 -35.884  20.453  1.00  0.00     0.015 C 
BRANCH   5   6
ATOM      6  C   UNL     1      18.098 -35.783  21.336  1.00  0.00     0.028 C 
BRANCH   6   7
ATOM      7  C   UNL     1      17.863 -35.755  22.833  1.00  0.00    -0.028 C 
ATOM      8  C   UNL     1      18.153 -34.734  23.675  1.00  0.00    -0.070 CG0
ATOM      9  C   UNL     1      17.911 -34.941  25.150  1.00  0.00     0.039 C 
ATOM     10  G   UNL     1      18.640 -33.374  23.211  1.00  0.00     0.000 G0
ENDBRANCH   6   7
ENDBRANCH   5   6
ENDBRANCH   3   5
ENDBRANCH   1   3
BRANCH   1  11
ATOM     11  C   UNL     1      16.491 -32.386  21.084  1.00  0.00     0.087 C 
BRANCH  11  12
ATOM     12  C   UNL     1      16.295 -32.197  22.616  1.00  0.00     0.066 C 
BRANCH  12  13
ATOM     13  C   UNL     1      17.618 -32.250  23.380  1.00  0.00     0.140 C 
ATOM     14  O   UNL     1      17.872 -31.363  24.181  1.00  0.00    -0.299 OA
BRANCH  13  15
ATOM     15  C   UNL     1      18.639 -33.366  23.219  1.00  0.00     0.106 CG0
ATOM     16  G   UNL     1      18.160 -34.728  23.683  1.00  0.00     0.000 G0
ENDBRANCH  13  15
ENDBRANCH  12  13
BRANCH  12  17
ATOM     17  C   UNL     1      15.488 -30.916  22.996  1.00  0.00    -0.006 C 
ATOM     18  C   UNL     1      15.440 -29.843  21.894  1.00  0.00     0.008 C 
ATOM     19  C   UNL     1      14.062 -31.256  23.455  1.00  0.00     0.008 C 
ENDBRANCH  12  17
ENDBRANCH  11  12
ENDBRANCH   1  11
TORSDOF 1
ENDMDL
MODEL 2
REMARK VINA RESULT:    -4.056      1.784      4.213
REMARK INTER + INTRA:          -6.588
REMARK INTER:                  -6.256
REMARK INTRA:                  -0.332
REMARK UNBOUND:                -0.398
REMARK SMILES CC1=CCC[C@H](C)C(=O)C[C@H](C(C)C)C(=O)C1
REMARK SMILES IDX 8 1 9 2 6 3 7 4 5 5 4 6 3 7 2 8 1 9 10 11 11 12 15 13 16 14
REMARK SMILES IDX 17 15 12 17 13 18 14 19
REMARK H PARENT
REMARK Flexibility Score: 70.00
ROOT
ATOM      1  C   UNL     1      14.666 -32.633  22.752  1.00  0.00     0.136 C 
ATOM      2  O   UNL     1      14.567 -32.829  23.954  1.00  0.00    -0.299 OA
ENDROOT
BRANCH   1   3
ATOM      3  C   UNL     1      14.343 -31.259  22.197  1.00  0.00     0.053 C 
ATOM      4  C   UNL     1      12.836 -30.983  22.272  1.00  0.00     0.016 C 
BRANCH   3   5
ATOM      5  C   UNL     1      15.156 -30.185  22.973  1.00  0.00     0.015 C 
BRANCH   5   6
ATOM      6  C   UNL     1      16.685 -30.296  22.824  1.00  0.00     0.028 C 
BRANCH   6   7
ATOM      7  C   UNL     1      17.442 -30.775  24.047  1.00  0.00    -0.028 C 
ATOM      8  C   UNL     1      18.231 -31.874  24.128  1.00  0.00    -0.070 CG0
ATOM      9  C   UNL     1      18.833 -32.218  25.468  1.00  0.00     0.039 C 
ATOM     10  G   UNL     1      18.595 -32.735  22.933  1.00  0.00     0.000 G0
ENDBRANCH   6   7
ENDBRANCH   5   6
ENDBRANCH   3   5
ENDBRANCH   1   3
BRANCH   1  11
ATOM     11  C   UNL     1      15.116 -33.774  21.863  1.00  0.00     0.087 C 
BRANCH  11  12
ATOM     12  C   UNL     1      16.599 -33.671  21.405  1.00  0.00     0.066 C 
BRANCH  12  13
ATOM     13  C   UNL     1      17.576 -33.804  22.574  1.00  0.00     0.140 C 
ATOM     14  O   UNL     1      17.550 -34.821  23.251  1.00  0.00    -0.299 OA
BRANCH  13  15
ATOM     15  C   UNL     1      18.606 -32.744  22.934  1.00  0.00     0.106 CG0
ATOM     16  G   UNL     1      18.230 -31.881  24.124  1.00  0.00     0.000 G0
ENDBRANCH  13  15
ENDBRANCH  12  13
BRANCH  12  17
ATOM     17  C   UNL     1      16.976 -34.658  20.255  1.00  0.00    -0.006 C 
ATOM     18  C   UNL     1      15.874 -35.670  19.898  1.00  0.00     0.008 C 
ATOM     19  C   UNL     1      17.429 -33.913  18.991  1.00  0.00     0.008 C 
ENDBRANCH  12  17
ENDBRANCH  11  12
ENDBRANCH   1  11
TORSDOF 1
ENDMDL
MODEL 3
REMARK VINA RESULT:    -3.994      1.698      4.405
REMARK INTER + INTRA:          -6.493
REMARK INTER:                  -6.463
REMARK INTRA:                  -0.030
REMARK UNBOUND:                -0.398
REMARK SMILES CC1=CCC[C@H](C)C(=O)C[C@H](C(C)C)C(=O)C1
REMARK SMILES IDX 8 1 9 2 6 3 7 4 5 5 4 6 3 7 2 8 1 9 10 11 11 12 15 13 16 14
REMARK SMILES IDX 17 15 12 17 13 18 14 19
REMARK H PARENT
REMARK Flexibility Score: 70.00
ROOT
ATOM      1  C   UNL     1      14.316 -32.585  21.441  1.00  0.00     0.136 C 
ATOM      2  O   UNL     1      13.943 -32.289  20.314  1.00  0.00    -0.299 OA
ENDROOT
BRANCH   1   3
ATOM      3  C   UNL     1      13.917 -31.703  22.608  1.00  0.00     0.053 C 
ATOM      4  C   UNL     1      14.171 -32.418  23.941  1.00  0.00     0.016 C 
BRANCH   3   5
ATOM      5  C   UNL     1      14.693 -30.359  22.527  1.00  0.00     0.015 C 
BRANCH   5   6
ATOM      6  C   UNL     1      16.096 -30.378  23.162  1.00  0.00     0.028 C 
BRANCH   6   7
ATOM      7  C   UNL     1      17.265 -30.371  22.198  1.00  0.00    -0.028 C 
ATOM      8  C   UNL     1      18.281 -31.267  22.155  1.00  0.00    -0.070 CG0
ATOM      9  C   UNL     1      19.393 -31.032  21.163  1.00  0.00     0.039 C 
ATOM     10  G   UNL     1      18.326 -32.525  23.002  1.00  0.00     0.000 G0
ENDBRANCH   6   7
ENDBRANCH   5   6
ENDBRANCH   3   5
ENDBRANCH   1   3
BRANCH   1  11
ATOM     11  C   UNL     1      15.159 -33.831  21.624  1.00  0.00     0.087 C 
BRANCH  11  12
ATOM     12  C   UNL     1      16.656 -33.642  21.244  1.00  0.00     0.066 C 
BRANCH  12  13
ATOM     13  C   UNL     1      17.576 -33.718  22.463  1.00  0.00     0.140 C 
ATOM     14  O   UNL     1      17.733 -34.796  23.017  1.00  0.00    -0.299 OA
BRANCH  13  15
ATOM     15  C   UNL     1      18.336 -32.524  23.020  1.00  0.00     0.106 CG0
ATOM     16  G   UNL     1      18.291 -31.286  22.144  1.00  0.00     0.000 G0
ENDBRANCH  13  15
ENDBRANCH  12  13
BRANCH  12  17
ATOM     17  C   UNL     1      17.149 -34.604  20.119  1.00  0.00    -0.006 C 
ATOM     18  C   UNL     1      16.150 -35.713  19.746  1.00  0.00     0.008 C 
ATOM     19  C   UNL     1      17.571 -33.836  18.857  1.00  0.00     0.008 C 
ENDBRANCH  12  17
ENDBRANCH  11  12
ENDBRANCH   1  11
TORSDOF 1
ENDMDL
MODEL 4
REMARK VINA RESULT:    -3.964      2.173      3.503
REMARK INTER + INTRA:          -6.447
REMARK INTER:                  -6.199
REMARK INTRA:                  -0.249
REMARK UNBOUND:                -0.398
REMARK SMILES CC1=CCC[C@H](C)C(=O)C[C@H](C(C)C)C(=O)C1
REMARK SMILES IDX 8 1 9 2 6 3 7 4 5 5 4 6 3 7 2 8 1 9 10 11 11 12 15 13 16 14
REMARK SMILES IDX 17 15 12 17 13 18 14 19
REMARK H PARENT
REMARK Flexibility Score: 70.00
ROOT
ATOM      1  C   UNL     1      16.515 -29.380  21.882  1.00  0.00     0.136 C 
ATOM      2  O   UNL     1      16.003 -28.278  21.750  1.00  0.00    -0.299 OA
ENDROOT
BRANCH   1   3
ATOM      3  C   UNL     1      17.677 -29.768  20.988  1.00  0.00     0.053 C 
ATOM      4  C   UNL     1      18.494 -28.532  20.592  1.00  0.00     0.016 C 
BRANCH   3   5
ATOM      5  C   UNL     1      18.557 -30.823  21.714  1.00  0.00     0.015 C 
BRANCH   5   6
ATOM      6  C   UNL     1      18.496 -32.242  21.117  1.00  0.00     0.028 C 
BRANCH   6   7
ATOM      7  C   UNL     1      18.503 -33.386  22.112  1.00  0.00    -0.028 C 
ATOM      8  C   UNL     1      17.419 -34.034  22.603  1.00  0.00    -0.070 CG0
ATOM      9  C   UNL     1      17.643 -35.098  23.649  1.00  0.00     0.039 C 
ATOM     10  G   UNL     1      16.004 -33.796  22.111  1.00  0.00     0.000 G0
ENDBRANCH   6   7
ENDBRANCH   5   6
ENDBRANCH   3   5
ENDBRANCH   1   3
BRANCH   1  11
ATOM     11  C   UNL     1      15.969 -30.314  22.944  1.00  0.00     0.087 C 
BRANCH  11  12
ATOM     12  C   UNL     1      14.939 -31.347  22.405  1.00  0.00     0.066 C 
BRANCH  12  13
ATOM     13  C   UNL     1      15.225 -32.764  22.905  1.00  0.00     0.140 C 
ATOM     14  O   UNL     1      14.793 -33.102  23.997  1.00  0.00    -0.299 OA
BRANCH  13  15
ATOM     15  C   UNL     1      16.003 -33.798  22.105  1.00  0.00     0.106 CG0
ATOM     16  G   UNL     1      17.422 -34.028  22.588  1.00  0.00     0.000 G0
ENDBRANCH  13  15
ENDBRANCH  12  13
BRANCH  12  17
ATOM     17  C   UNL     1      13.452 -30.957  22.674  1.00  0.00    -0.006 C 
ATOM     18  C   UNL     1      13.271 -29.667  23.494  1.00  0.00     0.008 C 
ATOM     19  C   UNL     1      12.642 -30.865  21.372  1.00  0.00     0.008 C 
ENDBRANCH  12  17
ENDBRANCH  11  12
ENDBRANCH   1  11
TORSDOF 1
ENDMDL
MODEL 5
REMARK VINA RESULT:    -3.905      1.828      4.011
REMARK INTER + INTRA:          -6.357
REMARK INTER:                  -5.936
REMARK INTRA:                  -0.421
REMARK UNBOUND:                -0.398
REMARK SMILES CC1=CCC[C@H](C)C(=O)C[C@H](C(C)C)C(=O)C1
REMARK SMILES IDX 8 1 9 2 6 3 7 4 5 5 4 6 3 7 2 8 1 9 10 11 11 12 15 13 16 14
REMARK SMILES IDX 17 15 12 17 13 18 14 19
REMARK H PARENT
REMARK Flexibility Score: 70.00
ROOT
ATOM      1  C   UNL     1      16.010 -31.614  22.263  1.00  0.00     0.136 C 
ATOM      2  O   UNL     1      16.237 -30.803  21.377  1.00  0.00    -0.299 OA
ENDROOT
BRANCH   1   3
ATOM      3  C   UNL     1      14.635 -32.248  22.351  1.00  0.00     0.053 C 
ATOM      4  C   UNL     1      13.592 -31.220  22.807  1.00  0.00     0.016 C 
BRANCH   3   5
ATOM      5  C   UNL     1      14.263 -32.865  20.974  1.00  0.00     0.015 C 
BRANCH   5   6
ATOM      6  C   UNL     1      14.941 -34.211  20.659  1.00  0.00     0.028 C 
BRANCH   6   7
ATOM      7  C   UNL     1      16.076 -34.168  19.656  1.00  0.00    -0.028 C 
ATOM      8  C   UNL     1      17.375 -34.473  19.893  1.00  0.00    -0.070 CG0
ATOM      9  C   UNL     1      18.364 -34.288  18.769  1.00  0.00     0.039 C 
ATOM     10  G   UNL     1      17.875 -35.053  21.203  1.00  0.00     0.000 G0
ENDBRANCH   6   7
ENDBRANCH   5   6
ENDBRANCH   3   5
ENDBRANCH   1   3
BRANCH   1  11
ATOM     11  C   UNL     1      17.120 -31.959  23.236  1.00  0.00     0.087 C 
BRANCH  11  12
ATOM     12  C   UNL     1      17.409 -33.483  23.348  1.00  0.00     0.066 C 
BRANCH  12  13
ATOM     13  C   UNL     1      18.312 -33.985  22.221  1.00  0.00     0.140 C 
ATOM     14  O   UNL     1      19.442 -33.531  22.124  1.00  0.00    -0.299 OA
BRANCH  13  15
ATOM     15  C   UNL     1      17.892 -35.046  21.215  1.00  0.00     0.106 CG0
ATOM     16  G   UNL     1      17.401 -34.495  19.889  1.00  0.00     0.000 G0
ENDBRANCH  13  15
ENDBRANCH  12  13
BRANCH  12  17
ATOM     17  C   UNL     1      17.968 -33.920  24.739  1.00  0.00    -0.006 C 
ATOM     18  C   UNL     1      18.388 -32.754  25.651  1.00  0.00     0.008 C 
ATOM     19  C   UNL     1      16.988 -34.838  25.484  1.00  0.00     0.008 C 
ENDBRANCH  12  17
ENDBRANCH  11  12
ENDBRANCH   1  11
TORSDOF 1
ENDMDL
MODEL 6
REMARK VINA RESULT:    -3.852      1.600      3.855
REMARK INTER + INTRA:          -6.277
REMARK INTER:                  -6.090
REMARK INTRA:                  -0.186
REMARK UNBOUND:                -0.398
REMARK SMILES CC1=CCC[C@H](C)C(=O)C[C@H](C(C)C)C(=O)C1
REMARK SMILES IDX 8 1 9 2 6 3 7 4 5 5 4 6 3 7 2 8 1 9 10 11 11 12 15 13 16 14
REMARK SMILES IDX 17 15 12 17 13 18 14 19
REMARK H PARENT
REMARK Flexibility Score: 70.00
ROOT
ATOM      1  C   UNL     1      15.027 -32.854  21.147  1.00  0.00     0.136 C 
ATOM      2  O   UNL     1      14.067 -32.748  20.398  1.00  0.00    -0.299 OA
ENDROOT
BRANCH   1   3
ATOM      3  C   UNL     1      15.544 -31.622  21.865  1.00  0.00     0.053 C 
ATOM      4  C   UNL     1      14.653 -30.408  21.573  1.00  0.00     0.016 C 
BRANCH   3   5
ATOM      5  C   UNL     1      15.629 -31.911  23.390  1.00  0.00     0.015 C 
BRANCH   5   6
ATOM      6  C   UNL     1      17.044 -31.821  23.991  1.00  0.00     0.028 C 
BRANCH   6   7
ATOM      7  C   UNL     1      17.469 -32.978  24.874  1.00  0.00    -0.028 C 
ATOM      8  C   UNL     1      18.194 -34.058  24.495  1.00  0.00    -0.070 CG0
ATOM      9  C   UNL     1      18.442 -35.139  25.518  1.00  0.00     0.039 C 
ATOM     10  G   UNL     1      18.824 -34.206  23.124  1.00  0.00     0.000 G0
ENDBRANCH   6   7
ENDBRANCH   5   6
ENDBRANCH   3   5
ENDBRANCH   1   3
BRANCH   1  11
ATOM     11  C   UNL     1      15.659 -34.218  21.333  1.00  0.00     0.087 C 
BRANCH  11  12
ATOM     12  C   UNL     1      17.179 -34.260  21.003  1.00  0.00     0.066 C 
BRANCH  12  13
ATOM     13  C   UNL     1      17.990 -34.952  22.099  1.00  0.00     0.140 C 
ATOM     14  O   UNL     1      17.983 -36.173  22.155  1.00  0.00    -0.299 OA
BRANCH  13  15
ATOM     15  C   UNL     1      18.834 -34.205  23.121  1.00  0.00     0.106 CG0
ATOM     16  G   UNL     1      18.197 -34.083  24.492  1.00  0.00     0.000 G0
ENDBRANCH  13  15
ENDBRANCH  12  13
BRANCH  12  17
ATOM     17  C   UNL     1      17.505 -34.871  19.604  1.00  0.00    -0.006 C 
ATOM     18  C   UNL     1      16.667 -36.109  19.238  1.00  0.00     0.008 C 
ATOM     19  C   UNL     1      17.404 -33.823  18.486  1.00  0.00     0.008 C 
ENDBRANCH  12  17
ENDBRANCH  11  12
ENDBRANCH   1  11
TORSDOF 1
ENDMDL
MODEL 7
REMARK VINA RESULT:    -3.833      2.305      3.509
REMARK INTER + INTRA:          -6.248
REMARK INTER:                  -6.324
REMARK INTRA:                   0.077
REMARK UNBOUND:                -0.398
REMARK SMILES CC1=CCC[C@H](C)C(=O)C[C@H](C(C)C)C(=O)C1
REMARK SMILES IDX 8 1 9 2 6 3 7 4 5 5 4 6 3 7 2 8 1 9 10 11 11 12 15 13 16 14
REMARK SMILES IDX 17 15 12 17 13 18 14 19
REMARK H PARENT
REMARK Flexibility Score: 70.00
ROOT
ATOM      1  C   UNL     1      15.941 -33.567  23.184  1.00  0.00     0.136 C 
ATOM      2  O   UNL     1      16.217 -33.531  24.375  1.00  0.00    -0.299 OA
ENDROOT
BRANCH   1   3
ATOM      3  C   UNL     1      16.686 -34.530  22.281  1.00  0.00     0.053 C 
ATOM      4  C   UNL     1      15.875 -34.823  21.012  1.00  0.00     0.016 C 
BRANCH   3   5
ATOM      5  C   UNL     1      18.083 -33.942  21.940  1.00  0.00     0.015 C 
BRANCH   5   6
ATOM      6  C   UNL     1      18.130 -33.069  20.671  1.00  0.00     0.028 C 
BRANCH   6   7
ATOM      7  C   UNL     1      18.880 -31.757  20.790  1.00  0.00    -0.028 C 
ATOM      8  C   UNL     1      18.336 -30.534  21.004  1.00  0.00    -0.070 CG0
ATOM      9  C   UNL     1      19.259 -29.340  21.011  1.00  0.00     0.039 C 
ATOM     10  G   UNL     1      16.867 -30.310  21.304  1.00  0.00     0.000 G0
ENDBRANCH   6   7
ENDBRANCH   5   6
ENDBRANCH   3   5
ENDBRANCH   1   3
BRANCH   1  11
ATOM     11  C   UNL     1      14.857 -32.647  22.660  1.00  0.00     0.087 C 
BRANCH  11  12
ATOM     12  C   UNL     1      15.035 -31.159  23.079  1.00  0.00     0.066 C 
BRANCH  12  13
ATOM     13  C   UNL     1      16.418 -30.618  22.717  1.00  0.00     0.140 C 
ATOM     14  O   UNL     1      17.234 -30.440  23.609  1.00  0.00    -0.299 OA
BRANCH  13  15
ATOM     15  C   UNL     1      16.855 -30.306  21.293  1.00  0.00     0.106 CG0
ATOM     16  G   UNL     1      18.328 -30.543  21.022  1.00  0.00     0.000 G0
ENDBRANCH  13  15
ENDBRANCH  12  13
BRANCH  12  17
ATOM     17  C   UNL     1      13.914 -30.213  22.544  1.00  0.00    -0.006 C 
ATOM     18  C   UNL     1      13.115 -30.780  21.358  1.00  0.00     0.008 C 
ATOM     19  C   UNL     1      12.953 -29.780  23.662  1.00  0.00     0.008 C 
ENDBRANCH  12  17
ENDBRANCH  11  12
ENDBRANCH   1  11
TORSDOF 1
ENDMDL
MODEL 8
REMARK VINA RESULT:    -3.827      2.735      4.263
REMARK INTER + INTRA:          -6.239
REMARK INTER:                  -6.415
REMARK INTRA:                   0.177
REMARK UNBOUND:                -0.398
REMARK SMILES CC1=CCC[C@H](C)C(=O)C[C@H](C(C)C)C(=O)C1
REMARK SMILES IDX 8 1 9 2 6 3 7 4 5 5 4 6 3 7 2 8 1 9 10 11 11 12 15 13 16 14
REMARK SMILES IDX 17 15 12 17 13 18 14 19
REMARK H PARENT
REMARK Flexibility Score: 70.00
ROOT
ATOM      1  C   UNL     1      17.336 -33.701  20.392  1.00  0.00     0.136 C 
ATOM      2  O   UNL     1      18.218 -34.042  19.616  1.00  0.00    -0.299 OA
ENDROOT
BRANCH   1   3
ATOM      3  C   UNL     1      15.942 -34.271  20.224  1.00  0.00     0.053 C 
ATOM      4  C   UNL     1      15.979 -35.804  20.220  1.00  0.00     0.016 C 
BRANCH   3   5
ATOM      5  C   UNL     1      15.022 -33.727  21.352  1.00  0.00     0.015 C 
BRANCH   5   6
ATOM      6  C   UNL     1      14.056 -32.608  20.921  1.00  0.00     0.028 C 
BRANCH   6   7
ATOM      7  C   UNL     1      13.504 -31.737  22.032  1.00  0.00    -0.028 C 
ATOM      8  C   UNL     1      14.036 -30.578  22.488  1.00  0.00    -0.070 CG0
ATOM      9  C   UNL     1      13.368 -29.904  23.662  1.00  0.00     0.039 C 
ATOM     10  G   UNL     1      15.222 -29.887  21.842  1.00  0.00     0.000 G0
ENDBRANCH   6   7
ENDBRANCH   5   6
ENDBRANCH   3   5
ENDBRANCH   1   3
BRANCH   1  11
ATOM     11  C   UNL     1      17.678 -32.722  21.497  1.00  0.00     0.087 C 
BRANCH  11  12
ATOM     12  C   UNL     1      17.430 -31.233  21.121  1.00  0.00     0.066 C 
BRANCH  12  13
ATOM     13  C   UNL     1      16.577 -30.508  22.162  1.00  0.00     0.140 C 
ATOM     14  O   UNL     1      16.999 -30.410  23.305  1.00  0.00    -0.299 OA
BRANCH  13  15
ATOM     15  C   UNL     1      15.230 -29.873  21.853  1.00  0.00     0.106 CG0
ATOM     16  G   UNL     1      14.043 -30.583  22.477  1.00  0.00     0.000 G0
ENDBRANCH  13  15
ENDBRANCH  12  13
BRANCH  12  17
ATOM     17  C   UNL     1      18.735 -30.431  20.821  1.00  0.00    -0.006 C 
ATOM     18  C   UNL     1      18.531 -28.913  20.678  1.00  0.00     0.008 C 
ATOM     19  C   UNL     1      19.830 -30.715  21.860  1.00  0.00     0.008 C 
ENDBRANCH  12  17
ENDBRANCH  11  12
ENDBRANCH   1  11
TORSDOF 1
ENDMDL
MODEL 9
REMARK VINA RESULT:    -3.741      2.125      4.243
REMARK INTER + INTRA:          -6.106
REMARK INTER:                  -5.545
REMARK INTRA:                  -0.561
REMARK UNBOUND:                -0.398
REMARK SMILES CC1=CCC[C@H](C)C(=O)C[C@H](C(C)C)C(=O)C1
REMARK SMILES IDX 8 1 9 2 6 3 7 4 5 5 4 6 3 7 2 8 1 9 10 11 11 12 15 13 16 14
REMARK SMILES IDX 17 15 12 17 13 18 14 19
REMARK H PARENT
REMARK Flexibility Score: 70.00
ROOT
ATOM      1  C   UNL     1      17.825 -31.456  21.424  1.00  0.00     0.136 C 
ATOM      2  O   UNL     1      17.870 -30.533  20.624  1.00  0.00    -0.299 OA
ENDROOT
BRANCH   1   3
ATOM      3  C   UNL     1      16.608 -31.602  22.317  1.00  0.00     0.053 C 
ATOM      4  C   UNL     1      16.212 -30.249  22.922  1.00  0.00     0.016 C 
BRANCH   3   5
ATOM      5  C   UNL     1      15.441 -32.222  21.500  1.00  0.00     0.015 C 
BRANCH   5   6
ATOM      6  C   UNL     1      15.238 -33.736  21.700  1.00  0.00     0.028 C 
BRANCH   6   7
ATOM      7  C   UNL     1      15.803 -34.635  20.618  1.00  0.00    -0.028 C 
ATOM      8  C   UNL     1      16.881 -35.448  20.727  1.00  0.00    -0.070 CG0
ATOM      9  C   UNL     1      17.326 -36.204  19.499  1.00  0.00     0.039 C 
ATOM     10  G   UNL     1      17.621 -35.692  22.029  1.00  0.00     0.000 G0
ENDBRANCH   6   7
ENDBRANCH   5   6
ENDBRANCH   3   5
ENDBRANCH   1   3
BRANCH   1  11
ATOM     11  C   UNL     1      18.990 -32.422  21.487  1.00  0.00     0.087 C 
BRANCH  11  12
ATOM     12  C   UNL     1      18.917 -33.423  22.676  1.00  0.00     0.066 C 
BRANCH  12  13
ATOM     13  C   UNL     1      18.900 -34.878  22.207  1.00  0.00     0.140 C 
ATOM     14  O   UNL     1      19.963 -35.434  21.974  1.00  0.00    -0.299 OA
BRANCH  13  15
ATOM     15  C   UNL     1      17.627 -35.692  22.035  1.00  0.00     0.106 CG0
ATOM     16  G   UNL     1      16.898 -35.448  20.728  1.00  0.00     0.000 G0
ENDBRANCH  13  15
ENDBRANCH  12  13
BRANCH  12  17
ATOM     17  C   UNL     1      20.022 -33.203  23.756  1.00  0.00    -0.006 C 
ATOM     18  C   UNL     1      21.276 -32.473  23.244  1.00  0.00     0.008 C 
ATOM     19  C   UNL     1      19.471 -32.486  24.997  1.00  0.00     0.008 C 
ENDBRANCH  12  17
ENDBRANCH  11  12
ENDBRANCH   1  11
TORSDOF 1
ENDMDL
