MODEL 1
REMARK VINA RESULT:    -6.385      0.000      0.000
REMARK INTER + INTRA:          -8.249
REMARK INTER:                  -7.878
REMARK INTRA:                  -0.371
REMARK UNBOUND:                -0.371
REMARK SMILES Oc1cc(O)c2cc(O)c(-c3cc(O)c(O)c(O)c3)[o+]c2c1.[Cl-]
REMARK SMILES IDX 10 1 20 2 21 3 22 4 2 5 3 6 4 7 6 8 7 9 8 10 11 11 12 12
REMARK SMILES IDX 13 13 19 14 15 15 17 16 14 17 16 19 18 21 9 23 1 25 5 27
REMARK H PARENT 14 18 16 20 18 22 9 24 1 26 5 28
REMARK Flexibility Score: inf
ROOT
ATOM      1  C   UNL     1      38.251 -49.187 -17.247  1.00  0.00     0.402 A 
ATOM      2  O   UNL     1      39.123 -48.756 -16.339  1.00  0.00    -0.202 OA
ATOM      3  C   UNL     1      38.986 -48.975 -15.035  1.00  0.00     0.368 A 
ATOM      4  C   UNL     1      39.954 -48.479 -14.158  1.00  0.00     0.162 A 
ATOM      5  C   UNL     1      39.833 -48.691 -12.781  1.00  0.00     0.128 A 
ATOM      6  C   UNL     1      38.740 -49.402 -12.280  1.00  0.00     0.093 A 
ATOM      7  C   UNL     1      37.756 -49.909 -13.139  1.00  0.00     0.136 A 
ATOM      8  C   UNL     1      37.876 -49.698 -14.537  1.00  0.00     0.125 A 
ATOM      9  C   UNL     1      36.945 -50.181 -15.473  1.00  0.00     0.078 A 
ATOM     10  C   UNL     1      37.132 -49.937 -16.837  1.00  0.00     0.223 A 
ENDROOT
BRANCH   1  11
ATOM     11  C   UNL     1      38.508 -48.872 -18.671  1.00  0.00     0.091 A 
ATOM     12  C   UNL     1      39.171 -49.780 -19.514  1.00  0.00     0.068 A 
ATOM     13  C   UNL     1      39.386 -49.473 -20.865  1.00  0.00     0.162 A 
ATOM     14  C   UNL     1      38.032 -47.665 -19.208  1.00  0.00     0.068 A 
ATOM     15  C   UNL     1      38.925 -48.253 -21.387  1.00  0.00     0.200 A 
ATOM     16  C   UNL     1      38.246 -47.352 -20.556  1.00  0.00     0.162 A 
BRANCH  13  17
ATOM     17  O   UNL     1      40.049 -50.379 -21.691  1.00  0.00    -0.504 OA
ATOM     18  H   UNL     1      40.133 -51.359 -21.446  1.00  0.00     0.293 HD
ENDBRANCH  13  17
BRANCH  15  19
ATOM     19  O   UNL     1      39.130 -47.923 -22.726  1.00  0.00    -0.502 OA
ATOM     20  H   UNL     1      39.479 -48.594 -23.400  1.00  0.00     0.293 HD
ENDBRANCH  15  19
BRANCH  16  21
ATOM     21  O   UNL     1      37.783 -46.146 -21.080  1.00  0.00    -0.504 OA
ATOM     22  H   UNL     1      37.952 -45.886 -22.045  1.00  0.00     0.293 HD
ENDBRANCH  16  21
ENDBRANCH   1  11
BRANCH  10  23
ATOM     23  O   UNL     1      36.237 -50.458 -17.770  1.00  0.00    -0.500 OA
ATOM     24  H   UNL     1      35.551 -49.873 -18.234  1.00  0.00     0.294 HD
ENDBRANCH  10  23
BRANCH   5  25
ATOM     25  O   UNL     1      40.794 -48.200 -11.901  1.00  0.00    -0.507 OA
ATOM     26  H   UNL     1      40.578 -48.019 -10.927  1.00  0.00     0.293 HD
ENDBRANCH   5  25
BRANCH   7  27
ATOM     27  O   UNL     1      36.692 -50.606 -12.558  1.00  0.00    -0.507 OA
ATOM     28  H   UNL     1      35.834 -50.838 -13.037  1.00  0.00     0.293 HD
ENDBRANCH   7  27
TORSDOF 7
ENDMDL
MODEL 2
REMARK VINA RESULT:    -6.380      0.109      1.791
REMARK INTER + INTRA:          -8.243
REMARK INTER:                  -7.869
REMARK INTRA:                  -0.374
REMARK UNBOUND:                -0.371
REMARK SMILES Oc1cc(O)c2cc(O)c(-c3cc(O)c(O)c(O)c3)[o+]c2c1.[Cl-]
REMARK SMILES IDX 10 1 20 2 21 3 22 4 2 5 3 6 4 7 6 8 7 9 8 10 11 11 12 12
REMARK SMILES IDX 13 13 19 14 15 15 17 16 14 17 16 19 18 21 9 23 1 25 5 27
REMARK H PARENT 14 18 16 20 18 22 9 24 1 26 5 28
REMARK Flexibility Score: inf
ROOT
ATOM      1  C   UNL     1      38.139 -49.209 -17.212  1.00  0.00     0.402 A 
ATOM      2  O   UNL     1      39.028 -48.804 -16.309  1.00  0.00    -0.202 OA
ATOM      3  C   UNL     1      38.902 -49.037 -15.006  1.00  0.00     0.368 A 
ATOM      4  C   UNL     1      39.887 -48.568 -14.133  1.00  0.00     0.162 A 
ATOM      5  C   UNL     1      39.777 -48.797 -12.758  1.00  0.00     0.128 A 
ATOM      6  C   UNL     1      38.679 -49.497 -12.254  1.00  0.00     0.093 A 
ATOM      7  C   UNL     1      37.678 -49.977 -13.109  1.00  0.00     0.136 A 
ATOM      8  C   UNL     1      37.786 -49.750 -14.505  1.00  0.00     0.125 A 
ATOM      9  C   UNL     1      36.838 -50.206 -15.437  1.00  0.00     0.078 A 
ATOM     10  C   UNL     1      37.014 -49.948 -16.799  1.00  0.00     0.223 A 
ENDROOT
BRANCH   1  11
ATOM     11  C   UNL     1      38.386 -48.879 -18.634  1.00  0.00     0.091 A 
ATOM     12  C   UNL     1      37.994 -47.644 -19.178  1.00  0.00     0.068 A 
ATOM     13  C   UNL     1      38.257 -47.340 -20.521  1.00  0.00     0.162 A 
ATOM     14  C   UNL     1      39.078 -49.792 -19.445  1.00  0.00     0.068 A 
ATOM     15  C   UNL     1      38.930 -48.271 -21.331  1.00  0.00     0.200 A 
ATOM     16  C   UNL     1      39.342 -49.495 -20.789  1.00  0.00     0.162 A 
BRANCH  13  17
ATOM     17  O   UNL     1      37.858 -46.114 -21.052  1.00  0.00    -0.504 OA
ATOM     18  H   UNL     1      38.503 -45.520 -21.561  1.00  0.00     0.293 HD
ENDBRANCH  13  17
BRANCH  15  19
ATOM     19  O   UNL     1      39.199 -47.993 -22.670  1.00  0.00    -0.502 OA
ATOM     20  H   UNL     1      40.143 -47.872 -23.017  1.00  0.00     0.293 HD
ENDBRANCH  15  19
BRANCH  16  21
ATOM     21  O   UNL     1      40.017 -50.412 -21.593  1.00  0.00    -0.504 OA
ATOM     22  H   UNL     1      40.812 -50.139 -22.158  1.00  0.00     0.293 HD
ENDBRANCH  16  21
ENDBRANCH   1  11
BRANCH  10  23
ATOM     23  O   UNL     1      36.101 -50.442 -17.730  1.00  0.00    -0.500 OA
ATOM     24  H   UNL     1      35.380 -51.105 -17.468  1.00  0.00     0.294 HD
ENDBRANCH  10  23
BRANCH   5  25
ATOM     25  O   UNL     1      40.755 -48.332 -11.882  1.00  0.00    -0.507 OA
ATOM     26  H   UNL     1      41.232 -48.955 -11.241  1.00  0.00     0.293 HD
ENDBRANCH   5  25
BRANCH   7  27
ATOM     27  O   UNL     1      36.610 -50.666 -12.525  1.00  0.00    -0.507 OA
ATOM     28  H   UNL     1      36.682 -51.584 -12.111  1.00  0.00     0.293 HD
ENDBRANCH   7  27
TORSDOF 7
ENDMDL
MODEL 3
REMARK VINA RESULT:    -5.657      1.567      7.261
REMARK INTER + INTRA:          -7.351
REMARK INTER:                  -6.996
REMARK INTRA:                  -0.355
REMARK UNBOUND:                -0.371
REMARK SMILES Oc1cc(O)c2cc(O)c(-c3cc(O)c(O)c(O)c3)[o+]c2c1.[Cl-]
REMARK SMILES IDX 10 1 20 2 21 3 22 4 2 5 3 6 4 7 6 8 7 9 8 10 11 11 12 12
REMARK SMILES IDX 13 13 19 14 15 15 17 16 14 17 16 19 18 21 9 23 1 25 5 27
REMARK H PARENT 14 18 16 20 18 22 9 24 1 26 5 28
REMARK Flexibility Score: inf
ROOT
ATOM      1  C   UNL     1      39.262 -48.032 -16.564  1.00  0.00     0.402 A 
ATOM      2  O   UNL     1      39.697 -48.846 -17.522  1.00  0.00    -0.202 OA
ATOM      3  C   UNL     1      39.425 -48.667 -18.811  1.00  0.00     0.368 A 
ATOM      4  C   UNL     1      39.925 -49.579 -19.744  1.00  0.00     0.162 A 
ATOM      5  C   UNL     1      39.650 -49.417 -21.106  1.00  0.00     0.128 A 
ATOM      6  C   UNL     1      38.874 -48.338 -21.535  1.00  0.00     0.093 A 
ATOM      7  C   UNL     1      38.361 -47.410 -20.619  1.00  0.00     0.136 A 
ATOM      8  C   UNL     1      38.639 -47.569 -19.237  1.00  0.00     0.125 A 
ATOM      9  C   UNL     1      38.179 -46.682 -18.250  1.00  0.00     0.078 A 
ATOM     10  C   UNL     1      38.497 -46.901 -16.906  1.00  0.00     0.223 A 
ENDROOT
BRANCH   1  11
ATOM     11  C   UNL     1      39.625 -48.343 -15.162  1.00  0.00     0.091 A 
ATOM     12  C   UNL     1      38.703 -48.934 -14.282  1.00  0.00     0.068 A 
ATOM     13  C   UNL     1      39.071 -49.242 -12.964  1.00  0.00     0.162 A 
ATOM     14  C   UNL     1      40.933 -48.099 -14.717  1.00  0.00     0.068 A 
ATOM     15  C   UNL     1      40.377 -48.972 -12.522  1.00  0.00     0.200 A 
ATOM     16  C   UNL     1      41.307 -48.403 -13.401  1.00  0.00     0.162 A 
BRANCH  13  17
ATOM     17  O   UNL     1      38.147 -49.822 -12.097  1.00  0.00    -0.504 OA
ATOM     18  H   UNL     1      37.150 -49.767 -12.269  1.00  0.00     0.293 HD
ENDBRANCH  13  17
BRANCH  15  19
ATOM     19  O   UNL     1      40.766 -49.266 -11.215  1.00  0.00    -0.502 OA
ATOM     20  H   UNL     1      40.775 -48.565 -10.484  1.00  0.00     0.293 HD
ENDBRANCH  15  19
BRANCH  16  21
ATOM     21  O   UNL     1      42.604 -48.144 -12.960  1.00  0.00    -0.504 OA
ATOM     22  H   UNL     1      43.369 -48.011 -13.611  1.00  0.00     0.293 HD
ENDBRANCH  16  21
ENDBRANCH   1  11
BRANCH  10  23
ATOM     23  O   UNL     1      38.083 -45.995 -15.931  1.00  0.00    -0.500 OA
ATOM     24  H   UNL     1      37.248 -45.431 -16.048  1.00  0.00     0.294 HD
ENDBRANCH  10  23
BRANCH   5  25
ATOM     25  O   UNL     1      40.145 -50.322 -22.041  1.00  0.00    -0.507 OA
ATOM     26  H   UNL     1      39.538 -50.767 -22.720  1.00  0.00     0.293 HD
ENDBRANCH   5  25
BRANCH   7  27
ATOM     27  O   UNL     1      37.591 -46.361 -21.129  1.00  0.00    -0.507 OA
ATOM     28  H   UNL     1      37.509 -45.452 -20.697  1.00  0.00     0.293 HD
ENDBRANCH   7  27
TORSDOF 7
ENDMDL
MODEL 4
REMARK VINA RESULT:    -5.651      1.848      7.020
REMARK INTER + INTRA:          -7.343
REMARK INTER:                  -6.995
REMARK INTRA:                  -0.348
REMARK UNBOUND:                -0.371
REMARK SMILES Oc1cc(O)c2cc(O)c(-c3cc(O)c(O)c(O)c3)[o+]c2c1.[Cl-]
REMARK SMILES IDX 10 1 20 2 21 3 22 4 2 5 3 6 4 7 6 8 7 9 8 10 11 11 12 12
REMARK SMILES IDX 13 13 19 14 15 15 17 16 14 17 16 19 18 21 9 23 1 25 5 27
REMARK H PARENT 14 18 16 20 18 22 9 24 1 26 5 28
REMARK Flexibility Score: inf
ROOT
ATOM      1  C   UNL     1      39.697 -48.660 -16.519  1.00  0.00     0.402 A 
ATOM      2  O   UNL     1      39.515 -47.412 -16.943  1.00  0.00    -0.202 OA
ATOM      3  C   UNL     1      39.135 -47.110 -18.180  1.00  0.00     0.368 A 
ATOM      4  C   UNL     1      38.974 -45.767 -18.533  1.00  0.00     0.162 A 
ATOM      5  C   UNL     1      38.579 -45.422 -19.829  1.00  0.00     0.128 A 
ATOM      6  C   UNL     1      38.344 -46.422 -20.775  1.00  0.00     0.093 A 
ATOM      7  C   UNL     1      38.500 -47.775 -20.447  1.00  0.00     0.136 A 
ATOM      8  C   UNL     1      38.898 -48.131 -19.132  1.00  0.00     0.125 A 
ATOM      9  C   UNL     1      39.065 -49.460 -18.710  1.00  0.00     0.078 A 
ATOM     10  C   UNL     1      39.456 -49.735 -17.396  1.00  0.00     0.223 A 
ENDROOT
BRANCH   1  11
ATOM     11  C   UNL     1      40.131 -48.868 -15.118  1.00  0.00     0.091 A 
ATOM     12  C   UNL     1      41.458 -49.207 -14.806  1.00  0.00     0.068 A 
ATOM     13  C   UNL     1      41.856 -49.377 -13.472  1.00  0.00     0.162 A 
ATOM     14  C   UNL     1      39.214 -48.667 -14.074  1.00  0.00     0.068 A 
ATOM     15  C   UNL     1      40.925 -49.196 -12.436  1.00  0.00     0.200 A 
ATOM     16  C   UNL     1      39.605 -48.838 -12.740  1.00  0.00     0.162 A 
BRANCH  13  17
ATOM     17  O   UNL     1      43.174 -49.719 -13.174  1.00  0.00    -0.504 OA
ATOM     18  H   UNL     1      43.425 -50.142 -12.288  1.00  0.00     0.293 HD
ENDBRANCH  13  17
BRANCH  15  19
ATOM     19  O   UNL     1      41.295 -49.363 -11.102  1.00  0.00    -0.502 OA
ATOM     20  H   UNL     1      40.612 -49.481 -10.363  1.00  0.00     0.293 HD
ENDBRANCH  15  19
BRANCH  16  21
ATOM     21  O   UNL     1      38.687 -48.650 -11.708  1.00  0.00    -0.504 OA
ATOM     22  H   UNL     1      38.379 -49.420 -11.125  1.00  0.00     0.293 HD
ENDBRANCH  16  21
ENDBRANCH   1  11
BRANCH  10  23
ATOM     23  O   UNL     1      39.574 -51.054 -16.961  1.00  0.00    -0.500 OA
ATOM     24  H   UNL     1      40.257 -51.688 -17.362  1.00  0.00     0.294 HD
ENDBRANCH  10  23
BRANCH   5  25
ATOM     25  O   UNL     1      38.415 -44.086 -20.188  1.00  0.00    -0.507 OA
ATOM     26  H   UNL     1      38.430 -43.346 -19.496  1.00  0.00     0.293 HD
ENDBRANCH   5  25
BRANCH   7  27
ATOM     27  O   UNL     1      38.249 -48.714 -21.451  1.00  0.00    -0.507 OA
ATOM     28  H   UNL     1      38.911 -49.412 -21.757  1.00  0.00     0.293 HD
ENDBRANCH   7  27
TORSDOF 7
ENDMDL
MODEL 5
REMARK VINA RESULT:    -5.571      1.608      7.250
REMARK INTER + INTRA:          -7.244
REMARK INTER:                  -6.911
REMARK INTRA:                  -0.333
REMARK UNBOUND:                -0.371
REMARK SMILES Oc1cc(O)c2cc(O)c(-c3cc(O)c(O)c(O)c3)[o+]c2c1.[Cl-]
REMARK SMILES IDX 10 1 20 2 21 3 22 4 2 5 3 6 4 7 6 8 7 9 8 10 11 11 12 12
REMARK SMILES IDX 13 13 19 14 15 15 17 16 14 17 16 19 18 21 9 23 1 25 5 27
REMARK H PARENT 14 18 16 20 18 22 9 24 1 26 5 28
REMARK Flexibility Score: inf
ROOT
ATOM      1  C   UNL     1      39.429 -48.107 -16.582  1.00  0.00     0.402 A 
ATOM      2  O   UNL     1      39.832 -48.935 -17.542  1.00  0.00    -0.202 OA
ATOM      3  C   UNL     1      39.546 -48.755 -18.828  1.00  0.00     0.368 A 
ATOM      4  C   UNL     1      40.011 -49.682 -19.764  1.00  0.00     0.162 A 
ATOM      5  C   UNL     1      39.722 -49.518 -21.123  1.00  0.00     0.128 A 
ATOM      6  C   UNL     1      38.966 -48.423 -21.545  1.00  0.00     0.093 A 
ATOM      7  C   UNL     1      38.488 -47.479 -20.627  1.00  0.00     0.136 A 
ATOM      8  C   UNL     1      38.781 -47.640 -19.247  1.00  0.00     0.125 A 
ATOM      9  C   UNL     1      38.355 -46.738 -18.258  1.00  0.00     0.078 A 
ATOM     10  C   UNL     1      38.686 -46.960 -16.918  1.00  0.00     0.223 A 
ENDROOT
BRANCH   1  11
ATOM     11  C   UNL     1      39.804 -48.422 -15.184  1.00  0.00     0.091 A 
ATOM     12  C   UNL     1      41.092 -48.151 -14.692  1.00  0.00     0.068 A 
ATOM     13  C   UNL     1      41.421 -48.435 -13.359  1.00  0.00     0.162 A 
ATOM     14  C   UNL     1      38.837 -48.948 -14.312  1.00  0.00     0.068 A 
ATOM     15  C   UNL     1      40.453 -48.984 -12.501  1.00  0.00     0.200 A 
ATOM     16  C   UNL     1      39.160 -49.236 -12.980  1.00  0.00     0.162 A 
BRANCH  13  17
ATOM     17  O   UNL     1      42.703 -48.169 -12.883  1.00  0.00    -0.504 OA
ATOM     18  H   UNL     1      43.015 -48.504 -11.979  1.00  0.00     0.293 HD
ENDBRANCH  13  17
BRANCH  15  19
ATOM     19  O   UNL     1      40.756 -49.279 -11.172  1.00  0.00    -0.502 OA
ATOM     20  H   UNL     1      41.037 -50.206 -10.876  1.00  0.00     0.293 HD
ENDBRANCH  15  19
BRANCH  16  21
ATOM     21  O   UNL     1      38.200 -49.772 -12.123  1.00  0.00    -0.504 OA
ATOM     22  H   UNL     1      38.088 -49.435 -11.174  1.00  0.00     0.293 HD
ENDBRANCH  16  21
ENDBRANCH   1  11
BRANCH  10  23
ATOM     23  O   UNL     1      38.307 -46.040 -15.941  1.00  0.00    -0.500 OA
ATOM     24  H   UNL     1      38.516 -45.052 -16.030  1.00  0.00     0.294 HD
ENDBRANCH  10  23
BRANCH   5  25
ATOM     25  O   UNL     1      40.182 -50.438 -22.061  1.00  0.00    -0.507 OA
ATOM     26  H   UNL     1      40.858 -50.179 -22.770  1.00  0.00     0.293 HD
ENDBRANCH   5  25
BRANCH   7  27
ATOM     27  O   UNL     1      37.736 -46.414 -21.130  1.00  0.00    -0.507 OA
ATOM     28  H   UNL     1      38.040 -45.803 -21.875  1.00  0.00     0.293 HD
ENDBRANCH   7  27
TORSDOF 7
ENDMDL
MODEL 6
REMARK VINA RESULT:    -5.475      2.760      3.880
REMARK INTER + INTRA:          -7.126
REMARK INTER:                  -6.998
REMARK INTRA:                  -0.128
REMARK UNBOUND:                -0.371
REMARK SMILES Oc1cc(O)c2cc(O)c(-c3cc(O)c(O)c(O)c3)[o+]c2c1.[Cl-]
REMARK SMILES IDX 10 1 20 2 21 3 22 4 2 5 3 6 4 7 6 8 7 9 8 10 11 11 12 12
REMARK SMILES IDX 13 13 19 14 15 15 17 16 14 17 16 19 18 21 9 23 1 25 5 27
REMARK H PARENT 14 18 16 20 18 22 9 24 1 26 5 28
REMARK Flexibility Score: inf
ROOT
ATOM      1  C   UNL     1      37.536 -46.985 -17.563  1.00  0.00     0.402 A 
ATOM      2  O   UNL     1      38.031 -47.303 -16.370  1.00  0.00    -0.202 OA
ATOM      3  C   UNL     1      37.552 -48.292 -15.621  1.00  0.00     0.368 A 
ATOM      4  C   UNL     1      38.137 -48.549 -14.378  1.00  0.00     0.162 A 
ATOM      5  C   UNL     1      37.649 -49.580 -13.569  1.00  0.00     0.128 A 
ATOM      6  C   UNL     1      36.574 -50.356 -14.005  1.00  0.00     0.093 A 
ATOM      7  C   UNL     1      35.969 -50.119 -15.246  1.00  0.00     0.136 A 
ATOM      8  C   UNL     1      36.462 -49.075 -16.072  1.00  0.00     0.125 A 
ATOM      9  C   UNL     1      35.927 -48.774 -17.336  1.00  0.00     0.078 A 
ATOM     10  C   UNL     1      36.469 -47.733 -18.096  1.00  0.00     0.223 A 
ENDROOT
BRANCH   1  11
ATOM     11  C   UNL     1      38.151 -45.856 -18.298  1.00  0.00     0.091 A 
ATOM     12  C   UNL     1      37.373 -44.797 -18.796  1.00  0.00     0.068 A 
ATOM     13  C   UNL     1      37.976 -43.725 -19.469  1.00  0.00     0.162 A 
ATOM     14  C   UNL     1      39.545 -45.810 -18.451  1.00  0.00     0.068 A 
ATOM     15  C   UNL     1      39.371 -43.700 -19.638  1.00  0.00     0.200 A 
ATOM     16  C   UNL     1      40.153 -44.742 -19.125  1.00  0.00     0.162 A 
BRANCH  13  17
ATOM     17  O   UNL     1      37.195 -42.682 -19.965  1.00  0.00    -0.504 OA
ATOM     18  H   UNL     1      36.475 -42.244 -19.403  1.00  0.00     0.293 HD
ENDBRANCH  13  17
BRANCH  15  19
ATOM     19  O   UNL     1      39.993 -42.647 -20.307  1.00  0.00    -0.502 OA
ATOM     20  H   UNL     1      40.646 -42.025 -19.845  1.00  0.00     0.293 HD
ENDBRANCH  15  19
BRANCH  16  21
ATOM     21  O   UNL     1      41.538 -44.709 -19.287  1.00  0.00    -0.504 OA
ATOM     22  H   UNL     1      42.161 -44.568 -18.500  1.00  0.00     0.293 HD
ENDBRANCH  16  21
ENDBRANCH   1  11
BRANCH  10  23
ATOM     23  O   UNL     1      35.972 -47.465 -19.371  1.00  0.00    -0.500 OA
ATOM     24  H   UNL     1      36.479 -47.733 -20.207  1.00  0.00     0.294 HD
ENDBRANCH  10  23
BRANCH   5  25
ATOM     25  O   UNL     1      38.228 -49.842 -12.330  1.00  0.00    -0.507 OA
ATOM     26  H   UNL     1      38.640 -50.742 -12.117  1.00  0.00     0.293 HD
ENDBRANCH   5  25
BRANCH   7  27
ATOM     27  O   UNL     1      34.896 -50.938 -15.607  1.00  0.00    -0.507 OA
ATOM     28  H   UNL     1      34.919 -51.607 -16.363  1.00  0.00     0.293 HD
ENDBRANCH   7  27
TORSDOF 7
ENDMDL
MODEL 7
REMARK VINA RESULT:    -5.455      2.826      7.157
REMARK INTER + INTRA:          -7.101
REMARK INTER:                  -6.731
REMARK INTRA:                  -0.370
REMARK UNBOUND:                -0.371
REMARK SMILES Oc1cc(O)c2cc(O)c(-c3cc(O)c(O)c(O)c3)[o+]c2c1.[Cl-]
REMARK SMILES IDX 10 1 20 2 21 3 22 4 2 5 3 6 4 7 6 8 7 9 8 10 11 11 12 12
REMARK SMILES IDX 13 13 19 14 15 15 17 16 14 17 16 19 18 21 9 23 1 25 5 27
REMARK H PARENT 14 18 16 20 18 22 9 24 1 26 5 28
REMARK Flexibility Score: inf
ROOT
ATOM      1  C   UNL     1      39.053 -48.393 -13.738  1.00  0.00     0.402 A 
ATOM      2  O   UNL     1      38.754 -47.879 -14.928  1.00  0.00    -0.202 OA
ATOM      3  C   UNL     1      37.720 -48.283 -15.658  1.00  0.00     0.368 A 
ATOM      4  C   UNL     1      37.487 -47.684 -16.899  1.00  0.00     0.162 A 
ATOM      5  C   UNL     1      36.408 -48.093 -17.689  1.00  0.00     0.128 A 
ATOM      6  C   UNL     1      35.560 -49.105 -17.237  1.00  0.00     0.093 A 
ATOM      7  C   UNL     1      35.771 -49.723 -15.997  1.00  0.00     0.136 A 
ATOM      8  C   UNL     1      36.863 -49.309 -15.190  1.00  0.00     0.125 A 
ATOM      9  C   UNL     1      37.144 -49.862 -13.930  1.00  0.00     0.078 A 
ATOM     10  C   UNL     1      38.236 -49.399 -13.189  1.00  0.00     0.223 A 
ENDROOT
BRANCH   1  11
ATOM     11  C   UNL     1      40.238 -47.864 -13.025  1.00  0.00     0.091 A 
ATOM     12  C   UNL     1      40.120 -46.848 -12.061  1.00  0.00     0.068 A 
ATOM     13  C   UNL     1      41.250 -46.376 -11.379  1.00  0.00     0.162 A 
ATOM     14  C   UNL     1      41.501 -48.426 -13.272  1.00  0.00     0.068 A 
ATOM     15  C   UNL     1      42.513 -46.929 -11.651  1.00  0.00     0.200 A 
ATOM     16  C   UNL     1      42.634 -47.957 -12.596  1.00  0.00     0.162 A 
BRANCH  13  17
ATOM     17  O   UNL     1      41.122 -45.364 -10.429  1.00  0.00    -0.504 OA
ATOM     18  H   UNL     1      41.671 -44.514 -10.481  1.00  0.00     0.293 HD
ENDBRANCH  13  17
BRANCH  15  19
ATOM     19  O   UNL     1      43.653 -46.474 -10.989  1.00  0.00    -0.502 OA
ATOM     20  H   UNL     1      44.255 -45.760 -11.381  1.00  0.00     0.293 HD
ENDBRANCH  15  19
BRANCH  16  21
ATOM     21  O   UNL     1      43.888 -48.509 -12.856  1.00  0.00    -0.504 OA
ATOM     22  H   UNL     1      44.007 -49.265 -13.519  1.00  0.00     0.293 HD
ENDBRANCH  16  21
ENDBRANCH   1  11
BRANCH  10  23
ATOM     23  O   UNL     1      38.487 -49.911 -11.917  1.00  0.00    -0.500 OA
ATOM     24  H   UNL     1      37.939 -50.672 -11.531  1.00  0.00     0.294 HD
ENDBRANCH  10  23
BRANCH   5  25
ATOM     25  O   UNL     1      36.171 -47.500 -18.926  1.00  0.00    -0.507 OA
ATOM     26  H   UNL     1      35.384 -46.878 -19.074  1.00  0.00     0.293 HD
ENDBRANCH   5  25
BRANCH   7  27
ATOM     27  O   UNL     1      34.879 -50.730 -15.619  1.00  0.00    -0.507 OA
ATOM     28  H   UNL     1      33.873 -50.652 -15.678  1.00  0.00     0.293 HD
ENDBRANCH   7  27
TORSDOF 7
ENDMDL
MODEL 8
REMARK VINA RESULT:    -5.355      2.819      4.569
REMARK INTER + INTRA:          -6.978
REMARK INTER:                  -6.993
REMARK INTRA:                   0.015
REMARK UNBOUND:                -0.371
REMARK SMILES Oc1cc(O)c2cc(O)c(-c3cc(O)c(O)c(O)c3)[o+]c2c1.[Cl-]
REMARK SMILES IDX 10 1 20 2 21 3 22 4 2 5 3 6 4 7 6 8 7 9 8 10 11 11 12 12
REMARK SMILES IDX 13 13 19 14 15 15 17 16 14 17 16 19 18 21 9 23 1 25 5 27
REMARK H PARENT 14 18 16 20 18 22 9 24 1 26 5 28
REMARK Flexibility Score: inf
ROOT
ATOM      1  C   UNL     1      38.169 -47.070 -18.359  1.00  0.00     0.402 A 
ATOM      2  O   UNL     1      37.362 -47.343 -17.337  1.00  0.00    -0.202 OA
ATOM      3  C   UNL     1      37.173 -48.570 -16.865  1.00  0.00     0.368 A 
ATOM      4  C   UNL     1      36.301 -48.758 -15.788  1.00  0.00     0.162 A 
ATOM      5  C   UNL     1      36.081 -50.040 -15.274  1.00  0.00     0.128 A 
ATOM      6  C   UNL     1      36.735 -51.137 -15.838  1.00  0.00     0.093 A 
ATOM      7  C   UNL     1      37.614 -50.976 -16.917  1.00  0.00     0.136 A 
ATOM      8  C   UNL     1      37.842 -49.677 -17.441  1.00  0.00     0.125 A 
ATOM      9  C   UNL     1      38.715 -49.419 -18.512  1.00  0.00     0.078 A 
ATOM     10  C   UNL     1      38.893 -48.111 -18.971  1.00  0.00     0.223 A 
ENDROOT
BRANCH   1  11
ATOM     11  C   UNL     1      38.289 -45.661 -18.800  1.00  0.00     0.091 A 
ATOM     12  C   UNL     1      39.541 -45.083 -19.072  1.00  0.00     0.068 A 
ATOM     13  C   UNL     1      39.632 -43.754 -19.511  1.00  0.00     0.162 A 
ATOM     14  C   UNL     1      37.127 -44.902 -19.009  1.00  0.00     0.068 A 
ATOM     15  C   UNL     1      38.464 -42.996 -19.694  1.00  0.00     0.200 A 
ATOM     16  C   UNL     1      37.212 -43.574 -19.445  1.00  0.00     0.162 A 
BRANCH  13  17
ATOM     17  O   UNL     1      40.879 -43.188 -19.771  1.00  0.00    -0.504 OA
ATOM     18  H   UNL     1      41.169 -42.953 -20.713  1.00  0.00     0.293 HD
ENDBRANCH  13  17
BRANCH  15  19
ATOM     19  O   UNL     1      38.529 -41.672 -20.126  1.00  0.00    -0.502 OA
ATOM     20  H   UNL     1      37.809 -41.257 -20.706  1.00  0.00     0.293 HD
ENDBRANCH  15  19
BRANCH  16  21
ATOM     21  O   UNL     1      36.055 -42.821 -19.637  1.00  0.00    -0.504 OA
ATOM     22  H   UNL     1      35.928 -41.920 -19.191  1.00  0.00     0.293 HD
ENDBRANCH  16  21
ENDBRANCH   1  11
BRANCH  10  23
ATOM     23  O   UNL     1      39.795 -47.847 -20.001  1.00  0.00    -0.500 OA
ATOM     24  H   UNL     1      39.855 -46.933 -20.435  1.00  0.00     0.294 HD
ENDBRANCH  10  23
BRANCH   5  25
ATOM     25  O   UNL     1      35.214 -50.234 -14.202  1.00  0.00    -0.507 OA
ATOM     26  H   UNL     1      34.846 -49.454 -13.670  1.00  0.00     0.293 HD
ENDBRANCH   5  25
BRANCH   7  27
ATOM     27  O   UNL     1      38.226 -52.125 -17.426  1.00  0.00    -0.507 OA
ATOM     28  H   UNL     1      39.224 -52.280 -17.439  1.00  0.00     0.293 HD
ENDBRANCH   7  27
TORSDOF 7
ENDMDL
MODEL 9
REMARK VINA RESULT:    -5.302      2.364      6.768
REMARK INTER + INTRA:          -6.913
REMARK INTER:                  -6.609
REMARK INTRA:                  -0.304
REMARK UNBOUND:                -0.371
REMARK SMILES Oc1cc(O)c2cc(O)c(-c3cc(O)c(O)c(O)c3)[o+]c2c1.[Cl-]
REMARK SMILES IDX 10 1 20 2 21 3 22 4 2 5 3 6 4 7 6 8 7 9 8 10 11 11 12 12
REMARK SMILES IDX 13 13 19 14 15 15 17 16 14 17 16 19 18 21 9 23 1 25 5 27
REMARK H PARENT 14 18 16 20 18 22 9 24 1 26 5 28
REMARK Flexibility Score: inf
ROOT
ATOM      1  C   UNL     1      39.643 -48.678 -15.635  1.00  0.00     0.402 A 
ATOM      2  O   UNL     1      39.789 -48.077 -16.814  1.00  0.00    -0.202 OA
ATOM      3  C   UNL     1      38.765 -47.729 -17.586  1.00  0.00     0.368 A 
ATOM      4  C   UNL     1      39.018 -47.104 -18.810  1.00  0.00     0.162 A 
ATOM      5  C   UNL     1      37.960 -46.731 -19.644  1.00  0.00     0.128 A 
ATOM      6  C   UNL     1      36.643 -46.983 -19.252  1.00  0.00     0.093 A 
ATOM      7  C   UNL     1      36.363 -47.608 -18.030  1.00  0.00     0.136 A 
ATOM      8  C   UNL     1      37.433 -47.986 -17.179  1.00  0.00     0.125 A 
ATOM      9  C   UNL     1      37.246 -48.606 -15.932  1.00  0.00     0.078 A 
ATOM     10  C   UNL     1      38.351 -48.946 -15.146  1.00  0.00     0.223 A 
ENDROOT
BRANCH   1  11
ATOM     11  C   UNL     1      40.863 -49.025 -14.871  1.00  0.00     0.091 A 
ATOM     12  C   UNL     1      41.241 -48.302 -13.727  1.00  0.00     0.068 A 
ATOM     13  C   UNL     1      42.387 -48.659 -13.003  1.00  0.00     0.162 A 
ATOM     14  C   UNL     1      41.630 -50.134 -15.261  1.00  0.00     0.068 A 
ATOM     15  C   UNL     1      43.160 -49.758 -13.415  1.00  0.00     0.200 A 
ATOM     16  C   UNL     1      42.777 -50.495 -14.543  1.00  0.00     0.162 A 
BRANCH  13  17
ATOM     17  O   UNL     1      42.756 -47.932 -11.872  1.00  0.00    -0.504 OA
ATOM     18  H   UNL     1      42.463 -46.971 -11.740  1.00  0.00     0.293 HD
ENDBRANCH  13  17
BRANCH  15  19
ATOM     19  O   UNL     1      44.307 -50.131 -12.714  1.00  0.00    -0.502 OA
ATOM     20  H   UNL     1      44.302 -50.879 -12.031  1.00  0.00     0.293 HD
ENDBRANCH  15  19
BRANCH  16  21
ATOM     21  O   UNL     1      43.543 -51.589 -14.943  1.00  0.00    -0.504 OA
ATOM     22  H   UNL     1      43.114 -52.468 -15.210  1.00  0.00     0.293 HD
ENDBRANCH  16  21
ENDBRANCH   1  11
BRANCH  10  23
ATOM     23  O   UNL     1      38.166 -49.515 -13.886  1.00  0.00    -0.500 OA
ATOM     24  H   UNL     1      38.949 -49.798 -13.310  1.00  0.00     0.294 HD
ENDBRANCH  10  23
BRANCH   5  25
ATOM     25  O   UNL     1      38.205 -46.108 -20.865  1.00  0.00    -0.507 OA
ATOM     26  H   UNL     1      39.147 -45.983 -21.217  1.00  0.00     0.293 HD
ENDBRANCH   5  25
BRANCH   7  27
ATOM     27  O   UNL     1      35.019 -47.828 -17.713  1.00  0.00    -0.507 OA
ATOM     28  H   UNL     1      34.250 -47.289 -18.086  1.00  0.00     0.293 HD
ENDBRANCH   7  27
TORSDOF 7
ENDMDL
