MODEL 1
REMARK VINA RESULT:    -1.480      0.000      0.000
REMARK INTER + INTRA:          -4.217
REMARK INTER:                  -2.865
REMARK INTRA:                  -1.353
REMARK UNBOUND:                -1.353
REMARK SMILES CCCCCCCCCCCCCCCCCC(=O)[O-]
REMARK SMILES IDX 10 1 11 2 12 3 13 4 14 5 15 6 16 7 17 8 18 9 19 10 20 11
REMARK SMILES IDX 9 12 8 13 7 14 6 15 5 16 4 17 3 18 2 19 1 20
REMARK H PARENT
REMARK Flexibility Score: inf
ROOT
ATOM      1  C   UNL     1       7.262  -6.628  -5.723  1.00  0.00     0.000 C 
ENDROOT
BRANCH   1   2
ATOM      2  C   UNL     1       8.678  -6.741  -6.309  1.00  0.00     0.000 C 
BRANCH   2   3
ATOM      3  C   UNL     1       9.682  -7.347  -5.316  1.00  0.00     0.000 C 
BRANCH   3   4
ATOM      4  C   UNL     1      10.124  -8.768  -5.709  1.00  0.00     0.000 C 
BRANCH   4   5
ATOM      5  C   UNL     1       9.213  -9.856  -5.118  1.00  0.00     0.000 C 
BRANCH   5   6
ATOM      6  C   UNL     1       9.499 -10.123  -3.630  1.00  0.00     0.000 C 
BRANCH   6   7
ATOM      7  C   UNL     1       9.657  -8.825  -2.821  1.00  0.00     0.006 C 
BRANCH   7   8
ATOM      8  C   UNL     1       8.309  -8.189  -2.459  1.00  0.00     0.053 C 
BRANCH   8   9
ATOM      9  C   UNL     1       7.249  -9.239  -2.350  1.00  0.00     0.041 C 
ATOM     10  O   UNL     1       6.495  -9.486  -3.328  1.00  0.00    -0.550 OA
ATOM     11  O   UNL     1       7.123  -9.980  -1.180  1.00  0.00    -0.550 OA
ENDBRANCH   8   9
ENDBRANCH   7   8
ENDBRANCH   6   7
ENDBRANCH   5   6
ENDBRANCH   4   5
ENDBRANCH   3   4
ENDBRANCH   2   3
ENDBRANCH   1   2
BRANCH   1  12
ATOM     12  C   UNL     1       6.242  -6.287  -6.819  1.00  0.00     0.000 C 
BRANCH  12  13
ATOM     13  C   UNL     1       6.773  -6.564  -8.237  1.00  0.00    -0.000 C 
BRANCH  13  14
ATOM     14  C   UNL     1       5.784  -7.280  -9.180  1.00  0.00    -0.000 C 
BRANCH  14  15
ATOM     15  C   UNL     1       6.049  -8.781  -9.398  1.00  0.00    -0.000 C 
BRANCH  15  16
ATOM     16  C   UNL     1       6.741  -9.447  -8.197  1.00  0.00    -0.000 C 
BRANCH  16  17
ATOM     17  C   UNL     1       8.101 -10.067  -8.561  1.00  0.00    -0.000 C 
BRANCH  17  18
ATOM     18  C   UNL     1       8.553  -9.769 -10.006  1.00  0.00    -0.000 C 
BRANCH  18  19
ATOM     19  C   UNL     1       9.991  -9.233 -10.063  1.00  0.00    -0.003 C 
ATOM     20  C   UNL     1      10.057  -7.781  -9.602  1.00  0.00     0.004 C 
ENDBRANCH  18  19
ENDBRANCH  17  18
ENDBRANCH  16  17
ENDBRANCH  15  16
ENDBRANCH  14  15
ENDBRANCH  13  14
ENDBRANCH  12  13
ENDBRANCH   1  12
TORSDOF 16
ENDMDL
