MODEL 1
REMARK VINA RESULT:    -5.224      0.000      0.000
REMARK INTER + INTRA:          -5.924
REMARK INTER:                  -5.682
REMARK INTRA:                  -0.242
REMARK UNBOUND:                -0.242
REMARK SMILES CC(C)c1cc2c(cc1O)[C@@]1(C)CCCC(C)(C)[C@@H]1CC2=O
REMARK SMILES IDX 4 1 9 2 8 3 7 4 6 5 5 6 21 7 22 8 20 9 19 10 11 11 13 12
REMARK SMILES IDX 14 13 15 14 16 15 17 16 18 17 12 18 2 19 1 20 3 21 10 22
REMARK H PARENT 10 23
REMARK Flexibility Score: inf
ROOT
ATOM      1  C   UNL     1      21.017  50.966  -6.760  1.00  0.00    -0.003 A 
ATOM      2  C   UNL     1      22.084  51.779  -6.328  1.00  0.00     0.119 A 
ATOM      3  C   UNL     1      22.641  51.586  -5.059  1.00  0.00     0.051 A 
ATOM      4  C   UNL     1      22.146  50.603  -4.176  1.00  0.00    -0.027 A 
ATOM      5  C   UNL     1      21.119  49.745  -4.637  1.00  0.00     0.022 A 
ATOM      6  C   UNL     1      20.556  49.949  -5.909  1.00  0.00     0.020 A 
ATOM      7  C   UNL     1      20.641  48.623  -3.798  1.00  0.00     0.163 C 
ATOM      8  O   UNL     1      19.708  47.875  -4.200  1.00  0.00    -0.294 OA
ATOM      9  C   UNL     1      21.293  48.322  -2.488  1.00  0.00     0.086 C 
ATOM     10  C   UNL     1      21.837  49.612  -1.839  1.00  0.00     0.013 C 
ATOM     11  C   UNL     1      22.811  50.398  -2.796  1.00  0.00    -0.003 C 
ATOM     12  C   UNL     1      23.141  51.794  -2.151  1.00  0.00     0.012 C 
ATOM     13  C   UNL     1      22.994  51.873  -0.620  1.00  0.00     0.001 C 
ATOM     14  C   UNL     1      23.334  50.552   0.064  1.00  0.00     0.007 C 
ATOM     15  C   UNL     1      22.363  49.406  -0.355  1.00  0.00    -0.031 C 
ATOM     16  C   UNL     1      23.091  48.050  -0.155  1.00  0.00     0.011 C 
ATOM     17  C   UNL     1      21.152  49.418   0.617  1.00  0.00     0.011 C 
ATOM     18  C   UNL     1      24.128  49.625  -3.068  1.00  0.00     0.017 C 
ENDROOT
BRANCH   1  19
ATOM     19  C   UNL     1      20.365  51.135  -8.128  1.00  0.00     0.017 C 
ATOM     20  C   UNL     1      20.651  49.943  -9.049  1.00  0.00     0.012 C 
ATOM     21  C   UNL     1      18.861  51.411  -8.012  1.00  0.00     0.012 C 
ENDBRANCH   1  19
BRANCH   2  22
ATOM     22  O   UNL     1      22.596  52.779  -7.153  1.00  0.00    -0.508 OA
ATOM     23  H   UNL     1      22.428  52.786  -8.153  1.00  0.00     0.293 HD
ENDBRANCH   2  22
TORSDOF 2
ENDMDL
MODEL 2
REMARK VINA RESULT:    -5.089      1.386      1.640
REMARK INTER + INTRA:          -5.778
REMARK INTER:                  -5.543
REMARK INTRA:                  -0.235
REMARK UNBOUND:                -0.242
REMARK SMILES CC(C)c1cc2c(cc1O)[C@@]1(C)CCCC(C)(C)[C@@H]1CC2=O
REMARK SMILES IDX 4 1 9 2 8 3 7 4 6 5 5 6 21 7 22 8 20 9 19 10 11 11 13 12
REMARK SMILES IDX 14 13 15 14 16 15 17 16 18 17 12 18 2 19 1 20 3 21 10 22
REMARK H PARENT 10 23
REMARK Flexibility Score: inf
ROOT
ATOM      1  C   UNL     1      21.540  49.928  -5.592  1.00  0.00    -0.003 A 
ATOM      2  C   UNL     1      22.693  50.710  -5.378  1.00  0.00     0.119 A 
ATOM      3  C   UNL     1      23.226  50.832  -4.090  1.00  0.00     0.051 A 
ATOM      4  C   UNL     1      22.624  50.208  -2.978  1.00  0.00    -0.027 A 
ATOM      5  C   UNL     1      21.504  49.371  -3.205  1.00  0.00     0.022 A 
ATOM      6  C   UNL     1      20.967  49.258  -4.499  1.00  0.00     0.020 A 
ATOM      7  C   UNL     1      20.902  48.601  -2.094  1.00  0.00     0.163 C 
ATOM      8  O   UNL     1      19.890  47.875  -2.293  1.00  0.00    -0.294 OA
ATOM      9  C   UNL     1      21.517  48.622  -0.733  1.00  0.00     0.086 C 
ATOM     10  C   UNL     1      22.206  49.977  -0.466  1.00  0.00     0.013 C 
ATOM     11  C   UNL     1      23.263  50.340  -1.577  1.00  0.00    -0.003 C 
ATOM     12  C   UNL     1      23.750  51.818  -1.351  1.00  0.00     0.012 C 
ATOM     13  C   UNL     1      23.615  52.353   0.087  1.00  0.00     0.001 C 
ATOM     14  C   UNL     1      23.803  51.257   1.133  1.00  0.00     0.007 C 
ATOM     15  C   UNL     1      22.707  50.153   1.031  1.00  0.00    -0.031 C 
ATOM     16  C   UNL     1      23.275  48.843   1.636  1.00  0.00     0.011 C 
ATOM     17  C   UNL     1      21.506  50.579   1.918  1.00  0.00     0.011 C 
ATOM     18  C   UNL     1      24.482  49.382  -1.573  1.00  0.00     0.017 C 
ENDROOT
BRANCH   1  19
ATOM     19  C   UNL     1      20.911  49.764  -6.971  1.00  0.00     0.017 C 
ATOM     20  C   UNL     1      21.578  48.642  -7.775  1.00  0.00     0.012 C 
ATOM     21  C   UNL     1      19.392  49.570  -6.883  1.00  0.00     0.012 C 
ENDBRANCH   1  19
BRANCH   2  22
ATOM     22  O   UNL     1      23.316  51.365  -6.439  1.00  0.00    -0.508 OA
ATOM     23  H   UNL     1      23.130  51.117  -7.404  1.00  0.00     0.293 HD
ENDBRANCH   2  22
TORSDOF 2
ENDMDL
MODEL 3
REMARK VINA RESULT:    -5.062      2.412      7.009
REMARK INTER + INTRA:          -5.748
REMARK INTER:                  -6.187
REMARK INTRA:                   0.439
REMARK UNBOUND:                -0.242
REMARK SMILES CC(C)c1cc2c(cc1O)[C@@]1(C)CCCC(C)(C)[C@@H]1CC2=O
REMARK SMILES IDX 4 1 9 2 8 3 7 4 6 5 5 6 21 7 22 8 20 9 19 10 11 11 13 12
REMARK SMILES IDX 14 13 15 14 16 15 17 16 18 17 12 18 2 19 1 20 3 21 10 22
REMARK H PARENT 10 23
REMARK Flexibility Score: inf
ROOT
ATOM      1  C   UNL     1      21.678  50.079   1.521  1.00  0.00    -0.003 A 
ATOM      2  C   UNL     1      21.255  48.814   1.068  1.00  0.00     0.119 A 
ATOM      3  C   UNL     1      21.356  48.487  -0.290  1.00  0.00     0.051 A 
ATOM      4  C   UNL     1      21.851  49.407  -1.237  1.00  0.00    -0.027 A 
ATOM      5  C   UNL     1      22.336  50.653  -0.771  1.00  0.00     0.022 A 
ATOM      6  C   UNL     1      22.225  50.981   0.592  1.00  0.00     0.020 A 
ATOM      7  C   UNL     1      22.972  51.611  -1.702  1.00  0.00     0.163 C 
ATOM      8  O   UNL     1      23.381  52.730  -1.290  1.00  0.00    -0.294 OA
ATOM      9  C   UNL     1      23.196  51.244  -3.133  1.00  0.00     0.086 C 
ATOM     10  C   UNL     1      22.099  50.279  -3.628  1.00  0.00     0.013 C 
ATOM     11  C   UNL     1      21.977  48.996  -2.721  1.00  0.00    -0.003 C 
ATOM     12  C   UNL     1      20.704  48.183  -3.159  1.00  0.00     0.012 C 
ATOM     13  C   UNL     1      20.234  48.408  -4.608  1.00  0.00     0.001 C 
ATOM     14  C   UNL     1      21.395  48.689  -5.557  1.00  0.00     0.007 C 
ATOM     15  C   UNL     1      22.150  50.004  -5.191  1.00  0.00    -0.031 C 
ATOM     16  C   UNL     1      23.597  49.906  -5.740  1.00  0.00     0.011 C 
ATOM     17  C   UNL     1      21.461  51.180  -5.934  1.00  0.00     0.011 C 
ATOM     18  C   UNL     1      23.232  48.087  -2.807  1.00  0.00     0.017 C 
ENDROOT
BRANCH   1  19
ATOM     19  C   UNL     1      21.587  50.494   2.985  1.00  0.00     0.017 C 
ATOM     20  C   UNL     1      20.329  49.934   3.659  1.00  0.00     0.012 C 
ATOM     21  C   UNL     1      22.856  50.124   3.762  1.00  0.00     0.012 C 
ENDBRANCH   1  19
BRANCH   2  22
ATOM     22  O   UNL     1      20.738  47.875   1.959  1.00  0.00    -0.508 OA
ATOM     23  H   UNL     1      20.127  48.143   2.722  1.00  0.00     0.293 HD
ENDBRANCH   2  22
TORSDOF 2
ENDMDL
MODEL 4
REMARK VINA RESULT:    -4.933      6.152      8.969
REMARK INTER + INTRA:          -5.608
REMARK INTER:                  -5.400
REMARK INTRA:                  -0.208
REMARK UNBOUND:                -0.242
REMARK SMILES CC(C)c1cc2c(cc1O)[C@@]1(C)CCCC(C)(C)[C@@H]1CC2=O
REMARK SMILES IDX 4 1 9 2 8 3 7 4 6 5 5 6 21 7 22 8 20 9 19 10 11 11 13 12
REMARK SMILES IDX 14 13 15 14 16 15 17 16 18 17 12 18 2 19 1 20 3 21 10 22
REMARK H PARENT 10 23
REMARK Flexibility Score: inf
ROOT
ATOM      1  C   UNL     1      23.038  50.837   1.957  1.00  0.00    -0.003 A 
ATOM      2  C   UNL     1      24.440  50.854   1.807  1.00  0.00     0.119 A 
ATOM      3  C   UNL     1      25.262  50.473   2.873  1.00  0.00     0.051 A 
ATOM      4  C   UNL     1      24.726  50.090   4.121  1.00  0.00    -0.027 A 
ATOM      5  C   UNL     1      23.318  50.012   4.249  1.00  0.00     0.022 A 
ATOM      6  C   UNL     1      22.496  50.404   3.178  1.00  0.00     0.020 A 
ATOM      7  C   UNL     1      22.702  49.506   5.495  1.00  0.00     0.163 C 
ATOM      8  O   UNL     1      21.447  49.460   5.617  1.00  0.00    -0.294 OA
ATOM      9  C   UNL     1      23.553  48.986   6.608  1.00  0.00     0.086 C 
ATOM     10  C   UNL     1      24.911  49.717   6.644  1.00  0.00     0.013 C 
ATOM     11  C   UNL     1      25.667  49.644   5.262  1.00  0.00    -0.003 C 
ATOM     12  C   UNL     1      26.922  50.590   5.319  1.00  0.00     0.012 C 
ATOM     13  C   UNL     1      27.476  50.881   6.726  1.00  0.00     0.001 C 
ATOM     14  C   UNL     1      27.294  49.699   7.676  1.00  0.00     0.007 C 
ATOM     15  C   UNL     1      25.791  49.365   7.918  1.00  0.00    -0.031 C 
ATOM     16  C   UNL     1      25.682  47.875   8.335  1.00  0.00     0.011 C 
ATOM     17  C   UNL     1      25.295  50.210   9.123  1.00  0.00     0.011 C 
ATOM     18  C   UNL     1      26.116  48.203   4.907  1.00  0.00     0.017 C 
ENDROOT
BRANCH   1  19
ATOM     19  C   UNL     1      22.093  51.248   0.834  1.00  0.00     0.017 C 
ATOM     20  C   UNL     1      21.911  50.129  -0.198  1.00  0.00     0.012 C 
ATOM     21  C   UNL     1      20.746  51.742   1.376  1.00  0.00     0.012 C 
ENDBRANCH   1  19
BRANCH   2  22
ATOM     22  O   UNL     1      25.022  51.244   0.602  1.00  0.00    -0.508 OA
ATOM     23  H   UNL     1      24.470  51.390  -0.236  1.00  0.00     0.293 HD
ENDBRANCH   2  22
TORSDOF 2
ENDMDL
MODEL 5
REMARK VINA RESULT:    -4.782      4.647      6.961
REMARK INTER + INTRA:          -5.443
REMARK INTER:                  -5.196
REMARK INTRA:                  -0.247
REMARK UNBOUND:                -0.242
REMARK SMILES CC(C)c1cc2c(cc1O)[C@@]1(C)CCCC(C)(C)[C@@H]1CC2=O
REMARK SMILES IDX 4 1 9 2 8 3 7 4 6 5 5 6 21 7 22 8 20 9 19 10 11 11 13 12
REMARK SMILES IDX 14 13 15 14 16 15 17 16 18 17 12 18 2 19 1 20 3 21 10 22
REMARK H PARENT 10 23
REMARK Flexibility Score: inf
ROOT
ATOM      1  C   UNL     1      25.881  53.758   0.488  1.00  0.00    -0.003 A 
ATOM      2  C   UNL     1      26.131  53.142   1.730  1.00  0.00     0.119 A 
ATOM      3  C   UNL     1      25.342  52.065   2.148  1.00  0.00     0.051 A 
ATOM      4  C   UNL     1      24.271  51.584   1.365  1.00  0.00    -0.027 A 
ATOM      5  C   UNL     1      24.063  52.161   0.089  1.00  0.00     0.022 A 
ATOM      6  C   UNL     1      24.853  53.249  -0.323  1.00  0.00     0.020 A 
ATOM      7  C   UNL     1      23.031  51.622  -0.823  1.00  0.00     0.163 C 
ATOM      8  O   UNL     1      22.830  52.153  -1.949  1.00  0.00    -0.294 OA
ATOM      9  C   UNL     1      22.250  50.403  -0.452  1.00  0.00     0.086 C 
ATOM     10  C   UNL     1      22.070  50.315   1.079  1.00  0.00     0.013 C 
ATOM     11  C   UNL     1      23.445  50.371   1.847  1.00  0.00    -0.003 C 
ATOM     12  C   UNL     1      23.160  50.498   3.389  1.00  0.00     0.012 C 
ATOM     13  C   UNL     1      21.793  49.971   3.861  1.00  0.00     0.001 C 
ATOM     14  C   UNL     1      21.313  48.781   3.033  1.00  0.00     0.007 C 
ATOM     15  C   UNL     1      21.081  49.161   1.538  1.00  0.00    -0.031 C 
ATOM     16  C   UNL     1      21.213  47.875   0.681  1.00  0.00     0.011 C 
ATOM     17  C   UNL     1      19.619  49.658   1.386  1.00  0.00     0.011 C 
ATOM     18  C   UNL     1      24.325  49.122   1.580  1.00  0.00     0.017 C 
ENDROOT
BRANCH   1  19
ATOM     19  C   UNL     1      26.702  54.939  -0.017  1.00  0.00     0.017 C 
ATOM     20  C   UNL     1      27.077  54.785  -1.496  1.00  0.00     0.012 C 
ATOM     21  C   UNL     1      26.002  56.276   0.252  1.00  0.00     0.012 C 
ENDBRANCH   1  19
BRANCH   2  22
ATOM     22  O   UNL     1      27.163  53.591   2.553  1.00  0.00    -0.508 OA
ATOM     23  H   UNL     1      27.138  54.505   2.991  1.00  0.00     0.293 HD
ENDBRANCH   2  22
TORSDOF 2
ENDMDL
MODEL 6
REMARK VINA RESULT:    -4.718      6.457     10.450
REMARK INTER + INTRA:          -5.374
REMARK INTER:                  -5.155
REMARK INTRA:                  -0.218
REMARK UNBOUND:                -0.242
REMARK SMILES CC(C)c1cc2c(cc1O)[C@@]1(C)CCCC(C)(C)[C@@H]1CC2=O
REMARK SMILES IDX 4 1 9 2 8 3 7 4 6 5 5 6 21 7 22 8 20 9 19 10 11 11 13 12
REMARK SMILES IDX 14 13 15 14 16 15 17 16 18 17 12 18 2 19 1 20 3 21 10 22
REMARK H PARENT 10 23
REMARK Flexibility Score: inf
ROOT
ATOM      1  C   UNL     1      19.570  48.927   7.116  1.00  0.00    -0.003 A 
ATOM      2  C   UNL     1      18.707  49.214   6.040  1.00  0.00     0.119 A 
ATOM      3  C   UNL     1      19.221  49.339   4.745  1.00  0.00     0.051 A 
ATOM      4  C   UNL     1      20.601  49.208   4.481  1.00  0.00    -0.027 A 
ATOM      5  C   UNL     1      21.457  48.855   5.552  1.00  0.00     0.022 A 
ATOM      6  C   UNL     1      20.937  48.739   6.853  1.00  0.00     0.020 A 
ATOM      7  C   UNL     1      22.893  48.591   5.313  1.00  0.00     0.163 C 
ATOM      8  O   UNL     1      23.659  48.301   6.272  1.00  0.00    -0.294 OA
ATOM      9  C   UNL     1      23.448  48.604   3.926  1.00  0.00     0.086 C 
ATOM     10  C   UNL     1      22.675  49.602   3.038  1.00  0.00     0.013 C 
ATOM     11  C   UNL     1      21.124  49.319   3.032  1.00  0.00    -0.003 C 
ATOM     12  C   UNL     1      20.396  50.500   2.291  1.00  0.00     0.012 C 
ATOM     13  C   UNL     1      21.254  51.286   1.283  1.00  0.00     0.001 C 
ATOM     14  C   UNL     1      22.296  50.406   0.598  1.00  0.00     0.007 C 
ATOM     15  C   UNL     1      23.331  49.825   1.609  1.00  0.00    -0.031 C 
ATOM     16  C   UNL     1      23.925  48.524   1.008  1.00  0.00     0.011 C 
ATOM     17  C   UNL     1      24.500  50.837   1.742  1.00  0.00     0.011 C 
ATOM     18  C   UNL     1      20.769  47.975   2.345  1.00  0.00     0.017 C 
ENDROOT
BRANCH   1  19
ATOM     19  C   UNL     1      19.069  48.787   8.549  1.00  0.00     0.017 C 
ATOM     20  C   UNL     1      19.974  47.875   9.385  1.00  0.00     0.012 C 
ATOM     21  C   UNL     1      18.869  50.152   9.218  1.00  0.00     0.012 C 
ENDBRANCH   1  19
BRANCH   2  22
ATOM     22  O   UNL     1      17.338  49.375   6.249  1.00  0.00    -0.508 OA
ATOM     23  H   UNL     1      16.925  49.298   7.172  1.00  0.00     0.293 HD
ENDBRANCH   2  22
TORSDOF 2
ENDMDL
MODEL 7
REMARK VINA RESULT:    -4.646      5.026      9.508
REMARK INTER + INTRA:          -5.295
REMARK INTER:                  -5.710
REMARK INTRA:                   0.415
REMARK UNBOUND:                -0.242
REMARK SMILES CC(C)c1cc2c(cc1O)[C@@]1(C)CCCC(C)(C)[C@@H]1CC2=O
REMARK SMILES IDX 4 1 9 2 8 3 7 4 6 5 5 6 21 7 22 8 20 9 19 10 11 11 13 12
REMARK SMILES IDX 14 13 15 14 16 15 17 16 18 17 12 18 2 19 1 20 3 21 10 22
REMARK H PARENT 10 23
REMARK Flexibility Score: inf
ROOT
ATOM      1  C   UNL     1      19.059  48.968   5.970  1.00  0.00    -0.003 A 
ATOM      2  C   UNL     1      20.440  49.038   6.242  1.00  0.00     0.119 A 
ATOM      3  C   UNL     1      21.355  49.170   5.191  1.00  0.00     0.051 A 
ATOM      4  C   UNL     1      20.934  49.213   3.845  1.00  0.00    -0.027 A 
ATOM      5  C   UNL     1      19.543  49.208   3.578  1.00  0.00     0.022 A 
ATOM      6  C   UNL     1      18.628  49.066   4.636  1.00  0.00     0.020 A 
ATOM      7  C   UNL     1      19.041  49.367   2.195  1.00  0.00     0.163 C 
ATOM      8  O   UNL     1      17.803  49.338   1.956  1.00  0.00    -0.294 OA
ATOM      9  C   UNL     1      19.986  49.624   1.067  1.00  0.00     0.086 C 
ATOM     10  C   UNL     1      21.351  48.954   1.335  1.00  0.00     0.013 C 
ATOM     11  C   UNL     1      21.972  49.394   2.716  1.00  0.00    -0.003 C 
ATOM     12  C   UNL     1      23.238  48.507   3.008  1.00  0.00     0.012 C 
ATOM     13  C   UNL     1      23.925  47.896   1.773  1.00  0.00     0.001 C 
ATOM     14  C   UNL     1      23.820  48.797   0.546  1.00  0.00     0.007 C 
ATOM     15  C   UNL     1      22.342  49.009   0.096  1.00  0.00    -0.031 C 
ATOM     16  C   UNL     1      22.255  50.344  -0.688  1.00  0.00     0.011 C 
ATOM     17  C   UNL     1      21.971  47.875  -0.898  1.00  0.00     0.011 C 
ATOM     18  C   UNL     1      22.369  50.893   2.737  1.00  0.00     0.017 C 
ENDROOT
BRANCH   1  19
ATOM     19  C   UNL     1      18.018  48.816   7.072  1.00  0.00     0.017 C 
ATOM     20  C   UNL     1      18.503  47.889   8.193  1.00  0.00     0.012 C 
ATOM     21  C   UNL     1      17.566  50.176   7.620  1.00  0.00     0.012 C 
ENDBRANCH   1  19
BRANCH   2  22
ATOM     22  O   UNL     1      20.912  48.979   7.552  1.00  0.00    -0.508 OA
ATOM     23  H   UNL     1      21.152  49.815   8.072  1.00  0.00     0.293 HD
ENDBRANCH   2  22
TORSDOF 2
ENDMDL
MODEL 8
REMARK VINA RESULT:    -4.635      4.953      9.037
REMARK INTER + INTRA:          -5.283
REMARK INTER:                  -5.037
REMARK INTRA:                  -0.246
REMARK UNBOUND:                -0.242
REMARK SMILES CC(C)c1cc2c(cc1O)[C@@]1(C)CCCC(C)(C)[C@@H]1CC2=O
REMARK SMILES IDX 4 1 9 2 8 3 7 4 6 5 5 6 21 7 22 8 20 9 19 10 11 11 13 12
REMARK SMILES IDX 14 13 15 14 16 15 17 16 18 17 12 18 2 19 1 20 3 21 10 22
REMARK H PARENT 10 23
REMARK Flexibility Score: inf
ROOT
ATOM      1  C   UNL     1      26.749  51.214   4.359  1.00  0.00    -0.003 A 
ATOM      2  C   UNL     1      26.603  52.268   3.435  1.00  0.00     0.119 A 
ATOM      3  C   UNL     1      25.670  52.165   2.397  1.00  0.00     0.051 A 
ATOM      4  C   UNL     1      24.874  51.013   2.230  1.00  0.00    -0.027 A 
ATOM      5  C   UNL     1      24.976  49.983   3.196  1.00  0.00     0.022 A 
ATOM      6  C   UNL     1      25.921  50.087   4.232  1.00  0.00     0.020 A 
ATOM      7  C   UNL     1      24.084  48.803   3.137  1.00  0.00     0.163 C 
ATOM      8  O   UNL     1      24.193  47.875   3.984  1.00  0.00    -0.294 OA
ATOM      9  C   UNL     1      23.002  48.718   2.110  1.00  0.00     0.086 C 
ATOM     10  C   UNL     1      23.416  49.456   0.819  1.00  0.00     0.013 C 
ATOM     11  C   UNL     1      23.831  50.952   1.092  1.00  0.00    -0.003 C 
ATOM     12  C   UNL     1      24.442  51.558  -0.225  1.00  0.00     0.012 C 
ATOM     13  C   UNL     1      23.998  50.886  -1.537  1.00  0.00     0.001 C 
ATOM     14  C   UNL     1      22.568  50.359  -1.464  1.00  0.00     0.007 C 
ATOM     15  C   UNL     1      22.408  49.240  -0.389  1.00  0.00    -0.031 C 
ATOM     16  C   UNL     1      20.925  49.203   0.061  1.00  0.00     0.011 C 
ATOM     17  C   UNL     1      22.712  47.875  -1.063  1.00  0.00     0.011 C 
ATOM     18  C   UNL     1      22.636  51.823   1.561  1.00  0.00     0.017 C 
ENDROOT
BRANCH   1  19
ATOM     19  C   UNL     1      27.754  51.266   5.503  1.00  0.00     0.017 C 
ATOM     20  C   UNL     1      27.122  50.852   6.838  1.00  0.00     0.012 C 
ATOM     21  C   UNL     1      29.012  50.445   5.195  1.00  0.00     0.012 C 
ENDBRANCH   1  19
BRANCH   2  22
ATOM     22  O   UNL     1      27.380  53.421   3.542  1.00  0.00    -0.508 OA
ATOM     23  H   UNL     1      27.146  54.165   4.190  1.00  0.00     0.293 HD
ENDBRANCH   2  22
TORSDOF 2
ENDMDL
