MODEL 1
REMARK VINA RESULT:    -4.868      0.000      0.000
REMARK INTER + INTRA:         -13.620
REMARK INTER:                 -10.560
REMARK INTRA:                  -3.061
REMARK UNBOUND:                -3.061
REMARK SMILES CCCCCCCCCCCCCCCCCCCCCC(=O)[O-]
REMARK SMILES IDX 12 1 11 2 10 3 9 4 8 5 7 6 6 7 5 8 4 9 3 10 2 11 1 12 13 13
REMARK SMILES IDX 14 14 15 15 16 16 17 17 18 18 19 19 20 20 21 21 22 22 23 23
REMARK SMILES IDX 24 24
REMARK H PARENT
REMARK Flexibility Score: inf
ROOT
ATOM      1  C   UNL     1     -15.875  -1.717  21.360  1.00  0.00     0.000 C 
ENDROOT
BRANCH   1   2
ATOM      2  C   UNL     1     -15.698  -2.477  20.033  1.00  0.00     0.000 C 
BRANCH   2   3
ATOM      3  C   UNL     1     -14.347  -2.171  19.360  1.00  0.00     0.000 C 
BRANCH   3   4
ATOM      4  C   UNL     1     -14.276  -2.597  17.882  1.00  0.00    -0.000 C 
BRANCH   4   5
ATOM      5  C   UNL     1     -14.932  -1.573  16.939  1.00  0.00    -0.000 C 
BRANCH   5   6
ATOM      6  C   UNL     1     -14.645  -0.116  17.363  1.00  0.00    -0.000 C 
BRANCH   6   7
ATOM      7  C   UNL     1     -15.102   0.940  16.338  1.00  0.00    -0.000 C 
BRANCH   7   8
ATOM      8  C   UNL     1     -16.620   0.995  16.094  1.00  0.00    -0.000 C 
BRANCH   8   9
ATOM      9  C   UNL     1     -17.434   1.029  17.403  1.00  0.00    -0.000 C 
BRANCH   9  10
ATOM     10  C   UNL     1     -18.694   0.148  17.339  1.00  0.00    -0.000 C 
BRANCH  10  11
ATOM     11  C   UNL     1     -18.645  -1.090  18.255  1.00  0.00    -0.003 C 
ATOM     12  C   UNL     1     -18.423  -2.391  17.482  1.00  0.00     0.004 C 
ENDBRANCH  10  11
ENDBRANCH   9  10
ENDBRANCH   8   9
ENDBRANCH   7   8
ENDBRANCH   6   7
ENDBRANCH   5   6
ENDBRANCH   4   5
ENDBRANCH   3   4
ENDBRANCH   2   3
ENDBRANCH   1   2
BRANCH   1  13
ATOM     13  C   UNL     1     -17.139  -2.139  22.126  1.00  0.00     0.000 C 
BRANCH  13  14
ATOM     14  C   UNL     1     -16.967  -3.485  22.850  1.00  0.00     0.000 C 
BRANCH  14  15
ATOM     15  C   UNL     1     -17.954  -4.560  22.358  1.00  0.00     0.000 C 
BRANCH  15  16
ATOM     16  C   UNL     1     -17.339  -5.951  22.095  1.00  0.00     0.000 C 
BRANCH  16  17
ATOM     17  C   UNL     1     -15.857  -6.102  22.482  1.00  0.00     0.000 C 
BRANCH  17  18
ATOM     18  C   UNL     1     -14.951  -6.403  21.277  1.00  0.00     0.000 C 
BRANCH  18  19
ATOM     19  C   UNL     1     -15.743  -6.707  19.993  1.00  0.00     0.000 C 
BRANCH  19  20
ATOM     20  C   UNL     1     -15.293  -5.928  18.740  1.00  0.00     0.006 C 
BRANCH  20  21
ATOM     21  C   UNL     1     -15.675  -6.606  17.410  1.00  0.00     0.053 C 
BRANCH  21  22
ATOM     22  C   UNL     1     -15.487  -5.699  16.232  1.00  0.00     0.041 C 
ATOM     23  O   UNL     1     -16.439  -4.985  15.823  1.00  0.00    -0.550 OA
ATOM     24  O   UNL     1     -14.249  -5.613  15.606  1.00  0.00    -0.550 OA
ENDBRANCH  21  22
ENDBRANCH  20  21
ENDBRANCH  19  20
ENDBRANCH  18  19
ENDBRANCH  17  18
ENDBRANCH  16  17
ENDBRANCH  15  16
ENDBRANCH  14  15
ENDBRANCH  13  14
ENDBRANCH   1  13
TORSDOF 20
ENDMDL
MODEL 2
REMARK VINA RESULT:    -4.852      1.990      4.073
REMARK INTER + INTRA:         -13.585
REMARK INTER:                  -9.974
REMARK INTRA:                  -3.611
REMARK UNBOUND:                -3.061
REMARK SMILES CCCCCCCCCCCCCCCCCCCCCC(=O)[O-]
REMARK SMILES IDX 12 1 11 2 10 3 9 4 8 5 7 6 6 7 5 8 4 9 3 10 2 11 1 12 13 13
REMARK SMILES IDX 14 14 15 15 16 16 17 17 18 18 19 19 20 20 21 21 22 22 23 23
REMARK SMILES IDX 24 24
REMARK H PARENT
REMARK Flexibility Score: inf
ROOT
ATOM      1  C   UNL     1     -16.560  -5.084  17.959  1.00  0.00     0.000 C 
ENDROOT
BRANCH   1   2
ATOM      2  C   UNL     1     -16.428  -4.916  16.434  1.00  0.00     0.000 C 
BRANCH   2   3
ATOM      3  C   UNL     1     -15.143  -4.166  16.037  1.00  0.00     0.000 C 
BRANCH   3   4
ATOM      4  C   UNL     1     -14.157  -3.957  17.202  1.00  0.00    -0.000 C 
BRANCH   4   5
ATOM      5  C   UNL     1     -14.034  -2.479  17.614  1.00  0.00    -0.000 C 
BRANCH   5   6
ATOM      6  C   UNL     1     -14.446  -2.241  19.082  1.00  0.00    -0.000 C 
BRANCH   6   7
ATOM      7  C   UNL     1     -15.920  -1.829  19.265  1.00  0.00    -0.000 C 
BRANCH   7   8
ATOM      8  C   UNL     1     -16.614  -1.316  17.991  1.00  0.00    -0.000 C 
BRANCH   8   9
ATOM      9  C   UNL     1     -16.730   0.221  17.953  1.00  0.00    -0.000 C 
BRANCH   9  10
ATOM     10  C   UNL     1     -16.473   0.799  16.551  1.00  0.00    -0.000 C 
BRANCH  10  11
ATOM     11  C   UNL     1     -15.082   0.470  15.978  1.00  0.00    -0.003 C 
ATOM     12  C   UNL     1     -13.945   1.116  16.773  1.00  0.00     0.004 C 
ENDBRANCH  10  11
ENDBRANCH   9  10
ENDBRANCH   8   9
ENDBRANCH   7   8
ENDBRANCH   6   7
ENDBRANCH   5   6
ENDBRANCH   4   5
ENDBRANCH   3   4
ENDBRANCH   2   3
ENDBRANCH   1   2
BRANCH   1  13
ATOM     13  C   UNL     1     -16.428  -6.548  18.411  1.00  0.00     0.000 C 
BRANCH  13  14
ATOM     14  C   UNL     1     -15.249  -6.763  19.375  1.00  0.00     0.000 C 
BRANCH  14  15
ATOM     15  C   UNL     1     -15.139  -5.655  20.439  1.00  0.00     0.000 C 
BRANCH  15  16
ATOM     16  C   UNL     1     -15.907  -5.920  21.752  1.00  0.00     0.000 C 
BRANCH  16  17
ATOM     17  C   UNL     1     -16.596  -4.692  22.373  1.00  0.00     0.000 C 
BRANCH  17  18
ATOM     18  C   UNL     1     -18.127  -4.734  22.240  1.00  0.00     0.000 C 
BRANCH  18  19
ATOM     19  C   UNL     1     -18.624  -4.240  20.870  1.00  0.00     0.000 C 
BRANCH  19  20
ATOM     20  C   UNL     1     -19.509  -5.234  20.091  1.00  0.00     0.006 C 
BRANCH  20  21
ATOM     21  C   UNL     1     -20.446  -4.568  19.064  1.00  0.00     0.053 C 
BRANCH  21  22
ATOM     22  C   UNL     1     -20.293  -5.149  17.691  1.00  0.00     0.041 C 
ATOM     23  O   UNL     1     -19.853  -6.319  17.544  1.00  0.00    -0.550 OA
ATOM     24  O   UNL     1     -20.671  -4.414  16.575  1.00  0.00    -0.550 OA
ENDBRANCH  21  22
ENDBRANCH  20  21
ENDBRANCH  19  20
ENDBRANCH  18  19
ENDBRANCH  17  18
ENDBRANCH  16  17
ENDBRANCH  15  16
ENDBRANCH  14  15
ENDBRANCH  13  14
ENDBRANCH   1  13
TORSDOF 20
ENDMDL
MODEL 3
REMARK VINA RESULT:    -4.837      2.950      6.448
REMARK INTER + INTRA:         -13.552
REMARK INTER:                  -9.599
REMARK INTRA:                  -3.953
REMARK UNBOUND:                -3.061
REMARK SMILES CCCCCCCCCCCCCCCCCCCCCC(=O)[O-]
REMARK SMILES IDX 12 1 11 2 10 3 9 4 8 5 7 6 6 7 5 8 4 9 3 10 2 11 1 12 13 13
REMARK SMILES IDX 14 14 15 15 16 16 17 17 18 18 19 19 20 20 21 21 22 22 23 23
REMARK SMILES IDX 24 24
REMARK H PARENT
REMARK Flexibility Score: inf
ROOT
ATOM      1  C   UNL     1     -15.489  -6.708  18.844  1.00  0.00     0.000 C 
ENDROOT
BRANCH   1   2
ATOM      2  C   UNL     1     -15.111  -5.908  20.104  1.00  0.00     0.000 C 
BRANCH   2   3
ATOM      3  C   UNL     1     -15.058  -6.793  21.364  1.00  0.00     0.000 C 
BRANCH   3   4
ATOM      4  C   UNL     1     -16.015  -6.343  22.484  1.00  0.00    -0.000 C 
BRANCH   4   5
ATOM      5  C   UNL     1     -16.458  -4.877  22.329  1.00  0.00    -0.000 C 
BRANCH   5   6
ATOM      6  C   UNL     1     -17.993  -4.732  22.256  1.00  0.00    -0.000 C 
BRANCH   6   7
ATOM      7  C   UNL     1     -18.721  -5.985  21.731  1.00  0.00    -0.000 C 
BRANCH   7   8
ATOM      8  C   UNL     1     -18.912  -6.036  20.206  1.00  0.00    -0.000 C 
BRANCH   8   9
ATOM      9  C   UNL     1     -19.017  -4.635  19.571  1.00  0.00    -0.000 C 
BRANCH   9  10
ATOM     10  C   UNL     1     -18.412  -4.580  18.156  1.00  0.00    -0.000 C 
BRANCH  10  11
ATOM     11  C   UNL     1     -19.129  -3.607  17.202  1.00  0.00    -0.003 C 
ATOM     12  C   UNL     1     -18.800  -2.141  17.492  1.00  0.00     0.004 C 
ENDBRANCH  10  11
ENDBRANCH   9  10
ENDBRANCH   8   9
ENDBRANCH   7   8
ENDBRANCH   6   7
ENDBRANCH   5   6
ENDBRANCH   4   5
ENDBRANCH   3   4
ENDBRANCH   2   3
ENDBRANCH   1   2
BRANCH   1  13
ATOM     13  C   UNL     1     -14.650  -6.318  17.616  1.00  0.00     0.000 C 
BRANCH  13  14
ATOM     14  C   UNL     1     -15.494  -5.662  16.510  1.00  0.00     0.000 C 
BRANCH  14  15
ATOM     15  C   UNL     1     -14.918  -4.315  16.038  1.00  0.00     0.000 C 
BRANCH  15  16
ATOM     16  C   UNL     1     -15.229  -3.108  16.949  1.00  0.00     0.000 C 
BRANCH  16  17
ATOM     17  C   UNL     1     -14.021  -2.516  17.696  1.00  0.00     0.000 C 
BRANCH  17  18
ATOM     18  C   UNL     1     -14.286  -2.311  19.197  1.00  0.00     0.000 C 
BRANCH  18  19
ATOM     19  C   UNL     1     -15.768  -2.485  19.573  1.00  0.00     0.000 C 
BRANCH  19  20
ATOM     20  C   UNL     1     -16.350  -1.391  20.491  1.00  0.00     0.006 C 
BRANCH  20  21
ATOM     21  C   UNL     1     -15.812   0.024  20.199  1.00  0.00     0.053 C 
BRANCH  21  22
ATOM     22  C   UNL     1     -14.999   0.570  21.334  1.00  0.00     0.041 C 
ATOM     23  O   UNL     1     -14.327  -0.205  22.063  1.00  0.00    -0.550 OA
ATOM     24  O   UNL     1     -14.952   1.940  21.564  1.00  0.00    -0.550 OA
ENDBRANCH  21  22
ENDBRANCH  20  21
ENDBRANCH  19  20
ENDBRANCH  18  19
ENDBRANCH  17  18
ENDBRANCH  16  17
ENDBRANCH  15  16
ENDBRANCH  14  15
ENDBRANCH  13  14
ENDBRANCH   1  13
TORSDOF 20
ENDMDL
MODEL 4
REMARK VINA RESULT:    -4.818     11.637     14.185
REMARK INTER + INTRA:         -13.513
REMARK INTER:                 -10.579
REMARK INTRA:                  -2.933
REMARK UNBOUND:                -3.061
REMARK SMILES CCCCCCCCCCCCCCCCCCCCCC(=O)[O-]
REMARK SMILES IDX 12 1 11 2 10 3 9 4 8 5 7 6 6 7 5 8 4 9 3 10 2 11 1 12 13 13
REMARK SMILES IDX 14 14 15 15 16 16 17 17 18 18 19 19 20 20 21 21 22 22 23 23
REMARK SMILES IDX 24 24
REMARK H PARENT
REMARK Flexibility Score: inf
ROOT
ATOM      1  C   UNL     1     -15.130   2.451  27.438  1.00  0.00     0.000 C 
ENDROOT
BRANCH   1   2
ATOM      2  C   UNL     1     -13.760   2.623  28.119  1.00  0.00     0.000 C 
BRANCH   2   3
ATOM      3  C   UNL     1     -13.606   4.003  28.783  1.00  0.00     0.000 C 
BRANCH   3   4
ATOM      4  C   UNL     1     -14.926   4.786  28.909  1.00  0.00    -0.000 C 
BRANCH   4   5
ATOM      5  C   UNL     1     -14.951   5.708  30.142  1.00  0.00    -0.000 C 
BRANCH   5   6
ATOM      6  C   UNL     1     -14.442   7.130  29.822  1.00  0.00    -0.000 C 
BRANCH   6   7
ATOM      7  C   UNL     1     -13.795   7.852  31.020  1.00  0.00    -0.000 C 
BRANCH   7   8
ATOM      8  C   UNL     1     -14.536   9.112  31.498  1.00  0.00    -0.000 C 
BRANCH   8   9
ATOM      9  C   UNL     1     -15.323   8.884  32.803  1.00  0.00    -0.000 C 
BRANCH   9  10
ATOM     10  C   UNL     1     -16.813   9.244  32.667  1.00  0.00    -0.000 C 
BRANCH  10  11
ATOM     11  C   UNL     1     -17.388   9.028  31.254  1.00  0.00    -0.003 C 
ATOM     12  C   UNL     1     -17.889   7.600  31.029  1.00  0.00     0.004 C 
ENDBRANCH  10  11
ENDBRANCH   9  10
ENDBRANCH   8   9
ENDBRANCH   7   8
ENDBRANCH   6   7
ENDBRANCH   5   6
ENDBRANCH   4   5
ENDBRANCH   3   4
ENDBRANCH   2   3
ENDBRANCH   1   2
BRANCH   1  13
ATOM     13  C   UNL     1     -15.355   1.029  26.899  1.00  0.00     0.000 C 
BRANCH  13  14
ATOM     14  C   UNL     1     -16.281   0.197  27.802  1.00  0.00     0.000 C 
BRANCH  14  15
ATOM     15  C   UNL     1     -15.515  -0.589  28.882  1.00  0.00     0.000 C 
BRANCH  15  16
ATOM     16  C   UNL     1     -15.869  -0.224  30.340  1.00  0.00     0.000 C 
BRANCH  16  17
ATOM     17  C   UNL     1     -14.834   0.648  31.073  1.00  0.00     0.000 C 
BRANCH  17  18
ATOM     18  C   UNL     1     -15.387   2.025  31.473  1.00  0.00     0.000 C 
BRANCH  18  19
ATOM     19  C   UNL     1     -16.853   2.227  31.054  1.00  0.00     0.000 C 
BRANCH  19  20
ATOM     20  C   UNL     1     -17.799   2.710  32.173  1.00  0.00     0.006 C 
BRANCH  20  21
ATOM     21  C   UNL     1     -18.836   1.658  32.613  1.00  0.00     0.053 C 
BRANCH  21  22
ATOM     22  C   UNL     1     -19.468   0.956  31.450  1.00  0.00     0.041 C 
ATOM     23  O   UNL     1     -19.229  -0.261  31.238  1.00  0.00    -0.550 OA
ATOM     24  O   UNL     1     -20.351   1.635  30.619  1.00  0.00    -0.550 OA
ENDBRANCH  21  22
ENDBRANCH  20  21
ENDBRANCH  19  20
ENDBRANCH  18  19
ENDBRANCH  17  18
ENDBRANCH  16  17
ENDBRANCH  15  16
ENDBRANCH  14  15
ENDBRANCH  13  14
ENDBRANCH   1  13
TORSDOF 20
ENDMDL
MODEL 5
REMARK VINA RESULT:    -4.742      2.919      5.111
REMARK INTER + INTRA:         -13.348
REMARK INTER:                  -9.679
REMARK INTRA:                  -3.668
REMARK UNBOUND:                -3.061
REMARK SMILES CCCCCCCCCCCCCCCCCCCCCC(=O)[O-]
REMARK SMILES IDX 12 1 11 2 10 3 9 4 8 5 7 6 6 7 5 8 4 9 3 10 2 11 1 12 13 13
REMARK SMILES IDX 14 14 15 15 16 16 17 17 18 18 19 19 20 20 21 21 22 22 23 23
REMARK SMILES IDX 24 24
REMARK H PARENT
REMARK Flexibility Score: inf
ROOT
ATOM      1  C   UNL     1     -17.226  -5.015  17.736  1.00  0.00     0.000 C 
ENDROOT
BRANCH   1   2
ATOM      2  C   UNL     1     -16.171  -5.298  16.651  1.00  0.00     0.000 C 
BRANCH   2   3
ATOM      3  C   UNL     1     -15.358  -4.043  16.284  1.00  0.00     0.000 C 
BRANCH   3   4
ATOM      4  C   UNL     1     -14.074  -3.865  17.116  1.00  0.00    -0.000 C 
BRANCH   4   5
ATOM      5  C   UNL     1     -14.025  -2.511  17.846  1.00  0.00    -0.000 C 
BRANCH   5   6
ATOM      6  C   UNL     1     -14.687  -2.571  19.239  1.00  0.00    -0.000 C 
BRANCH   6   7
ATOM      7  C   UNL     1     -15.615  -1.379  19.548  1.00  0.00    -0.000 C 
BRANCH   7   8
ATOM      8  C   UNL     1     -17.073  -1.554  19.089  1.00  0.00    -0.000 C 
BRANCH   8   9
ATOM      9  C   UNL     1     -17.299  -1.099  17.634  1.00  0.00    -0.000 C 
BRANCH   9  10
ATOM     10  C   UNL     1     -17.486   0.424  17.512  1.00  0.00    -0.000 C 
BRANCH  10  11
ATOM     11  C   UNL     1     -16.692   1.065  16.358  1.00  0.00    -0.003 C 
ATOM     12  C   UNL     1     -15.292   0.472  16.199  1.00  0.00     0.004 C 
ENDBRANCH  10  11
ENDBRANCH   9  10
ENDBRANCH   8   9
ENDBRANCH   7   8
ENDBRANCH   6   7
ENDBRANCH   5   6
ENDBRANCH   4   5
ENDBRANCH   3   4
ENDBRANCH   2   3
ENDBRANCH   1   2
BRANCH   1  13
ATOM     13  C   UNL     1     -17.148  -6.000  18.914  1.00  0.00     0.000 C 
BRANCH  13  14
ATOM     14  C   UNL     1     -15.714  -6.488  19.180  1.00  0.00     0.000 C 
BRANCH  14  15
ATOM     15  C   UNL     1     -15.171  -6.032  20.547  1.00  0.00     0.000 C 
BRANCH  15  16
ATOM     16  C   UNL     1     -16.238  -5.813  21.642  1.00  0.00     0.000 C 
BRANCH  16  17
ATOM     17  C   UNL     1     -16.380  -4.365  22.144  1.00  0.00     0.000 C 
BRANCH  17  18
ATOM     18  C   UNL     1     -17.826  -4.002  22.523  1.00  0.00     0.000 C 
BRANCH  18  19
ATOM     19  C   UNL     1     -17.957  -2.579  23.093  1.00  0.00     0.000 C 
BRANCH  19  20
ATOM     20  C   UNL     1     -16.658  -1.747  23.098  1.00  0.00     0.006 C 
BRANCH  20  21
ATOM     21  C   UNL     1     -16.889  -0.224  23.067  1.00  0.00     0.053 C 
BRANCH  21  22
ATOM     22  C   UNL     1     -15.656   0.533  22.676  1.00  0.00     0.041 C 
ATOM     23  O   UNL     1     -14.527   0.165  23.094  1.00  0.00    -0.550 OA
ATOM     24  O   UNL     1     -15.747   1.622  21.819  1.00  0.00    -0.550 OA
ENDBRANCH  21  22
ENDBRANCH  20  21
ENDBRANCH  19  20
ENDBRANCH  18  19
ENDBRANCH  17  18
ENDBRANCH  16  17
ENDBRANCH  15  16
ENDBRANCH  14  15
ENDBRANCH  13  14
ENDBRANCH   1  13
TORSDOF 20
ENDMDL
MODEL 6
REMARK VINA RESULT:    -4.738      2.847      5.199
REMARK INTER + INTRA:         -13.339
REMARK INTER:                 -10.503
REMARK INTRA:                  -2.835
REMARK UNBOUND:                -3.061
REMARK SMILES CCCCCCCCCCCCCCCCCCCCCC(=O)[O-]
REMARK SMILES IDX 12 1 11 2 10 3 9 4 8 5 7 6 6 7 5 8 4 9 3 10 2 11 1 12 13 13
REMARK SMILES IDX 14 14 15 15 16 16 17 17 18 18 19 19 20 20 21 21 22 22 23 23
REMARK SMILES IDX 24 24
REMARK H PARENT
REMARK Flexibility Score: inf
ROOT
ATOM      1  C   UNL     1     -16.509  -5.487  17.086  1.00  0.00     0.000 C 
ENDROOT
BRANCH   1   2
ATOM      2  C   UNL     1     -15.545  -5.611  15.892  1.00  0.00     0.000 C 
BRANCH   2   3
ATOM      3  C   UNL     1     -14.395  -4.590  15.961  1.00  0.00     0.000 C 
BRANCH   3   4
ATOM      4  C   UNL     1     -14.824  -3.199  16.465  1.00  0.00    -0.000 C 
BRANCH   4   5
ATOM      5  C   UNL     1     -14.024  -2.744  17.698  1.00  0.00    -0.000 C 
BRANCH   5   6
ATOM      6  C   UNL     1     -14.912  -2.592  18.952  1.00  0.00    -0.000 C 
BRANCH   6   7
ATOM      7  C   UNL     1     -15.050  -1.141  19.453  1.00  0.00    -0.000 C 
BRANCH   7   8
ATOM      8  C   UNL     1     -16.454  -0.531  19.301  1.00  0.00    -0.000 C 
BRANCH   8   9
ATOM      9  C   UNL     1     -16.958  -0.550  17.845  1.00  0.00    -0.000 C 
BRANCH   9  10
ATOM     10  C   UNL     1     -16.523   0.694  17.051  1.00  0.00    -0.000 C 
BRANCH  10  11
ATOM     11  C   UNL     1     -15.377   0.438  16.055  1.00  0.00    -0.003 C 
ATOM     12  C   UNL     1     -14.019   0.911  16.578  1.00  0.00     0.004 C 
ENDBRANCH  10  11
ENDBRANCH   9  10
ENDBRANCH   8   9
ENDBRANCH   7   8
ENDBRANCH   6   7
ENDBRANCH   5   6
ENDBRANCH   4   5
ENDBRANCH   3   4
ENDBRANCH   2   3
ENDBRANCH   1   2
BRANCH   1  13
ATOM     13  C   UNL     1     -16.282  -6.573  18.151  1.00  0.00     0.000 C 
BRANCH  13  14
ATOM     14  C   UNL     1     -15.096  -6.251  19.076  1.00  0.00     0.000 C 
BRANCH  14  15
ATOM     15  C   UNL     1     -15.251  -6.863  20.480  1.00  0.00     0.000 C 
BRANCH  15  16
ATOM     16  C   UNL     1     -16.481  -6.381  21.279  1.00  0.00     0.000 C 
BRANCH  16  17
ATOM     17  C   UNL     1     -16.206  -5.271  22.309  1.00  0.00     0.000 C 
BRANCH  17  18
ATOM     18  C   UNL     1     -16.674  -3.885  21.835  1.00  0.00     0.000 C 
BRANCH  18  19
ATOM     19  C   UNL     1     -17.300  -3.046  22.962  1.00  0.00     0.000 C 
BRANCH  19  20
ATOM     20  C   UNL     1     -18.823  -2.829  22.856  1.00  0.00     0.006 C 
BRANCH  20  21
ATOM     21  C   UNL     1     -19.629  -3.464  24.007  1.00  0.00     0.053 C 
BRANCH  21  22
ATOM     22  C   UNL     1     -20.335  -4.717  23.586  1.00  0.00     0.041 C 
ATOM     23  O   UNL     1     -21.557  -4.873  23.844  1.00  0.00    -0.550 OA
ATOM     24  O   UNL     1     -19.654  -5.699  22.876  1.00  0.00    -0.550 OA
ENDBRANCH  21  22
ENDBRANCH  20  21
ENDBRANCH  19  20
ENDBRANCH  18  19
ENDBRANCH  17  18
ENDBRANCH  16  17
ENDBRANCH  15  16
ENDBRANCH  14  15
ENDBRANCH  13  14
ENDBRANCH   1  13
TORSDOF 20
ENDMDL
MODEL 7
REMARK VINA RESULT:    -4.711     12.290     14.554
REMARK INTER + INTRA:         -13.280
REMARK INTER:                 -10.820
REMARK INTRA:                  -2.460
REMARK UNBOUND:                -3.061
REMARK SMILES CCCCCCCCCCCCCCCCCCCCCC(=O)[O-]
REMARK SMILES IDX 12 1 11 2 10 3 9 4 8 5 7 6 6 7 5 8 4 9 3 10 2 11 1 12 13 13
REMARK SMILES IDX 14 14 15 15 16 16 17 17 18 18 19 19 20 20 21 21 22 22 23 23
REMARK SMILES IDX 24 24
REMARK H PARENT
REMARK Flexibility Score: inf
ROOT
ATOM      1  C   UNL     1     -13.642   5.364  28.114  1.00  0.00     0.000 C 
ENDROOT
BRANCH   1   2
ATOM      2  C   UNL     1     -14.227   6.474  29.007  1.00  0.00     0.000 C 
BRANCH   2   3
ATOM      3  C   UNL     1     -15.086   5.911  30.153  1.00  0.00     0.000 C 
BRANCH   3   4
ATOM      4  C   UNL     1     -15.165   6.832  31.385  1.00  0.00    -0.000 C 
BRANCH   4   5
ATOM      5  C   UNL     1     -14.054   7.898  31.398  1.00  0.00    -0.000 C 
BRANCH   5   6
ATOM      6  C   UNL     1     -14.543   9.250  31.961  1.00  0.00    -0.000 C 
BRANCH   6   7
ATOM      7  C   UNL     1     -15.898   9.717  31.393  1.00  0.00    -0.000 C 
BRANCH   7   8
ATOM      8  C   UNL     1     -15.845  10.276  29.962  1.00  0.00    -0.000 C 
BRANCH   8   9
ATOM      9  C   UNL     1     -14.688  11.273  29.753  1.00  0.00    -0.000 C 
BRANCH   9  10
ATOM     10  C   UNL     1     -14.027  11.133  28.370  1.00  0.00    -0.000 C 
BRANCH  10  11
ATOM     11  C   UNL     1     -13.217   9.835  28.187  1.00  0.00    -0.003 C 
ATOM     12  C   UNL     1     -13.121   9.398  26.725  1.00  0.00     0.004 C 
ENDBRANCH  10  11
ENDBRANCH   9  10
ENDBRANCH   8   9
ENDBRANCH   7   8
ENDBRANCH   6   7
ENDBRANCH   5   6
ENDBRANCH   4   5
ENDBRANCH   3   4
ENDBRANCH   2   3
ENDBRANCH   1   2
BRANCH   1  13
ATOM     13  C   UNL     1     -14.194   3.970  28.457  1.00  0.00     0.000 C 
BRANCH  13  14
ATOM     14  C   UNL     1     -13.102   2.887  28.452  1.00  0.00     0.000 C 
BRANCH  14  15
ATOM     15  C   UNL     1     -13.640   1.495  28.831  1.00  0.00     0.000 C 
BRANCH  15  16
ATOM     16  C   UNL     1     -14.162   0.646  27.651  1.00  0.00     0.000 C 
BRANCH  16  17
ATOM     17  C   UNL     1     -15.611   0.147  27.788  1.00  0.00     0.000 C 
BRANCH  17  18
ATOM     18  C   UNL     1     -15.849  -0.656  29.078  1.00  0.00     0.000 C 
BRANCH  18  19
ATOM     19  C   UNL     1     -16.990  -0.085  29.938  1.00  0.00     0.000 C 
BRANCH  19  20
ATOM     20  C   UNL     1     -17.116   1.452  29.931  1.00  0.00     0.006 C 
BRANCH  20  21
ATOM     21  C   UNL     1     -16.658   2.125  31.239  1.00  0.00     0.053 C 
BRANCH  21  22
ATOM     22  C   UNL     1     -17.807   2.670  32.033  1.00  0.00     0.041 C 
ATOM     23  O   UNL     1     -18.371   1.957  32.903  1.00  0.00    -0.550 OA
ATOM     24  O   UNL     1     -18.231   3.980  31.841  1.00  0.00    -0.550 OA
ENDBRANCH  21  22
ENDBRANCH  20  21
ENDBRANCH  19  20
ENDBRANCH  18  19
ENDBRANCH  17  18
ENDBRANCH  16  17
ENDBRANCH  15  16
ENDBRANCH  14  15
ENDBRANCH  13  14
ENDBRANCH   1  13
TORSDOF 20
ENDMDL
MODEL 8
REMARK VINA RESULT:    -4.679      2.187      5.875
REMARK INTER + INTRA:         -13.210
REMARK INTER:                  -9.375
REMARK INTRA:                  -3.835
REMARK UNBOUND:                -3.061
REMARK SMILES CCCCCCCCCCCCCCCCCCCCCC(=O)[O-]
REMARK SMILES IDX 12 1 11 2 10 3 9 4 8 5 7 6 6 7 5 8 4 9 3 10 2 11 1 12 13 13
REMARK SMILES IDX 14 14 15 15 16 16 17 17 18 18 19 19 20 20 21 21 22 22 23 23
REMARK SMILES IDX 24 24
REMARK H PARENT
REMARK Flexibility Score: inf
ROOT
ATOM      1  C   UNL     1     -15.041  -3.132  16.509  1.00  0.00     0.000 C 
ENDROOT
BRANCH   1   2
ATOM      2  C   UNL     1     -15.085  -4.452  15.718  1.00  0.00     0.000 C 
BRANCH   2   3
ATOM      3  C   UNL     1     -14.078  -5.488  16.252  1.00  0.00     0.000 C 
BRANCH   3   4
ATOM      4  C   UNL     1     -14.728  -6.643  17.036  1.00  0.00    -0.000 C 
BRANCH   4   5
ATOM      5  C   UNL     1     -16.225  -6.408  17.303  1.00  0.00    -0.000 C 
BRANCH   5   6
ATOM      6  C   UNL     1     -16.565  -6.434  18.809  1.00  0.00    -0.000 C 
BRANCH   6   7
ATOM      7  C   UNL     1     -15.332  -6.452  19.733  1.00  0.00    -0.000 C 
BRANCH   7   8
ATOM      8  C   UNL     1     -15.295  -5.336  20.791  1.00  0.00    -0.000 C 
BRANCH   8   9
ATOM      9  C   UNL     1     -16.143  -5.665  22.035  1.00  0.00    -0.000 C 
BRANCH   9  10
ATOM     10  C   UNL     1     -16.927  -4.447  22.556  1.00  0.00    -0.000 C 
BRANCH  10  11
ATOM     11  C   UNL     1     -18.455  -4.638  22.567  1.00  0.00    -0.003 C 
ATOM     12  C   UNL     1     -18.883  -6.027  22.091  1.00  0.00     0.004 C 
ENDBRANCH  10  11
ENDBRANCH   9  10
ENDBRANCH   8   9
ENDBRANCH   7   8
ENDBRANCH   6   7
ENDBRANCH   5   6
ENDBRANCH   4   5
ENDBRANCH   3   4
ENDBRANCH   2   3
ENDBRANCH   1   2
BRANCH   1  13
ATOM     13  C   UNL     1     -13.964  -3.130  17.606  1.00  0.00     0.000 C 
BRANCH  13  14
ATOM     14  C   UNL     1     -14.386  -2.321  18.845  1.00  0.00     0.000 C 
BRANCH  14  15
ATOM     15  C   UNL     1     -15.094  -1.003  18.484  1.00  0.00     0.000 C 
BRANCH  15  16
ATOM     16  C   UNL     1     -16.603  -0.953  18.807  1.00  0.00     0.000 C 
BRANCH  16  17
ATOM     17  C   UNL     1     -17.104  -2.029  19.787  1.00  0.00     0.000 C 
BRANCH  17  18
ATOM     18  C   UNL     1     -17.904  -3.145  19.095  1.00  0.00     0.000 C 
BRANCH  18  19
ATOM     19  C   UNL     1     -18.499  -2.707  17.745  1.00  0.00     0.000 C 
BRANCH  19  20
ATOM     20  C   UNL     1     -18.875  -3.854  16.786  1.00  0.00     0.006 C 
BRANCH  20  21
ATOM     21  C   UNL     1     -20.391  -4.014  16.564  1.00  0.00     0.053 C 
BRANCH  21  22
ATOM     22  C   UNL     1     -20.869  -5.403  16.860  1.00  0.00     0.041 C 
ATOM     23  O   UNL     1     -22.097  -5.675  16.810  1.00  0.00    -0.550 OA
ATOM     24  O   UNL     1     -19.956  -6.409  17.154  1.00  0.00    -0.550 OA
ENDBRANCH  21  22
ENDBRANCH  20  21
ENDBRANCH  19  20
ENDBRANCH  18  19
ENDBRANCH  17  18
ENDBRANCH  16  17
ENDBRANCH  15  16
ENDBRANCH  14  15
ENDBRANCH  13  14
ENDBRANCH   1  13
TORSDOF 20
ENDMDL
MODEL 9
REMARK VINA RESULT:    -4.671      2.192      5.177
REMARK INTER + INTRA:         -13.193
REMARK INTER:                  -9.764
REMARK INTRA:                  -3.429
REMARK UNBOUND:                -3.061
REMARK SMILES CCCCCCCCCCCCCCCCCCCCCC(=O)[O-]
REMARK SMILES IDX 12 1 11 2 10 3 9 4 8 5 7 6 6 7 5 8 4 9 3 10 2 11 1 12 13 13
REMARK SMILES IDX 14 14 15 15 16 16 17 17 18 18 19 19 20 20 21 21 22 22 23 23
REMARK SMILES IDX 24 24
REMARK H PARENT
REMARK Flexibility Score: inf
ROOT
ATOM      1  C   UNL     1     -14.851  -0.175  17.568  1.00  0.00     0.000 C 
ENDROOT
BRANCH   1   2
ATOM      2  C   UNL     1     -15.233   0.258  16.141  1.00  0.00     0.000 C 
BRANCH   2   3
ATOM      3  C   UNL     1     -16.520   1.102  16.111  1.00  0.00     0.000 C 
BRANCH   3   4
ATOM      4  C   UNL     1     -17.394   0.952  17.371  1.00  0.00    -0.000 C 
BRANCH   4   5
ATOM      5  C   UNL     1     -18.538  -0.061  17.179  1.00  0.00    -0.000 C 
BRANCH   5   6
ATOM      6  C   UNL     1     -18.428  -1.261  18.144  1.00  0.00    -0.000 C 
BRANCH   6   7
ATOM      7  C   UNL     1     -17.821  -0.912  19.517  1.00  0.00    -0.000 C 
BRANCH   7   8
ATOM      8  C   UNL     1     -17.326  -2.117  20.335  1.00  0.00    -0.000 C 
BRANCH   8   9
ATOM      9  C   UNL     1     -15.913  -1.907  20.913  1.00  0.00    -0.000 C 
BRANCH   9  10
ATOM     10  C   UNL     1     -15.937  -1.306  22.330  1.00  0.00    -0.000 C 
BRANCH  10  11
ATOM     11  C   UNL     1     -15.082  -0.035  22.490  1.00  0.00    -0.003 C 
ATOM     12  C   UNL     1     -14.794   0.659  21.157  1.00  0.00     0.004 C 
ENDBRANCH  10  11
ENDBRANCH   9  10
ENDBRANCH   8   9
ENDBRANCH   7   8
ENDBRANCH   6   7
ENDBRANCH   5   6
ENDBRANCH   4   5
ENDBRANCH   3   4
ENDBRANCH   2   3
ENDBRANCH   1   2
BRANCH   1  13
ATOM     13  C   UNL     1     -14.270  -1.597  17.624  1.00  0.00     0.000 C 
BRANCH  13  14
ATOM     14  C   UNL     1     -15.209  -2.642  16.999  1.00  0.00     0.000 C 
BRANCH  14  15
ATOM     15  C   UNL     1     -14.461  -3.882  16.477  1.00  0.00     0.000 C 
BRANCH  15  16
ATOM     16  C   UNL     1     -15.325  -4.896  15.696  1.00  0.00     0.000 C 
BRANCH  16  17
ATOM     17  C   UNL     1     -15.029  -6.378  15.988  1.00  0.00     0.000 C 
BRANCH  17  18
ATOM     18  C   UNL     1     -15.313  -6.769  17.448  1.00  0.00     0.000 C 
BRANCH  18  19
ATOM     19  C   UNL     1     -16.723  -6.368  17.913  1.00  0.00     0.000 C 
BRANCH  19  20
ATOM     20  C   UNL     1     -16.796  -5.699  19.301  1.00  0.00     0.006 C 
BRANCH  20  21
ATOM     21  C   UNL     1     -15.420  -5.388  19.920  1.00  0.00     0.053 C 
BRANCH  21  22
ATOM     22  C   UNL     1     -15.244  -6.022  21.267  1.00  0.00     0.041 C 
ATOM     23  O   UNL     1     -14.299  -6.829  21.469  1.00  0.00    -0.550 OA
ATOM     24  O   UNL     1     -16.099  -5.693  22.312  1.00  0.00    -0.550 OA
ENDBRANCH  21  22
ENDBRANCH  20  21
ENDBRANCH  19  20
ENDBRANCH  18  19
ENDBRANCH  17  18
ENDBRANCH  16  17
ENDBRANCH  15  16
ENDBRANCH  14  15
ENDBRANCH  13  14
ENDBRANCH   1  13
TORSDOF 20
ENDMDL
