MODEL 1
REMARK VINA RESULT:    -4.725      0.000      0.000
REMARK INTER + INTRA:          -5.150
REMARK INTER:                  -5.140
REMARK INTRA:                  -0.010
REMARK UNBOUND:                -0.010
REMARK SMILES OCc1ccccc1
REMARK SMILES IDX 2 1 3 2 6 3 5 4 7 5 4 6 8 7 1 8
REMARK H PARENT 1 9
REMARK Flexibility Score: inf
ROOT
ATOM      1  C   UNL     1     -11.276  73.110  34.642  1.00  0.00     0.191 C 
ENDROOT
BRANCH   1   2
ATOM      2  C   UNL     1     -11.281  73.399  33.166  1.00  0.00    -0.023 A 
ATOM      3  C   UNL     1     -11.211  73.923  30.410  1.00  0.00     0.000 A 
ATOM      4  C   UNL     1     -10.986  74.957  31.324  1.00  0.00     0.000 A 
ATOM      5  C   UNL     1     -11.460  72.627  30.869  1.00  0.00     0.000 A 
ATOM      6  C   UNL     1     -11.016  74.697  32.698  1.00  0.00     0.006 A 
ATOM      7  C   UNL     1     -11.489  72.362  32.242  1.00  0.00     0.006 A 
ENDBRANCH   1   2
BRANCH   1   8
ATOM      8  O   UNL     1     -12.461  73.576  35.228  1.00  0.00    -0.392 OA
ATOM      9  H   UNL     1     -13.209  73.196  34.696  1.00  0.00     0.211 HD
ENDBRANCH   1   8
TORSDOF 2
ENDMDL
MODEL 2
REMARK VINA RESULT:    -4.693      1.679      2.599
REMARK INTER + INTRA:          -5.114
REMARK INTER:                  -5.103
REMARK INTRA:                  -0.012
REMARK UNBOUND:                -0.010
REMARK SMILES OCc1ccccc1
REMARK SMILES IDX 2 1 3 2 6 3 5 4 7 5 4 6 8 7 1 8
REMARK H PARENT 1 9
REMARK Flexibility Score: inf
ROOT
ATOM      1  C   UNL     1     -11.629  73.535  32.735  1.00  0.00     0.191 C 
ENDROOT
BRANCH   1   2
ATOM      2  C   UNL     1     -10.879  73.456  31.433  1.00  0.00    -0.023 A 
ATOM      3  C   UNL     1      -9.547  73.276  28.970  1.00  0.00     0.000 A 
ATOM      4  C   UNL     1      -9.469  72.222  29.886  1.00  0.00     0.000 A 
ATOM      5  C   UNL     1     -10.297  74.415  29.278  1.00  0.00     0.000 A 
ATOM      6  C   UNL     1     -10.137  72.308  31.111  1.00  0.00     0.006 A 
ATOM      7  C   UNL     1     -10.967  74.504  30.502  1.00  0.00     0.006 A 
ENDBRANCH   1   2
BRANCH   1   8
ATOM      8  O   UNL     1     -11.204  74.652  33.468  1.00  0.00    -0.392 OA
ATOM      9  H   UNL     1     -11.967  75.288  33.483  1.00  0.00     0.211 HD
ENDBRANCH   1   8
TORSDOF 2
ENDMDL
MODEL 3
REMARK VINA RESULT:    -4.686      3.630      4.795
REMARK INTER + INTRA:          -5.106
REMARK INTER:                  -5.090
REMARK INTRA:                  -0.017
REMARK UNBOUND:                -0.010
REMARK SMILES OCc1ccccc1
REMARK SMILES IDX 2 1 3 2 6 3 5 4 7 5 4 6 8 7 1 8
REMARK H PARENT 1 9
REMARK Flexibility Score: inf
ROOT
ATOM      1  C   UNL     1     -10.115  74.663  27.611  1.00  0.00     0.191 C 
ENDROOT
BRANCH   1   2
ATOM      2  C   UNL     1     -10.224  73.939  28.925  1.00  0.00    -0.023 A 
ATOM      3  C   UNL     1     -10.484  72.538  31.342  1.00  0.00     0.000 A 
ATOM      4  C   UNL     1     -11.299  73.644  31.084  1.00  0.00     0.000 A 
ATOM      5  C   UNL     1      -9.546  72.124  30.391  1.00  0.00     0.000 A 
ATOM      6  C   UNL     1     -11.175  74.340  29.878  1.00  0.00     0.006 A 
ATOM      7  C   UNL     1      -9.420  72.816  29.183  1.00  0.00     0.006 A 
ENDBRANCH   1   2
BRANCH   1   8
ATOM      8  O   UNL     1      -8.803  74.580  27.124  1.00  0.00    -0.392 OA
ATOM      9  H   UNL     1      -8.212  74.479  27.915  1.00  0.00     0.211 HD
ENDBRANCH   1   8
TORSDOF 2
ENDMDL
MODEL 4
REMARK VINA RESULT:    -4.685      1.560      2.072
REMARK INTER + INTRA:          -5.105
REMARK INTER:                  -5.087
REMARK INTRA:                  -0.019
REMARK UNBOUND:                -0.010
REMARK SMILES OCc1ccccc1
REMARK SMILES IDX 2 1 3 2 6 3 5 4 7 5 4 6 8 7 1 8
REMARK H PARENT 1 9
REMARK Flexibility Score: inf
ROOT
ATOM      1  C   UNL     1     -11.184  73.993  32.881  1.00  0.00     0.191 C 
ENDROOT
BRANCH   1   2
ATOM      2  C   UNL     1     -11.263  73.662  31.416  1.00  0.00    -0.023 A 
ATOM      3  C   UNL     1     -11.334  73.022  28.685  1.00  0.00     0.000 A 
ATOM      4  C   UNL     1     -11.005  74.319  29.090  1.00  0.00     0.000 A 
ATOM      5  C   UNL     1     -11.618  72.042  29.640  1.00  0.00     0.000 A 
ATOM      6  C   UNL     1     -10.964  74.638  30.452  1.00  0.00     0.006 A 
ATOM      7  C   UNL     1     -11.577  72.357  31.001  1.00  0.00     0.006 A 
ENDBRANCH   1   2
BRANCH   1   8
ATOM      8  O   UNL     1     -11.166  75.383  33.060  1.00  0.00    -0.392 OA
ATOM      9  H   UNL     1     -11.739  75.574  33.849  1.00  0.00     0.211 HD
ENDBRANCH   1   8
TORSDOF 2
ENDMDL
MODEL 5
REMARK VINA RESULT:    -4.682      1.554      2.627
REMARK INTER + INTRA:          -5.102
REMARK INTER:                  -5.083
REMARK INTRA:                  -0.019
REMARK UNBOUND:                -0.010
REMARK SMILES OCc1ccccc1
REMARK SMILES IDX 2 1 3 2 6 3 5 4 7 5 4 6 8 7 1 8
REMARK H PARENT 1 9
REMARK Flexibility Score: inf
ROOT
ATOM      1  C   UNL     1     -11.184  73.989  32.904  1.00  0.00     0.191 C 
ENDROOT
BRANCH   1   2
ATOM      2  C   UNL     1     -11.230  73.632  31.444  1.00  0.00    -0.023 A 
ATOM      3  C   UNL     1     -11.394  72.987  28.718  1.00  0.00     0.000 A 
ATOM      4  C   UNL     1     -11.645  72.008  29.684  1.00  0.00     0.000 A 
ATOM      5  C   UNL     1     -11.072  74.290  29.110  1.00  0.00     0.000 A 
ATOM      6  C   UNL     1     -11.569  72.330  31.043  1.00  0.00     0.006 A 
ATOM      7  C   UNL     1     -10.996  74.615  30.468  1.00  0.00     0.006 A 
ENDBRANCH   1   2
BRANCH   1   8
ATOM      8  O   UNL     1     -11.163  75.383  33.059  1.00  0.00    -0.392 OA
ATOM      9  H   UNL     1     -10.645  75.568  33.886  1.00  0.00     0.211 HD
ENDBRANCH   1   8
TORSDOF 2
ENDMDL
MODEL 6
REMARK VINA RESULT:    -4.659      0.693      1.848
REMARK INTER + INTRA:          -5.078
REMARK INTER:                  -5.058
REMARK INTRA:                  -0.020
REMARK UNBOUND:                -0.010
REMARK SMILES OCc1ccccc1
REMARK SMILES IDX 2 1 3 2 6 3 5 4 7 5 4 6 8 7 1 8
REMARK H PARENT 1 9
REMARK Flexibility Score: inf
ROOT
ATOM      1  C   UNL     1     -11.307  73.097  34.241  1.00  0.00     0.191 C 
ENDROOT
BRANCH   1   2
ATOM      2  C   UNL     1     -11.232  73.354  32.761  1.00  0.00    -0.023 A 
ATOM      3  C   UNL     1     -11.171  73.850  30.000  1.00  0.00     0.000 A 
ATOM      4  C   UNL     1     -11.423  72.559  30.472  1.00  0.00     0.000 A 
ATOM      5  C   UNL     1     -10.959  74.896  30.903  1.00  0.00     0.000 A 
ATOM      6  C   UNL     1     -11.459  72.311  31.849  1.00  0.00     0.006 A 
ATOM      7  C   UNL     1     -10.996  74.652  32.279  1.00  0.00     0.006 A 
ENDBRANCH   1   2
BRANCH   1   8
ATOM      8  O   UNL     1     -11.016  74.272  34.949  1.00  0.00    -0.392 OA
ATOM      9  H   UNL     1     -11.639  74.298  35.722  1.00  0.00     0.211 HD
ENDBRANCH   1   8
TORSDOF 2
ENDMDL
MODEL 7
REMARK VINA RESULT:    -4.617      2.676      3.783
REMARK INTER + INTRA:          -5.032
REMARK INTER:                  -5.013
REMARK INTRA:                  -0.019
REMARK UNBOUND:                -0.010
REMARK SMILES OCc1ccccc1
REMARK SMILES IDX 2 1 3 2 6 3 5 4 7 5 4 6 8 7 1 8
REMARK H PARENT 1 9
REMARK Flexibility Score: inf
ROOT
ATOM      1  C   UNL     1     -11.310  73.703  28.524  1.00  0.00     0.191 C 
ENDROOT
BRANCH   1   2
ATOM      2  C   UNL     1     -11.252  73.711  30.027  1.00  0.00    -0.023 A 
ATOM      3  C   UNL     1     -11.222  73.743  32.832  1.00  0.00     0.000 A 
ATOM      4  C   UNL     1     -10.944  74.912  32.117  1.00  0.00     0.000 A 
ATOM      5  C   UNL     1     -11.525  72.562  32.150  1.00  0.00     0.000 A 
ATOM      6  C   UNL     1     -10.963  74.898  30.718  1.00  0.00     0.006 A 
ATOM      7  C   UNL     1     -11.547  72.544  30.752  1.00  0.00     0.006 A 
ENDBRANCH   1   2
BRANCH   1   8
ATOM      8  O   UNL     1     -12.016  72.578  28.075  1.00  0.00    -0.392 OA
ATOM      9  H   UNL     1     -11.438  72.130  27.403  1.00  0.00     0.211 HD
ENDBRANCH   1   8
TORSDOF 2
ENDMDL
MODEL 8
REMARK VINA RESULT:    -4.605      2.679      4.093
REMARK INTER + INTRA:          -5.018
REMARK INTER:                  -5.007
REMARK INTRA:                  -0.011
REMARK UNBOUND:                -0.010
REMARK SMILES OCc1ccccc1
REMARK SMILES IDX 2 1 3 2 6 3 5 4 7 5 4 6 8 7 1 8
REMARK H PARENT 1 9
REMARK Flexibility Score: inf
ROOT
ATOM      1  C   UNL     1     -11.108  73.121  28.592  1.00  0.00     0.191 C 
ENDROOT
BRANCH   1   2
ATOM      2  C   UNL     1     -11.184  73.427  30.063  1.00  0.00    -0.023 A 
ATOM      3  C   UNL     1     -11.250  73.978  32.813  1.00  0.00     0.000 A 
ATOM      4  C   UNL     1     -11.570  72.699  32.349  1.00  0.00     0.000 A 
ATOM      5  C   UNL     1     -10.887  74.980  31.908  1.00  0.00     0.000 A 
ATOM      6  C   UNL     1     -11.533  72.421  30.979  1.00  0.00     0.006 A 
ATOM      7  C   UNL     1     -10.848  74.706  30.538  1.00  0.00     0.006 A 
ENDBRANCH   1   2
BRANCH   1   8
ATOM      8  O   UNL     1     -12.371  72.750  28.111  1.00  0.00    -0.392 OA
ATOM      9  H   UNL     1     -13.027  73.363  28.537  1.00  0.00     0.211 HD
ENDBRANCH   1   8
TORSDOF 2
ENDMDL
MODEL 9
REMARK VINA RESULT:    -4.337      3.789      5.129
REMARK INTER + INTRA:          -4.727
REMARK INTER:                  -4.716
REMARK INTRA:                  -0.011
REMARK UNBOUND:                -0.010
REMARK SMILES OCc1ccccc1
REMARK SMILES IDX 2 1 3 2 6 3 5 4 7 5 4 6 8 7 1 8
REMARK H PARENT 1 9
REMARK Flexibility Score: inf
ROOT
ATOM      1  C   UNL     1      -9.433  73.356  27.189  1.00  0.00     0.191 C 
ENDROOT
BRANCH   1   2
ATOM      2  C   UNL     1      -9.924  73.305  28.610  1.00  0.00    -0.023 A 
ATOM      3  C   UNL     1     -10.780  73.260  31.281  1.00  0.00     0.000 A 
ATOM      4  C   UNL     1      -9.856  72.315  30.828  1.00  0.00     0.000 A 
ATOM      5  C   UNL     1     -11.270  74.234  30.406  1.00  0.00     0.000 A 
ATOM      6  C   UNL     1      -9.424  72.339  29.498  1.00  0.00     0.006 A 
ATOM      7  C   UNL     1     -10.840  74.262  29.076  1.00  0.00     0.006 A 
ENDBRANCH   1   2
BRANCH   1   8
ATOM      8  O   UNL     1     -10.485  73.073  26.306  1.00  0.00    -0.392 OA
ATOM      9  H   UNL     1     -11.190  72.623  26.840  1.00  0.00     0.211 HD
ENDBRANCH   1   8
TORSDOF 2
ENDMDL
