MODEL 1
REMARK VINA RESULT:    -4.511      0.000      0.000
REMARK INTER + INTRA:         -10.180
REMARK INTER:                  -8.204
REMARK INTRA:                  -1.976
REMARK UNBOUND:                -1.976
REMARK SMILES CCCCCC=CCC=CCCCCCCCC(=O)[O-]
REMARK SMILES IDX 11 1 12 2 13 3 14 4 15 5 16 6 17 7 18 8 19 9 20 10 10 11
REMARK SMILES IDX 9 12 8 13 7 14 6 15 5 16 4 17 3 18 2 19 1 20
REMARK H PARENT
REMARK Flexibility Score: inf
ROOT
ATOM      1  C   UNL     1      92.629  42.770  27.624  1.00  0.00     0.027 C 
ENDROOT
BRANCH   1   2
ATOM      2  C   UNL     1      92.323  41.263  27.587  1.00  0.00     0.004 C 
BRANCH   2   3
ATOM      3  C   UNL     1      93.084  40.488  26.495  1.00  0.00     0.000 C 
BRANCH   3   4
ATOM      4  C   UNL     1      94.532  40.161  26.896  1.00  0.00     0.000 C 
BRANCH   4   5
ATOM      5  C   UNL     1      95.544  41.178  26.342  1.00  0.00     0.000 C 
BRANCH   5   6
ATOM      6  C   UNL     1      95.957  40.873  24.894  1.00  0.00     0.006 C 
BRANCH   6   7
ATOM      7  C   UNL     1      95.527  42.004  23.953  1.00  0.00     0.053 C 
BRANCH   7   8
ATOM      8  C   UNL     1      96.723  42.733  23.428  1.00  0.00     0.041 C 
ATOM      9  O   UNL     1      97.145  42.503  22.264  1.00  0.00    -0.550 OA
ATOM     10  O   UNL     1      97.405  43.629  24.243  1.00  0.00    -0.550 OA
ENDBRANCH   7   8
ENDBRANCH   6   7
ENDBRANCH   5   6
ENDBRANCH   4   5
ENDBRANCH   3   4
ENDBRANCH   2   3
ENDBRANCH   1   2
BRANCH   1  11
ATOM     11  C   UNL     1      92.481  43.417  26.269  1.00  0.00    -0.031 C 
ATOM     12  C   UNL     1      93.375  44.260  25.721  1.00  0.00    -0.027 C 
BRANCH  12  13
ATOM     13  C   UNL     1      94.625  44.743  26.410  1.00  0.00     0.054 C 
BRANCH  13  14
ATOM     14  C   UNL     1      94.471  46.178  26.831  1.00  0.00    -0.027 C 
ATOM     15  C   UNL     1      93.933  46.510  28.015  1.00  0.00    -0.031 C 
BRANCH  15  16
ATOM     16  C   UNL     1      93.790  47.946  28.438  1.00  0.00     0.027 C 
BRANCH  16  17
ATOM     17  C   UNL     1      95.163  48.610  28.619  1.00  0.00     0.004 C 
BRANCH  17  18
ATOM     18  C   UNL     1      95.148  50.106  28.267  1.00  0.00     0.000 C 
BRANCH  18  19
ATOM     19  C   UNL     1      94.703  50.369  26.821  1.00  0.00    -0.003 C 
ATOM     20  C   UNL     1      95.655  49.710  25.826  1.00  0.00     0.004 C 
ENDBRANCH  18  19
ENDBRANCH  17  18
ENDBRANCH  16  17
ENDBRANCH  15  16
ENDBRANCH  13  14
ENDBRANCH  12  13
ENDBRANCH   1  11
TORSDOF 14
ENDMDL
MODEL 2
REMARK VINA RESULT:    -4.405      1.598      2.491
REMARK INTER + INTRA:          -9.987
REMARK INTER:                  -8.342
REMARK INTRA:                  -1.645
REMARK UNBOUND:                -1.976
REMARK SMILES CCCCCC=CCC=CCCCCCCCC(=O)[O-]
REMARK SMILES IDX 11 1 12 2 13 3 14 4 15 5 16 6 17 7 18 8 19 9 20 10 10 11
REMARK SMILES IDX 9 12 8 13 7 14 6 15 5 16 4 17 3 18 2 19 1 20
REMARK H PARENT
REMARK Flexibility Score: inf
ROOT
ATOM      1  C   UNL     1      92.380  44.610  28.155  1.00  0.00     0.027 C 
ENDROOT
BRANCH   1   2
ATOM      2  C   UNL     1      92.237  43.107  27.862  1.00  0.00     0.004 C 
BRANCH   2   3
ATOM      3  C   UNL     1      92.663  42.693  26.441  1.00  0.00     0.000 C 
BRANCH   3   4
ATOM      4  C   UNL     1      92.778  43.891  25.483  1.00  0.00     0.000 C 
BRANCH   4   5
ATOM      5  C   UNL     1      93.966  43.762  24.516  1.00  0.00     0.000 C 
BRANCH   5   6
ATOM      6  C   UNL     1      94.680  42.406  24.630  1.00  0.00     0.006 C 
BRANCH   6   7
ATOM      7  C   UNL     1      96.201  42.590  24.661  1.00  0.00     0.053 C 
BRANCH   7   8
ATOM      8  C   UNL     1      96.798  42.240  23.335  1.00  0.00     0.041 C 
ATOM      9  O   UNL     1      97.073  41.042  23.060  1.00  0.00    -0.550 OA
ATOM     10  O   UNL     1      97.099  43.242  22.421  1.00  0.00    -0.550 OA
ENDBRANCH   7   8
ENDBRANCH   6   7
ENDBRANCH   5   6
ENDBRANCH   4   5
ENDBRANCH   3   4
ENDBRANCH   2   3
ENDBRANCH   1   2
BRANCH   1  11
ATOM     11  C   UNL     1      93.648  44.927  28.910  1.00  0.00    -0.031 C 
ATOM     12  C   UNL     1      94.568  45.827  28.518  1.00  0.00    -0.027 C 
BRANCH  12  13
ATOM     13  C   UNL     1      94.508  46.602  27.228  1.00  0.00     0.054 C 
BRANCH  13  14
ATOM     14  C   UNL     1      94.409  48.076  27.505  1.00  0.00    -0.027 C 
ATOM     15  C   UNL     1      95.029  48.638  28.554  1.00  0.00    -0.031 C 
BRANCH  15  16
ATOM     16  C   UNL     1      94.936  50.115  28.824  1.00  0.00     0.027 C 
BRANCH  16  17
ATOM     17  C   UNL     1      93.487  50.609  28.708  1.00  0.00     0.004 C 
BRANCH  17  18
ATOM     18  C   UNL     1      93.376  51.941  27.948  1.00  0.00     0.000 C 
BRANCH  18  19
ATOM     19  C   UNL     1      92.737  51.779  26.561  1.00  0.00    -0.003 C 
ATOM     20  C   UNL     1      93.778  51.374  25.522  1.00  0.00     0.004 C 
ENDBRANCH  18  19
ENDBRANCH  17  18
ENDBRANCH  16  17
ENDBRANCH  15  16
ENDBRANCH  13  14
ENDBRANCH  12  13
ENDBRANCH   1  11
TORSDOF 14
ENDMDL
MODEL 3
REMARK VINA RESULT:    -4.350      6.771     11.663
REMARK INTER + INTRA:          -9.887
REMARK INTER:                  -7.431
REMARK INTRA:                  -2.456
REMARK UNBOUND:                -1.976
REMARK SMILES CCCCCC=CCC=CCCCCCCCC(=O)[O-]
REMARK SMILES IDX 11 1 12 2 13 3 14 4 15 5 16 6 17 7 18 8 19 9 20 10 10 11
REMARK SMILES IDX 9 12 8 13 7 14 6 15 5 16 4 17 3 18 2 19 1 20
REMARK H PARENT
REMARK Flexibility Score: inf
ROOT
ATOM      1  C   UNL     1      98.724  36.076  20.188  1.00  0.00     0.027 C 
ENDROOT
BRANCH   1   2
ATOM      2  C   UNL     1     100.020  36.668  20.767  1.00  0.00     0.004 C 
BRANCH   2   3
ATOM      3  C   UNL     1      99.829  37.996  21.523  1.00  0.00     0.000 C 
BRANCH   3   4
ATOM      4  C   UNL     1     100.230  37.900  23.005  1.00  0.00     0.000 C 
BRANCH   4   5
ATOM      5  C   UNL     1      99.318  38.734  23.920  1.00  0.00     0.000 C 
BRANCH   5   6
ATOM      6  C   UNL     1      97.854  38.738  23.453  1.00  0.00     0.006 C 
BRANCH   6   7
ATOM      7  C   UNL     1      97.011  39.694  24.303  1.00  0.00     0.053 C 
BRANCH   7   8
ATOM      8  C   UNL     1      96.616  40.896  23.505  1.00  0.00     0.041 C 
ATOM      9  O   UNL     1      95.559  41.522  23.783  1.00  0.00    -0.550 OA
ATOM     10  O   UNL     1      97.388  41.295  22.420  1.00  0.00    -0.550 OA
ENDBRANCH   7   8
ENDBRANCH   6   7
ENDBRANCH   5   6
ENDBRANCH   4   5
ENDBRANCH   3   4
ENDBRANCH   2   3
ENDBRANCH   1   2
BRANCH   1  11
ATOM     11  C   UNL     1      98.558  34.617  20.534  1.00  0.00    -0.031 C 
ATOM     12  C   UNL     1      97.951  34.157  21.645  1.00  0.00    -0.027 C 
BRANCH  12  13
ATOM     13  C   UNL     1      97.409  35.032  22.745  1.00  0.00     0.054 C 
BRANCH  13  14
ATOM     14  C   UNL     1      98.223  34.865  23.997  1.00  0.00    -0.027 C 
ATOM     15  C   UNL     1      99.540  34.610  23.952  1.00  0.00    -0.031 C 
BRANCH  15  16
ATOM     16  C   UNL     1     100.355  34.453  25.206  1.00  0.00     0.027 C 
BRANCH  16  17
ATOM     17  C   UNL     1     101.848  34.688  24.931  1.00  0.00     0.004 C 
BRANCH  17  18
ATOM     18  C   UNL     1     102.179  34.684  23.430  1.00  0.00     0.000 C 
BRANCH  18  19
ATOM     19  C   UNL     1     103.416  33.836  23.099  1.00  0.00    -0.003 C 
ATOM     20  C   UNL     1     103.274  32.421  23.651  1.00  0.00     0.004 C 
ENDBRANCH  18  19
ENDBRANCH  17  18
ENDBRANCH  16  17
ENDBRANCH  15  16
ENDBRANCH  13  14
ENDBRANCH  12  13
ENDBRANCH   1  11
TORSDOF 14
ENDMDL
MODEL 4
REMARK VINA RESULT:    -4.291      2.871      3.568
REMARK INTER + INTRA:          -9.780
REMARK INTER:                  -8.840
REMARK INTRA:                  -0.940
REMARK UNBOUND:                -1.976
REMARK SMILES CCCCCC=CCC=CCCCCCCCC(=O)[O-]
REMARK SMILES IDX 11 1 12 2 13 3 14 4 15 5 16 6 17 7 18 8 19 9 20 10 10 11
REMARK SMILES IDX 9 12 8 13 7 14 6 15 5 16 4 17 3 18 2 19 1 20
REMARK H PARENT
REMARK Flexibility Score: inf
ROOT
ATOM      1  C   UNL     1      95.109  43.148  24.429  1.00  0.00     0.027 C 
ENDROOT
BRANCH   1   2
ATOM      2  C   UNL     1      95.136  41.637  24.140  1.00  0.00     0.004 C 
BRANCH   2   3
ATOM      3  C   UNL     1      96.240  40.867  24.888  1.00  0.00     0.000 C 
BRANCH   3   4
ATOM      4  C   UNL     1      96.853  39.736  24.044  1.00  0.00     0.000 C 
BRANCH   4   5
ATOM      5  C   UNL     1      97.928  40.242  23.068  1.00  0.00     0.000 C 
BRANCH   5   6
ATOM      6  C   UNL     1      98.672  39.099  22.361  1.00  0.00     0.006 C 
BRANCH   6   7
ATOM      7  C   UNL     1      98.717  37.847  23.244  1.00  0.00     0.053 C 
BRANCH   7   8
ATOM      8  C   UNL     1     100.108  37.602  23.735  1.00  0.00     0.041 C 
ATOM      9  O   UNL     1     100.823  36.716  23.197  1.00  0.00    -0.550 OA
ATOM     10  O   UNL     1     100.598  38.317  24.822  1.00  0.00    -0.550 OA
ENDBRANCH   7   8
ENDBRANCH   6   7
ENDBRANCH   5   6
ENDBRANCH   4   5
ENDBRANCH   3   4
ENDBRANCH   2   3
ENDBRANCH   1   2
BRANCH   1  11
ATOM     11  C   UNL     1      93.751  43.617  24.888  1.00  0.00    -0.031 C 
ATOM     12  C   UNL     1      93.537  44.438  25.933  1.00  0.00    -0.027 C 
BRANCH  12  13
ATOM     13  C   UNL     1      94.617  44.954  26.847  1.00  0.00     0.054 C 
BRANCH  13  14
ATOM     14  C   UNL     1      94.471  46.436  27.048  1.00  0.00    -0.027 C 
ATOM     15  C   UNL     1      94.042  46.950  28.211  1.00  0.00    -0.031 C 
BRANCH  15  16
ATOM     16  C   UNL     1      93.906  48.434  28.413  1.00  0.00     0.027 C 
BRANCH  16  17
ATOM     17  C   UNL     1      95.248  49.064  28.816  1.00  0.00     0.004 C 
BRANCH  17  18
ATOM     18  C   UNL     1      95.507  50.406  28.113  1.00  0.00     0.000 C 
BRANCH  18  19
ATOM     19  C   UNL     1      94.854  50.482  26.725  1.00  0.00    -0.003 C 
ATOM     20  C   UNL     1      95.686  49.735  25.687  1.00  0.00     0.004 C 
ENDBRANCH  18  19
ENDBRANCH  17  18
ENDBRANCH  16  17
ENDBRANCH  15  16
ENDBRANCH  13  14
ENDBRANCH  12  13
ENDBRANCH   1  11
TORSDOF 14
ENDMDL
MODEL 5
REMARK VINA RESULT:    -4.285      6.294     10.013
REMARK INTER + INTRA:          -9.768
REMARK INTER:                  -7.120
REMARK INTRA:                  -2.648
REMARK UNBOUND:                -1.976
REMARK SMILES CCCCCC=CCC=CCCCCCCCC(=O)[O-]
REMARK SMILES IDX 11 1 12 2 13 3 14 4 15 5 16 6 17 7 18 8 19 9 20 10 10 11
REMARK SMILES IDX 9 12 8 13 7 14 6 15 5 16 4 17 3 18 2 19 1 20
REMARK H PARENT
REMARK Flexibility Score: inf
ROOT
ATOM      1  C   UNL     1     101.195  34.837  21.796  1.00  0.00     0.027 C 
ENDROOT
BRANCH   1   2
ATOM      2  C   UNL     1     100.986  36.357  21.682  1.00  0.00     0.004 C 
BRANCH   2   3
ATOM      3  C   UNL     1      99.520  36.808  21.815  1.00  0.00     0.000 C 
BRANCH   3   4
ATOM      4  C   UNL     1      99.341  37.960  22.818  1.00  0.00     0.000 C 
BRANCH   4   5
ATOM      5  C   UNL     1      98.151  37.739  23.767  1.00  0.00     0.000 C 
BRANCH   5   6
ATOM      6  C   UNL     1      97.205  38.949  23.823  1.00  0.00     0.006 C 
BRANCH   6   7
ATOM      7  C   UNL     1      97.957  40.246  23.506  1.00  0.00     0.053 C 
BRANCH   7   8
ATOM      8  C   UNL     1      97.023  41.269  22.941  1.00  0.00     0.041 C 
ATOM      9  O   UNL     1      97.355  41.939  21.928  1.00  0.00    -0.550 OA
ATOM     10  O   UNL     1      95.806  41.519  23.563  1.00  0.00    -0.550 OA
ENDBRANCH   7   8
ENDBRANCH   6   7
ENDBRANCH   5   6
ENDBRANCH   4   5
ENDBRANCH   3   4
ENDBRANCH   2   3
ENDBRANCH   1   2
BRANCH   1  11
ATOM     11  C   UNL     1     102.182  34.476  22.880  1.00  0.00    -0.031 C 
ATOM     12  C   UNL     1     101.860  34.267  24.170  1.00  0.00    -0.027 C 
BRANCH  12  13
ATOM     13  C   UNL     1     100.476  34.434  24.742  1.00  0.00     0.054 C 
BRANCH  13  14
ATOM     14  C   UNL     1     100.482  35.463  25.837  1.00  0.00    -0.027 C 
ATOM     15  C   UNL     1     101.264  36.553  25.775  1.00  0.00    -0.031 C 
BRANCH  15  16
ATOM     16  C   UNL     1     101.260  37.586  26.868  1.00  0.00     0.027 C 
BRANCH  16  17
ATOM     17  C   UNL     1     100.651  38.908  26.378  1.00  0.00     0.004 C 
BRANCH  17  18
ATOM     18  C   UNL     1      99.431  39.340  27.207  1.00  0.00     0.000 C 
BRANCH  18  19
ATOM     19  C   UNL     1      98.386  38.223  27.348  1.00  0.00    -0.003 C 
ATOM     20  C   UNL     1      96.983  38.801  27.505  1.00  0.00     0.004 C 
ENDBRANCH  18  19
ENDBRANCH  17  18
ENDBRANCH  16  17
ENDBRANCH  15  16
ENDBRANCH  13  14
ENDBRANCH  12  13
ENDBRANCH   1  11
TORSDOF 14
ENDMDL
MODEL 6
REMARK VINA RESULT:    -4.237      2.245      3.244
REMARK INTER + INTRA:          -9.682
REMARK INTER:                  -8.706
REMARK INTRA:                  -0.975
REMARK UNBOUND:                -1.976
REMARK SMILES CCCCCC=CCC=CCCCCCCCC(=O)[O-]
REMARK SMILES IDX 11 1 12 2 13 3 14 4 15 5 16 6 17 7 18 8 19 9 20 10 10 11
REMARK SMILES IDX 9 12 8 13 7 14 6 15 5 16 4 17 3 18 2 19 1 20
REMARK H PARENT
REMARK Flexibility Score: inf
ROOT
ATOM      1  C   UNL     1      94.259  43.774  27.007  1.00  0.00     0.027 C 
ENDROOT
BRANCH   1   2
ATOM      2  C   UNL     1      94.655  42.676  26.004  1.00  0.00     0.004 C 
BRANCH   2   3
ATOM      3  C   UNL     1      94.511  43.084  24.526  1.00  0.00     0.000 C 
BRANCH   3   4
ATOM      4  C   UNL     1      95.797  42.848  23.717  1.00  0.00     0.000 C 
BRANCH   4   5
ATOM      5  C   UNL     1      96.130  41.356  23.554  1.00  0.00     0.000 C 
BRANCH   5   6
ATOM      6  C   UNL     1      97.522  41.121  22.949  1.00  0.00     0.006 C 
BRANCH   6   7
ATOM      7  C   UNL     1      98.318  40.112  23.783  1.00  0.00     0.053 C 
BRANCH   7   8
ATOM      8  C   UNL     1      98.217  38.743  23.187  1.00  0.00     0.041 C 
ATOM      9  O   UNL     1      98.874  38.453  22.153  1.00  0.00    -0.550 OA
ATOM     10  O   UNL     1      97.358  37.804  23.744  1.00  0.00    -0.550 OA
ENDBRANCH   7   8
ENDBRANCH   6   7
ENDBRANCH   5   6
ENDBRANCH   4   5
ENDBRANCH   3   4
ENDBRANCH   2   3
ENDBRANCH   1   2
BRANCH   1  11
ATOM     11  C   UNL     1      94.347  45.155  26.405  1.00  0.00    -0.031 C 
ATOM     12  C   UNL     1      94.494  46.291  27.112  1.00  0.00    -0.027 C 
BRANCH  12  13
ATOM     13  C   UNL     1      94.521  46.361  28.617  1.00  0.00     0.054 C 
BRANCH  13  14
ATOM     14  C   UNL     1      94.915  47.738  29.071  1.00  0.00    -0.027 C 
ATOM     15  C   UNL     1      94.127  48.803  28.857  1.00  0.00    -0.031 C 
BRANCH  15  16
ATOM     16  C   UNL     1      94.520  50.179  29.321  1.00  0.00     0.027 C 
BRANCH  16  17
ATOM     17  C   UNL     1      95.138  50.995  28.176  1.00  0.00     0.004 C 
BRANCH  17  18
ATOM     18  C   UNL     1      94.694  50.498  26.790  1.00  0.00     0.000 C 
BRANCH  18  19
ATOM     19  C   UNL     1      93.834  51.527  26.041  1.00  0.00    -0.003 C 
ATOM     20  C   UNL     1      92.485  51.718  26.727  1.00  0.00     0.004 C 
ENDBRANCH  18  19
ENDBRANCH  17  18
ENDBRANCH  16  17
ENDBRANCH  15  16
ENDBRANCH  13  14
ENDBRANCH  12  13
ENDBRANCH   1  11
TORSDOF 14
ENDMDL
MODEL 7
REMARK VINA RESULT:    -4.235      2.593      7.648
REMARK INTER + INTRA:          -9.677
REMARK INTER:                  -8.311
REMARK INTRA:                  -1.366
REMARK UNBOUND:                -1.976
REMARK SMILES CCCCCC=CCC=CCCCCCCCC(=O)[O-]
REMARK SMILES IDX 11 1 12 2 13 3 14 4 15 5 16 6 17 7 18 8 19 9 20 10 10 11
REMARK SMILES IDX 9 12 8 13 7 14 6 15 5 16 4 17 3 18 2 19 1 20
REMARK H PARENT
REMARK Flexibility Score: inf
ROOT
ATOM      1  C   UNL     1      94.610  44.538  26.221  1.00  0.00     0.027 C 
ENDROOT
BRANCH   1   2
ATOM      2  C   UNL     1      94.555  46.009  26.668  1.00  0.00     0.004 C 
BRANCH   2   3
ATOM      3  C   UNL     1      94.596  46.211  28.194  1.00  0.00     0.000 C 
BRANCH   3   4
ATOM      4  C   UNL     1      94.046  47.580  28.628  1.00  0.00     0.000 C 
BRANCH   4   5
ATOM      5  C   UNL     1      95.113  48.462  29.297  1.00  0.00     0.000 C 
BRANCH   5   6
ATOM      6  C   UNL     1      95.433  49.726  28.483  1.00  0.00     0.006 C 
BRANCH   6   7
ATOM      7  C   UNL     1      94.264  50.094  27.563  1.00  0.00     0.053 C 
BRANCH   7   8
ATOM      8  C   UNL     1      94.746  50.309  26.163  1.00  0.00     0.041 C 
ATOM      9  O   UNL     1      95.816  49.771  25.772  1.00  0.00    -0.550 OA
ATOM     10  O   UNL     1      94.041  51.144  25.306  1.00  0.00    -0.550 OA
ENDBRANCH   7   8
ENDBRANCH   6   7
ENDBRANCH   5   6
ENDBRANCH   4   5
ENDBRANCH   3   4
ENDBRANCH   2   3
ENDBRANCH   1   2
BRANCH   1  11
ATOM     11  C   UNL     1      93.329  44.093  25.559  1.00  0.00    -0.031 C 
ATOM     12  C   UNL     1      92.290  43.529  26.202  1.00  0.00    -0.027 C 
BRANCH  12  13
ATOM     13  C   UNL     1      92.279  43.189  27.670  1.00  0.00     0.054 C 
BRANCH  13  14
ATOM     14  C   UNL     1      92.261  41.699  27.863  1.00  0.00    -0.027 C 
ATOM     15  C   UNL     1      92.034  40.859  26.841  1.00  0.00    -0.031 C 
BRANCH  15  16
ATOM     16  C   UNL     1      92.027  39.368  27.036  1.00  0.00     0.027 C 
BRANCH  16  17
ATOM     17  C   UNL     1      92.846  38.663  25.944  1.00  0.00     0.004 C 
BRANCH  17  18
ATOM     18  C   UNL     1      94.314  39.116  25.921  1.00  0.00     0.000 C 
BRANCH  18  19
ATOM     19  C   UNL     1      94.643  39.996  24.706  1.00  0.00    -0.003 C 
ATOM     20  C   UNL     1      96.150  40.173  24.549  1.00  0.00     0.004 C 
ENDBRANCH  18  19
ENDBRANCH  17  18
ENDBRANCH  16  17
ENDBRANCH  15  16
ENDBRANCH  13  14
ENDBRANCH  12  13
ENDBRANCH   1  11
TORSDOF 14
ENDMDL
MODEL 8
REMARK VINA RESULT:    -4.211      8.326     10.577
REMARK INTER + INTRA:          -9.634
REMARK INTER:                  -6.655
REMARK INTRA:                  -2.979
REMARK UNBOUND:                -1.976
REMARK SMILES CCCCCC=CCC=CCCCCCCCC(=O)[O-]
REMARK SMILES IDX 11 1 12 2 13 3 14 4 15 5 16 6 17 7 18 8 19 9 20 10 10 11
REMARK SMILES IDX 9 12 8 13 7 14 6 15 5 16 4 17 3 18 2 19 1 20
REMARK H PARENT
REMARK Flexibility Score: inf
ROOT
ATOM      1  C   UNL     1      98.629  33.031  23.804  1.00  0.00     0.027 C 
ENDROOT
BRANCH   1   2
ATOM      2  C   UNL     1     100.163  32.999  23.918  1.00  0.00     0.004 C 
BRANCH   2   3
ATOM      3  C   UNL     1     100.758  34.121  24.790  1.00  0.00     0.000 C 
BRANCH   3   4
ATOM      4  C   UNL     1     101.666  35.074  23.994  1.00  0.00     0.000 C 
BRANCH   4   5
ATOM      5  C   UNL     1     101.922  34.587  22.558  1.00  0.00     0.000 C 
BRANCH   5   6
ATOM      6  C   UNL     1     101.315  35.520  21.499  1.00  0.00     0.006 C 
BRANCH   6   7
ATOM      7  C   UNL     1     100.807  36.816  22.139  1.00  0.00     0.053 C 
BRANCH   7   8
ATOM      8  C   UNL     1      99.800  37.479  21.253  1.00  0.00     0.041 C 
ATOM      9  O   UNL     1      99.421  38.655  21.493  1.00  0.00    -0.550 OA
ATOM     10  O   UNL     1      99.242  36.779  20.190  1.00  0.00    -0.550 OA
ENDBRANCH   7   8
ENDBRANCH   6   7
ENDBRANCH   5   6
ENDBRANCH   4   5
ENDBRANCH   3   4
ENDBRANCH   2   3
ENDBRANCH   1   2
BRANCH   1  11
ATOM     11  C   UNL     1      98.146  34.144  22.909  1.00  0.00    -0.031 C 
ATOM     12  C   UNL     1      97.578  35.285  23.343  1.00  0.00    -0.027 C 
BRANCH  12  13
ATOM     13  C   UNL     1      97.275  35.590  24.787  1.00  0.00     0.054 C 
BRANCH  13  14
ATOM     14  C   UNL     1      97.688  36.995  25.124  1.00  0.00    -0.027 C 
ATOM     15  C   UNL     1      98.956  37.410  24.977  1.00  0.00    -0.031 C 
BRANCH  15  16
ATOM     16  C   UNL     1      99.366  38.820  25.306  1.00  0.00     0.027 C 
BRANCH  16  17
ATOM     17  C   UNL     1     100.700  38.846  26.066  1.00  0.00     0.004 C 
BRANCH  17  18
ATOM     18  C   UNL     1     101.138  37.451  26.540  1.00  0.00     0.000 C 
BRANCH  18  19
ATOM     19  C   UNL     1     101.074  37.298  28.067  1.00  0.00    -0.003 C 
ATOM     20  C   UNL     1      99.790  36.593  28.494  1.00  0.00     0.004 C 
ENDBRANCH  18  19
ENDBRANCH  17  18
ENDBRANCH  16  17
ENDBRANCH  15  16
ENDBRANCH  13  14
ENDBRANCH  12  13
ENDBRANCH   1  11
TORSDOF 14
ENDMDL
MODEL 9
REMARK VINA RESULT:    -4.147      8.040     11.192
REMARK INTER + INTRA:          -9.517
REMARK INTER:                  -6.586
REMARK INTRA:                  -2.931
REMARK UNBOUND:                -1.976
REMARK SMILES CCCCCC=CCC=CCCCCCCCC(=O)[O-]
REMARK SMILES IDX 11 1 12 2 13 3 14 4 15 5 16 6 17 7 18 8 19 9 20 10 10 11
REMARK SMILES IDX 9 12 8 13 7 14 6 15 5 16 4 17 3 18 2 19 1 20
REMARK H PARENT
REMARK Flexibility Score: inf
ROOT
ATOM      1  C   UNL     1     100.075  39.207  26.777  1.00  0.00     0.027 C 
ENDROOT
BRANCH   1   2
ATOM      2  C   UNL     1     100.396  38.455  28.080  1.00  0.00     0.004 C 
BRANCH   2   3
ATOM      3  C   UNL     1     100.775  36.976  27.883  1.00  0.00     0.000 C 
BRANCH   3   4
ATOM      4  C   UNL     1     101.630  36.744  26.625  1.00  0.00     0.000 C 
BRANCH   4   5
ATOM      5  C   UNL     1     100.992  35.738  25.653  1.00  0.00     0.000 C 
BRANCH   5   6
ATOM      6  C   UNL     1      99.520  35.446  25.984  1.00  0.00     0.006 C 
BRANCH   6   7
ATOM      7  C   UNL     1      98.884  34.556  24.911  1.00  0.00     0.053 C 
BRANCH   7   8
ATOM      8  C   UNL     1      97.656  35.204  24.354  1.00  0.00     0.041 C 
ATOM      9  O   UNL     1      96.765  35.643  25.127  1.00  0.00    -0.550 OA
ATOM     10  O   UNL     1      97.470  35.275  22.978  1.00  0.00    -0.550 OA
ENDBRANCH   7   8
ENDBRANCH   6   7
ENDBRANCH   5   6
ENDBRANCH   4   5
ENDBRANCH   3   4
ENDBRANCH   2   3
ENDBRANCH   1   2
BRANCH   1  11
ATOM     11  C   UNL     1      98.697  38.884  26.255  1.00  0.00    -0.031 C 
ATOM     12  C   UNL     1      98.358  38.859  24.952  1.00  0.00    -0.027 C 
BRANCH  12  13
ATOM     13  C   UNL     1      99.285  39.221  23.822  1.00  0.00     0.054 C 
BRANCH  13  14
ATOM     14  C   UNL     1      99.748  37.983  23.106  1.00  0.00    -0.027 C 
ATOM     15  C   UNL     1      99.687  37.879  21.769  1.00  0.00    -0.031 C 
BRANCH  15  16
ATOM     16  C   UNL     1     100.160  36.643  21.054  1.00  0.00     0.027 C 
BRANCH  16  17
ATOM     17  C   UNL     1     101.144  35.843  21.922  1.00  0.00     0.004 C 
BRANCH  17  18
ATOM     18  C   UNL     1     100.915  34.326  21.830  1.00  0.00     0.000 C 
BRANCH  18  19
ATOM     19  C   UNL     1     101.743  33.540  22.857  1.00  0.00    -0.003 C 
ATOM     20  C   UNL     1     103.118  34.172  23.053  1.00  0.00     0.004 C 
ENDBRANCH  18  19
ENDBRANCH  17  18
ENDBRANCH  16  17
ENDBRANCH  15  16
ENDBRANCH  13  14
ENDBRANCH  12  13
ENDBRANCH   1  11
TORSDOF 14
ENDMDL
