MODEL 1
REMARK VINA RESULT:   158.714      0.000      0.000
REMARK INTER + INTRA:         173.519
REMARK INTER:                 172.631
REMARK INTRA:                   0.888
REMARK UNBOUND:                 0.888
REMARK SMILES C[C@H]1[C@@H](C)CC[C@@]2(C(=O)[O-])CC[C@]3(C)C(=CC[C@@H]4[C@]5(C)CC[C@H](O)C(C)(C)[C@H]5CC[C@]43C)[C@@H]12
REMARK SMILES IDX 7 1 6 2 11 3 33 4 5 5 12 6 15 7 2 8 3 9 13 10 16 11 1 12
REMARK SMILES IDX 4 13 14 14 31 15 17 16 18 17 30 18 32 19 19 20 29 21 28 22
REMARK SMILES IDX 21 23 20 24 25 25 22 26 23 27 26 28 27 29 8 30 9 31 10 32
REMARK SMILES IDX 24 33
REMARK H PARENT 24 34
REMARK Flexibility Score: inf
ROOT
ATOM      1  C   UNL     1      10.950   2.041  17.434  1.00  0.00     0.017 C 
ATOM      2  C   UNL     1      12.241   2.827  17.822  1.00  0.00     0.014 C 
ATOM      3  C   UNL     1      11.396   0.759  16.694  1.00  0.00     0.014 C 
ATOM      4  C   UNL     1      10.082   1.634  18.698  1.00  0.00     0.030 C 
ATOM      5  C   UNL     1      12.008   3.780  18.989  1.00  0.00     0.004 C 
ATOM      6  C   UNL     1      10.234  -0.059  16.131  1.00  0.00     0.013 C 
ATOM      7  C   UNL     1       9.248   0.340  18.507  1.00  0.00    -0.063 C 
ATOM      8  C   UNL     1      10.930   1.638  20.026  1.00  0.00    -0.003 C 
ATOM      9  C   UNL     1      11.587   3.038  20.279  1.00  0.00    -0.011 C 
ATOM     10  C   UNL     1       9.017  -0.292  17.110  1.00  0.00    -0.006 C 
ATOM     11  C   UNL     1       8.506  -0.107  19.558  1.00  0.00    -0.027 C 
ATOM     12  C   UNL     1      11.895   0.434  20.145  1.00  0.00     0.008 C 
ATOM     13  C   UNL     1      12.732   3.006  21.305  1.00  0.00     0.008 C 
ATOM     14  C   UNL     1       7.802   0.482  16.499  1.00  0.00     0.017 C 
ATOM     15  C   UNL     1       8.729  -1.871  17.271  1.00  0.00    -0.020 C 
ATOM     16  C   UNL     1       7.877  -1.474  19.649  1.00  0.00     0.032 C 
ATOM     17  C   UNL     1       7.543  -2.093  18.276  1.00  0.00     0.006 C 
ATOM     18  C   UNL     1       8.274  -2.511  15.920  1.00  0.00     0.008 C 
ATOM     19  C   UNL     1      10.045  -2.562  17.789  1.00  0.00     0.012 C 
ATOM     20  C   UNL     1       6.852  -3.557  18.277  1.00  0.00    -0.025 C 
ATOM     21  C   UNL     1       8.021  -4.031  15.977  1.00  0.00     0.005 C 
ATOM     22  C   UNL     1       7.662  -4.578  17.387  1.00  0.00     0.003 C 
ATOM     23  C   UNL     1       6.762  -4.156  19.717  1.00  0.00     0.010 C 
ATOM     24  C   UNL     1       5.400  -3.371  17.734  1.00  0.00     0.012 C 
ATOM     25  C   UNL     1       7.175  -6.089  17.404  1.00  0.00    -0.006 C 
ATOM     26  C   UNL     1       6.231  -5.599  19.780  1.00  0.00     0.033 C 
ATOM     27  C   UNL     1       7.017  -6.582  18.886  1.00  0.00     0.120 C 
ATOM     28  C   UNL     1       5.833  -6.335  16.643  1.00  0.00     0.014 C 
ATOM     29  C   UNL     1       8.246  -6.977  16.708  1.00  0.00     0.014 C 
ENDROOT
BRANCH   1  30
ATOM     30  C   UNL     1      10.175   2.953  16.482  1.00  0.00     0.048 C 
ATOM     31  O   UNL     1       9.973   4.165  16.765  1.00  0.00    -0.550 OA
ATOM     32  O   UNL     1       9.788   2.493  15.228  1.00  0.00    -0.550 OA
ENDBRANCH   1  30
BRANCH  27  33
ATOM     33  O   UNL     1       8.250  -6.916  19.484  1.00  0.00    -0.393 OA
ATOM     34  H   UNL     1       8.952  -6.321  19.121  1.00  0.00     0.210 HD
ENDBRANCH  27  33
TORSDOF 2
ENDMDL
MODEL 2
REMARK VINA RESULT:   160.485      9.304     12.491
REMARK INTER + INTRA:         175.446
REMARK INTER:                 175.188
REMARK INTRA:                   0.258
REMARK UNBOUND:                 0.888
REMARK SMILES C[C@H]1[C@@H](C)CC[C@@]2(C(=O)[O-])CC[C@]3(C)C(=CC[C@@H]4[C@]5(C)CC[C@H](O)C(C)(C)[C@H]5CC[C@]43C)[C@@H]12
REMARK SMILES IDX 7 1 6 2 11 3 33 4 5 5 12 6 15 7 2 8 3 9 13 10 16 11 1 12
REMARK SMILES IDX 4 13 14 14 31 15 17 16 18 17 30 18 32 19 19 20 29 21 28 22
REMARK SMILES IDX 21 23 20 24 25 25 22 26 23 27 26 28 27 29 8 30 9 31 10 32
REMARK SMILES IDX 24 33
REMARK H PARENT 24 34
REMARK Flexibility Score: inf
ROOT
ATOM      1  C   UNL     1       6.013  -2.783   4.922  1.00  0.00     0.017 C 
ATOM      2  C   UNL     1       5.665  -3.173   3.451  1.00  0.00     0.014 C 
ATOM      3  C   UNL     1       5.252  -1.477   5.245  1.00  0.00     0.014 C 
ATOM      4  C   UNL     1       5.587  -3.901   5.964  1.00  0.00     0.030 C 
ATOM      5  C   UNL     1       5.877  -4.659   3.183  1.00  0.00     0.004 C 
ATOM      6  C   UNL     1       5.593  -0.892   6.616  1.00  0.00     0.013 C 
ATOM      7  C   UNL     1       5.243  -3.357   7.376  1.00  0.00    -0.063 C 
ATOM      8  C   UNL     1       4.485  -4.866   5.383  1.00  0.00    -0.003 C 
ATOM      9  C   UNL     1       4.968  -5.551   4.059  1.00  0.00    -0.011 C 
ATOM     10  C   UNL     1       5.613  -1.917   7.816  1.00  0.00    -0.006 C 
ATOM     11  C   UNL     1       4.825  -4.244   8.321  1.00  0.00    -0.027 C 
ATOM     12  C   UNL     1       3.080  -4.223   5.310  1.00  0.00     0.008 C 
ATOM     13  C   UNL     1       3.827  -6.170   3.233  1.00  0.00     0.008 C 
ATOM     14  C   UNL     1       7.099  -2.001   8.302  1.00  0.00     0.017 C 
ATOM     15  C   UNL     1       4.608  -1.431   8.979  1.00  0.00    -0.020 C 
ATOM     16  C   UNL     1       4.183  -3.867   9.633  1.00  0.00     0.032 C 
ATOM     17  C   UNL     1       4.607  -2.476  10.151  1.00  0.00     0.006 C 
ATOM     18  C   UNL     1       5.072  -0.079   9.610  1.00  0.00     0.008 C 
ATOM     19  C   UNL     1       3.170  -1.280   8.356  1.00  0.00     0.012 C 
ATOM     20  C   UNL     1       3.975  -1.992  11.561  1.00  0.00    -0.025 C 
ATOM     21  C   UNL     1       4.138   0.481  10.702  1.00  0.00     0.005 C 
ATOM     22  C   UNL     1       3.270  -0.587  11.424  1.00  0.00     0.003 C 
ATOM     23  C   UNL     1       2.912  -3.003  12.097  1.00  0.00     0.010 C 
ATOM     24  C   UNL     1       5.152  -1.931  12.585  1.00  0.00     0.012 C 
ATOM     25  C   UNL     1       2.488  -0.050  12.697  1.00  0.00    -0.006 C 
ATOM     26  C   UNL     1       2.178  -2.545  13.371  1.00  0.00     0.033 C 
ATOM     27  C   UNL     1       1.513  -1.159  13.232  1.00  0.00     0.120 C 
ATOM     28  C   UNL     1       3.415   0.415  13.866  1.00  0.00     0.014 C 
ATOM     29  C   UNL     1       1.638   1.187  12.288  1.00  0.00     0.014 C 
ENDROOT
BRANCH   1  30
ATOM     30  C   UNL     1       7.521  -2.532   4.944  1.00  0.00     0.048 C 
ATOM     31  O   UNL     1       8.062  -1.763   4.104  1.00  0.00    -0.550 OA
ATOM     32  O   UNL     1       8.304  -3.047   5.971  1.00  0.00    -0.550 OA
ENDBRANCH   1  30
BRANCH  27  33
ATOM     33  O   UNL     1       0.327  -1.253  12.476  1.00  0.00    -0.393 OA
ATOM     34  H   UNL     1      -0.407  -0.821  12.980  1.00  0.00     0.210 HD
ENDBRANCH  27  33
TORSDOF 2
ENDMDL
