MODEL 1
REMARK VINA RESULT:    -4.184      0.000      0.000
REMARK INTER + INTRA:         -11.001
REMARK INTER:                  -8.098
REMARK INTRA:                  -2.903
REMARK UNBOUND:                -2.903
REMARK SMILES CCCCCCCCCCCCCCCCCC(=O)[O-]
REMARK SMILES IDX 10 1 11 2 12 3 13 4 14 5 15 6 16 7 17 8 18 9 19 10 20 11
REMARK SMILES IDX 9 12 8 13 7 14 6 15 5 16 4 17 3 18 2 19 1 20
REMARK H PARENT
REMARK Flexibility Score: inf
ROOT
ATOM      1  C   UNL     1      11.616  54.219  35.944  1.00  0.00     0.000 C 
ENDROOT
BRANCH   1   2
ATOM      2  C   UNL     1      11.354  55.618  36.527  1.00  0.00     0.000 C 
BRANCH   2   3
ATOM      3  C   UNL     1      11.632  56.737  35.502  1.00  0.00     0.000 C 
BRANCH   3   4
ATOM      4  C   UNL     1      12.540  56.297  34.342  1.00  0.00     0.000 C 
BRANCH   4   5
ATOM      5  C   UNL     1      13.715  57.255  34.105  1.00  0.00     0.000 C 
BRANCH   5   6
ATOM      6  C   UNL     1      14.514  56.850  32.861  1.00  0.00     0.000 C 
BRANCH   6   7
ATOM      7  C   UNL     1      15.918  56.360  33.245  1.00  0.00     0.006 C 
BRANCH   7   8
ATOM      8  C   UNL     1      17.003  56.918  32.313  1.00  0.00     0.053 C 
BRANCH   8   9
ATOM      9  C   UNL     1      17.306  58.354  32.612  1.00  0.00     0.041 C 
ATOM     10  O   UNL     1      16.853  59.266  31.873  1.00  0.00    -0.550 OA
ATOM     11  O   UNL     1      18.121  58.682  33.689  1.00  0.00    -0.550 OA
ENDBRANCH   8   9
ENDBRANCH   7   8
ENDBRANCH   6   7
ENDBRANCH   5   6
ENDBRANCH   4   5
ENDBRANCH   3   4
ENDBRANCH   2   3
ENDBRANCH   1   2
BRANCH   1  12
ATOM     12  C   UNL     1      12.648  53.421  36.756  1.00  0.00     0.000 C 
BRANCH  12  13
ATOM     13  C   UNL     1      13.813  54.292  37.249  1.00  0.00    -0.000 C 
BRANCH  13  14
ATOM     14  C   UNL     1      14.978  54.268  36.250  1.00  0.00    -0.000 C 
BRANCH  14  15
ATOM     15  C   UNL     1      15.170  52.863  35.664  1.00  0.00    -0.000 C 
BRANCH  15  16
ATOM     16  C   UNL     1      15.746  52.882  34.236  1.00  0.00    -0.000 C 
BRANCH  16  17
ATOM     17  C   UNL     1      14.831  52.275  33.156  1.00  0.00    -0.000 C 
BRANCH  17  18
ATOM     18  C   UNL     1      13.426  52.902  33.065  1.00  0.00    -0.000 C 
BRANCH  18  19
ATOM     19  C   UNL     1      13.126  53.563  31.703  1.00  0.00    -0.003 C 
ATOM     20  C   UNL     1      14.379  53.742  30.847  1.00  0.00     0.004 C 
ENDBRANCH  18  19
ENDBRANCH  17  18
ENDBRANCH  16  17
ENDBRANCH  15  16
ENDBRANCH  14  15
ENDBRANCH  13  14
ENDBRANCH  12  13
ENDBRANCH   1  12
TORSDOF 16
ENDMDL
MODEL 2
REMARK VINA RESULT:    -4.138      3.060      5.466
REMARK INTER + INTRA:         -10.911
REMARK INTER:                  -8.444
REMARK INTRA:                  -2.467
REMARK UNBOUND:                -2.903
REMARK SMILES CCCCCCCCCCCCCCCCCC(=O)[O-]
REMARK SMILES IDX 10 1 11 2 12 3 13 4 14 5 15 6 16 7 17 8 18 9 19 10 20 11
REMARK SMILES IDX 9 12 8 13 7 14 6 15 5 16 4 17 3 18 2 19 1 20
REMARK H PARENT
REMARK Flexibility Score: inf
ROOT
ATOM      1  C   UNL     1      11.630  55.171  35.354  1.00  0.00     0.000 C 
ENDROOT
BRANCH   1   2
ATOM      2  C   UNL     1      11.500  53.950  36.280  1.00  0.00     0.000 C 
BRANCH   2   3
ATOM      3  C   UNL     1      12.757  53.745  37.153  1.00  0.00     0.000 C 
BRANCH   3   4
ATOM      4  C   UNL     1      13.837  52.881  36.482  1.00  0.00     0.000 C 
BRANCH   4   5
ATOM      5  C   UNL     1      15.075  53.688  36.065  1.00  0.00     0.000 C 
BRANCH   5   6
ATOM      6  C   UNL     1      15.668  53.150  34.758  1.00  0.00     0.000 C 
BRANCH   6   7
ATOM      7  C   UNL     1      14.647  52.282  34.007  1.00  0.00     0.006 C 
BRANCH   7   8
ATOM      8  C   UNL     1      14.716  52.488  32.487  1.00  0.00     0.053 C 
BRANCH   8   9
ATOM      9  C   UNL     1      14.609  51.190  31.747  1.00  0.00     0.041 C 
ATOM     10  O   UNL     1      15.006  51.105  30.555  1.00  0.00    -0.550 OA
ATOM     11  O   UNL     1      14.038  50.084  32.363  1.00  0.00    -0.550 OA
ENDBRANCH   8   9
ENDBRANCH   7   8
ENDBRANCH   6   7
ENDBRANCH   5   6
ENDBRANCH   4   5
ENDBRANCH   3   4
ENDBRANCH   2   3
ENDBRANCH   1   2
BRANCH   1  12
ATOM     12  C   UNL     1      11.986  54.785  33.909  1.00  0.00     0.000 C 
BRANCH  12  13
ATOM     13  C   UNL     1      12.915  55.805  33.236  1.00  0.00    -0.000 C 
BRANCH  13  14
ATOM     14  C   UNL     1      13.607  56.691  34.280  1.00  0.00    -0.000 C 
BRANCH  14  15
ATOM     15  C   UNL     1      15.129  56.685  34.084  1.00  0.00    -0.000 C 
BRANCH  15  16
ATOM     16  C   UNL     1      15.546  56.887  32.616  1.00  0.00    -0.000 C 
BRANCH  16  17
ATOM     17  C   UNL     1      17.065  56.863  32.360  1.00  0.00    -0.000 C 
BRANCH  17  18
ATOM     18  C   UNL     1      17.857  58.000  33.033  1.00  0.00    -0.000 C 
BRANCH  18  19
ATOM     19  C   UNL     1      17.200  59.388  32.885  1.00  0.00    -0.003 C 
ATOM     20  C   UNL     1      16.858  60.024  34.232  1.00  0.00     0.004 C 
ENDBRANCH  18  19
ENDBRANCH  17  18
ENDBRANCH  16  17
ENDBRANCH  15  16
ENDBRANCH  14  15
ENDBRANCH  13  14
ENDBRANCH  12  13
ENDBRANCH   1  12
TORSDOF 16
ENDMDL
MODEL 3
REMARK VINA RESULT:    -4.074      2.688      5.253
REMARK INTER + INTRA:         -10.788
REMARK INTER:                  -8.287
REMARK INTRA:                  -2.501
REMARK UNBOUND:                -2.903
REMARK SMILES CCCCCCCCCCCCCCCCCC(=O)[O-]
REMARK SMILES IDX 10 1 11 2 12 3 13 4 14 5 15 6 16 7 17 8 18 9 19 10 20 11
REMARK SMILES IDX 9 12 8 13 7 14 6 15 5 16 4 17 3 18 2 19 1 20
REMARK H PARENT
REMARK Flexibility Score: inf
ROOT
ATOM      1  C   UNL     1      14.332  52.845  36.283  1.00  0.00     0.000 C 
ENDROOT
BRANCH   1   2
ATOM      2  C   UNL     1      13.038  52.928  37.111  1.00  0.00     0.000 C 
BRANCH   2   3
ATOM      3  C   UNL     1      12.363  54.312  36.998  1.00  0.00     0.000 C 
BRANCH   3   4
ATOM      4  C   UNL     1      11.246  54.366  35.944  1.00  0.00     0.000 C 
BRANCH   4   5
ATOM      5  C   UNL     1      11.434  55.503  34.930  1.00  0.00     0.000 C 
BRANCH   5   6
ATOM      6  C   UNL     1      11.472  54.961  33.496  1.00  0.00     0.000 C 
BRANCH   6   7
ATOM      7  C   UNL     1      11.949  53.501  33.472  1.00  0.00     0.006 C 
BRANCH   7   8
ATOM      8  C   UNL     1      12.391  53.058  32.071  1.00  0.00     0.053 C 
BRANCH   8   9
ATOM      9  C   UNL     1      13.762  52.452  32.088  1.00  0.00     0.041 C 
ATOM     10  O   UNL     1      14.001  51.444  32.803  1.00  0.00    -0.550 OA
ATOM     11  O   UNL     1      14.783  53.025  31.342  1.00  0.00    -0.550 OA
ENDBRANCH   8   9
ENDBRANCH   7   8
ENDBRANCH   6   7
ENDBRANCH   5   6
ENDBRANCH   4   5
ENDBRANCH   3   4
ENDBRANCH   2   3
ENDBRANCH   1   2
BRANCH   1  12
ATOM     12  C   UNL     1      14.994  54.217  36.077  1.00  0.00     0.000 C 
BRANCH  12  13
ATOM     13  C   UNL     1      15.242  54.537  34.595  1.00  0.00    -0.000 C 
BRANCH  13  14
ATOM     14  C   UNL     1      15.070  56.037  34.321  1.00  0.00    -0.000 C 
BRANCH  14  15
ATOM     15  C   UNL     1      14.868  56.302  32.823  1.00  0.00    -0.000 C 
BRANCH  15  16
ATOM     16  C   UNL     1      15.722  57.472  32.300  1.00  0.00    -0.000 C 
BRANCH  16  17
ATOM     17  C   UNL     1      17.243  57.292  32.462  1.00  0.00    -0.000 C 
BRANCH  17  18
ATOM     18  C   UNL     1      17.937  58.357  33.333  1.00  0.00    -0.000 C 
BRANCH  18  19
ATOM     19  C   UNL     1      16.979  59.436  33.878  1.00  0.00    -0.003 C 
ATOM     20  C   UNL     1      17.196  60.801  33.226  1.00  0.00     0.004 C 
ENDBRANCH  18  19
ENDBRANCH  17  18
ENDBRANCH  16  17
ENDBRANCH  15  16
ENDBRANCH  14  15
ENDBRANCH  13  14
ENDBRANCH  12  13
ENDBRANCH   1  12
TORSDOF 16
ENDMDL
MODEL 4
REMARK VINA RESULT:    -4.058      1.093      2.113
REMARK INTER + INTRA:         -10.757
REMARK INTER:                  -8.526
REMARK INTRA:                  -2.231
REMARK UNBOUND:                -2.903
REMARK SMILES CCCCCCCCCCCCCCCCCC(=O)[O-]
REMARK SMILES IDX 10 1 11 2 12 3 13 4 14 5 15 6 16 7 17 8 18 9 19 10 20 11
REMARK SMILES IDX 9 12 8 13 7 14 6 15 5 16 4 17 3 18 2 19 1 20
REMARK H PARENT
REMARK Flexibility Score: inf
ROOT
ATOM      1  C   UNL     1      11.358  56.022  35.506  1.00  0.00     0.000 C 
ENDROOT
BRANCH   1   2
ATOM      2  C   UNL     1      12.736  56.432  34.957  1.00  0.00     0.000 C 
BRANCH   2   3
ATOM      3  C   UNL     1      12.623  57.448  33.801  1.00  0.00     0.000 C 
BRANCH   3   4
ATOM      4  C   UNL     1      13.978  58.013  33.345  1.00  0.00     0.000 C 
BRANCH   4   5
ATOM      5  C   UNL     1      14.776  57.030  32.478  1.00  0.00     0.000 C 
BRANCH   5   6
ATOM      6  C   UNL     1      16.130  56.705  33.117  1.00  0.00     0.000 C 
BRANCH   6   7
ATOM      7  C   UNL     1      17.261  57.496  32.442  1.00  0.00     0.006 C 
BRANCH   7   8
ATOM      8  C   UNL     1      17.929  58.489  33.403  1.00  0.00     0.053 C 
BRANCH   8   9
ATOM      9  C   UNL     1      17.211  59.803  33.431  1.00  0.00     0.041 C 
ATOM     10  O   UNL     1      16.931  60.349  34.530  1.00  0.00    -0.550 OA
ATOM     11  O   UNL     1      16.819  60.406  32.243  1.00  0.00    -0.550 OA
ENDBRANCH   8   9
ENDBRANCH   7   8
ENDBRANCH   6   7
ENDBRANCH   5   6
ENDBRANCH   4   5
ENDBRANCH   3   4
ENDBRANCH   2   3
ENDBRANCH   1   2
BRANCH   1  12
ATOM     12  C   UNL     1      11.366  54.625  36.146  1.00  0.00     0.000 C 
BRANCH  12  13
ATOM     13  C   UNL     1      12.571  54.406  37.073  1.00  0.00    -0.000 C 
BRANCH  13  14
ATOM     14  C   UNL     1      12.874  52.911  37.237  1.00  0.00    -0.000 C 
BRANCH  14  15
ATOM     15  C   UNL     1      14.184  52.535  36.532  1.00  0.00    -0.000 C 
BRANCH  15  16
ATOM     16  C   UNL     1      14.989  53.763  36.067  1.00  0.00    -0.000 C 
BRANCH  16  17
ATOM     17  C   UNL     1      15.319  53.794  34.562  1.00  0.00    -0.000 C 
BRANCH  17  18
ATOM     18  C   UNL     1      15.168  52.444  33.834  1.00  0.00    -0.000 C 
BRANCH  18  19
ATOM     19  C   UNL     1      14.127  52.465  32.694  1.00  0.00    -0.003 C 
ATOM     20  C   UNL     1      12.864  53.241  33.064  1.00  0.00     0.004 C 
ENDBRANCH  18  19
ENDBRANCH  17  18
ENDBRANCH  16  17
ENDBRANCH  15  16
ENDBRANCH  14  15
ENDBRANCH  13  14
ENDBRANCH  12  13
ENDBRANCH   1  12
TORSDOF 16
ENDMDL
MODEL 5
REMARK VINA RESULT:    -4.034      1.358      2.087
REMARK INTER + INTRA:         -10.710
REMARK INTER:                  -7.345
REMARK INTRA:                  -3.365
REMARK UNBOUND:                -2.903
REMARK SMILES CCCCCCCCCCCCCCCCCC(=O)[O-]
REMARK SMILES IDX 10 1 11 2 12 3 13 4 14 5 15 6 16 7 17 8 18 9 19 10 20 11
REMARK SMILES IDX 9 12 8 13 7 14 6 15 5 16 4 17 3 18 2 19 1 20
REMARK H PARENT
REMARK Flexibility Score: inf
ROOT
ATOM      1  C   UNL     1      12.777  53.190  37.196  1.00  0.00     0.000 C 
ENDROOT
BRANCH   1   2
ATOM      2  C   UNL     1      12.426  54.585  36.651  1.00  0.00     0.000 C 
BRANCH   2   3
ATOM      3  C   UNL     1      11.520  54.512  35.404  1.00  0.00     0.000 C 
BRANCH   3   4
ATOM      4  C   UNL     1      11.783  55.632  34.385  1.00  0.00     0.000 C 
BRANCH   4   5
ATOM      5  C   UNL     1      13.142  56.316  34.586  1.00  0.00     0.000 C 
BRANCH   5   6
ATOM      6  C   UNL     1      13.084  57.790  34.170  1.00  0.00     0.000 C 
BRANCH   6   7
ATOM      7  C   UNL     1      14.363  58.202  33.425  1.00  0.00     0.006 C 
BRANCH   7   8
ATOM      8  C   UNL     1      15.558  57.308  33.784  1.00  0.00     0.053 C 
BRANCH   8   9
ATOM      9  C   UNL     1      16.789  57.694  33.022  1.00  0.00     0.041 C 
ATOM     10  O   UNL     1      17.260  58.857  33.125  1.00  0.00    -0.550 OA
ATOM     11  O   UNL     1      17.393  56.779  32.170  1.00  0.00    -0.550 OA
ENDBRANCH   8   9
ENDBRANCH   7   8
ENDBRANCH   6   7
ENDBRANCH   5   6
ENDBRANCH   4   5
ENDBRANCH   3   4
ENDBRANCH   2   3
ENDBRANCH   1   2
BRANCH   1  12
ATOM     12  C   UNL     1      14.028  52.592  36.532  1.00  0.00     0.000 C 
BRANCH  12  13
ATOM     13  C   UNL     1      15.044  53.664  36.112  1.00  0.00    -0.000 C 
BRANCH  13  14
ATOM     14  C   UNL     1      15.525  53.432  34.674  1.00  0.00    -0.000 C 
BRANCH  14  15
ATOM     15  C   UNL     1      14.545  52.535  33.905  1.00  0.00    -0.000 C 
BRANCH  15  16
ATOM     16  C   UNL     1      14.008  53.195  32.622  1.00  0.00    -0.000 C 
BRANCH  16  17
ATOM     17  C   UNL     1      15.005  54.119  31.898  1.00  0.00    -0.000 C 
BRANCH  17  18
ATOM     18  C   UNL     1      14.363  55.213  31.023  1.00  0.00    -0.000 C 
BRANCH  18  19
ATOM     19  C   UNL     1      12.834  55.071  30.871  1.00  0.00    -0.003 C 
ATOM     20  C   UNL     1      12.123  56.421  30.786  1.00  0.00     0.004 C 
ENDBRANCH  18  19
ENDBRANCH  17  18
ENDBRANCH  16  17
ENDBRANCH  15  16
ENDBRANCH  14  15
ENDBRANCH  13  14
ENDBRANCH  12  13
ENDBRANCH   1  12
TORSDOF 16
ENDMDL
MODEL 6
REMARK VINA RESULT:    -4.030      0.981      3.536
REMARK INTER + INTRA:         -10.704
REMARK INTER:                  -8.389
REMARK INTRA:                  -2.315
REMARK UNBOUND:                -2.903
REMARK SMILES CCCCCCCCCCCCCCCCCC(=O)[O-]
REMARK SMILES IDX 10 1 11 2 12 3 13 4 14 5 15 6 16 7 17 8 18 9 19 10 20 11
REMARK SMILES IDX 9 12 8 13 7 14 6 15 5 16 4 17 3 18 2 19 1 20
REMARK H PARENT
REMARK Flexibility Score: inf
ROOT
ATOM      1  C   UNL     1      13.597  52.718  32.378  1.00  0.00     0.000 C 
ENDROOT
BRANCH   1   2
ATOM      2  C   UNL     1      13.113  54.075  32.919  1.00  0.00     0.000 C 
BRANCH   2   3
ATOM      3  C   UNL     1      13.792  55.262  32.203  1.00  0.00     0.000 C 
BRANCH   3   4
ATOM      4  C   UNL     1      13.849  56.541  33.054  1.00  0.00     0.000 C 
BRANCH   4   5
ATOM      5  C   UNL     1      15.230  56.782  33.679  1.00  0.00     0.000 C 
BRANCH   5   6
ATOM      6  C   UNL     1      16.343  56.215  32.792  1.00  0.00     0.000 C 
BRANCH   6   7
ATOM      7  C   UNL     1      17.288  57.329  32.316  1.00  0.00     0.006 C 
BRANCH   7   8
ATOM      8  C   UNL     1      17.509  58.401  33.392  1.00  0.00     0.053 C 
BRANCH   8   9
ATOM      9  C   UNL     1      17.131  59.766  32.901  1.00  0.00     0.041 C 
ATOM     10  O   UNL     1      17.428  60.787  33.575  1.00  0.00    -0.550 OA
ATOM     11  O   UNL     1      16.418  59.906  31.717  1.00  0.00    -0.550 OA
ENDBRANCH   8   9
ENDBRANCH   7   8
ENDBRANCH   6   7
ENDBRANCH   5   6
ENDBRANCH   4   5
ENDBRANCH   3   4
ENDBRANCH   2   3
ENDBRANCH   1   2
BRANCH   1  12
ATOM     12  C   UNL     1      14.518  51.981  33.364  1.00  0.00     0.000 C 
BRANCH  12  13
ATOM     13  C   UNL     1      15.407  52.939  34.171  1.00  0.00    -0.000 C 
BRANCH  13  14
ATOM     14  C   UNL     1      15.079  52.864  35.667  1.00  0.00    -0.000 C 
BRANCH  14  15
ATOM     15  C   UNL     1      14.820  54.262  36.244  1.00  0.00    -0.000 C 
BRANCH  15  16
ATOM     16  C   UNL     1      13.634  54.296  37.226  1.00  0.00    -0.000 C 
BRANCH  16  17
ATOM     17  C   UNL     1      12.375  53.544  36.754  1.00  0.00    -0.000 C 
BRANCH  17  18
ATOM     18  C   UNL     1      11.351  54.404  35.989  1.00  0.00    -0.000 C 
BRANCH  18  19
ATOM     19  C   UNL     1      11.121  55.798  36.611  1.00  0.00    -0.003 C 
ATOM     20  C   UNL     1      11.369  56.934  35.620  1.00  0.00     0.004 C 
ENDBRANCH  18  19
ENDBRANCH  17  18
ENDBRANCH  16  17
ENDBRANCH  15  16
ENDBRANCH  14  15
ENDBRANCH  13  14
ENDBRANCH  12  13
ENDBRANCH   1  12
TORSDOF 16
ENDMDL
MODEL 7
REMARK VINA RESULT:    -4.023      1.190      3.549
REMARK INTER + INTRA:         -10.690
REMARK INTER:                  -8.215
REMARK INTRA:                  -2.475
REMARK UNBOUND:                -2.903
REMARK SMILES CCCCCCCCCCCCCCCCCC(=O)[O-]
REMARK SMILES IDX 10 1 11 2 12 3 13 4 14 5 15 6 16 7 17 8 18 9 19 10 20 11
REMARK SMILES IDX 9 12 8 13 7 14 6 15 5 16 4 17 3 18 2 19 1 20
REMARK H PARENT
REMARK Flexibility Score: inf
ROOT
ATOM      1  C   UNL     1      15.637  52.811  34.313  1.00  0.00     0.000 C 
ENDROOT
BRANCH   1   2
ATOM      2  C   UNL     1      14.663  52.524  33.158  1.00  0.00     0.000 C 
BRANCH   2   3
ATOM      3  C   UNL     1      14.449  53.759  32.257  1.00  0.00     0.000 C 
BRANCH   3   4
ATOM      4  C   UNL     1      15.555  54.818  32.393  1.00  0.00     0.000 C 
BRANCH   4   5
ATOM      5  C   UNL     1      15.358  56.014  31.451  1.00  0.00     0.000 C 
BRANCH   5   6
ATOM      6  C   UNL     1      16.485  57.039  31.619  1.00  0.00     0.000 C 
BRANCH   6   7
ATOM      7  C   UNL     1      16.518  57.589  33.053  1.00  0.00     0.006 C 
BRANCH   7   8
ATOM      8  C   UNL     1      17.701  58.540  33.283  1.00  0.00     0.053 C 
BRANCH   8   9
ATOM      9  C   UNL     1      17.240  59.936  33.575  1.00  0.00     0.041 C 
ATOM     10  O   UNL     1      17.281  60.818  32.678  1.00  0.00    -0.550 OA
ATOM     11  O   UNL     1      16.801  60.270  34.850  1.00  0.00    -0.550 OA
ENDBRANCH   8   9
ENDBRANCH   7   8
ENDBRANCH   6   7
ENDBRANCH   5   6
ENDBRANCH   4   5
ENDBRANCH   3   4
ENDBRANCH   2   3
ENDBRANCH   1   2
BRANCH   1  12
ATOM     12  C   UNL     1      14.947  52.804  35.687  1.00  0.00     0.000 C 
BRANCH  12  13
ATOM     13  C   UNL     1      14.896  54.198  36.330  1.00  0.00    -0.000 C 
BRANCH  13  14
ATOM     14  C   UNL     1      13.636  54.360  37.189  1.00  0.00    -0.000 C 
BRANCH  14  15
ATOM     15  C   UNL     1      12.562  53.340  36.789  1.00  0.00    -0.000 C 
BRANCH  15  16
ATOM     16  C   UNL     1      11.371  53.980  36.052  1.00  0.00    -0.000 C 
BRANCH  16  17
ATOM     17  C   UNL     1      11.653  54.394  34.596  1.00  0.00    -0.000 C 
BRANCH  17  18
ATOM     18  C   UNL     1      11.630  55.912  34.333  1.00  0.00    -0.000 C 
BRANCH  18  19
ATOM     19  C   UNL     1      13.030  56.562  34.314  1.00  0.00    -0.003 C 
ATOM     20  C   UNL     1      12.971  58.084  34.184  1.00  0.00     0.004 C 
ENDBRANCH  18  19
ENDBRANCH  17  18
ENDBRANCH  16  17
ENDBRANCH  15  16
ENDBRANCH  14  15
ENDBRANCH  13  14
ENDBRANCH  12  13
ENDBRANCH   1  12
TORSDOF 16
ENDMDL
MODEL 8
REMARK VINA RESULT:    -3.970      2.166      4.962
REMARK INTER + INTRA:         -10.586
REMARK INTER:                  -8.143
REMARK INTRA:                  -2.443
REMARK UNBOUND:                -2.903
REMARK SMILES CCCCCCCCCCCCCCCCCC(=O)[O-]
REMARK SMILES IDX 10 1 11 2 12 3 13 4 14 5 15 6 16 7 17 8 18 9 19 10 20 11
REMARK SMILES IDX 9 12 8 13 7 14 6 15 5 16 4 17 3 18 2 19 1 20
REMARK H PARENT
REMARK Flexibility Score: inf
ROOT
ATOM      1  C   UNL     1      12.560  54.326  36.759  1.00  0.00     0.000 C 
ENDROOT
BRANCH   1   2
ATOM      2  C   UNL     1      13.009  52.928  37.219  1.00  0.00     0.000 C 
BRANCH   2   3
ATOM      3  C   UNL     1      14.257  52.438  36.455  1.00  0.00     0.000 C 
BRANCH   3   4
ATOM      4  C   UNL     1      15.157  53.578  35.952  1.00  0.00     0.000 C 
BRANCH   4   5
ATOM      5  C   UNL     1      15.422  53.509  34.442  1.00  0.00     0.000 C 
BRANCH   5   6
ATOM      6  C   UNL     1      14.330  52.706  33.727  1.00  0.00     0.000 C 
BRANCH   6   7
ATOM      7  C   UNL     1      14.716  52.433  32.265  1.00  0.00     0.006 C 
BRANCH   7   8
ATOM      8  C   UNL     1      14.081  53.443  31.299  1.00  0.00     0.053 C 
BRANCH   8   9
ATOM      9  C   UNL     1      15.021  53.818  30.193  1.00  0.00     0.041 C 
ATOM     10  O   UNL     1      15.932  54.662  30.395  1.00  0.00    -0.550 OA
ATOM     11  O   UNL     1      14.865  53.260  28.931  1.00  0.00    -0.550 OA
ENDBRANCH   8   9
ENDBRANCH   7   8
ENDBRANCH   6   7
ENDBRANCH   5   6
ENDBRANCH   4   5
ENDBRANCH   3   4
ENDBRANCH   2   3
ENDBRANCH   1   2
BRANCH   1  12
ATOM     12  C   UNL     1      11.439  54.274  35.709  1.00  0.00     0.000 C 
BRANCH  12  13
ATOM     13  C   UNL     1      11.724  55.171  34.495  1.00  0.00    -0.000 C 
BRANCH  13  14
ATOM     14  C   UNL     1      12.759  56.249  34.840  1.00  0.00    -0.000 C 
BRANCH  14  15
ATOM     15  C   UNL     1      13.669  56.541  33.639  1.00  0.00    -0.000 C 
BRANCH  15  16
ATOM     16  C   UNL     1      15.009  57.184  34.043  1.00  0.00    -0.000 C 
BRANCH  16  17
ATOM     17  C   UNL     1      16.163  56.965  33.047  1.00  0.00    -0.000 C 
BRANCH  17  18
ATOM     18  C   UNL     1      17.254  58.054  33.063  1.00  0.00    -0.000 C 
BRANCH  18  19
ATOM     19  C   UNL     1      16.930  59.246  33.989  1.00  0.00    -0.003 C 
ATOM     20  C   UNL     1      17.253  60.594  33.347  1.00  0.00     0.004 C 
ENDBRANCH  18  19
ENDBRANCH  17  18
ENDBRANCH  16  17
ENDBRANCH  15  16
ENDBRANCH  14  15
ENDBRANCH  13  14
ENDBRANCH  12  13
ENDBRANCH   1  12
TORSDOF 16
ENDMDL
MODEL 9
REMARK VINA RESULT:    -3.966      3.580      5.934
REMARK INTER + INTRA:         -10.578
REMARK INTER:                  -8.368
REMARK INTRA:                  -2.210
REMARK UNBOUND:                -2.903
REMARK SMILES CCCCCCCCCCCCCCCCCC(=O)[O-]
REMARK SMILES IDX 10 1 11 2 12 3 13 4 14 5 15 6 16 7 17 8 18 9 19 10 20 11
REMARK SMILES IDX 9 12 8 13 7 14 6 15 5 16 4 17 3 18 2 19 1 20
REMARK H PARENT
REMARK Flexibility Score: inf
ROOT
ATOM      1  C   UNL     1      12.709  54.324  36.757  1.00  0.00     0.000 C 
ENDROOT
BRANCH   1   2
ATOM      2  C   UNL     1      13.104  52.891  37.154  1.00  0.00     0.000 C 
BRANCH   2   3
ATOM      3  C   UNL     1      14.364  52.407  36.405  1.00  0.00     0.000 C 
BRANCH   3   4
ATOM      4  C   UNL     1      15.078  53.518  35.619  1.00  0.00     0.000 C 
BRANCH   4   5
ATOM      5  C   UNL     1      15.305  53.157  34.145  1.00  0.00     0.000 C 
BRANCH   5   6
ATOM      6  C   UNL     1      14.006  52.677  33.489  1.00  0.00     0.000 C 
BRANCH   6   7
ATOM      7  C   UNL     1      14.284  52.048  32.115  1.00  0.00     0.006 C 
BRANCH   7   8
ATOM      8  C   UNL     1      15.188  50.812  32.214  1.00  0.00     0.053 C 
BRANCH   8   9
ATOM      9  C   UNL     1      14.501  49.581  31.706  1.00  0.00     0.041 C 
ATOM     10  O   UNL     1      13.650  48.990  32.420  1.00  0.00    -0.550 OA
ATOM     11  O   UNL     1      14.829  49.067  30.458  1.00  0.00    -0.550 OA
ENDBRANCH   8   9
ENDBRANCH   7   8
ENDBRANCH   6   7
ENDBRANCH   5   6
ENDBRANCH   4   5
ENDBRANCH   3   4
ENDBRANCH   2   3
ENDBRANCH   1   2
BRANCH   1  12
ATOM     12  C   UNL     1      11.445  54.370  35.883  1.00  0.00     0.000 C 
BRANCH  12  13
ATOM     13  C   UNL     1      11.628  55.232  34.625  1.00  0.00    -0.000 C 
BRANCH  13  14
ATOM     14  C   UNL     1      12.682  56.322  34.854  1.00  0.00    -0.000 C 
BRANCH  14  15
ATOM     15  C   UNL     1      13.646  56.413  33.663  1.00  0.00    -0.000 C 
BRANCH  15  16
ATOM     16  C   UNL     1      15.008  57.027  34.038  1.00  0.00    -0.000 C 
BRANCH  16  17
ATOM     17  C   UNL     1      16.136  56.783  33.018  1.00  0.00    -0.000 C 
BRANCH  17  18
ATOM     18  C   UNL     1      17.214  57.882  32.963  1.00  0.00    -0.000 C 
BRANCH  18  19
ATOM     19  C   UNL     1      16.902  59.106  33.850  1.00  0.00    -0.003 C 
ATOM     20  C   UNL     1      17.192  60.432  33.149  1.00  0.00     0.004 C 
ENDBRANCH  18  19
ENDBRANCH  17  18
ENDBRANCH  16  17
ENDBRANCH  15  16
ENDBRANCH  14  15
ENDBRANCH  13  14
ENDBRANCH  12  13
ENDBRANCH   1  12
TORSDOF 16
ENDMDL
