MODEL 1
REMARK VINA RESULT:     4.865      0.000      0.000
REMARK INTER + INTRA:           8.963
REMARK INTER:                   7.424
REMARK INTRA:                   1.539
REMARK UNBOUND:                 1.539
REMARK SMILES CC1=CCC[C@H](C)C(=O)C[C@@H](C(C)C)C(=O)C1
REMARK SMILES IDX 8 1 9 2 6 3 7 4 5 5 4 6 3 7 2 8 1 9 10 11 11 12 15 13 16 14
REMARK SMILES IDX 17 15 12 17 13 18 14 19
REMARK H PARENT
REMARK Flexibility Score: 70.00
ROOT
ATOM      1  C   UNL     1      13.901  37.807 -14.838  1.00  0.00     0.136 C 
ATOM      2  O   UNL     1      14.022  38.249 -13.704  1.00  0.00    -0.299 OA
ENDROOT
BRANCH   1   3
ATOM      3  C   UNL     1      14.098  36.312 -15.049  1.00  0.00     0.053 C 
ATOM      4  C   UNL     1      13.646  35.425 -13.875  1.00  0.00     0.016 C 
BRANCH   3   5
ATOM      5  C   UNL     1      13.491  35.824 -16.391  1.00  0.00     0.015 C 
BRANCH   5   6
ATOM      6  C   UNL     1      14.289  36.223 -17.652  1.00  0.00     0.028 C 
BRANCH   6   7
ATOM      7  C   UNL     1      13.441  36.122 -18.902  1.00  0.00    -0.028 C 
ATOM      8  C   UNL     1      12.117  36.394 -19.001  1.00  0.00    -0.070 CG0
ATOM      9  C   UNL     1      11.455  36.198 -20.342  1.00  0.00     0.039 C 
ATOM     10  G   UNL     1      11.283  36.937 -17.860  1.00  0.00     0.000 G0
ENDBRANCH   6   7
ENDBRANCH   5   6
ENDBRANCH   3   5
ENDBRANCH   1   3
BRANCH   1  11
ATOM     11  C   UNL     1      13.530  38.782 -15.941  1.00  0.00     0.087 C 
BRANCH  11  12
ATOM     12  C   UNL     1      12.004  38.849 -16.186  1.00  0.00     0.066 C 
BRANCH  12  13
ATOM     13  C   UNL     1      11.650  38.379 -17.585  1.00  0.00     0.140 C 
ATOM     14  O   UNL     1      11.677  39.168 -18.519  1.00  0.00    -0.299 OA
BRANCH  13  15
ATOM     15  C   UNL     1      11.301  36.940 -17.855  1.00  0.00     0.106 CG0
ATOM     16  G   UNL     1      12.116  36.411 -19.017  1.00  0.00     0.000 G0
ENDBRANCH  13  15
ENDBRANCH  12  13
BRANCH  12  17
ATOM     17  C   UNL     1      11.408  40.250 -15.848  1.00  0.00    -0.006 C 
ATOM     18  C   UNL     1      12.491  41.195 -15.303  1.00  0.00     0.008 C 
ATOM     19  C   UNL     1      10.210  40.215 -14.881  1.00  0.00     0.008 C 
ENDBRANCH  12  17
ENDBRANCH  11  12
ENDBRANCH   1  11
TORSDOF 1
ENDMDL
MODEL 2
REMARK VINA RESULT:     4.906      1.863      4.191
REMARK INTER + INTRA:           9.026
REMARK INTER:                   7.406
REMARK INTRA:                   1.621
REMARK UNBOUND:                 1.539
REMARK SMILES CC1=CCC[C@H](C)C(=O)C[C@@H](C(C)C)C(=O)C1
REMARK SMILES IDX 8 1 9 2 6 3 7 4 5 5 4 6 3 7 2 8 1 9 10 11 11 12 15 13 16 14
REMARK SMILES IDX 17 15 12 17 13 18 14 19
REMARK H PARENT
REMARK Flexibility Score: 70.00
ROOT
ATOM      1  C   UNL     1      11.578  35.324 -16.121  1.00  0.00     0.136 C 
ATOM      2  O   UNL     1      10.990  34.311 -15.770  1.00  0.00    -0.299 OA
ENDROOT
BRANCH   1   3
ATOM      3  C   UNL     1      12.641  35.895 -15.190  1.00  0.00     0.053 C 
ATOM      4  C   UNL     1      13.150  34.922 -14.112  1.00  0.00     0.016 C 
BRANCH   3   5
ATOM      5  C   UNL     1      13.817  36.540 -15.970  1.00  0.00     0.015 C 
BRANCH   5   6
ATOM      6  C   UNL     1      14.213  37.957 -15.502  1.00  0.00     0.028 C 
BRANCH   6   7
ATOM      7  C   UNL     1      12.995  38.795 -15.175  1.00  0.00    -0.028 C 
ATOM      8  C   UNL     1      12.239  39.494 -16.055  1.00  0.00    -0.070 CG0
ATOM      9  C   UNL     1      11.080  40.291 -15.512  1.00  0.00     0.039 C 
ATOM     10  G   UNL     1      12.457  39.471 -17.554  1.00  0.00     0.000 G0
ENDBRANCH   6   7
ENDBRANCH   5   6
ENDBRANCH   3   5
ENDBRANCH   1   3
BRANCH   1  11
ATOM     11  C   UNL     1      11.225  35.914 -17.475  1.00  0.00     0.087 C 
BRANCH  11  12
ATOM     12  C   UNL     1      12.311  36.881 -18.003  1.00  0.00     0.066 C 
BRANCH  12  13
ATOM     13  C   UNL     1      11.763  38.285 -18.175  1.00  0.00     0.140 C 
ATOM     14  O   UNL     1      10.723  38.462 -18.795  1.00  0.00    -0.299 OA
BRANCH  13  15
ATOM     15  C   UNL     1      12.457  39.470 -17.560  1.00  0.00     0.106 CG0
ATOM     16  G   UNL     1      12.240  39.487 -16.061  1.00  0.00     0.000 G0
ENDBRANCH  13  15
ENDBRANCH  12  13
BRANCH  12  17
ATOM     17  C   UNL     1      13.013  36.341 -19.287  1.00  0.00    -0.006 C 
ATOM     18  C   UNL     1      12.129  35.313 -20.010  1.00  0.00     0.008 C 
ATOM     19  C   UNL     1      14.414  35.750 -19.046  1.00  0.00     0.008 C 
ENDBRANCH  12  17
ENDBRANCH  11  12
ENDBRANCH   1  11
TORSDOF 1
ENDMDL
MODEL 3
REMARK VINA RESULT:     5.595      1.745      4.851
REMARK INTER + INTRA:          10.079
REMARK INTER:                   9.537
REMARK INTRA:                   0.542
REMARK UNBOUND:                 1.539
REMARK SMILES CC1=CCC[C@H](C)C(=O)C[C@@H](C(C)C)C(=O)C1
REMARK SMILES IDX 8 1 9 2 6 3 7 4 5 5 4 6 3 7 2 8 1 9 10 11 11 12 15 13 16 14
REMARK SMILES IDX 17 15 12 17 13 18 14 19
REMARK H PARENT
REMARK Flexibility Score: 70.00
ROOT
ATOM      1  C   UNL     1      12.088  39.264 -17.790  1.00  0.00     0.136 C 
ATOM      2  O   UNL     1      11.225  39.639 -18.571  1.00  0.00    -0.299 OA
ENDROOT
BRANCH   1   3
ATOM      3  C   UNL     1      12.297  40.067 -16.513  1.00  0.00     0.053 C 
ATOM      4  C   UNL     1      11.283  41.204 -16.287  1.00  0.00     0.016 C 
BRANCH   3   5
ATOM      5  C   UNL     1      12.412  39.157 -15.261  1.00  0.00     0.015 C 
BRANCH   5   6
ATOM      6  C   UNL     1      13.842  38.676 -14.932  1.00  0.00     0.028 C 
BRANCH   6   7
ATOM      7  C   UNL     1      13.828  37.378 -14.154  1.00  0.00    -0.028 C 
ATOM      8  C   UNL     1      13.699  36.132 -14.669  1.00  0.00    -0.070 CG0
ATOM      9  C   UNL     1      13.680  34.970 -13.708  1.00  0.00     0.039 C 
ATOM     10  G   UNL     1      13.631  35.839 -16.154  1.00  0.00     0.000 G0
ENDBRANCH   6   7
ENDBRANCH   5   6
ENDBRANCH   3   5
ENDBRANCH   1   3
BRANCH   1  11
ATOM     11  C   UNL     1      12.862  38.006 -18.143  1.00  0.00     0.087 C 
BRANCH  11  12
ATOM     12  C   UNL     1      12.006  36.725 -18.006  1.00  0.00     0.066 C 
BRANCH  12  13
ATOM     13  C   UNL     1      12.252  36.038 -16.675  1.00  0.00     0.140 C 
ATOM     14  O   UNL     1      11.311  35.592 -16.035  1.00  0.00    -0.299 OA
BRANCH  13  15
ATOM     15  C   UNL     1      13.648  35.858 -16.141  1.00  0.00     0.106 CG0
ATOM     16  G   UNL     1      13.682  36.139 -14.653  1.00  0.00     0.000 G0
ENDBRANCH  13  15
ENDBRANCH  12  13
BRANCH  12  17
ATOM     17  C   UNL     1      12.173  35.766 -19.224  1.00  0.00    -0.006 C 
ATOM     18  C   UNL     1      13.648  35.650 -19.640  1.00  0.00     0.008 C 
ATOM     19  C   UNL     1      11.312  36.134 -20.446  1.00  0.00     0.008 C 
ENDBRANCH  12  17
ENDBRANCH  11  12
ENDBRANCH   1  11
TORSDOF 1
ENDMDL
MODEL 4
REMARK VINA RESULT:     6.051      1.863      4.568
REMARK INTER + INTRA:          10.774
REMARK INTER:                   8.716
REMARK INTRA:                   2.058
REMARK UNBOUND:                 1.539
REMARK SMILES CC1=CCC[C@H](C)C(=O)C[C@@H](C(C)C)C(=O)C1
REMARK SMILES IDX 8 1 9 2 6 3 7 4 5 5 4 6 3 7 2 8 1 9 10 11 11 12 15 13 16 14
REMARK SMILES IDX 17 15 12 17 13 18 14 19
REMARK H PARENT
REMARK Flexibility Score: 70.00
ROOT
ATOM      1  C   UNL     1      13.940  36.219 -18.454  1.00  0.00     0.136 C 
ATOM      2  O   UNL     1      14.983  36.111 -19.083  1.00  0.00    -0.299 OA
ENDROOT
BRANCH   1   3
ATOM      3  C   UNL     1      12.661  36.504 -19.231  1.00  0.00     0.053 C 
ATOM      4  C   UNL     1      12.071  35.294 -19.977  1.00  0.00     0.016 C 
BRANCH   3   5
ATOM      5  C   UNL     1      11.589  37.207 -18.357  1.00  0.00     0.015 C 
BRANCH   5   6
ATOM      6  C   UNL     1      11.514  38.741 -18.522  1.00  0.00     0.028 C 
BRANCH   6   7
ATOM      7  C   UNL     1      11.008  39.412 -17.263  1.00  0.00    -0.028 C 
ATOM      8  C   UNL     1      11.729  39.678 -16.148  1.00  0.00    -0.070 CG0
ATOM      9  C   UNL     1      11.020  40.331 -14.988  1.00  0.00     0.039 C 
ATOM     10  G   UNL     1      13.215  39.411 -16.023  1.00  0.00     0.000 G0
ENDBRANCH   6   7
ENDBRANCH   5   6
ENDBRANCH   3   5
ENDBRANCH   1   3
BRANCH   1  11
ATOM     11  C   UNL     1      13.997  36.026 -16.949  1.00  0.00     0.087 C 
BRANCH  11  12
ATOM     12  C   UNL     1      12.889  36.809 -16.207  1.00  0.00     0.066 C 
BRANCH  12  13
ATOM     13  C   UNL     1      13.454  38.027 -15.501  1.00  0.00     0.140 C 
ATOM     14  O   UNL     1      14.154  37.888 -14.507  1.00  0.00    -0.299 OA
BRANCH  13  15
ATOM     15  C   UNL     1      13.201  39.416 -16.025  1.00  0.00     0.106 CG0
ATOM     16  G   UNL     1      11.712  39.668 -16.147  1.00  0.00     0.000 G0
ENDBRANCH  13  15
ENDBRANCH  12  13
BRANCH  12  17
ATOM     17  C   UNL     1      12.047  35.897 -15.263  1.00  0.00    -0.006 C 
ATOM     18  C   UNL     1      12.955  35.024 -14.382  1.00  0.00     0.008 C 
ATOM     19  C   UNL     1      11.014  35.013 -15.987  1.00  0.00     0.008 C 
ENDBRANCH  12  17
ENDBRANCH  11  12
ENDBRANCH   1  11
TORSDOF 1
ENDMDL
MODEL 5
REMARK VINA RESULT:     6.604      1.652      3.573
REMARK INTER + INTRA:          11.618
REMARK INTER:                  10.895
REMARK INTRA:                   0.723
REMARK UNBOUND:                 1.539
REMARK SMILES CC1=CCC[C@H](C)C(=O)C[C@@H](C(C)C)C(=O)C1
REMARK SMILES IDX 8 1 9 2 6 3 7 4 5 5 4 6 3 7 2 8 1 9 10 11 11 12 15 13 16 14
REMARK SMILES IDX 17 15 12 17 13 18 14 19
REMARK H PARENT
REMARK Flexibility Score: 70.00
ROOT
ATOM      1  C   UNL     1      11.560  39.380 -15.906  1.00  0.00     0.136 C 
ATOM      2  O   UNL     1      11.028  39.921 -14.948  1.00  0.00    -0.299 OA
ENDROOT
BRANCH   1   3
ATOM      3  C   UNL     1      11.978  40.254 -17.082  1.00  0.00     0.053 C 
ATOM      4  C   UNL     1      13.247  41.093 -16.849  1.00  0.00     0.016 C 
BRANCH   3   5
ATOM      5  C   UNL     1      12.066  39.451 -18.407  1.00  0.00     0.015 C 
BRANCH   5   6
ATOM      6  C   UNL     1      10.754  38.765 -18.844  1.00  0.00     0.028 C 
BRANCH   6   7
ATOM      7  C   UNL     1      11.018  37.590 -19.762  1.00  0.00    -0.028 C 
ATOM      8  C   UNL     1      11.493  36.375 -19.396  1.00  0.00    -0.070 CG0
ATOM      9  C   UNL     1      11.713  35.349 -20.479  1.00  0.00     0.039 C 
ATOM     10  G   UNL     1      11.757  35.973 -17.960  1.00  0.00     0.000 G0
ENDBRANCH   6   7
ENDBRANCH   5   6
ENDBRANCH   3   5
ENDBRANCH   1   3
BRANCH   1  11
ATOM     11  C   UNL     1      11.794  37.881 -15.833  1.00  0.00     0.087 C 
BRANCH  11  12
ATOM     12  C   UNL     1      13.197  37.473 -16.339  1.00  0.00     0.066 C 
BRANCH  12  13
ATOM     13  C   UNL     1      13.103  36.501 -17.500  1.00  0.00     0.140 C 
ATOM     14  O   UNL     1      14.121  36.113 -18.056  1.00  0.00    -0.299 OA
BRANCH  13  15
ATOM     15  C   UNL     1      11.773  35.967 -17.960  1.00  0.00     0.106 CG0
ATOM     16  G   UNL     1      11.509  36.379 -19.394  1.00  0.00     0.000 G0
ENDBRANCH  13  15
ENDBRANCH  12  13
BRANCH  12  17
ATOM     17  C   UNL     1      14.117  36.960 -15.190  1.00  0.00    -0.006 C 
ATOM     18  C   UNL     1      13.576  35.652 -14.590  1.00  0.00     0.008 C 
ATOM     19  C   UNL     1      14.369  37.985 -14.069  1.00  0.00     0.008 C 
ENDBRANCH  12  17
ENDBRANCH  11  12
ENDBRANCH   1  11
TORSDOF 1
ENDMDL
MODEL 6
REMARK VINA RESULT:     7.118      1.449      3.864
REMARK INTER + INTRA:          12.402
REMARK INTER:                   9.965
REMARK INTRA:                   2.437
REMARK UNBOUND:                 1.539
REMARK SMILES CC1=CCC[C@H](C)C(=O)C[C@@H](C(C)C)C(=O)C1
REMARK SMILES IDX 8 1 9 2 6 3 7 4 5 5 4 6 3 7 2 8 1 9 10 11 11 12 15 13 16 14
REMARK SMILES IDX 17 15 12 17 13 18 14 19
REMARK H PARENT
REMARK Flexibility Score: 70.00
ROOT
ATOM      1  C   UNL     1      11.734  37.921 -18.174  1.00  0.00     0.136 C 
ATOM      2  O   UNL     1      11.656  38.848 -18.968  1.00  0.00    -0.299 OA
ENDROOT
BRANCH   1   3
ATOM      3  C   UNL     1      12.165  36.559 -18.704  1.00  0.00     0.053 C 
ATOM      4  C   UNL     1      13.678  36.403 -18.940  1.00  0.00     0.016 C 
BRANCH   3   5
ATOM      5  C   UNL     1      11.603  35.393 -17.848  1.00  0.00     0.015 C 
BRANCH   5   6
ATOM      6  C   UNL     1      11.001  35.811 -16.489  1.00  0.00     0.028 C 
BRANCH   6   7
ATOM      7  C   UNL     1      11.861  35.348 -15.332  1.00  0.00    -0.028 C 
ATOM      8  C   UNL     1      13.124  35.752 -15.057  1.00  0.00    -0.070 CG0
ATOM      9  C   UNL     1      13.816  35.140 -13.865  1.00  0.00     0.039 C 
ATOM     10  G   UNL     1      13.854  36.823 -15.840  1.00  0.00     0.000 G0
ENDBRANCH   6   7
ENDBRANCH   5   6
ENDBRANCH   3   5
ENDBRANCH   1   3
BRANCH   1  11
ATOM     11  C   UNL     1      11.428  38.210 -16.716  1.00  0.00     0.087 C 
BRANCH  11  12
ATOM     12  C   UNL     1      12.520  39.071 -16.039  1.00  0.00     0.066 C 
BRANCH  12  13
ATOM     13  C   UNL     1      13.535  38.205 -15.315  1.00  0.00     0.140 C 
ATOM     14  O   UNL     1      14.060  38.610 -14.287  1.00  0.00    -0.299 OA
BRANCH  13  15
ATOM     15  C   UNL     1      13.881  36.830 -15.819  1.00  0.00     0.106 CG0
ATOM     16  G   UNL     1      13.132  35.776 -15.029  1.00  0.00     0.000 G0
ENDBRANCH  13  15
ENDBRANCH  12  13
BRANCH  12  17
ATOM     17  C   UNL     1      11.920  40.189 -15.132  1.00  0.00    -0.006 C 
ATOM     18  C   UNL     1      10.389  40.241 -15.259  1.00  0.00     0.008 C 
ATOM     19  C   UNL     1      12.513  41.589 -15.370  1.00  0.00     0.008 C 
ENDBRANCH  12  17
ENDBRANCH  11  12
ENDBRANCH   1  11
TORSDOF 1
ENDMDL
MODEL 7
REMARK VINA RESULT:     7.216      1.735      4.250
REMARK INTER + INTRA:          12.552
REMARK INTER:                  12.253
REMARK INTRA:                   0.299
REMARK UNBOUND:                 1.539
REMARK SMILES CC1=CCC[C@H](C)C(=O)C[C@@H](C(C)C)C(=O)C1
REMARK SMILES IDX 8 1 9 2 6 3 7 4 5 5 4 6 3 7 2 8 1 9 10 11 11 12 15 13 16 14
REMARK SMILES IDX 17 15 12 17 13 18 14 19
REMARK H PARENT
REMARK Flexibility Score: 70.00
ROOT
ATOM      1  C   UNL     1      13.584  36.328 -16.900  1.00  0.00     0.136 C 
ATOM      2  O   UNL     1      14.672  36.620 -17.375  1.00  0.00    -0.299 OA
ENDROOT
BRANCH   1   3
ATOM      3  C   UNL     1      13.325  36.672 -15.439  1.00  0.00     0.053 C 
ATOM      4  C   UNL     1      13.999  35.734 -14.421  1.00  0.00     0.016 C 
BRANCH   3   5
ATOM      5  C   UNL     1      13.631  38.160 -15.125  1.00  0.00     0.015 C 
BRANCH   5   6
ATOM      6  C   UNL     1      12.438  39.124 -15.302  1.00  0.00     0.028 C 
BRANCH   6   7
ATOM      7  C   UNL     1      12.494  39.841 -16.634  1.00  0.00    -0.028 C 
ATOM      8  C   UNL     1      11.911  39.439 -17.789  1.00  0.00    -0.070 CG0
ATOM      9  C   UNL     1      12.117  40.291 -19.017  1.00  0.00     0.039 C 
ATOM     10  G   UNL     1      11.019  38.220 -17.901  1.00  0.00     0.000 G0
ENDBRANCH   6   7
ENDBRANCH   5   6
ENDBRANCH   3   5
ENDBRANCH   1   3
BRANCH   1  11
ATOM     11  C   UNL     1      12.564  35.674 -17.816  1.00  0.00     0.087 C 
BRANCH  11  12
ATOM     12  C   UNL     1      12.435  36.401 -19.175  1.00  0.00     0.066 C 
BRANCH  12  13
ATOM     13  C   UNL     1      11.316  37.425 -19.149  1.00  0.00     0.140 C 
ATOM     14  O   UNL     1      10.621  37.596 -20.141  1.00  0.00    -0.299 OA
BRANCH  13  15
ATOM     15  C   UNL     1      11.015  38.214 -17.903  1.00  0.00     0.106 CG0
ATOM     16  G   UNL     1      11.909  39.435 -17.825  1.00  0.00     0.000 G0
ENDBRANCH  13  15
ENDBRANCH  12  13
BRANCH  12  17
ATOM     17  C   UNL     1      12.320  35.408 -20.372  1.00  0.00    -0.006 C 
ATOM     18  C   UNL     1      11.065  34.531 -20.244  1.00  0.00     0.008 C 
ATOM     19  C   UNL     1      13.560  34.519 -20.583  1.00  0.00     0.008 C 
ENDBRANCH  12  17
ENDBRANCH  11  12
ENDBRANCH   1  11
TORSDOF 1
ENDMDL
MODEL 8
REMARK VINA RESULT:     7.860      2.831      4.845
REMARK INTER + INTRA:          13.534
REMARK INTER:                  12.412
REMARK INTRA:                   1.123
REMARK UNBOUND:                 1.539
REMARK SMILES CC1=CCC[C@H](C)C(=O)C[C@@H](C(C)C)C(=O)C1
REMARK SMILES IDX 8 1 9 2 6 3 7 4 5 5 4 6 3 7 2 8 1 9 10 11 11 12 15 13 16 14
REMARK SMILES IDX 17 15 12 17 13 18 14 19
REMARK H PARENT
REMARK Flexibility Score: 70.00
ROOT
ATOM      1  C   UNL     1      12.227  34.915 -19.926  1.00  0.00     0.136 C 
ATOM      2  O   UNL     1      13.393  35.205 -20.153  1.00  0.00    -0.299 OA
ENDROOT
BRANCH   1   3
ATOM      3  C   UNL     1      11.690  33.610 -20.500  1.00  0.00     0.053 C 
ATOM      4  C   UNL     1      12.707  32.791 -21.315  1.00  0.00     0.016 C 
BRANCH   3   5
ATOM      5  C   UNL     1      10.998  32.737 -19.420  1.00  0.00     0.015 C 
BRANCH   5   6
ATOM      6  C   UNL     1       9.979  33.483 -18.530  1.00  0.00     0.028 C 
BRANCH   6   7
ATOM      7  C   UNL     1      10.182  33.164 -17.064  1.00  0.00    -0.028 C 
ATOM      8  C   UNL     1      10.457  34.051 -16.078  1.00  0.00    -0.070 CG0
ATOM      9  C   UNL     1      10.651  33.515 -14.682  1.00  0.00     0.039 C 
ATOM     10  G   UNL     1      10.520  35.550 -16.289  1.00  0.00     0.000 G0
ENDBRANCH   6   7
ENDBRANCH   5   6
ENDBRANCH   3   5
ENDBRANCH   1   3
BRANCH   1  11
ATOM     11  C   UNL     1      11.417  35.863 -19.061  1.00  0.00     0.087 C 
BRANCH  11  12
ATOM     12  C   UNL     1      12.271  36.542 -17.964  1.00  0.00     0.066 C 
BRANCH  12  13
ATOM     13  C   UNL     1      11.915  36.018 -16.586  1.00  0.00     0.140 C 
ATOM     14  O   UNL     1      12.762  35.994 -15.704  1.00  0.00    -0.299 OA
BRANCH  13  15
ATOM     15  C   UNL     1      10.517  35.558 -16.266  1.00  0.00     0.106 CG0
ATOM     16  G   UNL     1      10.484  34.053 -16.100  1.00  0.00     0.000 G0
ENDBRANCH  13  15
ENDBRANCH  12  13
BRANCH  12  17
ATOM     17  C   UNL     1      12.223  38.098 -18.052  1.00  0.00    -0.006 C 
ATOM     18  C   UNL     1      12.283  38.734 -16.654  1.00  0.00     0.008 C 
ATOM     19  C   UNL     1      11.017  38.656 -18.830  1.00  0.00     0.008 C 
ENDBRANCH  12  17
ENDBRANCH  11  12
ENDBRANCH   1  11
TORSDOF 1
ENDMDL
