MODEL 1
REMARK VINA RESULT:    -3.663      0.000      0.000
REMARK INTER + INTRA:          -5.831
REMARK INTER:                  -5.590
REMARK INTRA:                  -0.241
REMARK UNBOUND:                -0.241
REMARK SMILES CC1=CCC[C@@H](C)C(=O)C[C@H](C(C)C)C(=O)C1
REMARK SMILES IDX 8 1 9 2 6 3 7 4 5 5 4 6 3 7 2 8 1 9 10 11 11 12 15 13 16 14
REMARK SMILES IDX 17 15 12 17 13 18 14 19
REMARK H PARENT
REMARK Flexibility Score: 70.00
ROOT
ATOM      1  C   UNL     1      19.590  29.614  30.265  1.00  0.00     0.136 C 
ATOM      2  O   UNL     1      18.851  28.825  30.837  1.00  0.00    -0.299 OA
ENDROOT
BRANCH   1   3
ATOM      3  C   UNL     1      21.092  29.479  30.487  1.00  0.00     0.053 C 
ATOM      4  C   UNL     1      21.698  28.142  30.022  1.00  0.00     0.016 C 
BRANCH   3   5
ATOM      5  C   UNL     1      21.502  29.807  31.946  1.00  0.00     0.015 C 
BRANCH   5   6
ATOM      6  C   UNL     1      21.370  31.294  32.343  1.00  0.00     0.028 C 
BRANCH   6   7
ATOM      7  C   UNL     1      21.974  32.205  31.296  1.00  0.00    -0.028 C 
ATOM      8  C   UNL     1      21.383  33.284  30.732  1.00  0.00    -0.070 CG0
ATOM      9  C   UNL     1      22.177  34.075  29.721  1.00  0.00     0.039 C 
ATOM     10  G   UNL     1      19.956  33.707  31.014  1.00  0.00     0.000 G0
ENDBRANCH   6   7
ENDBRANCH   5   6
ENDBRANCH   3   5
ENDBRANCH   1   3
BRANCH   1  11
ATOM     11  C   UNL     1      18.951  30.687  29.405  1.00  0.00     0.087 C 
BRANCH  11  12
ATOM     12  C   UNL     1      18.304  31.817  30.242  1.00  0.00     0.066 C 
BRANCH  12  13
ATOM     13  C   UNL     1      19.009  33.140  30.007  1.00  0.00     0.140 C 
ATOM     14  O   UNL     1      18.834  33.749  28.962  1.00  0.00    -0.299 OA
BRANCH  13  15
ATOM     15  C   UNL     1      19.952  33.712  31.033  1.00  0.00     0.106 CG0
ATOM     16  G   UNL     1      21.376  33.299  30.725  1.00  0.00     0.000 G0
ENDBRANCH  13  15
ENDBRANCH  12  13
BRANCH  12  17
ATOM     17  C   UNL     1      16.763  31.954  30.032  1.00  0.00    -0.006 C 
ATOM     18  C   UNL     1      16.040  30.621  29.773  1.00  0.00     0.008 C 
ATOM     19  C   UNL     1      16.096  32.687  31.207  1.00  0.00     0.008 C 
ENDBRANCH  12  17
ENDBRANCH  11  12
ENDBRANCH   1  11
TORSDOF 1
ENDMDL
MODEL 2
REMARK VINA RESULT:    -3.065      2.293      5.148
REMARK INTER + INTRA:          -4.919
REMARK INTER:                  -4.964
REMARK INTRA:                   0.045
REMARK UNBOUND:                -0.241
REMARK SMILES CC1=CCC[C@@H](C)C(=O)C[C@H](C(C)C)C(=O)C1
REMARK SMILES IDX 8 1 9 2 6 3 7 4 5 5 4 6 3 7 2 8 1 9 10 11 11 12 15 13 16 14
REMARK SMILES IDX 17 15 12 17 13 18 14 19
REMARK H PARENT
REMARK Flexibility Score: 70.00
ROOT
ATOM      1  C   UNL     1      18.568  31.448  29.295  1.00  0.00     0.136 C 
ATOM      2  O   UNL     1      18.150  30.349  28.956  1.00  0.00    -0.299 OA
ENDROOT
BRANCH   1   3
ATOM      3  C   UNL     1      17.654  32.652  29.106  1.00  0.00     0.053 C 
ATOM      4  C   UNL     1      18.197  33.975  29.677  1.00  0.00     0.016 C 
BRANCH   3   5
ATOM      5  C   UNL     1      16.210  32.375  29.598  1.00  0.00     0.015 C 
BRANCH   5   6
ATOM      6  C   UNL     1      16.050  32.275  31.132  1.00  0.00     0.028 C 
BRANCH   6   7
ATOM      7  C   UNL     1      15.990  30.834  31.591  1.00  0.00    -0.028 C 
ATOM      8  C   UNL     1      16.859  30.220  32.428  1.00  0.00    -0.070 CG0
ATOM      9  C   UNL     1      16.599  28.776  32.780  1.00  0.00     0.039 C 
ATOM     10  G   UNL     1      18.104  30.881  32.982  1.00  0.00     0.000 G0
ENDBRANCH   6   7
ENDBRANCH   5   6
ENDBRANCH   3   5
ENDBRANCH   1   3
BRANCH   1  11
ATOM     11  C   UNL     1      19.979  31.530  29.847  1.00  0.00     0.087 C 
BRANCH  11  12
ATOM     12  C   UNL     1      20.009  31.740  31.380  1.00  0.00     0.066 C 
BRANCH  12  13
ATOM     13  C   UNL     1      19.302  30.607  32.099  1.00  0.00     0.140 C 
ATOM     14  O   UNL     1      19.680  29.455  31.945  1.00  0.00    -0.299 OA
BRANCH  13  15
ATOM     15  C   UNL     1      18.114  30.869  32.987  1.00  0.00     0.106 CG0
ATOM     16  G   UNL     1      16.871  30.228  32.405  1.00  0.00     0.000 G0
ENDBRANCH  13  15
ENDBRANCH  12  13
BRANCH  12  17
ATOM     17  C   UNL     1      21.442  31.968  31.958  1.00  0.00    -0.006 C 
ATOM     18  C   UNL     1      22.517  32.236  30.890  1.00  0.00     0.008 C 
ATOM     19  C   UNL     1      21.457  33.092  33.005  1.00  0.00     0.008 C 
ENDBRANCH  12  17
ENDBRANCH  11  12
ENDBRANCH   1  11
TORSDOF 1
ENDMDL
MODEL 3
REMARK VINA RESULT:    -3.017      1.721      2.210
REMARK INTER + INTRA:          -4.846
REMARK INTER:                  -4.735
REMARK INTRA:                  -0.111
REMARK UNBOUND:                -0.241
REMARK SMILES CC1=CCC[C@@H](C)C(=O)C[C@H](C(C)C)C(=O)C1
REMARK SMILES IDX 8 1 9 2 6 3 7 4 5 5 4 6 3 7 2 8 1 9 10 11 11 12 15 13 16 14
REMARK SMILES IDX 17 15 12 17 13 18 14 19
REMARK H PARENT
REMARK Flexibility Score: 70.00
ROOT
ATOM      1  C   UNL     1      21.694  29.312  29.789  1.00  0.00     0.136 C 
ATOM      2  O   UNL     1      21.311  28.180  30.050  1.00  0.00    -0.299 OA
ENDROOT
BRANCH   1   3
ATOM      3  C   UNL     1      23.160  29.646  30.037  1.00  0.00     0.053 C 
ATOM      4  C   UNL     1      24.164  28.649  29.429  1.00  0.00     0.016 C 
BRANCH   3   5
ATOM      5  C   UNL     1      23.459  29.904  31.536  1.00  0.00     0.015 C 
BRANCH   5   6
ATOM      6  C   UNL     1      24.184  31.235  31.839  1.00  0.00     0.028 C 
BRANCH   6   7
ATOM      7  C   UNL     1      23.267  32.222  32.529  1.00  0.00    -0.028 C 
ATOM      8  C   UNL     1      22.359  33.029  31.930  1.00  0.00    -0.070 CG0
ATOM      9  C   UNL     1      21.523  33.925  32.811  1.00  0.00     0.039 C 
ATOM     10  G   UNL     1      22.176  33.124  30.430  1.00  0.00     0.000 G0
ENDBRANCH   6   7
ENDBRANCH   5   6
ENDBRANCH   3   5
ENDBRANCH   1   3
BRANCH   1  11
ATOM     11  C   UNL     1      20.671  30.304  29.270  1.00  0.00     0.087 C 
BRANCH  11  12
ATOM     12  C   UNL     1      20.249  31.340  30.340  1.00  0.00     0.066 C 
BRANCH  12  13
ATOM     13  C   UNL     1      20.789  32.719  30.006  1.00  0.00     0.140 C 
ATOM     14  O   UNL     1      20.099  33.511  29.383  1.00  0.00    -0.299 OA
BRANCH  13  15
ATOM     15  C   UNL     1      22.183  33.126  30.406  1.00  0.00     0.106 CG0
ATOM     16  G   UNL     1      22.349  33.025  31.908  1.00  0.00     0.000 G0
ENDBRANCH  13  15
ENDBRANCH  12  13
BRANCH  12  17
ATOM     17  C   UNL     1      18.710  31.386  30.601  1.00  0.00    -0.006 C 
ATOM     18  C   UNL     1      17.915  30.284  29.879  1.00  0.00     0.008 C 
ATOM     19  C   UNL     1      18.391  31.358  32.104  1.00  0.00     0.008 C 
ENDBRANCH  12  17
ENDBRANCH  11  12
ENDBRANCH   1  11
TORSDOF 1
ENDMDL
MODEL 4
REMARK VINA RESULT:    -2.967      2.630      4.742
REMARK INTER + INTRA:          -4.769
REMARK INTER:                  -4.702
REMARK INTRA:                  -0.067
REMARK UNBOUND:                -0.241
REMARK SMILES CC1=CCC[C@@H](C)C(=O)C[C@H](C(C)C)C(=O)C1
REMARK SMILES IDX 8 1 9 2 6 3 7 4 5 5 4 6 3 7 2 8 1 9 10 11 11 12 15 13 16 14
REMARK SMILES IDX 17 15 12 17 13 18 14 19
REMARK H PARENT
REMARK Flexibility Score: 70.00
ROOT
ATOM      1  C   UNL     1      24.247  29.998  31.647  1.00  0.00     0.136 C 
ATOM      2  O   UNL     1      24.271  29.340  32.677  1.00  0.00    -0.299 OA
ENDROOT
BRANCH   1   3
ATOM      3  C   UNL     1      24.378  29.259  30.320  1.00  0.00     0.053 C 
ATOM      4  C   UNL     1      25.551  29.719  29.435  1.00  0.00     0.016 C 
BRANCH   3   5
ATOM      5  C   UNL     1      23.046  29.236  29.527  1.00  0.00     0.015 C 
BRANCH   5   6
ATOM      6  C   UNL     1      21.866  28.550  30.250  1.00  0.00     0.028 C 
BRANCH   6   7
ATOM      7  C   UNL     1      20.600  29.374  30.154  1.00  0.00    -0.028 C 
ATOM      8  C   UNL     1      20.177  30.303  31.044  1.00  0.00    -0.070 CG0
ATOM      9  C   UNL     1      18.892  31.035  30.742  1.00  0.00     0.039 C 
ATOM     10  G   UNL     1      20.887  30.607  32.347  1.00  0.00     0.000 G0
ENDBRANCH   6   7
ENDBRANCH   5   6
ENDBRANCH   3   5
ENDBRANCH   1   3
BRANCH   1  11
ATOM     11  C   UNL     1      24.122  31.505  31.771  1.00  0.00     0.087 C 
BRANCH  11  12
ATOM     12  C   UNL     1      22.777  32.040  31.222  1.00  0.00     0.066 C 
BRANCH  12  13
ATOM     13  C   UNL     1      21.670  31.889  32.249  1.00  0.00     0.140 C 
ATOM     14  O   UNL     1      21.420  32.806  33.017  1.00  0.00    -0.299 OA
BRANCH  13  15
ATOM     15  C   UNL     1      20.883  30.609  32.363  1.00  0.00     0.106 CG0
ATOM     16  G   UNL     1      20.193  30.299  31.052  1.00  0.00     0.000 G0
ENDBRANCH  13  15
ENDBRANCH  12  13
BRANCH  12  17
ATOM     17  C   UNL     1      22.852  33.504  30.685  1.00  0.00    -0.006 C 
ATOM     18  C   UNL     1      24.194  33.865  30.023  1.00  0.00     0.008 C 
ATOM     19  C   UNL     1      21.697  33.812  29.720  1.00  0.00     0.008 C 
ENDBRANCH  12  17
ENDBRANCH  11  12
ENDBRANCH   1  11
TORSDOF 1
ENDMDL
MODEL 5
REMARK VINA RESULT:    -2.923      4.396      6.747
REMARK INTER + INTRA:          -4.701
REMARK INTER:                  -4.765
REMARK INTRA:                   0.063
REMARK UNBOUND:                -0.241
REMARK SMILES CC1=CCC[C@@H](C)C(=O)C[C@H](C(C)C)C(=O)C1
REMARK SMILES IDX 8 1 9 2 6 3 7 4 5 5 4 6 3 7 2 8 1 9 10 11 11 12 15 13 16 14
REMARK SMILES IDX 17 15 12 17 13 18 14 19
REMARK H PARENT
REMARK Flexibility Score: 70.00
ROOT
ATOM      1  C   UNL     1      26.400  30.384  29.988  1.00  0.00     0.136 C 
ATOM      2  O   UNL     1      27.027  30.373  28.938  1.00  0.00    -0.299 OA
ENDROOT
BRANCH   1   3
ATOM      3  C   UNL     1      25.334  29.315  30.198  1.00  0.00     0.053 C 
ATOM      4  C   UNL     1      24.743  28.727  28.903  1.00  0.00     0.016 C 
BRANCH   3   5
ATOM      5  C   UNL     1      24.217  29.783  31.167  1.00  0.00     0.015 C 
BRANCH   5   6
ATOM      6  C   UNL     1      23.032  30.512  30.495  1.00  0.00     0.028 C 
BRANCH   6   7
ATOM      7  C   UNL     1      22.400  31.522  31.429  1.00  0.00    -0.028 C 
ATOM      8  C   UNL     1      22.669  32.848  31.480  1.00  0.00    -0.070 CG0
ATOM      9  C   UNL     1      21.902  33.685  32.473  1.00  0.00     0.039 C 
ATOM     10  G   UNL     1      23.733  33.524  30.641  1.00  0.00     0.000 G0
ENDBRANCH   6   7
ENDBRANCH   5   6
ENDBRANCH   3   5
ENDBRANCH   1   3
BRANCH   1  11
ATOM     11  C   UNL     1      26.712  31.481  30.988  1.00  0.00     0.087 C 
BRANCH  11  12
ATOM     12  C   UNL     1      26.293  32.884  30.485  1.00  0.00     0.066 C 
BRANCH  12  13
ATOM     13  C   UNL     1      25.107  33.412  31.271  1.00  0.00     0.140 C 
ATOM     14  O   UNL     1      25.241  33.719  32.446  1.00  0.00    -0.299 OA
BRANCH  13  15
ATOM     15  C   UNL     1      23.748  33.542  30.635  1.00  0.00     0.106 CG0
ATOM     16  G   UNL     1      22.707  32.828  31.472  1.00  0.00     0.000 G0
ENDBRANCH  13  15
ENDBRANCH  12  13
BRANCH  12  17
ATOM     17  C   UNL     1      27.461  33.920  30.461  1.00  0.00    -0.006 C 
ATOM     18  C   UNL     1      28.507  33.718  31.571  1.00  0.00     0.008 C 
ATOM     19  C   UNL     1      28.157  33.955  29.091  1.00  0.00     0.008 C 
ENDBRANCH  12  17
ENDBRANCH  11  12
ENDBRANCH   1  11
TORSDOF 1
ENDMDL
MODEL 6
REMARK VINA RESULT:    -2.834      2.499      4.452
REMARK INTER + INTRA:          -4.566
REMARK INTER:                  -5.050
REMARK INTRA:                   0.484
REMARK UNBOUND:                -0.241
REMARK SMILES CC1=CCC[C@@H](C)C(=O)C[C@H](C(C)C)C(=O)C1
REMARK SMILES IDX 8 1 9 2 6 3 7 4 5 5 4 6 3 7 2 8 1 9 10 11 11 12 15 13 16 14
REMARK SMILES IDX 17 15 12 17 13 18 14 19
REMARK H PARENT
REMARK Flexibility Score: 70.00
ROOT
ATOM      1  C   UNL     1      23.576  33.475  30.321  1.00  0.00     0.136 C 
ATOM      2  O   UNL     1      23.497  34.062  29.250  1.00  0.00    -0.299 OA
ENDROOT
BRANCH   1   3
ATOM      3  C   UNL     1      24.945  32.976  30.765  1.00  0.00     0.053 C 
ATOM      4  C   UNL     1      26.132  33.839  30.299  1.00  0.00     0.016 C 
BRANCH   3   5
ATOM      5  C   UNL     1      25.165  31.480  30.420  1.00  0.00     0.015 C 
BRANCH   5   6
ATOM      6  C   UNL     1      24.546  30.481  31.422  1.00  0.00     0.028 C 
BRANCH   6   7
ATOM      7  C   UNL     1      23.683  29.454  30.721  1.00  0.00    -0.028 C 
ATOM      8  C   UNL     1      22.334  29.480  30.608  1.00  0.00    -0.070 CG0
ATOM      9  C   UNL     1      21.668  28.365  29.839  1.00  0.00     0.039 C 
ATOM     10  G   UNL     1      21.455  30.530  31.254  1.00  0.00     0.000 G0
ENDBRANCH   6   7
ENDBRANCH   5   6
ENDBRANCH   3   5
ENDBRANCH   1   3
BRANCH   1  11
ATOM     11  C   UNL     1      22.296  33.262  31.107  1.00  0.00     0.087 C 
BRANCH  11  12
ATOM     12  C   UNL     1      21.090  32.910  30.202  1.00  0.00     0.066 C 
BRANCH  12  13
ATOM     13  C   UNL     1      20.811  31.418  30.223  1.00  0.00     0.140 C 
ATOM     14  O   UNL     1      20.046  30.928  29.406  1.00  0.00    -0.299 OA
BRANCH  13  15
ATOM     15  C   UNL     1      21.442  30.522  31.257  1.00  0.00     0.106 CG0
ATOM     16  G   UNL     1      22.331  29.494  30.589  1.00  0.00     0.000 G0
ENDBRANCH  13  15
ENDBRANCH  12  13
BRANCH  12  17
ATOM     17  C   UNL     1      19.801  33.729  30.522  1.00  0.00    -0.006 C 
ATOM     18  C   UNL     1      18.756  33.729  29.392  1.00  0.00     0.008 C 
ATOM     19  C   UNL     1      19.148  33.266  31.834  1.00  0.00     0.008 C 
ENDBRANCH  12  17
ENDBRANCH  11  12
ENDBRANCH   1  11
TORSDOF 1
ENDMDL
MODEL 7
REMARK VINA RESULT:    -2.819      7.554      9.417
REMARK INTER + INTRA:          -4.544
REMARK INTER:                  -4.799
REMARK INTRA:                   0.255
REMARK UNBOUND:                -0.241
REMARK SMILES CC1=CCC[C@@H](C)C(=O)C[C@H](C(C)C)C(=O)C1
REMARK SMILES IDX 8 1 9 2 6 3 7 4 5 5 4 6 3 7 2 8 1 9 10 11 11 12 15 13 16 14
REMARK SMILES IDX 17 15 12 17 13 18 14 19
REMARK H PARENT
REMARK Flexibility Score: 70.00
ROOT
ATOM      1  C   UNL     1      29.792  30.682  31.859  1.00  0.00     0.136 C 
ATOM      2  O   UNL     1      30.270  29.851  31.099  1.00  0.00    -0.299 OA
ENDROOT
BRANCH   1   3
ATOM      3  C   UNL     1      30.706  31.783  32.384  1.00  0.00     0.053 C 
ATOM      4  C   UNL     1      29.984  32.936  33.104  1.00  0.00     0.016 C 
BRANCH   3   5
ATOM      5  C   UNL     1      31.671  32.315  31.292  1.00  0.00     0.015 C 
BRANCH   5   6
ATOM      6  C   UNL     1      31.053  33.345  30.320  1.00  0.00     0.028 C 
BRANCH   6   7
ATOM      7  C   UNL     1      30.589  32.690  29.037  1.00  0.00    -0.028 C 
ATOM      8  C   UNL     1      29.307  32.539  28.629  1.00  0.00    -0.070 CG0
ATOM      9  C   UNL     1      29.064  31.877  27.295  1.00  0.00     0.039 C 
ATOM     10  G   UNL     1      28.106  32.944  29.459  1.00  0.00     0.000 G0
ENDBRANCH   6   7
ENDBRANCH   5   6
ENDBRANCH   3   5
ENDBRANCH   1   3
BRANCH   1  11
ATOM     11  C   UNL     1      28.334  30.531  32.246  1.00  0.00     0.087 C 
BRANCH  11  12
ATOM     12  C   UNL     1      27.446  31.669  31.685  1.00  0.00     0.066 C 
BRANCH  12  13
ATOM     13  C   UNL     1      27.531  31.729  30.171  1.00  0.00     0.140 C 
ATOM     14  O   UNL     1      27.155  30.780  29.500  1.00  0.00    -0.299 OA
BRANCH  13  15
ATOM     15  C   UNL     1      28.102  32.934  29.471  1.00  0.00     0.106 CG0
ATOM     16  G   UNL     1      29.290  32.535  28.621  1.00  0.00     0.000 G0
ENDBRANCH  13  15
ENDBRANCH  12  13
BRANCH  12  17
ATOM     17  C   UNL     1      25.961  31.605  32.164  1.00  0.00    -0.006 C 
ATOM     18  C   UNL     1      25.654  30.435  33.114  1.00  0.00     0.008 C 
ATOM     19  C   UNL     1      25.519  32.928  32.809  1.00  0.00     0.008 C 
ENDBRANCH  12  17
ENDBRANCH  11  12
ENDBRANCH   1  11
TORSDOF 1
ENDMDL
MODEL 8
REMARK VINA RESULT:    -2.734      1.801      4.157
REMARK INTER + INTRA:          -4.414
REMARK INTER:                  -4.222
REMARK INTRA:                  -0.192
REMARK UNBOUND:                -0.241
REMARK SMILES CC1=CCC[C@@H](C)C(=O)C[C@H](C(C)C)C(=O)C1
REMARK SMILES IDX 8 1 9 2 6 3 7 4 5 5 4 6 3 7 2 8 1 9 10 11 11 12 15 13 16 14
REMARK SMILES IDX 17 15 12 17 13 18 14 19
REMARK H PARENT
REMARK Flexibility Score: 70.00
ROOT
ATOM      1  C   UNL     1      21.961  29.906  32.243  1.00  0.00     0.136 C 
ATOM      2  O   UNL     1      21.471  29.136  33.057  1.00  0.00    -0.299 OA
ENDROOT
BRANCH   1   3
ATOM      3  C   UNL     1      22.432  29.336  30.910  1.00  0.00     0.053 C 
ATOM      4  C   UNL     1      23.843  29.776  30.479  1.00  0.00     0.016 C 
BRANCH   3   5
ATOM      5  C   UNL     1      21.399  29.563  29.777  1.00  0.00     0.015 C 
BRANCH   5   6
ATOM      6  C   UNL     1      19.927  29.310  30.173  1.00  0.00     0.028 C 
BRANCH   6   7
ATOM      7  C   UNL     1      19.016  30.400  29.652  1.00  0.00    -0.028 C 
ATOM      8  C   UNL     1      18.630  31.513  30.320  1.00  0.00    -0.070 CG0
ATOM      9  C   UNL     1      17.734  32.491  29.601  1.00  0.00     0.039 C 
ATOM     10  G   UNL     1      19.000  31.802  31.759  1.00  0.00     0.000 G0
ENDBRANCH   6   7
ENDBRANCH   5   6
ENDBRANCH   3   5
ENDBRANCH   1   3
BRANCH   1  11
ATOM     11  C   UNL     1      22.093  31.365  32.638  1.00  0.00     0.087 C 
BRANCH  11  12
ATOM     12  C   UNL     1      21.594  32.329  31.535  1.00  0.00     0.066 C 
BRANCH  12  13
ATOM     13  C   UNL     1      20.172  32.784  31.812  1.00  0.00     0.140 C 
ATOM     14  O   UNL     1      19.949  33.950  32.101  1.00  0.00    -0.299 OA
BRANCH  13  15
ATOM     15  C   UNL     1      19.022  31.813  31.766  1.00  0.00     0.106 CG0
ATOM     16  G   UNL     1      18.640  31.519  30.330  1.00  0.00     0.000 G0
ENDBRANCH  13  15
ENDBRANCH  12  13
BRANCH  12  17
ATOM     17  C   UNL     1      22.537  33.548  31.288  1.00  0.00    -0.006 C 
ATOM     18  C   UNL     1      23.650  33.708  32.338  1.00  0.00     0.008 C 
ATOM     19  C   UNL     1      23.153  33.510  29.880  1.00  0.00     0.008 C 
ENDBRANCH  12  17
ENDBRANCH  11  12
ENDBRANCH   1  11
TORSDOF 1
ENDMDL
MODEL 9
REMARK VINA RESULT:    -2.676      8.512     10.227
REMARK INTER + INTRA:          -4.324
REMARK INTER:                  -4.180
REMARK INTRA:                  -0.144
REMARK UNBOUND:                -0.241
REMARK SMILES CC1=CCC[C@@H](C)C(=O)C[C@H](C(C)C)C(=O)C1
REMARK SMILES IDX 8 1 9 2 6 3 7 4 5 5 4 6 3 7 2 8 1 9 10 11 11 12 15 13 16 14
REMARK SMILES IDX 17 15 12 17 13 18 14 19
REMARK H PARENT
REMARK Flexibility Score: 70.00
ROOT
ATOM      1  C   UNL     1      30.252  30.532  31.071  1.00  0.00     0.136 C 
ATOM      2  O   UNL     1      31.195  29.979  30.523  1.00  0.00    -0.299 OA
ENDROOT
BRANCH   1   3
ATOM      3  C   UNL     1      30.506  31.232  32.401  1.00  0.00     0.053 C 
ATOM      4  C   UNL     1      29.249  31.803  33.084  1.00  0.00     0.016 C 
BRANCH   3   5
ATOM      5  C   UNL     1      31.627  32.298  32.299  1.00  0.00     0.015 C 
BRANCH   5   6
ATOM      6  C   UNL     1      31.269  33.545  31.459  1.00  0.00     0.028 C 
BRANCH   6   7
ATOM      7  C   UNL     1      31.904  33.492  30.087  1.00  0.00    -0.028 C 
ATOM      8  C   UNL     1      31.261  33.593  28.899  1.00  0.00    -0.070 CG0
ATOM      9  C   UNL     1      32.093  33.541  27.641  1.00  0.00     0.039 C 
ATOM     10  G   UNL     1      29.757  33.697  28.762  1.00  0.00     0.000 G0
ENDBRANCH   6   7
ENDBRANCH   5   6
ENDBRANCH   3   5
ENDBRANCH   1   3
BRANCH   1  11
ATOM     11  C   UNL     1      28.894  30.451  30.399  1.00  0.00     0.087 C 
BRANCH  11  12
ATOM     12  C   UNL     1      28.355  31.838  29.971  1.00  0.00     0.066 C 
BRANCH  12  13
ATOM     13  C   UNL     1      29.094  32.356  28.751  1.00  0.00     0.140 C 
ATOM     14  O   UNL     1      29.185  31.660  27.751  1.00  0.00    -0.299 OA
BRANCH  13  15
ATOM     15  C   UNL     1      29.750  33.712  28.756  1.00  0.00     0.106 CG0
ATOM     16  G   UNL     1      31.251  33.569  28.899  1.00  0.00     0.000 G0
ENDBRANCH  13  15
ENDBRANCH  12  13
BRANCH  12  17
ATOM     17  C   UNL     1      26.810  31.874  29.752  1.00  0.00    -0.006 C 
ATOM     18  C   UNL     1      26.118  30.508  29.908  1.00  0.00     0.008 C 
ATOM     19  C   UNL     1      26.134  32.907  30.667  1.00  0.00     0.008 C 
ENDBRANCH  12  17
ENDBRANCH  11  12
ENDBRANCH   1  11
TORSDOF 1
ENDMDL
