MODEL 1
REMARK VINA RESULT:    -3.334      0.000      0.000
REMARK INTER + INTRA:          -4.058
REMARK INTER:                  -3.918
REMARK INTRA:                  -0.140
REMARK UNBOUND:                -0.140
REMARK SMILES O=C([O-])CCC(=O)[O-]
REMARK SMILES IDX 4 1 2 2 1 3 3 4 5 5 6 6 7 7 8 8
REMARK H PARENT
REMARK Flexibility Score: inf
ROOT
ATOM      1  C   UNL     1      44.949  61.854  11.833  1.00  0.00     0.059 C 
ENDROOT
BRANCH   1   2
ATOM      2  C   UNL     1      44.242  60.636  12.339  1.00  0.00     0.042 C 
ATOM      3  O   UNL     1      44.662  60.041  13.366  1.00  0.00    -0.550 OA
ATOM      4  O   UNL     1      43.149  60.129  11.647  1.00  0.00    -0.550 OA
ENDBRANCH   1   2
BRANCH   1   5
ATOM      5  C   UNL     1      44.591  63.073  12.684  1.00  0.00     0.059 C 
BRANCH   5   6
ATOM      6  C   UNL     1      43.307  63.681  12.213  1.00  0.00     0.042 C 
ATOM      7  O   UNL     1      43.290  64.405  11.183  1.00  0.00    -0.550 OA
ATOM      8  O   UNL     1      42.122  63.408  12.884  1.00  0.00    -0.550 OA
ENDBRANCH   5   6
ENDBRANCH   1   5
TORSDOF 3
ENDMDL
MODEL 2
REMARK VINA RESULT:    -3.331      0.085      3.596
REMARK INTER + INTRA:          -4.055
REMARK INTER:                  -3.916
REMARK INTRA:                  -0.139
REMARK UNBOUND:                -0.140
REMARK SMILES O=C([O-])CCC(=O)[O-]
REMARK SMILES IDX 4 1 2 2 1 3 3 4 5 5 6 6 7 7 8 8
REMARK H PARENT
REMARK Flexibility Score: inf
ROOT
ATOM      1  C   UNL     1      44.612  63.052  12.635  1.00  0.00     0.059 C 
ENDROOT
BRANCH   1   2
ATOM      2  C   UNL     1      43.353  63.699  12.150  1.00  0.00     0.042 C 
ATOM      3  O   UNL     1      43.381  64.469  11.154  1.00  0.00    -0.550 OA
ATOM      4  O   UNL     1      42.159  63.491  12.827  1.00  0.00    -0.550 OA
ENDBRANCH   1   2
BRANCH   1   5
ATOM      5  C   UNL     1      44.935  61.814  11.797  1.00  0.00     0.059 C 
BRANCH   5   6
ATOM      6  C   UNL     1      44.225  60.614  12.341  1.00  0.00     0.042 C 
ATOM      7  O   UNL     1      44.661  60.033  13.370  1.00  0.00    -0.550 OA
ATOM      8  O   UNL     1      43.055  60.167  11.741  1.00  0.00    -0.550 OA
ENDBRANCH   5   6
ENDBRANCH   1   5
TORSDOF 3
ENDMDL
MODEL 3
REMARK VINA RESULT:    -3.243      1.012      3.612
REMARK INTER + INTRA:          -3.951
REMARK INTER:                  -3.799
REMARK INTRA:                  -0.152
REMARK UNBOUND:                -0.140
REMARK SMILES O=C([O-])CCC(=O)[O-]
REMARK SMILES IDX 4 1 2 2 1 3 3 4 5 5 6 6 7 7 8 8
REMARK H PARENT
REMARK Flexibility Score: inf
ROOT
ATOM      1  C   UNL     1      44.631  63.345  12.604  1.00  0.00     0.059 C 
ENDROOT
BRANCH   1   2
ATOM      2  C   UNL     1      43.261  63.725  12.137  1.00  0.00     0.042 C 
ATOM      3  O   UNL     1      43.115  64.392  11.079  1.00  0.00    -0.550 OA
ATOM      4  O   UNL     1      42.148  63.384  12.895  1.00  0.00    -0.550 OA
ENDBRANCH   1   2
BRANCH   1   5
ATOM      5  C   UNL     1      44.611  61.959  13.250  1.00  0.00     0.059 C 
BRANCH   5   6
ATOM      6  C   UNL     1      44.496  60.896  12.203  1.00  0.00     0.042 C 
ATOM      7  O   UNL     1      43.611  60.005  12.299  1.00  0.00    -0.550 OA
ATOM      8  O   UNL     1      45.334  60.917  11.095  1.00  0.00    -0.550 OA
ENDBRANCH   5   6
ENDBRANCH   1   5
TORSDOF 3
ENDMDL
MODEL 4
REMARK VINA RESULT:    -3.178     10.136     11.344
REMARK INTER + INTRA:          -3.874
REMARK INTER:                  -3.752
REMARK INTRA:                  -0.122
REMARK UNBOUND:                -0.140
REMARK SMILES O=C([O-])CCC(=O)[O-]
REMARK SMILES IDX 4 1 2 2 1 3 3 4 5 5 6 6 7 7 8 8
REMARK H PARENT
REMARK Flexibility Score: inf
ROOT
ATOM      1  C   UNL     1      47.180  60.466  22.734  1.00  0.00     0.059 C 
ENDROOT
BRANCH   1   2
ATOM      2  C   UNL     1      46.232  59.758  21.818  1.00  0.00     0.042 C 
ATOM      3  O   UNL     1      46.494  59.657  20.590  1.00  0.00    -0.550 OA
ATOM      4  O   UNL     1      45.036  59.252  22.311  1.00  0.00    -0.550 OA
ENDBRANCH   1   2
BRANCH   1   5
ATOM      5  C   UNL     1      48.393  59.585  23.035  1.00  0.00     0.059 C 
BRANCH   5   6
ATOM      6  C   UNL     1      49.625  60.158  22.408  1.00  0.00     0.042 C 
ATOM      7  O   UNL     1      50.508  60.697  23.125  1.00  0.00    -0.550 OA
ATOM      8  O   UNL     1      49.820  60.053  21.036  1.00  0.00    -0.550 OA
ENDBRANCH   5   6
ENDBRANCH   1   5
TORSDOF 3
ENDMDL
MODEL 5
REMARK VINA RESULT:    -3.173      9.126      9.995
REMARK INTER + INTRA:          -3.869
REMARK INTER:                  -3.817
REMARK INTRA:                  -0.052
REMARK UNBOUND:                -0.140
REMARK SMILES O=C([O-])CCC(=O)[O-]
REMARK SMILES IDX 4 1 2 2 1 3 3 4 5 5 6 6 7 7 8 8
REMARK H PARENT
REMARK Flexibility Score: inf
ROOT
ATOM      1  C   UNL     1      48.446  59.247  20.883  1.00  0.00     0.059 C 
ENDROOT
BRANCH   1   2
ATOM      2  C   UNL     1      49.473  59.833  19.966  1.00  0.00     0.042 C 
ATOM      3  O   UNL     1      50.619  60.122  20.402  1.00  0.00    -0.550 OA
ATOM      4  O   UNL     1      49.150  60.107  18.644  1.00  0.00    -0.550 OA
ENDBRANCH   1   2
BRANCH   1   5
ATOM      5  C   UNL     1      47.036  59.567  20.381  1.00  0.00     0.059 C 
BRANCH   5   6
ATOM      6  C   UNL     1      46.147  59.944  21.525  1.00  0.00     0.042 C 
ATOM      7  O   UNL     1      44.955  59.539  21.560  1.00  0.00    -0.550 OA
ATOM      8  O   UNL     1      46.649  60.701  22.576  1.00  0.00    -0.550 OA
ENDBRANCH   5   6
ENDBRANCH   1   5
TORSDOF 3
ENDMDL
MODEL 6
REMARK VINA RESULT:    -3.165      1.913      2.684
REMARK INTER + INTRA:          -3.860
REMARK INTER:                  -3.715
REMARK INTRA:                  -0.144
REMARK UNBOUND:                -0.140
REMARK SMILES O=C([O-])CCC(=O)[O-]
REMARK SMILES IDX 4 1 2 2 1 3 3 4 5 5 6 6 7 7 8 8
REMARK H PARENT
REMARK Flexibility Score: inf
ROOT
ATOM      1  C   UNL     1      42.710  61.393  13.612  1.00  0.00     0.059 C 
ENDROOT
BRANCH   1   2
ATOM      2  C   UNL     1      42.130  60.743  12.395  1.00  0.00     0.042 C 
ATOM      3  O   UNL     1      41.440  61.417  11.585  1.00  0.00    -0.550 OA
ATOM      4  O   UNL     1      42.309  59.383  12.181  1.00  0.00    -0.550 OA
ENDBRANCH   1   2
BRANCH   1   5
ATOM      5  C   UNL     1      44.236  61.286  13.600  1.00  0.00     0.059 C 
BRANCH   5   6
ATOM      6  C   UNL     1      44.812  62.151  12.522  1.00  0.00     0.042 C 
ATOM      7  O   UNL     1      45.297  61.629  11.484  1.00  0.00    -0.550 OA
ATOM      8  O   UNL     1      44.768  63.534  12.642  1.00  0.00    -0.550 OA
ENDBRANCH   5   6
ENDBRANCH   1   5
TORSDOF 3
ENDMDL
MODEL 7
REMARK VINA RESULT:    -3.163      1.794      3.226
REMARK INTER + INTRA:          -3.857
REMARK INTER:                  -3.693
REMARK INTRA:                  -0.165
REMARK UNBOUND:                -0.140
REMARK SMILES O=C([O-])CCC(=O)[O-]
REMARK SMILES IDX 4 1 2 2 1 3 3 4 5 5 6 6 7 7 8 8
REMARK H PARENT
REMARK Flexibility Score: inf
ROOT
ATOM      1  C   UNL     1      42.887  63.417  11.471  1.00  0.00     0.059 C 
ENDROOT
BRANCH   1   2
ATOM      2  C   UNL     1      41.870  62.729  12.325  1.00  0.00     0.042 C 
ATOM      3  O   UNL     1      41.536  61.540  12.078  1.00  0.00    -0.550 OA
ATOM      4  O   UNL     1      41.254  63.416  13.363  1.00  0.00    -0.550 OA
ENDBRANCH   1   2
BRANCH   1   5
ATOM      5  C   UNL     1      44.166  63.680  12.268  1.00  0.00     0.059 C 
BRANCH   5   6
ATOM      6  C   UNL     1      44.892  62.398  12.529  1.00  0.00     0.042 C 
ATOM      7  O   UNL     1      45.174  62.059  13.709  1.00  0.00    -0.550 OA
ATOM      8  O   UNL     1      45.214  61.554  11.474  1.00  0.00    -0.550 OA
ENDBRANCH   5   6
ENDBRANCH   1   5
TORSDOF 3
ENDMDL
MODEL 8
REMARK VINA RESULT:    -3.161     10.284     11.549
REMARK INTER + INTRA:          -3.855
REMARK INTER:                  -3.732
REMARK INTRA:                  -0.122
REMARK UNBOUND:                -0.140
REMARK SMILES O=C([O-])CCC(=O)[O-]
REMARK SMILES IDX 4 1 2 2 1 3 3 4 5 5 6 6 7 7 8 8
REMARK H PARENT
REMARK Flexibility Score: inf
ROOT
ATOM      1  C   UNL     1      50.686  60.437  20.105  1.00  0.00     0.059 C 
ENDROOT
BRANCH   1   2
ATOM      2  C   UNL     1      49.404  59.909  19.544  1.00  0.00     0.042 C 
ATOM      3  O   UNL     1      49.155  60.024  18.315  1.00  0.00    -0.550 OA
ATOM      4  O   UNL     1      48.460  59.336  20.387  1.00  0.00    -0.550 OA
ENDBRANCH   1   2
BRANCH   1   5
ATOM      5  C   UNL     1      51.316  59.416  21.054  1.00  0.00     0.059 C 
BRANCH   5   6
ATOM      6  C   UNL     1      51.393  59.970  22.442  1.00  0.00     0.042 C 
ATOM      7  O   UNL     1      52.513  60.175  22.981  1.00  0.00    -0.550 OA
ATOM      8  O   UNL     1      50.230  60.307  23.122  1.00  0.00    -0.550 OA
ENDBRANCH   5   6
ENDBRANCH   1   5
TORSDOF 3
ENDMDL
MODEL 9
REMARK VINA RESULT:    -3.154      1.756      2.410
REMARK INTER + INTRA:          -3.847
REMARK INTER:                  -3.668
REMARK INTRA:                  -0.178
REMARK UNBOUND:                -0.140
REMARK SMILES O=C([O-])CCC(=O)[O-]
REMARK SMILES IDX 4 1 2 2 1 3 3 4 5 5 6 6 7 7 8 8
REMARK H PARENT
REMARK Flexibility Score: inf
ROOT
ATOM      1  C   UNL     1      44.211  63.774  12.246  1.00  0.00     0.059 C 
ENDROOT
BRANCH   1   2
ATOM      2  C   UNL     1      44.790  62.407  12.429  1.00  0.00     0.042 C 
ATOM      3  O   UNL     1      45.032  61.683  11.427  1.00  0.00    -0.550 OA
ATOM      4  O   UNL     1      45.017  61.913  13.707  1.00  0.00    -0.550 OA
ENDBRANCH   1   2
BRANCH   1   5
ATOM      5  C   UNL     1      42.885  63.697  11.488  1.00  0.00     0.059 C 
BRANCH   5   6
ATOM      6  C   UNL     1      41.872  62.933  12.282  1.00  0.00     0.042 C 
ATOM      7  O   UNL     1      41.413  63.413  13.352  1.00  0.00    -0.550 OA
ATOM      8  O   UNL     1      41.398  61.714  11.816  1.00  0.00    -0.550 OA
ENDBRANCH   5   6
ENDBRANCH   1   5
TORSDOF 3
ENDMDL
