MODEL 1
REMARK VINA RESULT:    -4.076      0.000      0.000
REMARK INTER + INTRA:          -4.076
REMARK INTER:                  -4.076
REMARK INTRA:                   0.000
REMARK UNBOUND:                 0.000
REMARK SMILES CC1=CC=CC(C)(C)[C@@H]1C
REMARK SMILES IDX 10 1 9 2 2 3 3 4 4 5 5 6 6 7 7 8 8 9 1 10
REMARK H PARENT
REMARK Flexibility Score: inf
ROOT
ATOM      1  C   UNL     1      31.027  12.020  31.406  1.00  0.00     0.013 C 
ATOM      2  C   UNL     1      31.486  10.550  31.543  1.00  0.00     0.021 C 
ATOM      3  C   UNL     1      30.529   9.572  30.845  1.00  0.00    -0.070 C 
ATOM      4  C   UNL     1      30.537   8.276  31.199  1.00  0.00    -0.001 C 
ATOM      5  C   UNL     1      31.381   7.785  32.296  1.00  0.00    -0.004 C 
ATOM      6  C   UNL     1      31.993   8.633  33.121  1.00  0.00    -0.020 C 
ATOM      7  C   UNL     1      31.751  10.131  33.042  1.00  0.00    -0.011 C 
ATOM      8  C   UNL     1      30.544  10.459  33.947  1.00  0.00     0.016 C 
ATOM      9  C   UNL     1      33.009  10.835  33.599  1.00  0.00     0.016 C 
ATOM     10  C   UNL     1      29.671   9.961  29.666  1.00  0.00     0.040 C 
ENDROOT
TORSDOF 0
ENDMDL
MODEL 2
REMARK VINA RESULT:    -4.051      1.169      2.900
REMARK INTER + INTRA:          -4.051
REMARK INTER:                  -4.051
REMARK INTRA:                   0.000
REMARK UNBOUND:                 0.000
REMARK SMILES CC1=CC=CC(C)(C)[C@@H]1C
REMARK SMILES IDX 10 1 9 2 2 3 3 4 4 5 5 6 6 7 7 8 8 9 1 10
REMARK H PARENT
REMARK Flexibility Score: inf
ROOT
ATOM      1  C   UNL     1      31.987   7.021  33.334  1.00  0.00     0.013 C 
ATOM      2  C   UNL     1      31.003   8.055  32.739  1.00  0.00     0.021 C 
ATOM      3  C   UNL     1      30.954   8.001  31.205  1.00  0.00    -0.070 C 
ATOM      4  C   UNL     1      30.492   9.061  30.522  1.00  0.00    -0.001 C 
ATOM      5  C   UNL     1      30.108  10.305  31.202  1.00  0.00    -0.004 C 
ATOM      6  C   UNL     1      30.414  10.507  32.483  1.00  0.00    -0.020 C 
ATOM      7  C   UNL     1      31.271   9.522  33.258  1.00  0.00    -0.011 C 
ATOM      8  C   UNL     1      32.748   9.933  33.065  1.00  0.00     0.016 C 
ATOM      9  C   UNL     1      30.899   9.657  34.753  1.00  0.00     0.016 C 
ATOM     10  C   UNL     1      31.263   6.752  30.416  1.00  0.00     0.040 C 
ENDROOT
TORSDOF 0
ENDMDL
MODEL 3
REMARK VINA RESULT:    -4.022      1.716      3.639
REMARK INTER + INTRA:          -4.022
REMARK INTER:                  -4.022
REMARK INTRA:                   0.000
REMARK UNBOUND:                 0.000
REMARK SMILES CC1=CC=CC(C)(C)[C@@H]1C
REMARK SMILES IDX 10 1 9 2 2 3 3 4 4 5 5 6 6 7 7 8 8 9 1 10
REMARK H PARENT
REMARK Flexibility Score: inf
ROOT
ATOM      1  C   UNL     1      30.938   9.991  35.612  1.00  0.00     0.013 C 
ATOM      2  C   UNL     1      30.742   9.001  34.440  1.00  0.00     0.021 C 
ATOM      3  C   UNL     1      31.290   7.602  34.758  1.00  0.00    -0.070 C 
ATOM      4  C   UNL     1      31.576   6.761  33.751  1.00  0.00    -0.001 C 
ATOM      5  C   UNL     1      31.455   7.174  32.348  1.00  0.00    -0.004 C 
ATOM      6  C   UNL     1      31.277   8.454  32.024  1.00  0.00    -0.020 C 
ATOM      7  C   UNL     1      31.314   9.550  33.075  1.00  0.00    -0.011 C 
ATOM      8  C   UNL     1      32.781  10.014  33.218  1.00  0.00     0.016 C 
ATOM      9  C   UNL     1      30.460  10.727  32.550  1.00  0.00     0.016 C 
ATOM     10  C   UNL     1      31.391   7.058  36.163  1.00  0.00     0.040 C 
ENDROOT
TORSDOF 0
ENDMDL
MODEL 4
REMARK VINA RESULT:    -3.956      2.565      3.538
REMARK INTER + INTRA:          -3.956
REMARK INTER:                  -3.956
REMARK INTRA:                   0.000
REMARK UNBOUND:                 0.000
REMARK SMILES CC1=CC=CC(C)(C)[C@@H]1C
REMARK SMILES IDX 10 1 9 2 2 3 3 4 4 5 5 6 6 7 7 8 8 9 1 10
REMARK H PARENT
REMARK Flexibility Score: inf
ROOT
ATOM      1  C   UNL     1      31.121  10.414  34.097  1.00  0.00     0.013 C 
ATOM      2  C   UNL     1      31.638   9.095  34.717  1.00  0.00     0.021 C 
ATOM      3  C   UNL     1      31.319   7.874  33.842  1.00  0.00    -0.070 C 
ATOM      4  C   UNL     1      31.318   6.649  34.394  1.00  0.00    -0.001 C 
ATOM      5  C   UNL     1      31.535   6.455  35.833  1.00  0.00    -0.004 C 
ATOM      6  C   UNL     1      31.514   7.489  36.674  1.00  0.00    -0.020 C 
ATOM      7  C   UNL     1      31.148   8.886  36.203  1.00  0.00    -0.011 C 
ATOM      8  C   UNL     1      29.616   9.035  36.324  1.00  0.00     0.016 C 
ATOM      9  C   UNL     1      31.832   9.892  37.157  1.00  0.00     0.016 C 
ATOM     10  C   UNL     1      31.147   7.957  32.345  1.00  0.00     0.040 C 
ENDROOT
TORSDOF 0
ENDMDL
MODEL 5
REMARK VINA RESULT:    -3.871      2.232      3.544
REMARK INTER + INTRA:          -3.871
REMARK INTER:                  -3.871
REMARK INTRA:                   0.000
REMARK UNBOUND:                 0.000
REMARK SMILES CC1=CC=CC(C)(C)[C@@H]1C
REMARK SMILES IDX 10 1 9 2 2 3 3 4 4 5 5 6 6 7 7 8 8 9 1 10
REMARK H PARENT
REMARK Flexibility Score: inf
ROOT
ATOM      1  C   UNL     1      30.926  10.124  36.013  1.00  0.00     0.013 C 
ATOM      2  C   UNL     1      31.579   9.052  35.110  1.00  0.00     0.021 C 
ATOM      3  C   UNL     1      31.606   9.471  33.632  1.00  0.00    -0.070 C 
ATOM      4  C   UNL     1      31.747   8.531  32.683  1.00  0.00    -0.001 C 
ATOM      5  C   UNL     1      31.795   7.103  33.018  1.00  0.00    -0.004 C 
ATOM      6  C   UNL     1      31.476   6.674  34.239  1.00  0.00    -0.020 C 
ATOM      7  C   UNL     1      30.935   7.623  35.295  1.00  0.00    -0.011 C 
ATOM      8  C   UNL     1      29.399   7.667  35.143  1.00  0.00     0.016 C 
ATOM      9  C   UNL     1      31.291   7.031  36.678  1.00  0.00     0.016 C 
ATOM     10  C   UNL     1      31.629  10.913  33.186  1.00  0.00     0.040 C 
ENDROOT
TORSDOF 0
ENDMDL
MODEL 6
REMARK VINA RESULT:    -3.871      2.735      4.800
REMARK INTER + INTRA:          -3.871
REMARK INTER:                  -3.871
REMARK INTRA:                   0.000
REMARK UNBOUND:                 0.000
REMARK SMILES CC1=CC=CC(C)(C)[C@@H]1C
REMARK SMILES IDX 10 1 9 2 2 3 3 4 4 5 5 6 6 7 7 8 8 9 1 10
REMARK H PARENT
REMARK Flexibility Score: inf
ROOT
ATOM      1  C   UNL     1      31.023   6.591  33.734  1.00  0.00     0.013 C 
ATOM      2  C   UNL     1      31.617   7.606  34.738  1.00  0.00     0.021 C 
ATOM      3  C   UNL     1      31.246   7.276  36.191  1.00  0.00    -0.070 C 
ATOM      4  C   UNL     1      31.317   8.239  37.125  1.00  0.00    -0.001 C 
ATOM      5  C   UNL     1      31.663   9.622  36.776  1.00  0.00    -0.004 C 
ATOM      6  C   UNL     1      31.697  10.020  35.505  1.00  0.00    -0.020 C 
ATOM      7  C   UNL     1      31.264   9.101  34.375  1.00  0.00    -0.011 C 
ATOM      8  C   UNL     1      29.745   9.294  34.170  1.00  0.00     0.016 C 
ATOM      9  C   UNL     1      32.010   9.552  33.098  1.00  0.00     0.016 C 
ATOM     10  C   UNL     1      30.941   5.876  36.665  1.00  0.00     0.040 C 
ENDROOT
TORSDOF 0
ENDMDL
MODEL 7
REMARK VINA RESULT:    -3.860      2.432      4.597
REMARK INTER + INTRA:          -3.860
REMARK INTER:                  -3.860
REMARK INTRA:                   0.000
REMARK UNBOUND:                 0.000
REMARK SMILES CC1=CC=CC(C)(C)[C@@H]1C
REMARK SMILES IDX 10 1 9 2 2 3 3 4 4 5 5 6 6 7 7 8 8 9 1 10
REMARK H PARENT
REMARK Flexibility Score: inf
ROOT
ATOM      1  C   UNL     1      29.588   9.116  27.952  1.00  0.00     0.013 C 
ATOM      2  C   UNL     1      29.791   8.139  29.132  1.00  0.00     0.021 C 
ATOM      3  C   UNL     1      30.506   8.799  30.321  1.00  0.00    -0.070 C 
ATOM      4  C   UNL     1      31.119   8.027  31.234  1.00  0.00    -0.001 C 
ATOM      5  C   UNL     1      31.193   6.568  31.080  1.00  0.00    -0.004 C 
ATOM      6  C   UNL     1      30.859   5.983  29.931  1.00  0.00    -0.020 C 
ATOM      7  C   UNL     1      30.505   6.799  28.699  1.00  0.00    -0.011 C 
ATOM      8  C   UNL     1      31.815   7.075  27.928  1.00  0.00     0.016 C 
ATOM      9  C   UNL     1      29.573   5.934  27.820  1.00  0.00     0.016 C 
ATOM     10  C   UNL     1      30.434  10.279  30.605  1.00  0.00     0.040 C 
ENDROOT
TORSDOF 0
ENDMDL
MODEL 8
REMARK VINA RESULT:    -3.770      0.799      2.116
REMARK INTER + INTRA:          -3.770
REMARK INTER:                  -3.770
REMARK INTRA:                   0.000
REMARK UNBOUND:                 0.000
REMARK SMILES CC1=CC=CC(C)(C)[C@@H]1C
REMARK SMILES IDX 10 1 9 2 2 3 3 4 4 5 5 6 6 7 7 8 8 9 1 10
REMARK H PARENT
REMARK Flexibility Score: inf
ROOT
ATOM      1  C   UNL     1      29.652   9.857  29.681  1.00  0.00     0.013 C 
ATOM      2  C   UNL     1      30.810   9.544  30.657  1.00  0.00     0.021 C 
ATOM      3  C   UNL     1      30.775   8.094  31.160  1.00  0.00    -0.070 C 
ATOM      4  C   UNL     1      31.425   7.771  32.291  1.00  0.00    -0.001 C 
ATOM      5  C   UNL     1      32.102   8.789  33.103  1.00  0.00    -0.004 C 
ATOM      6  C   UNL     1      31.908  10.088  32.876  1.00  0.00    -0.020 C 
ATOM      7  C   UNL     1      30.893  10.570  31.854  1.00  0.00    -0.011 C 
ATOM      8  C   UNL     1      29.535  10.715  32.576  1.00  0.00     0.016 C 
ATOM      9  C   UNL     1      31.355  11.960  31.360  1.00  0.00     0.016 C 
ATOM     10  C   UNL     1      30.163   6.963  30.369  1.00  0.00     0.040 C 
ENDROOT
TORSDOF 0
ENDMDL
MODEL 9
REMARK VINA RESULT:    -3.758      2.884      5.284
REMARK INTER + INTRA:          -3.758
REMARK INTER:                  -3.758
REMARK INTRA:                   0.000
REMARK UNBOUND:                 0.000
REMARK SMILES CC1=CC=CC(C)(C)[C@@H]1C
REMARK SMILES IDX 10 1 9 2 2 3 3 4 4 5 5 6 6 7 7 8 8 9 1 10
REMARK H PARENT
REMARK Flexibility Score: inf
ROOT
ATOM      1  C   UNL     1      30.977   6.098  36.384  1.00  0.00     0.013 C 
ATOM      2  C   UNL     1      31.553   7.434  35.860  1.00  0.00     0.021 C 
ATOM      3  C   UNL     1      31.201   8.619  36.771  1.00  0.00    -0.070 C 
ATOM      4  C   UNL     1      31.255   9.868  36.279  1.00  0.00    -0.001 C 
ATOM      5  C   UNL     1      31.562  10.124  34.867  1.00  0.00    -0.004 C 
ATOM      6  C   UNL     1      31.576   9.132  33.978  1.00  0.00    -0.020 C 
ATOM      7  C   UNL     1      31.158   7.722  34.358  1.00  0.00    -0.011 C 
ATOM      8  C   UNL     1      29.633   7.609  34.138  1.00  0.00     0.016 C 
ATOM      9  C   UNL     1      31.882   6.748  33.400  1.00  0.00     0.016 C 
ATOM     10  C   UNL     1      30.937   8.470  38.250  1.00  0.00     0.040 C 
ENDROOT
TORSDOF 0
ENDMDL
