MODEL 1
REMARK VINA RESULT:    -0.422      0.000      0.000
REMARK INTER + INTRA:          -2.893
REMARK INTER:                  -0.964
REMARK INTRA:                  -1.929
REMARK UNBOUND:                -1.929
REMARK SMILES CCCCCCCCCCCCCCCCCCCCCCCC(=O)[O-]
REMARK SMILES IDX 13 1 14 2 15 3 16 4 17 5 18 6 19 7 20 8 21 9 22 10 23 11
REMARK SMILES IDX 24 12 25 13 26 14 12 15 11 16 10 17 9 18 8 19 7 20 6 21 5 22
REMARK SMILES IDX 4 23 3 24 2 25 1 26
REMARK H PARENT
REMARK Flexibility Score: inf
ROOT
ATOM      1  C   UNL     1      15.744  15.159   8.025  1.00  0.00     0.000 C 
ENDROOT
BRANCH   1   2
ATOM      2  C   UNL     1      16.658  16.094   7.219  1.00  0.00     0.000 C 
BRANCH   2   3
ATOM      3  C   UNL     1      16.055  16.481   5.860  1.00  0.00     0.000 C 
BRANCH   3   4
ATOM      4  C   UNL     1      14.524  16.338   5.829  1.00  0.00     0.000 C 
BRANCH   4   5
ATOM      5  C   UNL     1      13.910  16.772   4.485  1.00  0.00     0.000 C 
BRANCH   5   6
ATOM      6  C   UNL     1      12.689  15.951   4.030  1.00  0.00     0.000 C 
BRANCH   6   7
ATOM      7  C   UNL     1      12.251  16.277   2.592  1.00  0.00     0.000 C 
BRANCH   7   8
ATOM      8  C   UNL     1      13.409  16.791   1.718  1.00  0.00     0.000 C 
BRANCH   8   9
ATOM      9  C   UNL     1      13.018  17.868   0.687  1.00  0.00     0.000 C 
BRANCH   9  10
ATOM     10  C   UNL     1      14.176  18.815   0.308  1.00  0.00     0.006 C 
BRANCH  10  11
ATOM     11  C   UNL     1      13.681  20.220  -0.059  1.00  0.00     0.053 C 
BRANCH  11  12
ATOM     12  C   UNL     1      14.770  21.004  -0.719  1.00  0.00     0.041 C 
ATOM     13  O   UNL     1      14.631  21.408  -1.904  1.00  0.00    -0.550 OA
ATOM     14  O   UNL     1      15.963  21.237  -0.046  1.00  0.00    -0.550 OA
ENDBRANCH  11  12
ENDBRANCH  10  11
ENDBRANCH   9  10
ENDBRANCH   8   9
ENDBRANCH   7   8
ENDBRANCH   6   7
ENDBRANCH   5   6
ENDBRANCH   4   5
ENDBRANCH   3   4
ENDBRANCH   2   3
ENDBRANCH   1   2
BRANCH   1  15
ATOM     15  C   UNL     1      15.976  13.693   7.640  1.00  0.00     0.000 C 
BRANCH  15  16
ATOM     16  C   UNL     1      14.652  13.008   7.265  1.00  0.00     0.000 C 
BRANCH  16  17
ATOM     17  C   UNL     1      13.747  12.757   8.481  1.00  0.00     0.000 C 
BRANCH  17  18
ATOM     18  C   UNL     1      14.543  12.396   9.748  1.00  0.00    -0.000 C 
BRANCH  18  19
ATOM     19  C   UNL     1      13.728  12.616  11.033  1.00  0.00    -0.000 C 
BRANCH  19  20
ATOM     20  C   UNL     1      14.573  13.193  12.180  1.00  0.00    -0.000 C 
BRANCH  20  21
ATOM     21  C   UNL     1      15.809  13.960  11.680  1.00  0.00    -0.000 C 
BRANCH  21  22
ATOM     22  C   UNL     1      16.182  15.173  12.562  1.00  0.00    -0.000 C 
BRANCH  22  23
ATOM     23  C   UNL     1      16.975  16.237  11.784  1.00  0.00    -0.000 C 
BRANCH  23  24
ATOM     24  C   UNL     1      16.068  17.230  11.036  1.00  0.00    -0.000 C 
BRANCH  24  25
ATOM     25  C   UNL     1      16.706  18.603  10.757  1.00  0.00    -0.003 C 
ATOM     26  C   UNL     1      16.610  19.023   9.290  1.00  0.00     0.004 C 
ENDBRANCH  24  25
ENDBRANCH  23  24
ENDBRANCH  22  23
ENDBRANCH  21  22
ENDBRANCH  20  21
ENDBRANCH  19  20
ENDBRANCH  18  19
ENDBRANCH  17  18
ENDBRANCH  16  17
ENDBRANCH  15  16
ENDBRANCH   1  15
TORSDOF 22
ENDMDL
MODEL 2
REMARK VINA RESULT:    -0.203      3.966     10.233
REMARK INTER + INTRA:          -2.394
REMARK INTER:                  -0.728
REMARK INTRA:                  -1.666
REMARK UNBOUND:                -1.929
REMARK SMILES CCCCCCCCCCCCCCCCCCCCCCCC(=O)[O-]
REMARK SMILES IDX 13 1 14 2 15 3 16 4 17 5 18 6 19 7 20 8 21 9 22 10 23 11
REMARK SMILES IDX 24 12 25 13 26 14 12 15 11 16 10 17 9 18 8 19 7 20 6 21 5 22
REMARK SMILES IDX 4 23 3 24 2 25 1 26
REMARK H PARENT
REMARK Flexibility Score: inf
ROOT
ATOM      1  C   UNL     1      17.041  16.912   5.863  1.00  0.00     0.000 C 
ENDROOT
BRANCH   1   2
ATOM      2  C   UNL     1      17.092  15.530   6.530  1.00  0.00     0.000 C 
BRANCH   2   3
ATOM      3  C   UNL     1      15.694  14.953   6.802  1.00  0.00     0.000 C 
BRANCH   3   4
ATOM      4  C   UNL     1      15.662  14.034   8.035  1.00  0.00     0.000 C 
BRANCH   4   5
ATOM      5  C   UNL     1      15.244  14.771   9.320  1.00  0.00     0.000 C 
BRANCH   5   6
ATOM      6  C   UNL     1      16.388  15.059  10.309  1.00  0.00     0.000 C 
BRANCH   6   7
ATOM      7  C   UNL     1      16.623  16.563  10.532  1.00  0.00     0.000 C 
BRANCH   7   8
ATOM      8  C   UNL     1      15.843  17.441   9.538  1.00  0.00     0.000 C 
BRANCH   8   9
ATOM      9  C   UNL     1      16.083  18.957   9.680  1.00  0.00     0.000 C 
BRANCH   9  10
ATOM     10  C   UNL     1      15.960  19.472  11.129  1.00  0.00     0.006 C 
BRANCH  10  11
ATOM     11  C   UNL     1      14.499  19.599  11.578  1.00  0.00     0.053 C 
BRANCH  11  12
ATOM     12  C   UNL     1      14.165  21.025  11.881  1.00  0.00     0.041 C 
ATOM     13  O   UNL     1      13.012  21.471  11.641  1.00  0.00    -0.550 OA
ATOM     14  O   UNL     1      15.145  21.877  12.374  1.00  0.00    -0.550 OA
ENDBRANCH  11  12
ENDBRANCH  10  11
ENDBRANCH   9  10
ENDBRANCH   8   9
ENDBRANCH   7   8
ENDBRANCH   6   7
ENDBRANCH   5   6
ENDBRANCH   4   5
ENDBRANCH   3   4
ENDBRANCH   2   3
ENDBRANCH   1   2
BRANCH   1  15
ATOM     15  C   UNL     1      16.982  16.786   4.336  1.00  0.00     0.000 C 
BRANCH  15  16
ATOM     16  C   UNL     1      17.120  18.162   3.666  1.00  0.00     0.000 C 
BRANCH  16  17
ATOM     17  C   UNL     1      17.014  18.092   2.135  1.00  0.00     0.000 C 
BRANCH  17  18
ATOM     18  C   UNL     1      15.967  19.067   1.568  1.00  0.00    -0.000 C 
BRANCH  18  19
ATOM     19  C   UNL     1      16.316  19.538   0.147  1.00  0.00    -0.000 C 
BRANCH  19  20
ATOM     20  C   UNL     1      15.635  20.867  -0.221  1.00  0.00    -0.000 C 
BRANCH  20  21
ATOM     21  C   UNL     1      14.412  20.674  -1.135  1.00  0.00    -0.000 C 
BRANCH  21  22
ATOM     22  C   UNL     1      13.104  20.387  -0.363  1.00  0.00    -0.000 C 
BRANCH  22  23
ATOM     23  C   UNL     1      12.147  19.480  -1.157  1.00  0.00    -0.000 C 
BRANCH  23  24
ATOM     24  C   UNL     1      12.137  18.028  -0.644  1.00  0.00    -0.000 C 
BRANCH  24  25
ATOM     25  C   UNL     1      13.199  17.713   0.424  1.00  0.00    -0.003 C 
ATOM     26  C   UNL     1      12.657  16.877   1.583  1.00  0.00     0.004 C 
ENDBRANCH  24  25
ENDBRANCH  23  24
ENDBRANCH  22  23
ENDBRANCH  21  22
ENDBRANCH  20  21
ENDBRANCH  19  20
ENDBRANCH  18  19
ENDBRANCH  17  18
ENDBRANCH  16  17
ENDBRANCH  15  16
ENDBRANCH   1  15
TORSDOF 22
ENDMDL
MODEL 3
REMARK VINA RESULT:    -0.193      1.118      3.514
REMARK INTER + INTRA:          -2.369
REMARK INTER:                  -0.373
REMARK INTRA:                  -1.996
REMARK UNBOUND:                -1.929
REMARK SMILES CCCCCCCCCCCCCCCCCCCCCCCC(=O)[O-]
REMARK SMILES IDX 13 1 14 2 15 3 16 4 17 5 18 6 19 7 20 8 21 9 22 10 23 11
REMARK SMILES IDX 24 12 25 13 26 14 12 15 11 16 10 17 9 18 8 19 7 20 6 21 5 22
REMARK SMILES IDX 4 23 3 24 2 25 1 26
REMARK H PARENT
REMARK Flexibility Score: inf
ROOT
ATOM      1  C   UNL     1      15.492  15.724   7.104  1.00  0.00     0.000 C 
ENDROOT
BRANCH   1   2
ATOM      2  C   UNL     1      15.237  16.361   5.730  1.00  0.00     0.000 C 
BRANCH   2   3
ATOM      3  C   UNL     1      13.836  16.047   5.184  1.00  0.00     0.000 C 
BRANCH   3   4
ATOM      4  C   UNL     1      13.437  16.963   4.014  1.00  0.00     0.000 C 
BRANCH   4   5
ATOM      5  C   UNL     1      12.628  16.230   2.929  1.00  0.00     0.000 C 
BRANCH   5   6
ATOM      6  C   UNL     1      13.062  16.523   1.481  1.00  0.00     0.000 C 
BRANCH   6   7
ATOM      7  C   UNL     1      12.086  17.452   0.740  1.00  0.00     0.000 C 
BRANCH   7   8
ATOM      8  C   UNL     1      12.802  18.571  -0.038  1.00  0.00     0.000 C 
BRANCH   8   9
ATOM      9  C   UNL     1      14.269  18.810   0.369  1.00  0.00     0.000 C 
BRANCH   9  10
ATOM     10  C   UNL     1      14.643  20.301   0.500  1.00  0.00     0.006 C 
BRANCH  10  11
ATOM     11  C   UNL     1      15.975  20.628  -0.187  1.00  0.00     0.053 C 
BRANCH  11  12
ATOM     12  C   UNL     1      15.745  21.484  -1.393  1.00  0.00     0.041 C 
ATOM     13  O   UNL     1      14.585  21.615  -1.865  1.00  0.00    -0.550 OA
ATOM     14  O   UNL     1      16.822  22.088  -2.030  1.00  0.00    -0.550 OA
ENDBRANCH  11  12
ENDBRANCH  10  11
ENDBRANCH   9  10
ENDBRANCH   8   9
ENDBRANCH   7   8
ENDBRANCH   6   7
ENDBRANCH   5   6
ENDBRANCH   4   5
ENDBRANCH   3   4
ENDBRANCH   2   3
ENDBRANCH   1   2
BRANCH   1  15
ATOM     15  C   UNL     1      16.962  15.870   7.515  1.00  0.00     0.000 C 
BRANCH  15  16
ATOM     16  C   UNL     1      17.107  16.840   8.698  1.00  0.00     0.000 C 
BRANCH  16  17
ATOM     17  C   UNL     1      15.833  17.658   8.957  1.00  0.00     0.000 C 
BRANCH  17  18
ATOM     18  C   UNL     1      15.620  17.967  10.450  1.00  0.00    -0.000 C 
BRANCH  18  19
ATOM     19  C   UNL     1      16.874  17.682  11.291  1.00  0.00    -0.000 C 
BRANCH  19  20
ATOM     20  C   UNL     1      16.540  17.276  12.736  1.00  0.00    -0.000 C 
BRANCH  20  21
ATOM     21  C   UNL     1      16.155  15.791  12.861  1.00  0.00    -0.000 C 
BRANCH  21  22
ATOM     22  C   UNL     1      16.727  14.908  11.730  1.00  0.00    -0.000 C 
BRANCH  22  23
ATOM     23  C   UNL     1      15.812  13.714  11.405  1.00  0.00    -0.000 C 
BRANCH  23  24
ATOM     24  C   UNL     1      15.040  13.893  10.085  1.00  0.00    -0.000 C 
BRANCH  24  25
ATOM     25  C   UNL     1      14.168  12.692   9.679  1.00  0.00    -0.003 C 
ATOM     26  C   UNL     1      13.792  12.696   8.197  1.00  0.00     0.004 C 
ENDBRANCH  24  25
ENDBRANCH  23  24
ENDBRANCH  22  23
ENDBRANCH  21  22
ENDBRANCH  20  21
ENDBRANCH  19  20
ENDBRANCH  18  19
ENDBRANCH  17  18
ENDBRANCH  16  17
ENDBRANCH  15  16
ENDBRANCH   1  15
TORSDOF 22
ENDMDL
MODEL 4
REMARK VINA RESULT:    -0.167      1.133      1.681
REMARK INTER + INTRA:          -2.309
REMARK INTER:                  -0.700
REMARK INTRA:                  -1.610
REMARK UNBOUND:                -1.929
REMARK SMILES CCCCCCCCCCCCCCCCCCCCCCCC(=O)[O-]
REMARK SMILES IDX 13 1 14 2 15 3 16 4 17 5 18 6 19 7 20 8 21 9 22 10 23 11
REMARK SMILES IDX 24 12 25 13 26 14 12 15 11 16 10 17 9 18 8 19 7 20 6 21 5 22
REMARK SMILES IDX 4 23 3 24 2 25 1 26
REMARK H PARENT
REMARK Flexibility Score: inf
ROOT
ATOM      1  C   UNL     1      15.012  15.147   8.008  1.00  0.00     0.000 C 
ENDROOT
BRANCH   1   2
ATOM      2  C   UNL     1      16.132  15.945   7.326  1.00  0.00     0.000 C 
BRANCH   2   3
ATOM      3  C   UNL     1      15.761  16.384   5.901  1.00  0.00     0.000 C 
BRANCH   3   4
ATOM      4  C   UNL     1      14.261  16.222   5.603  1.00  0.00     0.000 C 
BRANCH   4   5
ATOM      5  C   UNL     1      13.854  16.808   4.239  1.00  0.00     0.000 C 
BRANCH   5   6
ATOM      6  C   UNL     1      12.679  16.094   3.546  1.00  0.00     0.000 C 
BRANCH   6   7
ATOM      7  C   UNL     1      12.559  16.449   2.054  1.00  0.00     0.000 C 
BRANCH   7   8
ATOM      8  C   UNL     1      13.674  17.397   1.575  1.00  0.00     0.000 C 
BRANCH   8   9
ATOM      9  C   UNL     1      13.331  18.225   0.322  1.00  0.00     0.000 C 
BRANCH   9  10
ATOM     10  C   UNL     1      13.810  19.690   0.395  1.00  0.00     0.006 C 
BRANCH  10  11
ATOM     11  C   UNL     1      13.621  20.430  -0.936  1.00  0.00     0.053 C 
BRANCH  11  12
ATOM     12  C   UNL     1      14.828  21.253  -1.254  1.00  0.00     0.041 C 
ATOM     13  O   UNL     1      14.840  21.992  -2.274  1.00  0.00    -0.550 OA
ATOM     14  O   UNL     1      15.962  21.159  -0.457  1.00  0.00    -0.550 OA
ENDBRANCH  11  12
ENDBRANCH  10  11
ENDBRANCH   9  10
ENDBRANCH   8   9
ENDBRANCH   7   8
ENDBRANCH   6   7
ENDBRANCH   5   6
ENDBRANCH   4   5
ENDBRANCH   3   4
ENDBRANCH   2   3
ENDBRANCH   1   2
BRANCH   1  15
ATOM     15  C   UNL     1      15.164  13.645   7.741  1.00  0.00     0.000 C 
BRANCH  15  16
ATOM     16  C   UNL     1      14.475  12.819   8.840  1.00  0.00     0.000 C 
BRANCH  16  17
ATOM     17  C   UNL     1      14.432  13.547  10.192  1.00  0.00     0.000 C 
BRANCH  17  18
ATOM     18  C   UNL     1      15.618  13.178  11.102  1.00  0.00    -0.000 C 
BRANCH  18  19
ATOM     19  C   UNL     1      15.573  13.917  12.449  1.00  0.00    -0.000 C 
BRANCH  19  20
ATOM     20  C   UNL     1      16.230  15.306  12.385  1.00  0.00    -0.000 C 
BRANCH  20  21
ATOM     21  C   UNL     1      17.046  15.519  11.098  1.00  0.00    -0.000 C 
BRANCH  21  22
ATOM     22  C   UNL     1      17.065  16.987  10.616  1.00  0.00    -0.000 C 
BRANCH  22  23
ATOM     23  C   UNL     1      16.170  17.894  11.478  1.00  0.00    -0.000 C 
BRANCH  23  24
ATOM     24  C   UNL     1      15.629  19.110  10.703  1.00  0.00    -0.000 C 
BRANCH  24  25
ATOM     25  C   UNL     1      14.930  20.170  11.573  1.00  0.00    -0.003 C 
ATOM     26  C   UNL     1      13.465  19.843  11.859  1.00  0.00     0.004 C 
ENDBRANCH  24  25
ENDBRANCH  23  24
ENDBRANCH  22  23
ENDBRANCH  21  22
ENDBRANCH  20  21
ENDBRANCH  19  20
ENDBRANCH  18  19
ENDBRANCH  17  18
ENDBRANCH  16  17
ENDBRANCH  15  16
ENDBRANCH   1  15
TORSDOF 22
ENDMDL
MODEL 5
REMARK VINA RESULT:    -0.130      3.467      9.038
REMARK INTER + INTRA:          -2.227
REMARK INTER:                  -0.181
REMARK INTRA:                  -2.046
REMARK UNBOUND:                -1.929
REMARK SMILES CCCCCCCCCCCCCCCCCCCCCCCC(=O)[O-]
REMARK SMILES IDX 13 1 14 2 15 3 16 4 17 5 18 6 19 7 20 8 21 9 22 10 23 11
REMARK SMILES IDX 24 12 25 13 26 14 12 15 11 16 10 17 9 18 8 19 7 20 6 21 5 22
REMARK SMILES IDX 4 23 3 24 2 25 1 26
REMARK H PARENT
REMARK Flexibility Score: inf
ROOT
ATOM      1  C   UNL     1      16.235  13.478   7.406  1.00  0.00     0.000 C 
ENDROOT
BRANCH   1   2
ATOM      2  C   UNL     1      14.741  13.134   7.498  1.00  0.00     0.000 C 
BRANCH   2   3
ATOM      3  C   UNL     1      14.143  13.461   8.875  1.00  0.00     0.000 C 
BRANCH   3   4
ATOM      4  C   UNL     1      14.603  12.482   9.969  1.00  0.00     0.000 C 
BRANCH   4   5
ATOM      5  C   UNL     1      13.945  12.756  11.333  1.00  0.00     0.000 C 
BRANCH   5   6
ATOM      6  C   UNL     1      14.832  13.501  12.348  1.00  0.00     0.000 C 
BRANCH   6   7
ATOM      7  C   UNL     1      15.959  14.307  11.679  1.00  0.00     0.000 C 
BRANCH   7   8
ATOM      8  C   UNL     1      16.527  15.407  12.592  1.00  0.00     0.000 C 
BRANCH   8   9
ATOM      9  C   UNL     1      16.732  16.776  11.914  1.00  0.00     0.000 C 
BRANCH   9  10
ATOM     10  C   UNL     1      15.773  17.034  10.733  1.00  0.00     0.006 C 
BRANCH  10  11
ATOM     11  C   UNL     1      15.934  18.445  10.153  1.00  0.00     0.053 C 
BRANCH  11  12
ATOM     12  C   UNL     1      15.219  19.446  11.004  1.00  0.00     0.041 C 
ATOM     13  O   UNL     1      14.116  19.152  11.537  1.00  0.00    -0.550 OA
ATOM     14  O   UNL     1      15.743  20.723  11.162  1.00  0.00    -0.550 OA
ENDBRANCH  11  12
ENDBRANCH  10  11
ENDBRANCH   9  10
ENDBRANCH   8   9
ENDBRANCH   7   8
ENDBRANCH   6   7
ENDBRANCH   5   6
ENDBRANCH   4   5
ENDBRANCH   3   4
ENDBRANCH   2   3
ENDBRANCH   1   2
BRANCH   1  15
ATOM     15  C   UNL     1      16.576  14.694   8.276  1.00  0.00     0.000 C 
BRANCH  15  16
ATOM     16  C   UNL     1      17.112  15.850   7.418  1.00  0.00     0.000 C 
BRANCH  16  17
ATOM     17  C   UNL     1      16.417  15.950   6.052  1.00  0.00     0.000 C 
BRANCH  17  18
ATOM     18  C   UNL     1      15.039  16.631   6.136  1.00  0.00    -0.000 C 
BRANCH  18  19
ATOM     19  C   UNL     1      14.003  15.969   5.214  1.00  0.00    -0.000 C 
BRANCH  19  20
ATOM     20  C   UNL     1      13.619  16.858   4.020  1.00  0.00    -0.000 C 
BRANCH  20  21
ATOM     21  C   UNL     1      12.638  16.167   3.056  1.00  0.00    -0.000 C 
BRANCH  21  22
ATOM     22  C   UNL     1      12.645  16.768   1.633  1.00  0.00    -0.000 C 
BRANCH  22  23
ATOM     23  C   UNL     1      13.841  17.709   1.404  1.00  0.00    -0.000 C 
BRANCH  23  24
ATOM     24  C   UNL     1      13.591  18.732   0.281  1.00  0.00    -0.000 C 
BRANCH  24  25
ATOM     25  C   UNL     1      14.634  19.860   0.190  1.00  0.00    -0.003 C 
ATOM     26  C   UNL     1      16.069  19.367   0.380  1.00  0.00     0.004 C 
ENDBRANCH  24  25
ENDBRANCH  23  24
ENDBRANCH  22  23
ENDBRANCH  21  22
ENDBRANCH  20  21
ENDBRANCH  19  20
ENDBRANCH  18  19
ENDBRANCH  17  18
ENDBRANCH  16  17
ENDBRANCH  15  16
ENDBRANCH   1  15
TORSDOF 22
ENDMDL
MODEL 6
REMARK VINA RESULT:     0.214      3.568      9.870
REMARK INTER + INTRA:          -1.440
REMARK INTER:                  -0.050
REMARK INTRA:                  -1.390
REMARK UNBOUND:                -1.929
REMARK SMILES CCCCCCCCCCCCCCCCCCCCCCCC(=O)[O-]
REMARK SMILES IDX 13 1 14 2 15 3 16 4 17 5 18 6 19 7 20 8 21 9 22 10 23 11
REMARK SMILES IDX 24 12 25 13 26 14 12 15 11 16 10 17 9 18 8 19 7 20 6 21 5 22
REMARK SMILES IDX 4 23 3 24 2 25 1 26
REMARK H PARENT
REMARK Flexibility Score: inf
ROOT
ATOM      1  C   UNL     1      15.641  15.007   7.945  1.00  0.00     0.000 C 
ENDROOT
BRANCH   1   2
ATOM      2  C   UNL     1      15.425  13.505   7.708  1.00  0.00     0.000 C 
BRANCH   2   3
ATOM      3  C   UNL     1      14.192  12.962   8.445  1.00  0.00     0.000 C 
BRANCH   3   4
ATOM      4  C   UNL     1      14.531  12.410   9.840  1.00  0.00     0.000 C 
BRANCH   4   5
ATOM      5  C   UNL     1      14.550  13.500  10.927  1.00  0.00     0.000 C 
BRANCH   5   6
ATOM      6  C   UNL     1      15.596  13.295  12.038  1.00  0.00     0.000 C 
BRANCH   6   7
ATOM      7  C   UNL     1      17.030  13.606  11.574  1.00  0.00     0.000 C 
BRANCH   7   8
ATOM      8  C   UNL     1      17.125  14.910  10.763  1.00  0.00     0.000 C 
BRANCH   8   9
ATOM      9  C   UNL     1      17.117  16.202  11.604  1.00  0.00     0.000 C 
BRANCH   9  10
ATOM     10  C   UNL     1      16.192  17.302  11.046  1.00  0.00     0.006 C 
BRANCH  10  11
ATOM     11  C   UNL     1      15.566  18.154  12.158  1.00  0.00     0.053 C 
BRANCH  11  12
ATOM     12  C   UNL     1      15.193  19.505  11.635  1.00  0.00     0.041 C 
ATOM     13  O   UNL     1      16.088  20.318  11.284  1.00  0.00    -0.550 OA
ATOM     14  O   UNL     1      13.858  19.888  11.592  1.00  0.00    -0.550 OA
ENDBRANCH  11  12
ENDBRANCH  10  11
ENDBRANCH   9  10
ENDBRANCH   8   9
ENDBRANCH   7   8
ENDBRANCH   6   7
ENDBRANCH   5   6
ENDBRANCH   4   5
ENDBRANCH   3   4
ENDBRANCH   2   3
ENDBRANCH   1   2
BRANCH   1  15
ATOM     15  C   UNL     1      15.509  15.796   6.637  1.00  0.00     0.000 C 
BRANCH  15  16
ATOM     16  C   UNL     1      14.147  15.537   5.975  1.00  0.00     0.000 C 
BRANCH  16  17
ATOM     17  C   UNL     1      13.872  16.477   4.791  1.00  0.00     0.000 C 
BRANCH  17  18
ATOM     18  C   UNL     1      13.028  15.812   3.689  1.00  0.00    -0.000 C 
BRANCH  18  19
ATOM     19  C   UNL     1      12.308  16.841   2.803  1.00  0.00    -0.000 C 
BRANCH  19  20
ATOM     20  C   UNL     1      12.722  16.744   1.326  1.00  0.00    -0.000 C 
BRANCH  20  21
ATOM     21  C   UNL     1      13.444  18.007   0.827  1.00  0.00    -0.000 C 
BRANCH  21  22
ATOM     22  C   UNL     1      12.698  18.734  -0.315  1.00  0.00    -0.000 C 
BRANCH  22  23
ATOM     23  C   UNL     1      13.406  20.034  -0.737  1.00  0.00    -0.000 C 
BRANCH  23  24
ATOM     24  C   UNL     1      14.804  20.184  -0.110  1.00  0.00    -0.000 C 
BRANCH  24  25
ATOM     25  C   UNL     1      15.595  21.417  -0.584  1.00  0.00    -0.003 C 
ATOM     26  C   UNL     1      15.087  21.983  -1.910  1.00  0.00     0.004 C 
ENDBRANCH  24  25
ENDBRANCH  23  24
ENDBRANCH  22  23
ENDBRANCH  21  22
ENDBRANCH  20  21
ENDBRANCH  19  20
ENDBRANCH  18  19
ENDBRANCH  17  18
ENDBRANCH  16  17
ENDBRANCH  15  16
ENDBRANCH   1  15
TORSDOF 22
ENDMDL
MODEL 7
REMARK VINA RESULT:     0.269      4.113     10.519
REMARK INTER + INTRA:          -1.314
REMARK INTER:                   0.258
REMARK INTRA:                  -1.571
REMARK UNBOUND:                -1.929
REMARK SMILES CCCCCCCCCCCCCCCCCCCCCCCC(=O)[O-]
REMARK SMILES IDX 13 1 14 2 15 3 16 4 17 5 18 6 19 7 20 8 21 9 22 10 23 11
REMARK SMILES IDX 24 12 25 13 26 14 12 15 11 16 10 17 9 18 8 19 7 20 6 21 5 22
REMARK SMILES IDX 4 23 3 24 2 25 1 26
REMARK H PARENT
REMARK Flexibility Score: inf
ROOT
ATOM      1  C   UNL     1      15.742  14.844   6.754  1.00  0.00     0.000 C 
ENDROOT
BRANCH   1   2
ATOM      2  C   UNL     1      16.849  15.129   7.780  1.00  0.00     0.000 C 
BRANCH   2   3
ATOM      3  C   UNL     1      16.426  16.167   8.831  1.00  0.00     0.000 C 
BRANCH   3   4
ATOM      4  C   UNL     1      17.058  17.549   8.587  1.00  0.00     0.000 C 
BRANCH   4   5
ATOM      5  C   UNL     1      17.007  18.459   9.827  1.00  0.00     0.000 C 
BRANCH   5   6
ATOM      6  C   UNL     1      15.633  18.545  10.517  1.00  0.00     0.000 C 
BRANCH   6   7
ATOM      7  C   UNL     1      15.662  18.050  11.973  1.00  0.00     0.000 C 
BRANCH   7   8
ATOM      8  C   UNL     1      16.928  17.238  12.301  1.00  0.00     0.000 C 
BRANCH   8   9
ATOM      9  C   UNL     1      16.678  15.923  13.065  1.00  0.00     0.000 C 
BRANCH   9  10
ATOM     10  C   UNL     1      16.693  14.670  12.166  1.00  0.00     0.006 C 
BRANCH  10  11
ATOM     11  C   UNL     1      15.333  13.961  12.136  1.00  0.00     0.053 C 
BRANCH  11  12
ATOM     12  C   UNL     1      15.397  12.740  11.274  1.00  0.00     0.041 C 
ATOM     13  O   UNL     1      15.976  12.783  10.156  1.00  0.00    -0.550 OA
ATOM     14  O   UNL     1      14.767  11.570  11.680  1.00  0.00    -0.550 OA
ENDBRANCH  11  12
ENDBRANCH  10  11
ENDBRANCH   9  10
ENDBRANCH   8   9
ENDBRANCH   7   8
ENDBRANCH   6   7
ENDBRANCH   5   6
ENDBRANCH   4   5
ENDBRANCH   3   4
ENDBRANCH   2   3
ENDBRANCH   1   2
BRANCH   1  15
ATOM     15  C   UNL     1      14.754  16.013   6.669  1.00  0.00     0.000 C 
BRANCH  15  16
ATOM     16  C   UNL     1      14.836  16.703   5.298  1.00  0.00     0.000 C 
BRANCH  16  17
ATOM     17  C   UNL     1      13.581  16.476   4.442  1.00  0.00     0.000 C 
BRANCH  17  18
ATOM     18  C   UNL     1      13.627  17.244   3.108  1.00  0.00    -0.000 C 
BRANCH  18  19
ATOM     19  C   UNL     1      12.909  16.493   1.976  1.00  0.00    -0.000 C 
BRANCH  19  20
ATOM     20  C   UNL     1      12.526  17.412   0.804  1.00  0.00    -0.000 C 
BRANCH  20  21
ATOM     21  C   UNL     1      13.634  18.420   0.454  1.00  0.00    -0.000 C 
BRANCH  21  22
ATOM     22  C   UNL     1      13.141  19.603  -0.409  1.00  0.00    -0.000 C 
BRANCH  22  23
ATOM     23  C   UNL     1      14.022  20.853  -0.241  1.00  0.00    -0.000 C 
BRANCH  23  24
ATOM     24  C   UNL     1      14.596  21.364  -1.576  1.00  0.00    -0.000 C 
BRANCH  24  25
ATOM     25  C   UNL     1      15.972  22.044  -1.468  1.00  0.00    -0.003 C 
ATOM     26  C   UNL     1      16.654  21.810  -0.120  1.00  0.00     0.004 C 
ENDBRANCH  24  25
ENDBRANCH  23  24
ENDBRANCH  22  23
ENDBRANCH  21  22
ENDBRANCH  20  21
ENDBRANCH  19  20
ENDBRANCH  18  19
ENDBRANCH  17  18
ENDBRANCH  16  17
ENDBRANCH  15  16
ENDBRANCH   1  15
TORSDOF 22
ENDMDL
MODEL 8
REMARK VINA RESULT:     0.425      2.410      4.250
REMARK INTER + INTRA:          -0.957
REMARK INTER:                  -0.102
REMARK INTRA:                  -0.856
REMARK UNBOUND:                -1.929
REMARK SMILES CCCCCCCCCCCCCCCCCCCCCCCC(=O)[O-]
REMARK SMILES IDX 13 1 14 2 15 3 16 4 17 5 18 6 19 7 20 8 21 9 22 10 23 11
REMARK SMILES IDX 24 12 25 13 26 14 12 15 11 16 10 17 9 18 8 19 7 20 6 21 5 22
REMARK SMILES IDX 4 23 3 24 2 25 1 26
REMARK H PARENT
REMARK Flexibility Score: inf
ROOT
ATOM      1  C   UNL     1      14.432  16.095   6.195  1.00  0.00     0.000 C 
ENDROOT
BRANCH   1   2
ATOM      2  C   UNL     1      14.194  16.548   4.747  1.00  0.00     0.000 C 
BRANCH   2   3
ATOM      3  C   UNL     1      12.991  15.847   4.099  1.00  0.00     0.000 C 
BRANCH   3   4
ATOM      4  C   UNL     1      12.341  16.691   2.989  1.00  0.00     0.000 C 
BRANCH   4   5
ATOM      5  C   UNL     1      13.022  16.506   1.620  1.00  0.00     0.000 C 
BRANCH   5   6
ATOM      6  C   UNL     1      13.387  17.813   0.891  1.00  0.00     0.000 C 
BRANCH   6   7
ATOM      7  C   UNL     1      12.295  18.275  -0.090  1.00  0.00     0.000 C 
BRANCH   7   8
ATOM      8  C   UNL     1      12.636  19.612  -0.773  1.00  0.00     0.000 C 
BRANCH   8   9
ATOM      9  C   UNL     1      14.005  20.208  -0.390  1.00  0.00     0.000 C 
BRANCH   9  10
ATOM     10  C   UNL     1      14.527  21.259  -1.393  1.00  0.00     0.006 C 
BRANCH  10  11
ATOM     11  C   UNL     1      16.027  21.530  -1.220  1.00  0.00     0.053 C 
BRANCH  11  12
ATOM     12  C   UNL     1      16.590  20.683  -0.124  1.00  0.00     0.041 C 
ATOM     13  O   UNL     1      16.665  19.433  -0.264  1.00  0.00    -0.550 OA
ATOM     14  O   UNL     1      16.979  21.267   1.075  1.00  0.00    -0.550 OA
ENDBRANCH  11  12
ENDBRANCH  10  11
ENDBRANCH   9  10
ENDBRANCH   8   9
ENDBRANCH   7   8
ENDBRANCH   6   7
ENDBRANCH   5   6
ENDBRANCH   4   5
ENDBRANCH   3   4
ENDBRANCH   2   3
ENDBRANCH   1   2
BRANCH   1  15
ATOM     15  C   UNL     1      15.930  16.003   6.506  1.00  0.00     0.000 C 
BRANCH  15  16
ATOM     16  C   UNL     1      16.164  15.485   7.933  1.00  0.00     0.000 C 
BRANCH  16  17
ATOM     17  C   UNL     1      16.929  16.486   8.812  1.00  0.00     0.000 C 
BRANCH  17  18
ATOM     18  C   UNL     1      17.009  17.888   8.182  1.00  0.00    -0.000 C 
BRANCH  18  19
ATOM     19  C   UNL     1      16.802  19.006   9.216  1.00  0.00    -0.000 C 
BRANCH  19  20
ATOM     20  C   UNL     1      16.122  18.507  10.501  1.00  0.00    -0.000 C 
BRANCH  20  21
ATOM     21  C   UNL     1      16.476  19.360  11.731  1.00  0.00    -0.000 C 
BRANCH  21  22
ATOM     22  C   UNL     1      16.259  20.875  11.515  1.00  0.00    -0.000 C 
BRANCH  22  23
ATOM     23  C   UNL     1      15.752  21.578  12.786  1.00  0.00    -0.000 C 
BRANCH  23  24
ATOM     24  C   UNL     1      14.320  22.125  12.635  1.00  0.00    -0.000 C 
BRANCH  24  25
ATOM     25  C   UNL     1      13.335  21.172  11.936  1.00  0.00    -0.003 C 
ATOM     26  C   UNL     1      12.983  19.946  12.779  1.00  0.00     0.004 C 
ENDBRANCH  24  25
ENDBRANCH  23  24
ENDBRANCH  22  23
ENDBRANCH  21  22
ENDBRANCH  20  21
ENDBRANCH  19  20
ENDBRANCH  18  19
ENDBRANCH  17  18
ENDBRANCH  16  17
ENDBRANCH  15  16
ENDBRANCH   1  15
TORSDOF 22
ENDMDL
