MODEL 1
REMARK VINA RESULT:     6.399      0.000      0.000
REMARK INTER + INTRA:           7.093
REMARK INTER:                   6.960
REMARK INTRA:                   0.133
REMARK UNBOUND:                 0.133
REMARK SMILES CC(=O)[C@H]1CC[C@H]2[C@H]3CC=C4C[C@@H](O)CC[C@]4(C)[C@@H]3CC[C@@]12C
REMARK SMILES IDX 4 1 5 2 6 3 7 4 22 5 21 6 20 7 19 8 8 9 9 10 10 11 11 12
REMARK SMILES IDX 17 13 16 14 15 15 13 16 12 17 18 18 23 19 2 20 1 21 3 22
REMARK SMILES IDX 14 23
REMARK H PARENT 14 24
REMARK Flexibility Score: inf
ROOT
ATOM      1  C   UNL     1       8.012 -36.008  14.592  1.00  0.00     0.062 C 
ATOM      2  C   UNL     1       8.319 -36.170  13.093  1.00  0.00     0.012 C 
ATOM      3  C   UNL     1       9.719 -35.591  12.875  1.00  0.00     0.005 C 
ATOM      4  C   UNL     1      10.219 -35.113  14.249  1.00  0.00    -0.001 C 
ATOM      5  C   UNL     1       8.941 -34.864  15.078  1.00  0.00    -0.020 C 
ATOM      6  C   UNL     1       8.329 -33.472  14.740  1.00  0.00     0.008 C 
ATOM      7  C   UNL     1       9.345 -32.336  14.858  1.00  0.00     0.005 C 
ATOM      8  C   UNL     1      10.563 -32.555  13.925  1.00  0.00     0.003 C 
ATOM      9  C   UNL     1      11.226 -33.919  14.227  1.00  0.00     0.000 C 
ATOM     10  C   UNL     1      12.351 -34.172  13.215  1.00  0.00     0.031 C 
ATOM     11  C   UNL     1      13.347 -33.060  13.225  1.00  0.00    -0.027 C 
ATOM     12  C   UNL     1      13.014 -31.778  13.483  1.00  0.00    -0.065 C 
ATOM     13  C   UNL     1      11.607 -31.354  13.951  1.00  0.00    -0.008 C 
ATOM     14  C   UNL     1      11.770 -30.759  15.389  1.00  0.00     0.014 C 
ATOM     15  C   UNL     1      12.893 -29.711  15.521  1.00  0.00     0.033 C 
ATOM     16  C   UNL     1      14.242 -30.249  15.008  1.00  0.00     0.118 C 
ATOM     17  C   UNL     1      14.125 -30.751  13.564  1.00  0.00     0.063 C 
ATOM     18  C   UNL     1      11.076 -30.256  12.991  1.00  0.00     0.016 C 
ATOM     19  C   UNL     1       9.227 -34.992  16.595  1.00  0.00     0.012 C 
ENDROOT
BRANCH   1  20
ATOM     20  C   UNL     1       6.542 -35.832  14.954  1.00  0.00     0.133 C 
ATOM     21  C   UNL     1       5.875 -36.592  16.067  1.00  0.00     0.088 C 
ATOM     22  O   UNL     1       5.878 -35.021  14.327  1.00  0.00    -0.300 OA
ENDBRANCH   1  20
BRANCH  16  23
ATOM     23  O   UNL     1      15.241 -29.267  15.115  1.00  0.00    -0.393 OA
ATOM     24  H   UNL     1      15.957 -29.627  15.703  1.00  0.00     0.210 HD
ENDBRANCH  16  23
TORSDOF 2
ENDMDL
MODEL 2
REMARK VINA RESULT:     8.607      1.499      7.046
REMARK INTER + INTRA:           9.494
REMARK INTER:                   8.767
REMARK INTRA:                   0.727
REMARK UNBOUND:                 0.133
REMARK SMILES CC(=O)[C@H]1CC[C@H]2[C@H]3CC=C4C[C@@H](O)CC[C@]4(C)[C@@H]3CC[C@@]12C
REMARK SMILES IDX 4 1 5 2 6 3 7 4 22 5 21 6 20 7 19 8 8 9 9 10 10 11 11 12
REMARK SMILES IDX 17 13 16 14 15 15 13 16 12 17 18 18 23 19 2 20 1 21 3 22
REMARK SMILES IDX 14 23
REMARK H PARENT 14 24
REMARK Flexibility Score: inf
ROOT
ATOM      1  C   UNL     1      13.127 -30.370  15.126  1.00  0.00     0.062 C 
ATOM      2  C   UNL     1      12.213 -29.587  16.084  1.00  0.00     0.012 C 
ATOM      3  C   UNL     1      11.118 -30.559  16.528  1.00  0.00     0.005 C 
ATOM      4  C   UNL     1      11.414 -31.902  15.839  1.00  0.00    -0.001 C 
ATOM      5  C   UNL     1      12.256 -31.540  14.597  1.00  0.00    -0.020 C 
ATOM      6  C   UNL     1      11.339 -31.065  13.430  1.00  0.00     0.008 C 
ATOM      7  C   UNL     1      10.217 -32.056  13.120  1.00  0.00     0.005 C 
ATOM      8  C   UNL     1       9.316 -32.309  14.355  1.00  0.00     0.003 C 
ATOM      9  C   UNL     1      10.171 -32.802  15.545  1.00  0.00     0.000 C 
ATOM     10  C   UNL     1       9.283 -32.930  16.790  1.00  0.00     0.031 C 
ATOM     11  C   UNL     1       8.120 -33.831  16.534  1.00  0.00    -0.027 C 
ATOM     12  C   UNL     1       7.526 -33.939  15.328  1.00  0.00    -0.065 C 
ATOM     13  C   UNL     1       8.083 -33.269  14.055  1.00  0.00    -0.008 C 
ATOM     14  C   UNL     1       8.472 -34.422  13.071  1.00  0.00     0.014 C 
ATOM     15  C   UNL     1       7.375 -35.488  12.875  1.00  0.00     0.033 C 
ATOM     16  C   UNL     1       6.894 -36.070  14.217  1.00  0.00     0.118 C 
ATOM     17  C   UNL     1       6.418 -34.959  15.163  1.00  0.00     0.063 C 
ATOM     18  C   UNL     1       6.962 -32.401  13.422  1.00  0.00     0.016 C 
ATOM     19  C   UNL     1      13.141 -32.733  14.157  1.00  0.00     0.012 C 
ENDROOT
BRANCH   1  20
ATOM     20  C   UNL     1      13.816 -29.549  14.043  1.00  0.00     0.133 C 
ATOM     21  C   UNL     1      15.014 -28.681  14.309  1.00  0.00     0.088 C 
ATOM     22  O   UNL     1      13.389 -29.613  12.899  1.00  0.00    -0.300 OA
ENDBRANCH   1  20
BRANCH  16  23
ATOM     23  O   UNL     1       5.878 -37.018  14.011  1.00  0.00    -0.393 OA
ATOM     24  H   UNL     1       5.901 -37.281  13.053  1.00  0.00     0.210 HD
ENDBRANCH  16  23
TORSDOF 2
ENDMDL
MODEL 3
REMARK VINA RESULT:     8.891      1.397      2.619
REMARK INTER + INTRA:           9.804
REMARK INTER:                   9.807
REMARK INTRA:                  -0.003
REMARK UNBOUND:                 0.133
REMARK SMILES CC(=O)[C@H]1CC[C@H]2[C@H]3CC=C4C[C@@H](O)CC[C@]4(C)[C@@H]3CC[C@@]12C
REMARK SMILES IDX 4 1 5 2 6 3 7 4 22 5 21 6 20 7 19 8 8 9 9 10 10 11 11 12
REMARK SMILES IDX 17 13 16 14 15 15 13 16 12 17 18 18 23 19 2 20 1 21 3 22
REMARK SMILES IDX 14 23
REMARK H PARENT 14 24
REMARK Flexibility Score: inf
ROOT
ATOM      1  C   UNL     1       6.550 -34.576  14.185  1.00  0.00     0.062 C 
ATOM      2  C   UNL     1       5.917 -33.200  14.449  1.00  0.00     0.012 C 
ATOM      3  C   UNL     1       6.914 -32.161  13.932  1.00  0.00     0.005 C 
ATOM      4  C   UNL     1       8.108 -32.941  13.357  1.00  0.00    -0.001 C 
ATOM      5  C   UNL     1       8.074 -34.311  14.069  1.00  0.00    -0.020 C 
ATOM      6  C   UNL     1       8.729 -34.213  15.480  1.00  0.00     0.008 C 
ATOM      7  C   UNL     1      10.128 -33.598  15.441  1.00  0.00     0.005 C 
ATOM      8  C   UNL     1      10.113 -32.175  14.829  1.00  0.00     0.003 C 
ATOM      9  C   UNL     1       9.488 -32.210  13.414  1.00  0.00     0.000 C 
ATOM     10  C   UNL     1       9.370 -30.778  12.875  1.00  0.00     0.031 C 
ATOM     11  C   UNL     1      10.695 -30.090  12.877  1.00  0.00    -0.027 C 
ATOM     12  C   UNL     1      11.649 -30.334  13.799  1.00  0.00    -0.065 C 
ATOM     13  C   UNL     1      11.535 -31.461  14.846  1.00  0.00    -0.008 C 
ATOM     14  C   UNL     1      12.693 -32.471  14.550  1.00  0.00     0.014 C 
ATOM     15  C   UNL     1      14.079 -31.817  14.378  1.00  0.00     0.033 C 
ATOM     16  C   UNL     1      14.058 -30.701  13.318  1.00  0.00     0.118 C 
ATOM     17  C   UNL     1      12.990 -29.648  13.642  1.00  0.00     0.063 C 
ATOM     18  C   UNL     1      11.728 -30.846  16.258  1.00  0.00     0.016 C 
ATOM     19  C   UNL     1       8.762 -35.401  13.212  1.00  0.00     0.012 C 
ENDROOT
BRANCH   1  20
ATOM     20  C   UNL     1       6.170 -35.683  15.162  1.00  0.00     0.133 C 
ATOM     21  C   UNL     1       6.036 -37.124  14.758  1.00  0.00     0.088 C 
ATOM     22  O   UNL     1       5.984 -35.390  16.334  1.00  0.00    -0.300 OA
ENDBRANCH   1  20
BRANCH  16  23
ATOM     23  O   UNL     1      15.325 -30.105  13.200  1.00  0.00    -0.393 OA
ATOM     24  H   UNL     1      15.769 -30.163  14.087  1.00  0.00     0.210 HD
ENDBRANCH  16  23
TORSDOF 2
ENDMDL
