MODEL 1
REMARK VINA RESULT:    -4.670      0.000      0.000
REMARK INTER + INTRA:          -5.037
REMARK INTER:                  -4.943
REMARK INTRA:                  -0.094
REMARK UNBOUND:                -0.094
REMARK SMILES C=C(C)[C@H]1CC=C(C)C(=O)C1
REMARK SMILES IDX 8 1 7 2 6 3 5 4 4 5 11 6 9 7 10 8 2 9 1 10 3 11
REMARK H PARENT
REMARK Flexibility Score: inf
ROOT
ATOM      1  C   UNL     1       9.996  43.164  20.273  1.00  0.00     0.048 C 
ATOM      2  C   UNL     1      11.023  44.064  19.643  1.00  0.00    -0.012 C 
ATOM      3  C   UNL     1      12.281  43.628  19.459  1.00  0.00    -0.019 C 
ATOM      4  C   UNL     1      13.364  44.519  18.906  1.00  0.00     0.036 C 
ATOM      5  C   UNL     1      12.781  45.569  17.942  1.00  0.00     0.025 C 
ATOM      6  C   UNL     1      11.663  46.370  18.635  1.00  0.00     0.089 C 
ATOM      7  C   UNL     1      10.649  45.445  19.247  1.00  0.00     0.158 C 
ATOM      8  O   UNL     1       9.482  45.870  19.466  1.00  0.00    -0.295 OA
ENDROOT
BRANCH   5   9
ATOM      9  C   UNL     1      13.867  46.487  17.396  1.00  0.00    -0.077 C 
ATOM     10  C   UNL     1      13.582  47.358  16.415  1.00  0.00     0.008 C 
ATOM     11  C   UNL     1      15.275  46.447  17.937  1.00  0.00     0.039 C 
ENDBRANCH   5   9
TORSDOF 1
ENDMDL
MODEL 2
REMARK VINA RESULT:    -4.614      2.175      4.169
REMARK INTER + INTRA:          -4.978
REMARK INTER:                  -4.880
REMARK INTRA:                  -0.098
REMARK UNBOUND:                -0.094
REMARK SMILES C=C(C)[C@H]1CC=C(C)C(=O)C1
REMARK SMILES IDX 8 1 7 2 6 3 5 4 4 5 11 6 9 7 10 8 2 9 1 10 3 11
REMARK H PARENT
REMARK Flexibility Score: inf
ROOT
ATOM      1  C   UNL     1      16.168  44.367  18.614  1.00  0.00     0.048 C 
ATOM      2  C   UNL     1      14.709  44.717  18.717  1.00  0.00    -0.012 C 
ATOM      3  C   UNL     1      13.841  43.844  19.257  1.00  0.00    -0.019 C 
ATOM      4  C   UNL     1      12.360  44.116  19.309  1.00  0.00     0.036 C 
ATOM      5  C   UNL     1      12.076  45.626  19.417  1.00  0.00     0.025 C 
ATOM      6  C   UNL     1      12.769  46.385  18.270  1.00  0.00     0.089 C 
ATOM      7  C   UNL     1      14.226  46.021  18.198  1.00  0.00     0.158 C 
ATOM      8  O   UNL     1      15.032  46.818  17.646  1.00  0.00    -0.295 OA
ENDROOT
BRANCH   5   9
ATOM      9  C   UNL     1      10.580  45.911  19.448  1.00  0.00    -0.077 C 
ATOM     10  C   UNL     1       9.714  44.928  19.745  1.00  0.00     0.008 C 
ATOM     11  C   UNL     1      10.035  47.287  19.152  1.00  0.00     0.039 C 
ENDBRANCH   5   9
TORSDOF 1
ENDMDL
MODEL 3
REMARK VINA RESULT:    -4.547      1.379      2.282
REMARK INTER + INTRA:          -4.907
REMARK INTER:                  -4.815
REMARK INTRA:                  -0.092
REMARK UNBOUND:                -0.094
REMARK SMILES C=C(C)[C@H]1CC=C(C)C(=O)C1
REMARK SMILES IDX 8 1 7 2 6 3 5 4 4 5 11 6 9 7 10 8 2 9 1 10 3 11
REMARK H PARENT
REMARK Flexibility Score: inf
ROOT
ATOM      1  C   UNL     1       9.887  43.779  20.585  1.00  0.00     0.048 C 
ATOM      2  C   UNL     1      10.884  44.502  19.722  1.00  0.00    -0.012 C 
ATOM      3  C   UNL     1      10.670  45.781  19.368  1.00  0.00    -0.019 C 
ATOM      4  C   UNL     1      11.599  46.520  18.439  1.00  0.00     0.036 C 
ATOM      5  C   UNL     1      13.045  46.007  18.575  1.00  0.00     0.025 C 
ATOM      6  C   UNL     1      13.095  44.483  18.359  1.00  0.00     0.089 C 
ATOM      7  C   UNL     1      12.094  43.789  19.241  1.00  0.00     0.158 C 
ATOM      8  O   UNL     1      12.269  42.575  19.532  1.00  0.00    -0.295 OA
ENDROOT
BRANCH   5   9
ATOM      9  C   UNL     1      13.985  46.735  17.624  1.00  0.00    -0.077 C 
ATOM     10  C   UNL     1      15.307  46.742  17.860  1.00  0.00     0.008 C 
ATOM     11  C   UNL     1      13.467  47.457  16.405  1.00  0.00     0.039 C 
ENDBRANCH   5   9
TORSDOF 1
ENDMDL
MODEL 4
REMARK VINA RESULT:    -4.430      2.349      4.253
REMARK INTER + INTRA:          -4.783
REMARK INTER:                  -4.696
REMARK INTRA:                  -0.087
REMARK UNBOUND:                -0.094
REMARK SMILES C=C(C)[C@H]1CC=C(C)C(=O)C1
REMARK SMILES IDX 8 1 7 2 6 3 5 4 4 5 11 6 9 7 10 8 2 9 1 10 3 11
REMARK H PARENT
REMARK Flexibility Score: inf
ROOT
ATOM      1  C   UNL     1      16.177  44.569  18.326  1.00  0.00     0.048 C 
ATOM      2  C   UNL     1      14.770  45.060  18.529  1.00  0.00    -0.012 C 
ATOM      3  C   UNL     1      13.892  45.032  17.512  1.00  0.00    -0.019 C 
ATOM      4  C   UNL     1      12.497  45.587  17.645  1.00  0.00     0.036 C 
ATOM      5  C   UNL     1      11.981  45.455  19.090  1.00  0.00     0.025 C 
ATOM      6  C   UNL     1      12.967  46.114  20.072  1.00  0.00     0.089 C 
ATOM      7  C   UNL     1      14.362  45.598  19.851  1.00  0.00     0.158 C 
ATOM      8  O   UNL     1      15.200  45.669  20.790  1.00  0.00    -0.295 OA
ENDROOT
BRANCH   5   9
ATOM      9  C   UNL     1      10.580  46.033  19.237  1.00  0.00    -0.077 C 
ATOM     10  C   UNL     1       9.575  45.259  19.675  1.00  0.00     0.008 C 
ATOM     11  C   UNL     1      10.285  47.475  18.900  1.00  0.00     0.039 C 
ENDBRANCH   5   9
TORSDOF 1
ENDMDL
MODEL 5
REMARK VINA RESULT:    -4.428      6.054      7.483
REMARK INTER + INTRA:          -4.780
REMARK INTER:                  -4.683
REMARK INTRA:                  -0.097
REMARK UNBOUND:                -0.094
REMARK SMILES C=C(C)[C@H]1CC=C(C)C(=O)C1
REMARK SMILES IDX 8 1 7 2 6 3 5 4 4 5 11 6 9 7 10 8 2 9 1 10 3 11
REMARK H PARENT
REMARK Flexibility Score: inf
ROOT
ATOM      1  C   UNL     1      17.930  43.763  19.917  1.00  0.00     0.048 C 
ATOM      2  C   UNL     1      18.457  45.123  20.283  1.00  0.00    -0.012 C 
ATOM      3  C   UNL     1      19.780  45.359  20.280  1.00  0.00    -0.019 C 
ATOM      4  C   UNL     1      20.358  46.680  20.716  1.00  0.00     0.036 C 
ATOM      5  C   UNL     1      19.385  47.837  20.421  1.00  0.00     0.025 C 
ATOM      6  C   UNL     1      18.013  47.560  21.063  1.00  0.00     0.089 C 
ATOM      7  C   UNL     1      17.510  46.198  20.672  1.00  0.00     0.158 C 
ATOM      8  O   UNL     1      16.273  45.963  20.723  1.00  0.00    -0.295 OA
ENDROOT
BRANCH   5   9
ATOM      9  C   UNL     1      19.955  49.174  20.879  1.00  0.00    -0.077 C 
ATOM     10  C   UNL     1      19.693  49.629  22.115  1.00  0.00     0.008 C 
ATOM     11  C   UNL     1      20.820  50.013  19.970  1.00  0.00     0.039 C 
ENDBRANCH   5   9
TORSDOF 1
ENDMDL
MODEL 6
REMARK VINA RESULT:    -4.365      1.360      2.894
REMARK INTER + INTRA:          -4.714
REMARK INTER:                  -4.619
REMARK INTRA:                  -0.095
REMARK UNBOUND:                -0.094
REMARK SMILES C=C(C)[C@H]1CC=C(C)C(=O)C1
REMARK SMILES IDX 8 1 7 2 6 3 5 4 4 5 11 6 9 7 10 8 2 9 1 10 3 11
REMARK H PARENT
REMARK Flexibility Score: inf
ROOT
ATOM      1  C   UNL     1       9.736  47.599  18.774  1.00  0.00     0.048 C 
ATOM      2  C   UNL     1      10.938  46.696  18.726  1.00  0.00    -0.012 C 
ATOM      3  C   UNL     1      11.958  46.972  17.896  1.00  0.00    -0.019 C 
ATOM      4  C   UNL     1      13.146  46.055  17.755  1.00  0.00     0.036 C 
ATOM      5  C   UNL     1      13.425  45.302  19.069  1.00  0.00     0.025 C 
ATOM      6  C   UNL     1      12.163  44.554  19.537  1.00  0.00     0.089 C 
ATOM      7  C   UNL     1      10.982  45.484  19.582  1.00  0.00     0.158 C 
ATOM      8  O   UNL     1      10.003  45.199  20.324  1.00  0.00    -0.295 OA
ENDROOT
BRANCH   5   9
ATOM      9  C   UNL     1      14.611  44.357  18.928  1.00  0.00    -0.077 C 
ATOM     10  C   UNL     1      15.695  44.736  18.232  1.00  0.00     0.008 C 
ATOM     11  C   UNL     1      14.604  42.986  19.560  1.00  0.00     0.039 C 
ENDBRANCH   5   9
TORSDOF 1
ENDMDL
MODEL 7
REMARK VINA RESULT:    -4.342      1.812      2.947
REMARK INTER + INTRA:          -4.690
REMARK INTER:                  -4.592
REMARK INTRA:                  -0.098
REMARK UNBOUND:                -0.094
REMARK SMILES C=C(C)[C@H]1CC=C(C)C(=O)C1
REMARK SMILES IDX 8 1 7 2 6 3 5 4 4 5 11 6 9 7 10 8 2 9 1 10 3 11
REMARK H PARENT
REMARK Flexibility Score: inf
ROOT
ATOM      1  C   UNL     1       9.877  45.869  19.495  1.00  0.00     0.048 C 
ATOM      2  C   UNL     1      11.296  45.389  19.356  1.00  0.00    -0.012 C 
ATOM      3  C   UNL     1      12.275  46.255  19.046  1.00  0.00    -0.019 C 
ATOM      4  C   UNL     1      13.696  45.808  18.817  1.00  0.00     0.036 C 
ATOM      5  C   UNL     1      14.029  44.563  19.661  1.00  0.00     0.025 C 
ATOM      6  C   UNL     1      13.012  43.440  19.384  1.00  0.00     0.089 C 
ATOM      7  C   UNL     1      11.606  43.949  19.539  1.00  0.00     0.158 C 
ATOM      8  O   UNL     1      10.679  43.129  19.781  1.00  0.00    -0.295 OA
ENDROOT
BRANCH   5   9
ATOM      9  C   UNL     1      15.457  44.092  19.419  1.00  0.00    -0.077 C 
ATOM     10  C   UNL     1      16.093  44.425  18.283  1.00  0.00     0.008 C 
ATOM     11  C   UNL     1      16.191  43.252  20.435  1.00  0.00     0.039 C 
ENDBRANCH   5   9
TORSDOF 1
ENDMDL
MODEL 8
REMARK VINA RESULT:    -4.239      6.623      7.863
REMARK INTER + INTRA:          -4.580
REMARK INTER:                  -4.484
REMARK INTRA:                  -0.096
REMARK UNBOUND:                -0.094
REMARK SMILES C=C(C)[C@H]1CC=C(C)C(=O)C1
REMARK SMILES IDX 8 1 7 2 6 3 5 4 4 5 11 6 9 7 10 8 2 9 1 10 3 11
REMARK H PARENT
REMARK Flexibility Score: inf
ROOT
ATOM      1  C   UNL     1      17.946  43.545  21.008  1.00  0.00     0.048 C 
ATOM      2  C   UNL     1      18.354  44.979  20.812  1.00  0.00    -0.012 C 
ATOM      3  C   UNL     1      17.428  45.953  20.816  1.00  0.00    -0.019 C 
ATOM      4  C   UNL     1      17.779  47.393  20.545  1.00  0.00     0.036 C 
ATOM      5  C   UNL     1      19.211  47.713  21.013  1.00  0.00     0.025 C 
ATOM      6  C   UNL     1      20.215  46.737  20.372  1.00  0.00     0.089 C 
ATOM      7  C   UNL     1      19.784  45.314  20.591  1.00  0.00     0.158 C 
ATOM      8  O   UNL     1      20.646  44.395  20.538  1.00  0.00    -0.295 OA
ENDROOT
BRANCH   5   9
ATOM      9  C   UNL     1      19.580  49.162  20.722  1.00  0.00    -0.077 C 
ATOM     10  C   UNL     1      19.420  49.663  19.487  1.00  0.00     0.008 C 
ATOM     11  C   UNL     1      20.128  50.065  21.801  1.00  0.00     0.039 C 
ENDBRANCH   5   9
TORSDOF 1
ENDMDL
MODEL 9
REMARK VINA RESULT:    -4.162     10.943     12.082
REMARK INTER + INTRA:          -4.500
REMARK INTER:                  -4.403
REMARK INTRA:                  -0.096
REMARK UNBOUND:                -0.094
REMARK SMILES C=C(C)[C@H]1CC=C(C)C(=O)C1
REMARK SMILES IDX 8 1 7 2 6 3 5 4 4 5 11 6 9 7 10 8 2 9 1 10 3 11
REMARK H PARENT
REMARK Flexibility Score: inf
ROOT
ATOM      1  C   UNL     1      15.490  42.075  29.594  1.00  0.00     0.048 C 
ATOM      2  C   UNL     1      14.897  40.877  28.903  1.00  0.00    -0.012 C 
ATOM      3  C   UNL     1      13.809  41.014  28.127  1.00  0.00    -0.019 C 
ATOM      4  C   UNL     1      13.133  39.832  27.481  1.00  0.00     0.036 C 
ATOM      5  C   UNL     1      14.147  38.715  27.169  1.00  0.00     0.025 C 
ATOM      6  C   UNL     1      14.920  38.322  28.441  1.00  0.00     0.089 C 
ATOM      7  C   UNL     1      15.506  39.538  29.103  1.00  0.00     0.158 C 
ATOM      8  O   UNL     1      16.497  39.403  29.870  1.00  0.00    -0.295 OA
ENDROOT
BRANCH   5   9
ATOM      9  C   UNL     1      13.468  37.508  26.535  1.00  0.00    -0.077 C 
ATOM     10  C   UNL     1      12.811  36.624  27.303  1.00  0.00     0.008 C 
ATOM     11  C   UNL     1      13.511  37.275  25.044  1.00  0.00     0.039 C 
ENDBRANCH   5   9
TORSDOF 1
ENDMDL
