MODEL 1
REMARK VINA RESULT:    -5.185      0.000      0.000
REMARK INTER + INTRA:          -8.462
REMARK INTER:                  -7.913
REMARK INTRA:                  -0.549
REMARK UNBOUND:                -0.549
REMARK SMILES CCCCCCCCCC=CC(=O)[O-]
REMARK SMILES IDX 7 1 8 2 9 3 10 4 11 5 12 6 13 7 14 8 6 9 5 10 4 11 3 12 2 13
REMARK SMILES IDX 1 14
REMARK H PARENT
REMARK Flexibility Score: inf
ROOT
ATOM      1  C   UNL     1      79.590  58.885  10.333  1.00  0.00     0.000 C 
ENDROOT
BRANCH   1   2
ATOM      2  C   UNL     1      80.671  59.974  10.238  1.00  0.00     0.004 C 
BRANCH   2   3
ATOM      3  C   UNL     1      81.898  59.664  11.110  1.00  0.00     0.027 C 
BRANCH   3   4
ATOM      4  C   UNL     1      83.096  60.447  10.656  1.00  0.00    -0.025 C 
ATOM      5  C   UNL     1      82.969  61.643  10.070  1.00  0.00     0.020 C 
BRANCH   5   6
ATOM      6  C   UNL     1      84.130  62.433   9.630  1.00  0.00     0.064 C 
ATOM      7  O   UNL     1      84.528  63.430  10.290  1.00  0.00    -0.545 OA
ATOM      8  O   UNL     1      84.799  62.073   8.468  1.00  0.00    -0.545 OA
ENDBRANCH   5   6
ENDBRANCH   3   4
ENDBRANCH   2   3
ENDBRANCH   1   2
BRANCH   1   9
ATOM      9  C   UNL     1      80.169  57.512  10.719  1.00  0.00     0.000 C 
BRANCH   9  10
ATOM     10  C   UNL     1      79.086  56.431  10.858  1.00  0.00     0.000 C 
BRANCH  10  11
ATOM     11  C   UNL     1      78.089  56.439   9.687  1.00  0.00    -0.000 C 
BRANCH  11  12
ATOM     12  C   UNL     1      78.235  55.215   8.766  1.00  0.00    -0.000 C 
BRANCH  12  13
ATOM     13  C   UNL     1      77.745  55.422   7.322  1.00  0.00    -0.003 C 
ATOM     14  C   UNL     1      77.777  56.886   6.884  1.00  0.00     0.004 C 
ENDBRANCH  12  13
ENDBRANCH  11  12
ENDBRANCH  10  11
ENDBRANCH   9  10
ENDBRANCH   1   9
TORSDOF 9
ENDMDL
MODEL 2
REMARK VINA RESULT:    -5.110      1.751      3.021
REMARK INTER + INTRA:          -8.347
REMARK INTER:                  -7.440
REMARK INTRA:                  -0.906
REMARK UNBOUND:                -0.549
REMARK SMILES CCCCCCCCCC=CC(=O)[O-]
REMARK SMILES IDX 7 1 8 2 9 3 10 4 11 5 12 6 13 7 14 8 6 9 5 10 4 11 3 12 2 13
REMARK SMILES IDX 1 14
REMARK H PARENT
REMARK Flexibility Score: inf
ROOT
ATOM      1  C   UNL     1      78.674  56.614  10.683  1.00  0.00     0.000 C 
ENDROOT
BRANCH   1   2
ATOM      2  C   UNL     1      79.924  57.491  10.513  1.00  0.00     0.004 C 
BRANCH   2   3
ATOM      3  C   UNL     1      79.578  58.967  10.257  1.00  0.00     0.027 C 
BRANCH   3   4
ATOM      4  C   UNL     1      80.783  59.845  10.438  1.00  0.00    -0.025 C 
ATOM      5  C   UNL     1      81.870  59.415  11.089  1.00  0.00     0.020 C 
BRANCH   5   6
ATOM      6  C   UNL     1      83.066  60.253  11.266  1.00  0.00     0.064 C 
ATOM      7  O   UNL     1      83.454  61.036  10.358  1.00  0.00    -0.545 OA
ATOM      8  O   UNL     1      83.779  60.182  12.455  1.00  0.00    -0.545 OA
ENDBRANCH   5   6
ENDBRANCH   3   4
ENDBRANCH   2   3
ENDBRANCH   1   2
BRANCH   1   9
ATOM      9  C   UNL     1      77.692  56.752   9.507  1.00  0.00     0.000 C 
BRANCH   9  10
ATOM     10  C   UNL     1      78.295  56.285   8.172  1.00  0.00     0.000 C 
BRANCH  10  11
ATOM     11  C   UNL     1      77.782  54.899   7.745  1.00  0.00    -0.000 C 
BRANCH  11  12
ATOM     12  C   UNL     1      78.809  53.779   7.987  1.00  0.00    -0.000 C 
BRANCH  12  13
ATOM     13  C   UNL     1      80.259  54.257   8.189  1.00  0.00    -0.003 C 
ATOM     14  C   UNL     1      80.835  53.863   9.549  1.00  0.00     0.004 C 
ENDBRANCH  12  13
ENDBRANCH  11  12
ENDBRANCH  10  11
ENDBRANCH   9  10
ENDBRANCH   1   9
TORSDOF 9
ENDMDL
MODEL 3
REMARK VINA RESULT:    -4.879      5.219      7.424
REMARK INTER + INTRA:          -7.994
REMARK INTER:                  -6.580
REMARK INTRA:                  -1.415
REMARK UNBOUND:                -0.549
REMARK SMILES CCCCCCCCCC=CC(=O)[O-]
REMARK SMILES IDX 7 1 8 2 9 3 10 4 11 5 12 6 13 7 14 8 6 9 5 10 4 11 3 12 2 13
REMARK SMILES IDX 1 14
REMARK H PARENT
REMARK Flexibility Score: inf
ROOT
ATOM      1  C   UNL     1      77.468  56.730   8.161  1.00  0.00     0.000 C 
ENDROOT
BRANCH   1   2
ATOM      2  C   UNL     1      78.372  55.798   7.339  1.00  0.00     0.004 C 
BRANCH   2   3
ATOM      3  C   UNL     1      78.105  54.313   7.629  1.00  0.00     0.027 C 
BRANCH   3   4
ATOM      4  C   UNL     1      79.389  53.562   7.836  1.00  0.00    -0.025 C 
ATOM      5  C   UNL     1      79.413  52.371   8.445  1.00  0.00     0.020 C 
BRANCH   5   6
ATOM      6  C   UNL     1      80.658  51.613   8.646  1.00  0.00     0.064 C 
ATOM      7  O   UNL     1      80.714  50.659   9.468  1.00  0.00    -0.545 OA
ATOM      8  O   UNL     1      81.789  51.953   7.918  1.00  0.00    -0.545 OA
ENDBRANCH   5   6
ENDBRANCH   3   4
ENDBRANCH   2   3
ENDBRANCH   1   2
BRANCH   1   9
ATOM      9  C   UNL     1      77.809  56.711   9.662  1.00  0.00     0.000 C 
BRANCH   9  10
ATOM     10  C   UNL     1      78.946  57.679  10.024  1.00  0.00     0.000 C 
BRANCH  10  11
ATOM     11  C   UNL     1      80.162  56.960  10.635  1.00  0.00    -0.000 C 
BRANCH  11  12
ATOM     12  C   UNL     1      79.868  55.496  11.006  1.00  0.00    -0.000 C 
BRANCH  12  13
ATOM     13  C   UNL     1      81.097  54.570  11.026  1.00  0.00    -0.003 C 
ATOM     14  C   UNL     1      82.142  54.937   9.973  1.00  0.00     0.004 C 
ENDBRANCH  12  13
ENDBRANCH  11  12
ENDBRANCH  10  11
ENDBRANCH   9  10
ENDBRANCH   1   9
TORSDOF 9
ENDMDL
MODEL 4
REMARK VINA RESULT:    -4.877      1.912      2.477
REMARK INTER + INTRA:          -7.991
REMARK INTER:                  -7.370
REMARK INTRA:                  -0.621
REMARK UNBOUND:                -0.549
REMARK SMILES CCCCCCCCCC=CC(=O)[O-]
REMARK SMILES IDX 7 1 8 2 9 3 10 4 11 5 12 6 13 7 14 8 6 9 5 10 4 11 3 12 2 13
REMARK SMILES IDX 1 14
REMARK H PARENT
REMARK Flexibility Score: inf
ROOT
ATOM      1  C   UNL     1      79.850  59.280  10.276  1.00  0.00     0.000 C 
ENDROOT
BRANCH   1   2
ATOM      2  C   UNL     1      81.102  60.170  10.289  1.00  0.00     0.004 C 
BRANCH   2   3
ATOM      3  C   UNL     1      82.169  59.673  11.276  1.00  0.00     0.027 C 
BRANCH   3   4
ATOM      4  C   UNL     1      83.506  59.534  10.606  1.00  0.00    -0.025 C 
ATOM      5  C   UNL     1      83.750  58.553   9.730  1.00  0.00     0.020 C 
BRANCH   5   6
ATOM      6  C   UNL     1      85.047  58.406   9.051  1.00  0.00     0.064 C 
ATOM      7  O   UNL     1      85.740  57.363   9.188  1.00  0.00    -0.545 OA
ATOM      8  O   UNL     1      85.516  59.436   8.246  1.00  0.00    -0.545 OA
ENDBRANCH   5   6
ENDBRANCH   3   4
ENDBRANCH   2   3
ENDBRANCH   1   2
BRANCH   1   9
ATOM      9  C   UNL     1      80.173  57.804  10.568  1.00  0.00     0.000 C 
BRANCH   9  10
ATOM     10  C   UNL     1      78.942  57.007  11.029  1.00  0.00     0.000 C 
BRANCH  10  11
ATOM     11  C   UNL     1      78.448  56.014   9.962  1.00  0.00    -0.000 C 
BRANCH  11  12
ATOM     12  C   UNL     1      77.603  56.685   8.865  1.00  0.00    -0.000 C 
BRANCH  12  13
ATOM     13  C   UNL     1      77.761  56.079   7.459  1.00  0.00    -0.003 C 
ATOM     14  C   UNL     1      77.993  54.568   7.480  1.00  0.00     0.004 C 
ENDBRANCH  12  13
ENDBRANCH  11  12
ENDBRANCH  10  11
ENDBRANCH   9  10
ENDBRANCH   1   9
TORSDOF 9
ENDMDL
MODEL 5
REMARK VINA RESULT:    -4.872      2.562      3.164
REMARK INTER + INTRA:          -7.984
REMARK INTER:                  -7.531
REMARK INTRA:                  -0.454
REMARK UNBOUND:                -0.549
REMARK SMILES CCCCCCCCCC=CC(=O)[O-]
REMARK SMILES IDX 7 1 8 2 9 3 10 4 11 5 12 6 13 7 14 8 6 9 5 10 4 11 3 12 2 13
REMARK SMILES IDX 1 14
REMARK H PARENT
REMARK Flexibility Score: inf
ROOT
ATOM      1  C   UNL     1      81.002  59.805  10.504  1.00  0.00     0.000 C 
ENDROOT
BRANCH   1   2
ATOM      2  C   UNL     1      82.215  58.878  10.683  1.00  0.00     0.004 C 
BRANCH   2   3
ATOM      3  C   UNL     1      83.524  59.654  10.895  1.00  0.00     0.027 C 
BRANCH   3   4
ATOM      4  C   UNL     1      83.652  60.122  12.316  1.00  0.00    -0.025 C 
ATOM      5  C   UNL     1      84.848  60.285  12.894  1.00  0.00     0.020 C 
BRANCH   5   6
ATOM      6  C   UNL     1      84.997  60.754  14.280  1.00  0.00     0.064 C 
ATOM      7  O   UNL     1      85.586  61.837  14.542  1.00  0.00    -0.545 OA
ATOM      8  O   UNL     1      84.478  59.992  15.318  1.00  0.00    -0.545 OA
ENDBRANCH   5   6
ENDBRANCH   3   4
ENDBRANCH   2   3
ENDBRANCH   1   2
BRANCH   1   9
ATOM      9  C   UNL     1      79.692  59.026  10.285  1.00  0.00     0.000 C 
BRANCH   9  10
ATOM     10  C   UNL     1      79.871  57.508  10.444  1.00  0.00     0.000 C 
BRANCH  10  11
ATOM     11  C   UNL     1      78.539  56.778  10.687  1.00  0.00    -0.000 C 
BRANCH  11  12
ATOM     12  C   UNL     1      77.646  56.729   9.435  1.00  0.00    -0.000 C 
BRANCH  12  13
ATOM     13  C   UNL     1      78.331  56.190   8.166  1.00  0.00    -0.003 C 
ATOM     14  C   UNL     1      77.880  54.778   7.796  1.00  0.00     0.004 C 
ENDBRANCH  12  13
ENDBRANCH  11  12
ENDBRANCH  10  11
ENDBRANCH   9  10
ENDBRANCH   1   9
TORSDOF 9
ENDMDL
MODEL 6
REMARK VINA RESULT:    -4.856      2.466      4.456
REMARK INTER + INTRA:          -7.960
REMARK INTER:                  -6.873
REMARK INTRA:                  -1.086
REMARK UNBOUND:                -0.549
REMARK SMILES CCCCCCCCCC=CC(=O)[O-]
REMARK SMILES IDX 7 1 8 2 9 3 10 4 11 5 12 6 13 7 14 8 6 9 5 10 4 11 3 12 2 13
REMARK SMILES IDX 1 14
REMARK H PARENT
REMARK Flexibility Score: inf
ROOT
ATOM      1  C   UNL     1      78.089  56.338   7.780  1.00  0.00     0.000 C 
ENDROOT
BRANCH   1   2
ATOM      2  C   UNL     1      77.429  56.841   9.073  1.00  0.00     0.004 C 
BRANCH   2   3
ATOM      3  C   UNL     1      78.404  56.866  10.261  1.00  0.00     0.027 C 
BRANCH   3   4
ATOM      4  C   UNL     1      79.223  58.125  10.264  1.00  0.00    -0.025 C 
ATOM      5  C   UNL     1      80.467  58.149  10.754  1.00  0.00     0.020 C 
BRANCH   5   6
ATOM      6  C   UNL     1      81.291  59.368  10.755  1.00  0.00     0.064 C 
ATOM      7  O   UNL     1      82.336  59.448  11.454  1.00  0.00    -0.545 OA
ATOM      8  O   UNL     1      80.911  60.448   9.970  1.00  0.00    -0.545 OA
ENDBRANCH   5   6
ENDBRANCH   3   4
ENDBRANCH   2   3
ENDBRANCH   1   2
BRANCH   1   9
ATOM      9  C   UNL     1      77.840  54.839   7.535  1.00  0.00     0.000 C 
BRANCH   9  10
ATOM     10  C   UNL     1      78.866  53.944   8.248  1.00  0.00     0.000 C 
BRANCH  10  11
ATOM     11  C   UNL     1      80.311  54.436   8.059  1.00  0.00    -0.000 C 
BRANCH  11  12
ATOM     12  C   UNL     1      81.316  53.705   8.966  1.00  0.00    -0.000 C 
BRANCH  12  13
ATOM     13  C   UNL     1      81.808  54.514  10.180  1.00  0.00    -0.003 C 
ATOM     14  C   UNL     1      80.845  54.460  11.366  1.00  0.00     0.004 C 
ENDBRANCH  12  13
ENDBRANCH  11  12
ENDBRANCH  10  11
ENDBRANCH   9  10
ENDBRANCH   1   9
TORSDOF 9
ENDMDL
MODEL 7
REMARK VINA RESULT:    -4.843      4.455      5.513
REMARK INTER + INTRA:          -7.940
REMARK INTER:                  -6.580
REMARK INTRA:                  -1.360
REMARK UNBOUND:                -0.549
REMARK SMILES CCCCCCCCCC=CC(=O)[O-]
REMARK SMILES IDX 7 1 8 2 9 3 10 4 11 5 12 6 13 7 14 8 6 9 5 10 4 11 3 12 2 13
REMARK SMILES IDX 1 14
REMARK H PARENT
REMARK Flexibility Score: inf
ROOT
ATOM      1  C   UNL     1      78.814  57.782   9.966  1.00  0.00     0.000 C 
ENDROOT
BRANCH   1   2
ATOM      2  C   UNL     1      79.961  57.112  10.741  1.00  0.00     0.004 C 
BRANCH   2   3
ATOM      3  C   UNL     1      79.536  55.787  11.393  1.00  0.00     0.027 C 
BRANCH   3   4
ATOM      4  C   UNL     1      80.575  54.723  11.182  1.00  0.00    -0.025 C 
ATOM      5  C   UNL     1      81.815  55.025  10.783  1.00  0.00     0.020 C 
BRANCH   5   6
ATOM      6  C   UNL     1      82.851  54.000  10.583  1.00  0.00     0.064 C 
ATOM      7  O   UNL     1      83.651  54.063   9.612  1.00  0.00    -0.545 OA
ATOM      8  O   UNL     1      82.949  52.945  11.480  1.00  0.00    -0.545 OA
ENDBRANCH   5   6
ENDBRANCH   3   4
ENDBRANCH   2   3
ENDBRANCH   1   2
BRANCH   1   9
ATOM      9  C   UNL     1      77.790  56.764   9.432  1.00  0.00     0.000 C 
BRANCH   9  10
ATOM     10  C   UNL     1      77.732  56.732   7.897  1.00  0.00     0.000 C 
BRANCH  10  11
ATOM     11  C   UNL     1      77.743  55.300   7.335  1.00  0.00    -0.000 C 
BRANCH  11  12
ATOM     12  C   UNL     1      78.393  54.286   8.293  1.00  0.00    -0.000 C 
BRANCH  12  13
ATOM     13  C   UNL     1      79.485  53.402   7.663  1.00  0.00    -0.003 C 
ATOM     14  C   UNL     1      80.774  54.166   7.362  1.00  0.00     0.004 C 
ENDBRANCH  12  13
ENDBRANCH  11  12
ENDBRANCH  10  11
ENDBRANCH   9  10
ENDBRANCH   1   9
TORSDOF 9
ENDMDL
MODEL 8
REMARK VINA RESULT:    -4.840      4.417      7.545
REMARK INTER + INTRA:          -7.935
REMARK INTER:                  -7.373
REMARK INTRA:                  -0.562
REMARK UNBOUND:                -0.549
REMARK SMILES CCCCCCCCCC=CC(=O)[O-]
REMARK SMILES IDX 7 1 8 2 9 3 10 4 11 5 12 6 13 7 14 8 6 9 5 10 4 11 3 12 2 13
REMARK SMILES IDX 1 14
REMARK H PARENT
REMARK Flexibility Score: inf
ROOT
ATOM      1  C   UNL     1      78.236  56.370  10.039  1.00  0.00     0.000 C 
ENDROOT
BRANCH   1   2
ATOM      2  C   UNL     1      77.771  56.793   8.637  1.00  0.00     0.004 C 
BRANCH   2   3
ATOM      3  C   UNL     1      77.845  55.644   7.620  1.00  0.00     0.027 C 
BRANCH   3   4
ATOM      4  C   UNL     1      78.916  54.659   7.993  1.00  0.00    -0.025 C 
ATOM      5  C   UNL     1      78.763  53.347   7.784  1.00  0.00     0.020 C 
BRANCH   5   6
ATOM      6  C   UNL     1      79.805  52.367   8.130  1.00  0.00     0.064 C 
ATOM      7  O   UNL     1      80.420  52.429   9.228  1.00  0.00    -0.545 OA
ATOM      8  O   UNL     1      80.116  51.356   7.230  1.00  0.00    -0.545 OA
ENDBRANCH   5   6
ENDBRANCH   3   4
ENDBRANCH   2   3
ENDBRANCH   1   2
BRANCH   1   9
ATOM      9  C   UNL     1      79.300  57.320  10.619  1.00  0.00     0.000 C 
BRANCH   9  10
ATOM     10  C   UNL     1      79.284  58.705   9.953  1.00  0.00     0.000 C 
BRANCH  10  11
ATOM     11  C   UNL     1      80.359  59.646  10.523  1.00  0.00    -0.000 C 
BRANCH  11  12
ATOM     12  C   UNL     1      81.709  58.944  10.752  1.00  0.00    -0.000 C 
BRANCH  12  13
ATOM     13  C   UNL     1      82.810  59.832  11.361  1.00  0.00    -0.003 C 
ATOM     14  C   UNL     1      83.275  60.941  10.417  1.00  0.00     0.004 C 
ENDBRANCH  12  13
ENDBRANCH  11  12
ENDBRANCH  10  11
ENDBRANCH   9  10
ENDBRANCH   1   9
TORSDOF 9
ENDMDL
MODEL 9
REMARK VINA RESULT:    -4.809      3.415      6.269
REMARK INTER + INTRA:          -7.889
REMARK INTER:                  -6.950
REMARK INTRA:                  -0.939
REMARK UNBOUND:                -0.549
REMARK SMILES CCCCCCCCCC=CC(=O)[O-]
REMARK SMILES IDX 7 1 8 2 9 3 10 4 11 5 12 6 13 7 14 8 6 9 5 10 4 11 3 12 2 13
REMARK SMILES IDX 1 14
REMARK H PARENT
REMARK Flexibility Score: inf
ROOT
ATOM      1  C   UNL     1      78.435  56.008   8.134  1.00  0.00     0.000 C 
ENDROOT
BRANCH   1   2
ATOM      2  C   UNL     1      77.931  54.566   7.970  1.00  0.00     0.004 C 
BRANCH   2   3
ATOM      3  C   UNL     1      79.061  53.531   8.073  1.00  0.00     0.027 C 
BRANCH   3   4
ATOM      4  C   UNL     1      80.342  54.171   8.526  1.00  0.00    -0.025 C 
ATOM      5  C   UNL     1      80.869  53.909   9.728  1.00  0.00     0.020 C 
BRANCH   5   6
ATOM      6  C   UNL     1      82.129  54.515  10.186  1.00  0.00     0.064 C 
ATOM      7  O   UNL     1      82.523  55.622   9.731  1.00  0.00    -0.545 OA
ATOM      8  O   UNL     1      82.897  53.855  11.136  1.00  0.00    -0.545 OA
ENDBRANCH   5   6
ENDBRANCH   3   4
ENDBRANCH   2   3
ENDBRANCH   1   2
BRANCH   1   9
ATOM      9  C   UNL     1      77.666  56.781   9.221  1.00  0.00     0.000 C 
BRANCH   9  10
ATOM     10  C   UNL     1      78.417  56.824  10.561  1.00  0.00     0.000 C 
BRANCH  10  11
ATOM     11  C   UNL     1      79.770  57.549  10.458  1.00  0.00    -0.000 C 
BRANCH  11  12
ATOM     12  C   UNL     1      79.622  59.076  10.329  1.00  0.00    -0.000 C 
BRANCH  12  13
ATOM     13  C   UNL     1      80.936  59.869  10.437  1.00  0.00    -0.003 C 
ATOM     14  C   UNL     1      82.126  59.004  10.853  1.00  0.00     0.004 C 
ENDBRANCH  12  13
ENDBRANCH  11  12
ENDBRANCH  10  11
ENDBRANCH   9  10
ENDBRANCH   1   9
TORSDOF 9
ENDMDL
