MODEL 1
REMARK VINA RESULT:    -5.482      0.000      0.000
REMARK INTER + INTRA:          -6.570
REMARK INTER:                  -6.444
REMARK INTRA:                  -0.126
REMARK UNBOUND:                -0.126
REMARK SMILES O=C([O-])C=Cc1ccc(O)c(O)c1
REMARK SMILES IDX 6 1 13 2 7 3 11 4 8 5 9 6 5 7 4 8 2 9 1 10 3 11 12 12 10 14
REMARK H PARENT 12 13 10 15
REMARK Flexibility Score: inf
ROOT
ATOM      1  C   UNL     1      -2.985   7.946  -0.542  1.00  0.00    -0.022 A 
ATOM      2  C   UNL     1      -3.857   8.300   0.502  1.00  0.00     0.058 A 
ATOM      3  C   UNL     1      -3.348   8.262  -1.868  1.00  0.00     0.012 A 
ATOM      4  C   UNL     1      -5.056   8.979   0.235  1.00  0.00     0.157 A 
ATOM      5  C   UNL     1      -4.542   8.937  -2.132  1.00  0.00     0.051 A 
ATOM      6  C   UNL     1      -5.398   9.299  -1.083  1.00  0.00     0.157 A 
ENDROOT
BRANCH   1   7
ATOM      7  C   UNL     1      -1.735   7.220  -0.208  1.00  0.00     0.010 C 
ATOM      8  C   UNL     1      -0.783   7.709   0.598  1.00  0.00     0.025 C 
BRANCH   8   9
ATOM      9  C   UNL     1       0.437   6.948   0.911  1.00  0.00     0.064 C 
ATOM     10  O   UNL     1       1.563   7.469   0.704  1.00  0.00    -0.545 OA
ATOM     11  O   UNL     1       0.366   5.660   1.430  1.00  0.00    -0.545 OA
ENDBRANCH   8   9
ENDBRANCH   1   7
BRANCH   4  12
ATOM     12  O   UNL     1      -5.911   9.336   1.276  1.00  0.00    -0.504 OA
ATOM     13  H   UNL     1      -6.537   8.662   1.702  1.00  0.00     0.293 HD
ENDBRANCH   4  12
BRANCH   6  14
ATOM     14  O   UNL     1      -6.588   9.974  -1.344  1.00  0.00    -0.504 OA
ATOM     15  H   UNL     1      -7.026  10.567  -0.648  1.00  0.00     0.293 HD
ENDBRANCH   6  14
TORSDOF 4
ENDMDL
MODEL 2
REMARK VINA RESULT:    -5.448      1.822      2.901
REMARK INTER + INTRA:          -6.530
REMARK INTER:                  -6.395
REMARK INTRA:                  -0.135
REMARK UNBOUND:                -0.126
REMARK SMILES O=C([O-])C=Cc1ccc(O)c(O)c1
REMARK SMILES IDX 6 1 13 2 7 3 11 4 8 5 9 6 5 7 4 8 2 9 1 10 3 11 12 12 10 14
REMARK H PARENT 12 13 10 15
REMARK Flexibility Score: inf
ROOT
ATOM      1  C   UNL     1      -0.950   7.766   0.703  1.00  0.00    -0.022 A 
ATOM      2  C   UNL     1      -2.077   7.254   0.036  1.00  0.00     0.058 A 
ATOM      3  C   UNL     1      -1.023   9.053   1.273  1.00  0.00     0.012 A 
ATOM      4  C   UNL     1      -3.263   8.000  -0.041  1.00  0.00     0.157 A 
ATOM      5  C   UNL     1      -2.205   9.795   1.195  1.00  0.00     0.051 A 
ATOM      6  C   UNL     1      -3.327   9.271   0.541  1.00  0.00     0.157 A 
ENDROOT
BRANCH   1   7
ATOM      7  C   UNL     1       0.284   6.942   0.747  1.00  0.00     0.010 C 
ATOM      8  C   UNL     1       1.469   7.352   0.277  1.00  0.00     0.025 C 
BRANCH   8   9
ATOM      9  C   UNL     1       2.670   6.504   0.353  1.00  0.00     0.064 C 
ATOM     10  O   UNL     1       2.671   5.495   1.104  1.00  0.00    -0.545 OA
ATOM     11  O   UNL     1       3.807   6.801  -0.390  1.00  0.00    -0.545 OA
ENDBRANCH   8   9
ENDBRANCH   1   7
BRANCH   4  12
ATOM     12  O   UNL     1      -4.379   7.483  -0.695  1.00  0.00    -0.504 OA
ATOM     13  H   UNL     1      -4.990   6.808  -0.248  1.00  0.00     0.293 HD
ENDBRANCH   4  12
BRANCH   6  14
ATOM     14  O   UNL     1      -4.507  10.007   0.464  1.00  0.00    -0.504 OA
ATOM     15  H   UNL     1      -5.407   9.557   0.342  1.00  0.00     0.293 HD
ENDBRANCH   6  14
TORSDOF 4
ENDMDL
MODEL 3
REMARK VINA RESULT:    -5.339      1.135      2.128
REMARK INTER + INTRA:          -6.401
REMARK INTER:                  -6.270
REMARK INTRA:                  -0.131
REMARK UNBOUND:                -0.126
REMARK SMILES O=C([O-])C=Cc1ccc(O)c(O)c1
REMARK SMILES IDX 6 1 13 2 7 3 11 4 8 5 9 6 5 7 4 8 2 9 1 10 3 11 12 12 10 14
REMARK H PARENT 12 13 10 15
REMARK Flexibility Score: inf
ROOT
ATOM      1  C   UNL     1      -2.512   8.720   0.252  1.00  0.00    -0.022 A 
ATOM      2  C   UNL     1      -2.980   8.233  -0.981  1.00  0.00     0.058 A 
ATOM      3  C   UNL     1      -3.305   9.643   0.964  1.00  0.00     0.012 A 
ATOM      4  C   UNL     1      -4.225   8.638  -1.485  1.00  0.00     0.157 A 
ATOM      5  C   UNL     1      -4.545  10.046   0.460  1.00  0.00     0.051 A 
ATOM      6  C   UNL     1      -5.009   9.544  -0.763  1.00  0.00     0.157 A 
ENDROOT
BRANCH   1   7
ATOM      7  C   UNL     1      -1.184   8.269   0.736  1.00  0.00     0.010 C 
ATOM      8  C   UNL     1      -0.596   7.131   0.342  1.00  0.00     0.025 C 
BRANCH   8   9
ATOM      9  C   UNL     1       0.730   6.729   0.841  1.00  0.00     0.064 C 
ATOM     10  O   UNL     1       0.863   5.624   1.427  1.00  0.00    -0.545 OA
ATOM     11  O   UNL     1       1.838   7.551   0.676  1.00  0.00    -0.545 OA
ENDBRANCH   8   9
ENDBRANCH   1   7
BRANCH   4  12
ATOM     12  O   UNL     1      -4.688   8.143  -2.703  1.00  0.00    -0.504 OA
ATOM     13  H   UNL     1      -5.170   8.738  -3.367  1.00  0.00     0.293 HD
ENDBRANCH   4  12
BRANCH   6  14
ATOM     14  O   UNL     1      -6.246   9.943  -1.265  1.00  0.00    -0.504 OA
ATOM     15  H   UNL     1      -7.099   9.829  -0.729  1.00  0.00     0.293 HD
ENDBRANCH   6  14
TORSDOF 4
ENDMDL
MODEL 4
REMARK VINA RESULT:    -5.163     11.332     13.228
REMARK INTER + INTRA:          -6.194
REMARK INTER:                  -6.069
REMARK INTRA:                  -0.126
REMARK UNBOUND:                -0.126
REMARK SMILES O=C([O-])C=Cc1ccc(O)c(O)c1
REMARK SMILES IDX 6 1 13 2 7 3 11 4 8 5 9 6 5 7 4 8 2 9 1 10 3 11 12 12 10 14
REMARK H PARENT 12 13 10 15
REMARK Flexibility Score: inf
ROOT
ATOM      1  C   UNL     1      -3.735   0.220  -9.218  1.00  0.00    -0.022 A 
ATOM      2  C   UNL     1      -3.440  -1.131  -8.968  1.00  0.00     0.058 A 
ATOM      3  C   UNL     1      -2.674   1.146  -9.293  1.00  0.00     0.012 A 
ATOM      4  C   UNL     1      -2.112  -1.559  -8.818  1.00  0.00     0.157 A 
ATOM      5  C   UNL     1      -1.352   0.719  -9.143  1.00  0.00     0.051 A 
ATOM      6  C   UNL     1      -1.067  -0.633  -8.908  1.00  0.00     0.157 A 
ENDROOT
BRANCH   1   7
ATOM      7  C   UNL     1      -5.157   0.623  -9.358  1.00  0.00     0.010 C 
ATOM      8  C   UNL     1      -5.864   1.205  -8.381  1.00  0.00     0.025 C 
BRANCH   8   9
ATOM      9  C   UNL     1      -7.270   1.598  -8.569  1.00  0.00     0.064 C 
ATOM     10  O   UNL     1      -7.576   2.818  -8.590  1.00  0.00    -0.545 OA
ATOM     11  O   UNL     1      -8.268   0.643  -8.722  1.00  0.00    -0.545 OA
ENDBRANCH   8   9
ENDBRANCH   1   7
BRANCH   4  12
ATOM     12  O   UNL     1      -1.826  -2.901  -8.580  1.00  0.00    -0.504 OA
ATOM     13  H   UNL     1      -2.121  -3.628  -9.221  1.00  0.00     0.293 HD
ENDBRANCH   4  12
BRANCH   6  14
ATOM     14  O   UNL     1       0.251  -1.061  -8.761  1.00  0.00    -0.504 OA
ATOM     15  H   UNL     1       0.559  -1.961  -9.111  1.00  0.00     0.293 HD
ENDBRANCH   6  14
TORSDOF 4
ENDMDL
MODEL 5
REMARK VINA RESULT:    -5.050     11.280     13.115
REMARK INTER + INTRA:          -6.062
REMARK INTER:                  -5.931
REMARK INTRA:                  -0.131
REMARK UNBOUND:                -0.126
REMARK SMILES O=C([O-])C=Cc1ccc(O)c(O)c1
REMARK SMILES IDX 6 1 13 2 7 3 11 4 8 5 9 6 5 7 4 8 2 9 1 10 3 11 12 12 10 14
REMARK H PARENT 12 13 10 15
REMARK Flexibility Score: inf
ROOT
ATOM      1  C   UNL     1      -3.696   0.318  -9.130  1.00  0.00    -0.022 A 
ATOM      2  C   UNL     1      -2.575   1.157  -9.250  1.00  0.00     0.058 A 
ATOM      3  C   UNL     1      -3.493  -1.064  -8.936  1.00  0.00     0.012 A 
ATOM      4  C   UNL     1      -1.276   0.637  -9.153  1.00  0.00     0.157 A 
ATOM      5  C   UNL     1      -2.198  -1.582  -8.840  1.00  0.00     0.051 A 
ATOM      6  C   UNL     1      -1.087  -0.734  -8.946  1.00  0.00     0.157 A 
ENDROOT
BRANCH   1   7
ATOM      7  C   UNL     1      -5.048   0.916  -9.251  1.00  0.00     0.010 C 
ATOM      8  C   UNL     1      -6.024   0.737  -8.351  1.00  0.00     0.025 C 
BRANCH   8   9
ATOM      9  C   UNL     1      -7.348   1.360  -8.506  1.00  0.00     0.064 C 
ATOM     10  O   UNL     1      -8.348   0.640  -8.762  1.00  0.00    -0.545 OA
ATOM     11  O   UNL     1      -7.515   2.734  -8.375  1.00  0.00    -0.545 OA
ENDBRANCH   8   9
ENDBRANCH   1   7
BRANCH   4  12
ATOM     12  O   UNL     1      -0.169   1.477  -9.263  1.00  0.00    -0.504 OA
ATOM     13  H   UNL     1       0.453   1.431 -10.062  1.00  0.00     0.293 HD
ENDBRANCH   4  12
BRANCH   6  14
ATOM     14  O   UNL     1       0.204  -1.248  -8.849  1.00  0.00    -0.504 OA
ATOM     15  H   UNL     1       0.712  -1.565  -9.667  1.00  0.00     0.293 HD
ENDBRANCH   6  14
TORSDOF 4
ENDMDL
MODEL 6
REMARK VINA RESULT:    -4.854      1.408      6.026
REMARK INTER + INTRA:          -5.832
REMARK INTER:                  -5.693
REMARK INTRA:                  -0.138
REMARK UNBOUND:                -0.126
REMARK SMILES O=C([O-])C=Cc1ccc(O)c(O)c1
REMARK SMILES IDX 6 1 13 2 7 3 11 4 8 5 9 6 5 7 4 8 2 9 1 10 3 11 12 12 10 14
REMARK H PARENT 12 13 10 15
REMARK Flexibility Score: inf
ROOT
ATOM      1  C   UNL     1      -1.644   8.582   0.706  1.00  0.00    -0.022 A 
ATOM      2  C   UNL     1      -0.529   9.382   1.013  1.00  0.00     0.058 A 
ATOM      3  C   UNL     1      -1.439   7.222   0.394  1.00  0.00     0.012 A 
ATOM      4  C   UNL     1       0.762   8.835   1.034  1.00  0.00     0.157 A 
ATOM      5  C   UNL     1      -0.152   6.678   0.414  1.00  0.00     0.051 A 
ATOM      6  C   UNL     1       0.951   7.481   0.736  1.00  0.00     0.157 A 
ENDROOT
BRANCH   1   7
ATOM      7  C   UNL     1      -2.987   9.212   0.687  1.00  0.00     0.010 C 
ATOM      8  C   UNL     1      -4.109   8.561   0.350  1.00  0.00     0.025 C 
BRANCH   8   9
ATOM      9  C   UNL     1      -5.423   9.224   0.357  1.00  0.00     0.064 C 
ATOM     10  O   UNL     1      -6.025   9.397   1.448  1.00  0.00    -0.545 OA
ATOM     11  O   UNL     1      -6.012   9.662  -0.823  1.00  0.00    -0.545 OA
ENDBRANCH   8   9
ENDBRANCH   1   7
BRANCH   4  12
ATOM     12  O   UNL     1       1.861   9.632   1.349  1.00  0.00    -0.504 OA
ATOM     13  H   UNL     1       2.189  10.355   0.719  1.00  0.00     0.293 HD
ENDBRANCH   4  12
BRANCH   6  14
ATOM     14  O   UNL     1       2.235   6.940   0.759  1.00  0.00    -0.504 OA
ATOM     15  H   UNL     1       2.432   6.025   0.370  1.00  0.00     0.293 HD
ENDBRANCH   6  14
TORSDOF 4
ENDMDL
MODEL 7
REMARK VINA RESULT:    -4.757     12.054     12.505
REMARK INTER + INTRA:          -5.717
REMARK INTER:                  -5.588
REMARK INTRA:                  -0.129
REMARK UNBOUND:                -0.126
REMARK SMILES O=C([O-])C=Cc1ccc(O)c(O)c1
REMARK SMILES IDX 6 1 13 2 7 3 11 4 8 5 9 6 5 7 4 8 2 9 1 10 3 11 12 12 10 14
REMARK H PARENT 12 13 10 15
REMARK Flexibility Score: inf
ROOT
ATOM      1  C   UNL     1      -4.182   0.038  -9.054  1.00  0.00    -0.022 A 
ATOM      2  C   UNL     1      -5.273  -0.290  -8.230  1.00  0.00     0.058 A 
ATOM      3  C   UNL     1      -4.309   1.115  -9.955  1.00  0.00     0.012 A 
ATOM      4  C   UNL     1      -6.460   0.456  -8.284  1.00  0.00     0.157 A 
ATOM      5  C   UNL     1      -5.492   1.856 -10.008  1.00  0.00     0.051 A 
ATOM      6  C   UNL     1      -6.569   1.531  -9.172  1.00  0.00     0.157 A 
ENDROOT
BRANCH   1   7
ATOM      7  C   UNL     1      -2.953  -0.789  -8.967  1.00  0.00     0.010 C 
ATOM      8  C   UNL     1      -2.907  -2.090  -9.280  1.00  0.00     0.025 C 
BRANCH   8   9
ATOM      9  C   UNL     1      -1.661  -2.869  -9.189  1.00  0.00     0.064 C 
ATOM     10  O   UNL     1      -0.560  -2.305  -9.418  1.00  0.00    -0.545 OA
ATOM     11  O   UNL     1      -1.680  -4.218  -8.856  1.00  0.00    -0.545 OA
ENDBRANCH   8   9
ENDBRANCH   1   7
BRANCH   4  12
ATOM     12  O   UNL     1      -7.534   0.132  -7.457  1.00  0.00    -0.504 OA
ATOM     13  H   UNL     1      -7.590  -0.765  -6.988  1.00  0.00     0.293 HD
ENDBRANCH   4  12
BRANCH   6  14
ATOM     14  O   UNL     1      -7.749   2.271  -9.221  1.00  0.00    -0.504 OA
ATOM     15  H   UNL     1      -8.588   1.903  -9.655  1.00  0.00     0.293 HD
ENDBRANCH   6  14
TORSDOF 4
ENDMDL
MODEL 8
REMARK VINA RESULT:    -4.702      2.197      2.948
REMARK INTER + INTRA:          -5.653
REMARK INTER:                  -5.524
REMARK INTRA:                  -0.129
REMARK UNBOUND:                -0.126
REMARK SMILES O=C([O-])C=Cc1ccc(O)c(O)c1
REMARK SMILES IDX 6 1 13 2 7 3 11 4 8 5 9 6 5 7 4 8 2 9 1 10 3 11 12 12 10 14
REMARK H PARENT 12 13 10 15
REMARK Flexibility Score: inf
ROOT
ATOM      1  C   UNL     1      -2.450   9.719  -0.004  1.00  0.00    -0.022 A 
ATOM      2  C   UNL     1      -2.444   8.970  -1.194  1.00  0.00     0.058 A 
ATOM      3  C   UNL     1      -3.688  10.085   0.563  1.00  0.00     0.012 A 
ATOM      4  C   UNL     1      -3.648   8.572  -1.795  1.00  0.00     0.157 A 
ATOM      5  C   UNL     1      -4.886   9.688  -0.037  1.00  0.00     0.051 A 
ATOM      6  C   UNL     1      -4.870   8.930  -1.215  1.00  0.00     0.157 A 
ENDROOT
BRANCH   1   7
ATOM      7  C   UNL     1      -1.150  10.125   0.586  1.00  0.00     0.010 C 
ATOM      8  C   UNL     1      -0.071   9.332   0.624  1.00  0.00     0.025 C 
BRANCH   8   9
ATOM      9  C   UNL     1       1.202   9.781   1.210  1.00  0.00     0.064 C 
ATOM     10  O   UNL     1       1.312   9.873   2.460  1.00  0.00    -0.545 OA
ATOM     11  O   UNL     1       2.287  10.108   0.405  1.00  0.00    -0.545 OA
ENDBRANCH   8   9
ENDBRANCH   1   7
BRANCH   4  12
ATOM     12  O   UNL     1      -3.635   7.821  -2.969  1.00  0.00    -0.504 OA
ATOM     13  H   UNL     1      -3.178   8.159  -3.809  1.00  0.00     0.293 HD
ENDBRANCH   4  12
BRANCH   6  14
ATOM     14  O   UNL     1      -6.063   8.531  -1.815  1.00  0.00    -0.504 OA
ATOM     15  H   UNL     1      -6.531   9.110  -2.502  1.00  0.00     0.293 HD
ENDBRANCH   6  14
TORSDOF 4
ENDMDL
MODEL 9
REMARK VINA RESULT:    -4.532      1.512      5.921
REMARK INTER + INTRA:          -5.453
REMARK INTER:                  -5.321
REMARK INTRA:                  -0.131
REMARK UNBOUND:                -0.126
REMARK SMILES O=C([O-])C=Cc1ccc(O)c(O)c1
REMARK SMILES IDX 6 1 13 2 7 3 11 4 8 5 9 6 5 7 4 8 2 9 1 10 3 11 12 12 10 14
REMARK H PARENT 12 13 10 15
REMARK Flexibility Score: inf
ROOT
ATOM      1  C   UNL     1      -2.250   8.775   0.264  1.00  0.00    -0.022 A 
ATOM      2  C   UNL     1      -1.449   7.625   0.374  1.00  0.00     0.058 A 
ATOM      3  C   UNL     1      -1.695  10.025   0.606  1.00  0.00     0.012 A 
ATOM      4  C   UNL     1      -0.113   7.720   0.793  1.00  0.00     0.157 A 
ATOM      5  C   UNL     1      -0.364  10.118   1.023  1.00  0.00     0.051 A 
ATOM      6  C   UNL     1       0.430   8.968   1.116  1.00  0.00     0.157 A 
ENDROOT
BRANCH   1   7
ATOM      7  C   UNL     1      -3.659   8.620  -0.173  1.00  0.00     0.010 C 
ATOM      8  C   UNL     1      -4.228   9.366  -1.128  1.00  0.00     0.025 C 
BRANCH   8   9
ATOM      9  C   UNL     1      -5.628   9.169  -1.538  1.00  0.00     0.064 C 
ATOM     10  O   UNL     1      -5.954   8.119  -2.151  1.00  0.00    -0.545 OA
ATOM     11  O   UNL     1      -6.599  10.125  -1.261  1.00  0.00    -0.545 OA
ENDBRANCH   8   9
ENDBRANCH   1   7
BRANCH   4  12
ATOM     12  O   UNL     1       0.678   6.577   0.890  1.00  0.00    -0.504 OA
ATOM     13  H   UNL     1       1.667   6.596   0.670  1.00  0.00     0.293 HD
ENDBRANCH   4  12
BRANCH   6  14
ATOM     14  O   UNL     1       1.758   9.058   1.529  1.00  0.00    -0.504 OA
ATOM     15  H   UNL     1       2.097   8.552   2.339  1.00  0.00     0.293 HD
ENDBRANCH   6  14
TORSDOF 4
ENDMDL
