MODEL 1
REMARK VINA RESULT:    -3.477      0.000      0.000
REMARK INTER + INTRA:          -4.206
REMARK INTER:                  -4.087
REMARK INTRA:                  -0.118
REMARK UNBOUND:                -0.118
REMARK SMILES O=C([O-])CCC(=O)[O-]
REMARK SMILES IDX 4 1 2 2 1 3 3 4 5 5 6 6 7 7 8 8
REMARK H PARENT
REMARK Flexibility Score: inf
ROOT
ATOM      1  C   UNL     1      16.978  21.805  26.347  1.00  0.00     0.059 C 
ENDROOT
BRANCH   1   2
ATOM      2  C   UNL     1      15.772  21.994  25.478  1.00  0.00     0.042 C 
ATOM      3  O   UNL     1      15.903  22.387  24.289  1.00  0.00    -0.550 OA
ATOM      4  O   UNL     1      14.508  21.694  25.968  1.00  0.00    -0.550 OA
ENDBRANCH   1   2
BRANCH   1   5
ATOM      5  C   UNL     1      16.623  21.900  27.834  1.00  0.00     0.059 C 
BRANCH   5   6
ATOM      6  C   UNL     1      16.618  23.320  28.312  1.00  0.00     0.042 C 
ATOM      7  O   UNL     1      17.617  24.058  28.111  1.00  0.00    -0.550 OA
ATOM      8  O   UNL     1      15.528  23.814  29.016  1.00  0.00    -0.550 OA
ENDBRANCH   5   6
ENDBRANCH   1   5
TORSDOF 3
ENDMDL
MODEL 2
REMARK VINA RESULT:    -3.469      1.481      1.988
REMARK INTER + INTRA:          -4.196
REMARK INTER:                  -4.119
REMARK INTRA:                  -0.077
REMARK UNBOUND:                -0.118
REMARK SMILES O=C([O-])CCC(=O)[O-]
REMARK SMILES IDX 4 1 2 2 1 3 3 4 5 5 6 6 7 7 8 8
REMARK H PARENT
REMARK Flexibility Score: inf
ROOT
ATOM      1  C   UNL     1      15.895  23.615  26.363  1.00  0.00     0.059 C 
ENDROOT
BRANCH   1   2
ATOM      2  C   UNL     1      16.317  22.389  25.613  1.00  0.00     0.042 C 
ATOM      3  O   UNL     1      17.044  21.524  26.169  1.00  0.00    -0.550 OA
ATOM      4  O   UNL     1      15.872  22.181  24.314  1.00  0.00    -0.550 OA
ENDBRANCH   1   2
BRANCH   1   5
ATOM      5  C   UNL     1      16.745  23.829  27.619  1.00  0.00     0.059 C 
BRANCH   5   6
ATOM      6  C   UNL     1      15.986  23.492  28.865  1.00  0.00     0.042 C 
ATOM      7  O   UNL     1      14.802  23.894  29.013  1.00  0.00    -0.550 OA
ATOM      8  O   UNL     1      16.599  22.770  29.881  1.00  0.00    -0.550 OA
ENDBRANCH   5   6
ENDBRANCH   1   5
TORSDOF 3
ENDMDL
MODEL 3
REMARK VINA RESULT:    -3.452      1.484      3.766
REMARK INTER + INTRA:          -4.176
REMARK INTER:                  -4.090
REMARK INTRA:                  -0.086
REMARK UNBOUND:                -0.118
REMARK SMILES O=C([O-])CCC(=O)[O-]
REMARK SMILES IDX 4 1 2 2 1 3 3 4 5 5 6 6 7 7 8 8
REMARK H PARENT
REMARK Flexibility Score: inf
ROOT
ATOM      1  C   UNL     1      16.728  23.802  27.646  1.00  0.00     0.059 C 
ENDROOT
BRANCH   1   2
ATOM      2  C   UNL     1      15.949  23.449  28.876  1.00  0.00     0.042 C 
ATOM      3  O   UNL     1      16.421  22.638  29.716  1.00  0.00    -0.550 OA
ATOM      4  O   UNL     1      14.718  24.047  29.115  1.00  0.00    -0.550 OA
ENDBRANCH   1   2
BRANCH   1   5
ATOM      5  C   UNL     1      15.909  23.571  26.373  1.00  0.00     0.059 C 
BRANCH   5   6
ATOM      6  C   UNL     1      16.341  22.330  25.655  1.00  0.00     0.042 C 
ATOM      7  O   UNL     1      17.109  21.507  26.220  1.00  0.00    -0.550 OA
ATOM      8  O   UNL     1      15.929  22.101  24.348  1.00  0.00    -0.550 OA
ENDBRANCH   5   6
ENDBRANCH   1   5
TORSDOF 3
ENDMDL
MODEL 4
REMARK VINA RESULT:    -3.386      0.587      3.707
REMARK INTER + INTRA:          -4.099
REMARK INTER:                  -4.005
REMARK INTRA:                  -0.094
REMARK UNBOUND:                -0.118
REMARK SMILES O=C([O-])CCC(=O)[O-]
REMARK SMILES IDX 4 1 2 2 1 3 3 4 5 5 6 6 7 7 8 8
REMARK H PARENT
REMARK Flexibility Score: inf
ROOT
ATOM      1  C   UNL     1      16.601  21.548  27.876  1.00  0.00     0.059 C 
ENDROOT
BRANCH   1   2
ATOM      2  C   UNL     1      16.722  22.814  28.669  1.00  0.00     0.042 C 
ATOM      3  O   UNL     1      17.316  23.812  28.184  1.00  0.00    -0.550 OA
ATOM      4  O   UNL     1      16.141  22.904  29.928  1.00  0.00    -0.550 OA
ENDBRANCH   1   2
BRANCH   1   5
ATOM      5  C   UNL     1      16.986  21.763  26.409  1.00  0.00     0.059 C 
BRANCH   5   6
ATOM      6  C   UNL     1      15.780  21.953  25.543  1.00  0.00     0.042 C 
ATOM      7  O   UNL     1      14.629  21.737  26.004  1.00  0.00    -0.550 OA
ATOM      8  O   UNL     1      15.928  22.329  24.214  1.00  0.00    -0.550 OA
ENDBRANCH   5   6
ENDBRANCH   1   5
TORSDOF 3
ENDMDL
MODEL 5
REMARK VINA RESULT:    -3.349      2.062      2.993
REMARK INTER + INTRA:          -4.054
REMARK INTER:                  -3.924
REMARK INTRA:                  -0.130
REMARK UNBOUND:                -0.118
REMARK SMILES O=C([O-])CCC(=O)[O-]
REMARK SMILES IDX 4 1 2 2 1 3 3 4 5 5 6 6 7 7 8 8
REMARK H PARENT
REMARK Flexibility Score: inf
ROOT
ATOM      1  C   UNL     1      16.187  22.191  26.315  1.00  0.00     0.059 C 
ENDROOT
BRANCH   1   2
ATOM      2  C   UNL     1      16.299  23.642  26.674  1.00  0.00     0.042 C 
ATOM      3  O   UNL     1      15.967  24.528  25.843  1.00  0.00    -0.550 OA
ATOM      4  O   UNL     1      16.728  24.013  27.942  1.00  0.00    -0.550 OA
ENDBRANCH   1   2
BRANCH   1   5
ATOM      5  C   UNL     1      14.735  21.706  26.372  1.00  0.00     0.059 C 
BRANCH   5   6
ATOM      6  C   UNL     1      14.358  21.252  27.749  1.00  0.00     0.042 C 
ATOM      7  O   UNL     1      15.228  20.763  28.515  1.00  0.00    -0.550 OA
ATOM      8  O   UNL     1      13.037  21.333  28.171  1.00  0.00    -0.550 OA
ENDBRANCH   5   6
ENDBRANCH   1   5
TORSDOF 3
ENDMDL
MODEL 6
REMARK VINA RESULT:    -3.341     20.694     21.575
REMARK INTER + INTRA:          -4.046
REMARK INTER:                  -3.933
REMARK INTRA:                  -0.113
REMARK UNBOUND:                -0.118
REMARK SMILES O=C([O-])CCC(=O)[O-]
REMARK SMILES IDX 4 1 2 2 1 3 3 4 5 5 6 6 7 7 8 8
REMARK H PARENT
REMARK Flexibility Score: inf
ROOT
ATOM      1  C   UNL     1       3.751  35.626  14.998  1.00  0.00     0.059 C 
ENDROOT
BRANCH   1   2
ATOM      2  C   UNL     1       2.416  35.920  15.612  1.00  0.00     0.042 C 
ATOM      3  O   UNL     1       1.930  37.080  15.549  1.00  0.00    -0.550 OA
ATOM      4  O   UNL     1       1.690  34.902  16.217  1.00  0.00    -0.550 OA
ENDBRANCH   1   2
BRANCH   1   5
ATOM      5  C   UNL     1       4.870  35.646  16.045  1.00  0.00     0.059 C 
BRANCH   5   6
ATOM      6  C   UNL     1       5.678  36.905  15.966  1.00  0.00     0.042 C 
ATOM      7  O   UNL     1       6.733  37.022  16.642  1.00  0.00    -0.550 OA
ATOM      8  O   UNL     1       5.244  37.963  15.178  1.00  0.00    -0.550 OA
ENDBRANCH   5   6
ENDBRANCH   1   5
TORSDOF 3
ENDMDL
MODEL 7
REMARK VINA RESULT:    -3.332     20.718     21.627
REMARK INTER + INTRA:          -4.035
REMARK INTER:                  -4.003
REMARK INTRA:                  -0.031
REMARK UNBOUND:                -0.118
REMARK SMILES O=C([O-])CCC(=O)[O-]
REMARK SMILES IDX 4 1 2 2 1 3 3 4 5 5 6 6 7 7 8 8
REMARK H PARENT
REMARK Flexibility Score: inf
ROOT
ATOM      1  C   UNL     1       4.219  35.825  15.768  1.00  0.00     0.059 C 
ENDROOT
BRANCH   1   2
ATOM      2  C   UNL     1       2.832  35.506  15.296  1.00  0.00     0.042 C 
ATOM      3  O   UNL     1       1.963  35.101  16.112  1.00  0.00    -0.550 OA
ATOM      4  O   UNL     1       2.490  35.698  13.964  1.00  0.00    -0.550 OA
ENDBRANCH   1   2
BRANCH   1   5
ATOM      5  C   UNL     1       4.581  37.290  15.505  1.00  0.00     0.059 C 
BRANCH   5   6
ATOM      6  C   UNL     1       6.015  37.572  15.832  1.00  0.00     0.042 C 
ATOM      7  O   UNL     1       6.599  36.918  16.735  1.00  0.00    -0.550 OA
ATOM      8  O   UNL     1       6.695  38.585  15.167  1.00  0.00    -0.550 OA
ENDBRANCH   5   6
ENDBRANCH   1   5
TORSDOF 3
ENDMDL
MODEL 8
REMARK VINA RESULT:    -3.327     20.756     21.862
REMARK INTER + INTRA:          -4.029
REMARK INTER:                  -3.999
REMARK INTRA:                  -0.030
REMARK UNBOUND:                -0.118
REMARK SMILES O=C([O-])CCC(=O)[O-]
REMARK SMILES IDX 4 1 2 2 1 3 3 4 5 5 6 6 7 7 8 8
REMARK H PARENT
REMARK Flexibility Score: inf
ROOT
ATOM      1  C   UNL     1       4.583  37.354  15.504  1.00  0.00     0.059 C 
ENDROOT
BRANCH   1   2
ATOM      2  C   UNL     1       6.025  37.657  15.776  1.00  0.00     0.042 C 
ATOM      3  O   UNL     1       6.659  37.000  16.643  1.00  0.00    -0.550 OA
ATOM      4  O   UNL     1       6.680  38.637  15.041  1.00  0.00    -0.550 OA
ENDBRANCH   1   2
BRANCH   1   5
ATOM      5  C   UNL     1       4.280  35.861  15.662  1.00  0.00     0.059 C 
BRANCH   5   6
ATOM      6  C   UNL     1       2.879  35.534  15.248  1.00  0.00     0.042 C 
ATOM      7  O   UNL     1       2.060  35.078  16.088  1.00  0.00    -0.550 OA
ATOM      8  O   UNL     1       2.488  35.694  13.924  1.00  0.00    -0.550 OA
ENDBRANCH   5   6
ENDBRANCH   1   5
TORSDOF 3
ENDMDL
MODEL 9
REMARK VINA RESULT:    -3.298      1.375      1.805
REMARK INTER + INTRA:          -3.995
REMARK INTER:                  -3.932
REMARK INTRA:                  -0.063
REMARK UNBOUND:                -0.118
REMARK SMILES O=C([O-])CCC(=O)[O-]
REMARK SMILES IDX 4 1 2 2 1 3 3 4 5 5 6 6 7 7 8 8
REMARK H PARENT
REMARK Flexibility Score: inf
ROOT
ATOM      1  C   UNL     1      16.586  21.887  26.362  1.00  0.00     0.059 C 
ENDROOT
BRANCH   1   2
ATOM      2  C   UNL     1      16.167  22.654  25.144  1.00  0.00     0.042 C 
ATOM      3  O   UNL     1      15.883  22.047  24.078  1.00  0.00    -0.550 OA
ATOM      4  O   UNL     1      16.050  24.037  25.200  1.00  0.00    -0.550 OA
ENDBRANCH   1   2
BRANCH   1   5
ATOM      5  C   UNL     1      16.626  22.781  27.605  1.00  0.00     0.059 C 
BRANCH   5   6
ATOM      6  C   UNL     1      15.287  22.863  28.271  1.00  0.00     0.042 C 
ATOM      7  O   UNL     1      15.014  23.832  29.026  1.00  0.00    -0.550 OA
ATOM      8  O   UNL     1      14.356  21.848  28.091  1.00  0.00    -0.550 OA
ENDBRANCH   5   6
ENDBRANCH   1   5
TORSDOF 3
ENDMDL
