MODEL 1
REMARK VINA RESULT:    -4.225      0.000      0.000
REMARK INTER + INTRA:          -5.430
REMARK INTER:                  -5.213
REMARK INTRA:                  -0.217
REMARK UNBOUND:                -0.217
REMARK SMILES CCCCC=CC(C)=O
REMARK SMILES IDX 4 1 3 2 2 3 1 4 5 5 6 6 7 7 9 8 8 9
REMARK H PARENT
REMARK Flexibility Score: inf
ROOT
ATOM      1  C   UNL     1       5.284 146.202  -9.125  1.00  0.00     0.027 C 
ENDROOT
BRANCH   1   2
ATOM      2  C   UNL     1       6.122 144.964  -8.776  1.00  0.00     0.004 C 
BRANCH   2   3
ATOM      3  C   UNL     1       5.285 143.676  -8.738  1.00  0.00    -0.003 C 
ATOM      4  C   UNL     1       5.293 143.007  -7.364  1.00  0.00     0.004 C 
ENDBRANCH   2   3
ENDBRANCH   1   2
BRANCH   1   5
ATOM      5  C   UNL     1       4.114 146.345  -8.192  1.00  0.00    -0.023 C 
ATOM      6  C   UNL     1       4.288 146.605  -6.891  1.00  0.00     0.042 C 
BRANCH   6   7
ATOM      7  C   UNL     1       3.170 146.764  -5.939  1.00  0.00     0.152 C 
ATOM      8  O   UNL     1       3.418 146.720  -4.704  1.00  0.00    -0.295 OA
ATOM      9  C   UNL     1       1.756 146.978  -6.387  1.00  0.00     0.093 C 
ENDBRANCH   6   7
ENDBRANCH   1   5
TORSDOF 4
ENDMDL
MODEL 2
REMARK VINA RESULT:    -4.138      1.366      2.092
REMARK INTER + INTRA:          -5.323
REMARK INTER:                  -5.089
REMARK INTRA:                  -0.234
REMARK UNBOUND:                -0.217
REMARK SMILES CCCCC=CC(C)=O
REMARK SMILES IDX 4 1 3 2 2 3 1 4 5 5 6 6 7 7 9 8 8 9
REMARK H PARENT
REMARK Flexibility Score: inf
ROOT
ATOM      1  C   UNL     1       3.089 143.170  -7.638  1.00  0.00     0.027 C 
ENDROOT
BRANCH   1   2
ATOM      2  C   UNL     1       4.089 143.158  -8.804  1.00  0.00     0.004 C 
BRANCH   2   3
ATOM      3  C   UNL     1       5.547 143.268  -8.330  1.00  0.00    -0.003 C 
ATOM      4  C   UNL     1       6.182 144.613  -8.680  1.00  0.00     0.004 C 
ENDBRANCH   2   3
ENDBRANCH   1   2
BRANCH   1   5
ATOM      5  C   UNL     1       2.701 144.574  -7.272  1.00  0.00    -0.023 C 
ATOM      6  C   UNL     1       3.333 145.241  -6.298  1.00  0.00     0.042 C 
BRANCH   6   7
ATOM      7  C   UNL     1       2.995 146.625  -5.911  1.00  0.00     0.152 C 
ATOM      8  O   UNL     1       3.874 147.324  -5.340  1.00  0.00    -0.295 OA
ATOM      9  C   UNL     1       1.647 147.227  -6.172  1.00  0.00     0.093 C 
ENDBRANCH   6   7
ENDBRANCH   1   5
TORSDOF 4
ENDMDL
MODEL 3
REMARK VINA RESULT:    -4.029      1.917      2.668
REMARK INTER + INTRA:          -5.188
REMARK INTER:                  -4.887
REMARK INTRA:                  -0.301
REMARK UNBOUND:                -0.217
REMARK SMILES CCCCC=CC(C)=O
REMARK SMILES IDX 4 1 3 2 2 3 1 4 5 5 6 6 7 7 9 8 8 9
REMARK H PARENT
REMARK Flexibility Score: inf
ROOT
ATOM      1  C   UNL     1       3.100 142.637  -8.208  1.00  0.00     0.027 C 
ENDROOT
BRANCH   1   2
ATOM      2  C   UNL     1       4.298 143.006  -9.095  1.00  0.00     0.004 C 
BRANCH   2   3
ATOM      3  C   UNL     1       5.556 143.338  -8.279  1.00  0.00    -0.003 C 
ATOM      4  C   UNL     1       6.127 144.717  -8.610  1.00  0.00     0.004 C 
ENDBRANCH   2   3
ENDBRANCH   1   2
BRANCH   1   5
ATOM      5  C   UNL     1       2.749 143.763  -7.277  1.00  0.00    -0.023 C 
ATOM      6  C   UNL     1       2.296 144.935  -7.740  1.00  0.00     0.042 C 
BRANCH   6   7
ATOM      7  C   UNL     1       1.928 146.065  -6.863  1.00  0.00     0.152 C 
ATOM      8  O   UNL     1       0.711 146.377  -6.759  1.00  0.00    -0.295 OA
ATOM      9  C   UNL     1       2.947 146.851  -6.094  1.00  0.00     0.093 C 
ENDBRANCH   6   7
ENDBRANCH   1   5
TORSDOF 4
ENDMDL
MODEL 4
REMARK VINA RESULT:    -3.960      2.100      4.429
REMARK INTER + INTRA:          -5.103
REMARK INTER:                  -4.846
REMARK INTRA:                  -0.257
REMARK UNBOUND:                -0.217
REMARK SMILES CCCCC=CC(C)=O
REMARK SMILES IDX 4 1 3 2 2 3 1 4 5 5 6 6 7 7 9 8 8 9
REMARK H PARENT
REMARK Flexibility Score: inf
ROOT
ATOM      1  C   UNL     1       4.340 147.435  -6.108  1.00  0.00     0.027 C 
ENDROOT
BRANCH   1   2
ATOM      2  C   UNL     1       3.107 146.754  -5.495  1.00  0.00     0.004 C 
BRANCH   2   3
ATOM      3  C   UNL     1       1.796 147.198  -6.162  1.00  0.00    -0.003 C 
ATOM      4  C   UNL     1       1.140 146.084  -6.976  1.00  0.00     0.004 C 
ENDBRANCH   2   3
ENDBRANCH   1   2
BRANCH   1   5
ATOM      5  C   UNL     1       4.897 146.625  -7.244  1.00  0.00    -0.023 C 
ATOM      6  C   UNL     1       5.180 145.324  -7.099  1.00  0.00     0.042 C 
BRANCH   6   7
ATOM      7  C   UNL     1       5.719 144.486  -8.189  1.00  0.00     0.152 C 
ATOM      8  O   UNL     1       6.562 144.990  -8.979  1.00  0.00    -0.295 OA
ATOM      9  C   UNL     1       5.302 143.060  -8.389  1.00  0.00     0.093 C 
ENDBRANCH   6   7
ENDBRANCH   1   5
TORSDOF 4
ENDMDL
MODEL 5
REMARK VINA RESULT:    -3.888      2.041      4.734
REMARK INTER + INTRA:          -5.015
REMARK INTER:                  -4.812
REMARK INTRA:                  -0.202
REMARK UNBOUND:                -0.217
REMARK SMILES CCCCC=CC(C)=O
REMARK SMILES IDX 4 1 3 2 2 3 1 4 5 5 6 6 7 7 9 8 8 9
REMARK H PARENT
REMARK Flexibility Score: inf
ROOT
ATOM      1  C   UNL     1       2.772 146.761  -6.477  1.00  0.00     0.027 C 
ENDROOT
BRANCH   1   2
ATOM      2  C   UNL     1       1.551 146.075  -7.108  1.00  0.00     0.004 C 
BRANCH   2   3
ATOM      3  C   UNL     1       0.238 146.441  -6.399  1.00  0.00    -0.003 C 
ATOM      4  C   UNL     1       0.375 147.669  -5.501  1.00  0.00     0.004 C 
ENDBRANCH   2   3
ENDBRANCH   1   2
BRANCH   1   5
ATOM      5  C   UNL     1       4.049 146.094  -6.904  1.00  0.00    -0.023 C 
ATOM      6  C   UNL     1       4.087 144.789  -7.204  1.00  0.00     0.042 C 
BRANCH   6   7
ATOM      7  C   UNL     1       5.315 144.093  -7.638  1.00  0.00     0.152 C 
ATOM      8  O   UNL     1       5.566 142.955  -7.157  1.00  0.00    -0.295 OA
ATOM      9  C   UNL     1       6.270 144.688  -8.628  1.00  0.00     0.093 C 
ENDBRANCH   6   7
ENDBRANCH   1   5
TORSDOF 4
ENDMDL
MODEL 6
REMARK VINA RESULT:    -3.871      1.451      1.568
REMARK INTER + INTRA:          -4.992
REMARK INTER:                  -4.759
REMARK INTRA:                  -0.234
REMARK UNBOUND:                -0.217
REMARK SMILES CCCCC=CC(C)=O
REMARK SMILES IDX 4 1 3 2 2 3 1 4 5 5 6 6 7 7 9 8 8 9
REMARK H PARENT
REMARK Flexibility Score: inf
ROOT
ATOM      1  C   UNL     1       5.504 146.360  -7.617  1.00  0.00     0.027 C 
ENDROOT
BRANCH   1   2
ATOM      2  C   UNL     1       5.997 145.445  -8.749  1.00  0.00     0.004 C 
BRANCH   2   3
ATOM      3  C   UNL     1       5.018 144.300  -9.050  1.00  0.00    -0.003 C 
ATOM      4  C   UNL     1       5.271 143.064  -8.188  1.00  0.00     0.004 C 
ENDBRANCH   2   3
ENDBRANCH   1   2
BRANCH   1   5
ATOM      5  C   UNL     1       4.015 146.550  -7.685  1.00  0.00    -0.023 C 
ATOM      6  C   UNL     1       3.252 146.478  -6.587  1.00  0.00     0.042 C 
BRANCH   6   7
ATOM      7  C   UNL     1       1.788 146.669  -6.603  1.00  0.00     0.152 C 
ATOM      8  O   UNL     1       1.093 145.945  -7.367  1.00  0.00    -0.295 OA
ATOM      9  C   UNL     1       1.099 147.687  -5.745  1.00  0.00     0.093 C 
ENDBRANCH   6   7
ENDBRANCH   1   5
TORSDOF 4
ENDMDL
MODEL 7
REMARK VINA RESULT:    -3.706      2.210      4.529
REMARK INTER + INTRA:          -4.789
REMARK INTER:                  -4.517
REMARK INTRA:                  -0.273
REMARK UNBOUND:                -0.217
REMARK SMILES CCCCC=CC(C)=O
REMARK SMILES IDX 4 1 3 2 2 3 1 4 5 5 6 6 7 7 9 8 8 9
REMARK H PARENT
REMARK Flexibility Score: inf
ROOT
ATOM      1  C   UNL     1       4.092 146.824  -6.515  1.00  0.00     0.027 C 
ENDROOT
BRANCH   1   2
ATOM      2  C   UNL     1       2.886 146.737  -5.568  1.00  0.00     0.004 C 
BRANCH   2   3
ATOM      3  C   UNL     1       1.619 147.367  -6.167  1.00  0.00    -0.003 C 
ATOM      4  C   UNL     1       0.550 146.331  -6.509  1.00  0.00     0.004 C 
ENDBRANCH   2   3
ENDBRANCH   1   2
BRANCH   1   5
ATOM      5  C   UNL     1       4.112 145.667  -7.473  1.00  0.00    -0.023 C 
ATOM      6  C   UNL     1       3.729 144.441  -7.094  1.00  0.00     0.042 C 
BRANCH   6   7
ATOM      7  C   UNL     1       3.721 143.277  -8.003  1.00  0.00     0.152 C 
ATOM      8  O   UNL     1       2.700 142.539  -8.030  1.00  0.00    -0.295 OA
ATOM      9  C   UNL     1       4.880 142.944  -8.893  1.00  0.00     0.093 C 
ENDBRANCH   6   7
ENDBRANCH   1   5
TORSDOF 4
ENDMDL
MODEL 8
REMARK VINA RESULT:    -3.546      2.550      4.629
REMARK INTER + INTRA:          -4.593
REMARK INTER:                  -4.428
REMARK INTRA:                  -0.165
REMARK UNBOUND:                -0.217
REMARK SMILES CCCCC=CC(C)=O
REMARK SMILES IDX 4 1 3 2 2 3 1 4 5 5 6 6 7 7 9 8 8 9
REMARK H PARENT
REMARK Flexibility Score: inf
ROOT
ATOM      1  C   UNL     1       1.459 145.736  -6.873  1.00  0.00     0.027 C 
ENDROOT
BRANCH   1   2
ATOM      2  C   UNL     1       2.109 147.097  -6.579  1.00  0.00     0.004 C 
BRANCH   2   3
ATOM      3  C   UNL     1       3.322 146.980  -5.642  1.00  0.00    -0.003 C 
ATOM      4  C   UNL     1       4.653 147.064  -6.388  1.00  0.00     0.004 C 
ENDBRANCH   2   3
ENDBRANCH   1   2
BRANCH   1   5
ATOM      5  C   UNL     1       2.305 144.925  -7.814  1.00  0.00    -0.023 C 
ATOM      6  C   UNL     1       2.995 143.859  -7.389  1.00  0.00     0.042 C 
BRANCH   6   7
ATOM      7  C   UNL     1       3.829 143.026  -8.277  1.00  0.00     0.152 C 
ATOM      8  O   UNL     1       3.259 142.210  -9.051  1.00  0.00    -0.295 OA
ATOM      9  C   UNL     1       5.326 143.117  -8.295  1.00  0.00     0.093 C 
ENDBRANCH   6   7
ENDBRANCH   1   5
TORSDOF 4
ENDMDL
MODEL 9
REMARK VINA RESULT:    -3.457      2.097      4.804
REMARK INTER + INTRA:          -4.482
REMARK INTER:                  -4.347
REMARK INTRA:                  -0.136
REMARK UNBOUND:                -0.217
REMARK SMILES CCCCC=CC(C)=O
REMARK SMILES IDX 4 1 3 2 2 3 1 4 5 5 6 6 7 7 9 8 8 9
REMARK H PARENT
REMARK Flexibility Score: inf
ROOT
ATOM      1  C   UNL     1       2.421 145.057  -6.464  1.00  0.00     0.027 C 
ENDROOT
BRANCH   1   2
ATOM      2  C   UNL     1       1.454 146.189  -6.841  1.00  0.00     0.004 C 
BRANCH   2   3
ATOM      3  C   UNL     1       1.561 147.396  -5.896  1.00  0.00    -0.003 C 
ATOM      4  C   UNL     1       0.197 147.900  -5.426  1.00  0.00     0.004 C 
ENDBRANCH   2   3
ENDBRANCH   1   2
BRANCH   1   5
ATOM      5  C   UNL     1       3.563 144.974  -7.437  1.00  0.00    -0.023 C 
ATOM      6  C   UNL     1       4.443 145.975  -7.566  1.00  0.00     0.042 C 
BRANCH   6   7
ATOM      7  C   UNL     1       5.586 145.934  -8.500  1.00  0.00     0.152 C 
ATOM      8  O   UNL     1       5.893 146.985  -9.124  1.00  0.00    -0.295 OA
ATOM      9  C   UNL     1       6.393 144.691  -8.730  1.00  0.00     0.093 C 
ENDBRANCH   6   7
ENDBRANCH   1   5
TORSDOF 4
ENDMDL
