MODEL 1
REMARK VINA RESULT:    -5.853      0.000      0.000
REMARK INTER + INTRA:          -8.129
REMARK INTER:                  -7.906
REMARK INTRA:                  -0.223
REMARK UNBOUND:                -0.223
REMARK SMILES O=c1c(-c2ccc(O)cc2)coc2c([C@@H]3O[C@H](CO)[C@H](O)[C@@H](O)[C@H]3O)c(O)ccc12
REMARK SMILES IDX 3 1 11 2 12 3 13 4 30 5 2 6 1 7 29 8 28 9 26 10 14 11 4 12
REMARK SMILES IDX 5 13 6 14 7 15 10 16 9 17 8 18 15 20 24 21 16 22 22 23 17 24
REMARK SMILES IDX 20 25 25 26 23 28 18 30 19 31 21 33 27 35
REMARK H PARENT 8 19 25 27 23 29 19 32 21 34 27 36
REMARK Flexibility Score: inf
ROOT
ATOM      1  C   UNL     1     195.879 197.574 154.633  1.00  0.00     0.065 A 
ATOM      2  C   UNL     1     196.885 196.646 154.933  1.00  0.00     0.208 A 
ATOM      3  O   UNL     1     197.565 196.719 156.071  1.00  0.00    -0.463 OA
ATOM      4  C   UNL     1     197.357 197.661 156.987  1.00  0.00     0.147 A 
ATOM      5  C   UNL     1     196.359 198.638 156.763  1.00  0.00     0.066 A 
ATOM      6  C   UNL     1     195.615 198.588 155.571  1.00  0.00     0.200 A 
ATOM      7  O   UNL     1     194.725 199.451 155.338  1.00  0.00    -0.288 OA
ATOM      8  C   UNL     1     196.143 199.639 157.719  1.00  0.00     0.020 A 
ATOM      9  C   UNL     1     196.906 199.672 158.880  1.00  0.00     0.047 A 
ATOM     10  C   UNL     1     197.899 198.713 159.121  1.00  0.00     0.125 A 
ATOM     11  C   UNL     1     198.147 197.684 158.169  1.00  0.00     0.069 A 
ENDROOT
BRANCH   1  12
ATOM     12  C   UNL     1     195.133 197.472 153.352  1.00  0.00    -0.011 A 
ATOM     13  C   UNL     1     194.296 196.369 153.105  1.00  0.00     0.013 A 
ATOM     14  C   UNL     1     193.596 196.269 151.898  1.00  0.00     0.047 A 
ATOM     15  C   UNL     1     193.725 197.266 150.923  1.00  0.00     0.115 A 
ATOM     16  C   UNL     1     195.244 198.476 152.375  1.00  0.00     0.013 A 
ATOM     17  C   UNL     1     194.549 198.370 151.166  1.00  0.00     0.047 A 
BRANCH  15  18
ATOM     18  O   UNL     1     193.041 197.172 149.714  1.00  0.00    -0.508 OA
ATOM     19  H   UNL     1     192.111 197.555 149.597  1.00  0.00     0.293 HD
ENDBRANCH  15  18
ENDBRANCH   1  12
BRANCH  11  20
ATOM     20  C   UNL     1     199.179 196.554 158.343  1.00  0.00     0.188 C 
ATOM     21  C   UNL     1     199.061 195.275 157.461  1.00  0.00     0.179 C 
ATOM     22  O   UNL     1     200.495 197.095 158.457  1.00  0.00    -0.362 OA
ATOM     23  C   UNL     1     200.364 194.484 157.565  1.00  0.00     0.177 C 
ATOM     24  C   UNL     1     201.347 196.862 157.345  1.00  0.00     0.176 C 
ATOM     25  C   UNL     1     201.518 195.343 157.003  1.00  0.00     0.177 C 
BRANCH  21  26
ATOM     26  O   UNL     1     197.990 194.474 157.888  1.00  0.00    -0.387 OA
ATOM     27  H   UNL     1     198.271 194.058 158.744  1.00  0.00     0.211 HD
ENDBRANCH  21  26
BRANCH  23  28
ATOM     28  O   UNL     1     200.614 194.143 158.906  1.00  0.00    -0.387 OA
ATOM     29  H   UNL     1     199.977 193.416 159.143  1.00  0.00     0.211 HD
ENDBRANCH  23  28
BRANCH  24  30
ATOM     30  C   UNL     1     200.964 197.771 156.155  1.00  0.00     0.191 C 
BRANCH  30  31
ATOM     31  O   UNL     1     201.781 198.912 156.116  1.00  0.00    -0.394 OA
ATOM     32  H   UNL     1     201.998 199.074 155.161  1.00  0.00     0.210 HD
ENDBRANCH  30  31
ENDBRANCH  24  30
BRANCH  25  33
ATOM     33  O   UNL     1     201.614 195.156 155.611  1.00  0.00    -0.388 OA
ATOM     34  H   UNL     1     202.576 195.196 155.372  1.00  0.00     0.211 HD
ENDBRANCH  25  33
ENDBRANCH  11  20
BRANCH  10  35
ATOM     35  O   UNL     1     198.622 198.814 160.305  1.00  0.00    -0.507 OA
ATOM     36  H   UNL     1     199.456 198.264 160.474  1.00  0.00     0.293 HD
ENDBRANCH  10  35
TORSDOF 9
ENDMDL
MODEL 2
REMARK VINA RESULT:    -5.666      5.107      8.556
REMARK INTER + INTRA:          -7.877
REMARK INTER:                  -7.561
REMARK INTRA:                  -0.315
REMARK UNBOUND:                -0.223
REMARK SMILES O=c1c(-c2ccc(O)cc2)coc2c([C@@H]3O[C@H](CO)[C@H](O)[C@@H](O)[C@H]3O)c(O)ccc12
REMARK SMILES IDX 3 1 11 2 12 3 13 4 30 5 2 6 1 7 29 8 28 9 26 10 14 11 4 12
REMARK SMILES IDX 5 13 6 14 7 15 10 16 9 17 8 18 15 20 24 21 16 22 22 23 17 24
REMARK SMILES IDX 20 25 25 26 23 28 18 30 19 31 21 33 27 35
REMARK H PARENT 8 19 25 27 23 29 19 32 21 34 27 36
REMARK Flexibility Score: inf
ROOT
ATOM      1  C   UNL     1     189.228 193.655 153.256  1.00  0.00     0.065 A 
ATOM      2  C   UNL     1     189.568 194.983 153.546  1.00  0.00     0.208 A 
ATOM      3  O   UNL     1     190.836 195.346 153.700  1.00  0.00    -0.463 OA
ATOM      4  C   UNL     1     191.856 194.497 153.604  1.00  0.00     0.147 A 
ATOM      5  C   UNL     1     191.601 193.137 153.313  1.00  0.00     0.066 A 
ATOM      6  C   UNL     1     190.269 192.718 153.138  1.00  0.00     0.200 A 
ATOM      7  O   UNL     1     190.009 191.510 152.888  1.00  0.00    -0.288 OA
ATOM      8  C   UNL     1     192.669 192.236 153.221  1.00  0.00     0.020 A 
ATOM      9  C   UNL     1     193.972 192.677 153.416  1.00  0.00     0.047 A 
ATOM     10  C   UNL     1     194.247 194.021 153.703  1.00  0.00     0.125 A 
ATOM     11  C   UNL     1     193.183 194.963 153.807  1.00  0.00     0.069 A 
ENDROOT
BRANCH   1  12
ATOM     12  C   UNL     1     187.802 193.274 153.091  1.00  0.00    -0.011 A 
ATOM     13  C   UNL     1     187.246 193.145 151.804  1.00  0.00     0.013 A 
ATOM     14  C   UNL     1     185.903 192.790 151.646  1.00  0.00     0.047 A 
ATOM     15  C   UNL     1     185.097 192.562 152.769  1.00  0.00     0.115 A 
ATOM     16  C   UNL     1     186.990 193.027 154.211  1.00  0.00     0.013 A 
ATOM     17  C   UNL     1     185.645 192.679 154.050  1.00  0.00     0.047 A 
BRANCH  15  18
ATOM     18  O   UNL     1     183.756 192.217 152.623  1.00  0.00    -0.508 OA
ATOM     19  H   UNL     1     183.026 192.683 153.149  1.00  0.00     0.293 HD
ENDBRANCH  15  18
ENDBRANCH   1  12
BRANCH  11  20
ATOM     20  C   UNL     1     193.365 196.468 154.076  1.00  0.00     0.188 C 
ATOM     21  C   UNL     1     194.783 197.013 154.419  1.00  0.00     0.179 C 
ATOM     22  O   UNL     1     192.633 197.235 153.121  1.00  0.00    -0.362 OA
ATOM     23  C   UNL     1     194.769 198.536 154.295  1.00  0.00     0.177 C 
ATOM     24  C   UNL     1     193.422 197.940 152.172  1.00  0.00     0.176 C 
ATOM     25  C   UNL     1     194.456 198.915 152.831  1.00  0.00     0.177 C 
BRANCH  21  26
ATOM     26  O   UNL     1     195.152 196.652 155.725  1.00  0.00    -0.387 OA
ATOM     27  H   UNL     1     194.985 195.678 155.807  1.00  0.00     0.211 HD
ENDBRANCH  21  26
BRANCH  23  28
ATOM     28  O   UNL     1     193.803 199.080 155.160  1.00  0.00    -0.387 OA
ATOM     29  H   UNL     1     192.914 198.857 154.777  1.00  0.00     0.211 HD
ENDBRANCH  23  28
BRANCH  24  30
ATOM     30  C   UNL     1     194.001 196.977 151.111  1.00  0.00     0.191 C 
BRANCH  30  31
ATOM     31  O   UNL     1     194.083 197.607 149.859  1.00  0.00    -0.394 OA
ATOM     32  H   UNL     1     194.847 198.240 149.908  1.00  0.00     0.210 HD
ENDBRANCH  30  31
ENDBRANCH  24  30
BRANCH  25  33
ATOM     33  O   UNL     1     195.649 198.950 152.085  1.00  0.00    -0.388 OA
ATOM     34  H   UNL     1     196.376 198.614 152.671  1.00  0.00     0.211 HD
ENDBRANCH  25  33
ENDBRANCH  11  20
BRANCH  10  35
ATOM     35  O   UNL     1     195.576 194.385 153.886  1.00  0.00    -0.507 OA
ATOM     36  H   UNL     1     196.009 194.397 154.803  1.00  0.00     0.293 HD
ENDBRANCH  10  35
TORSDOF 9
ENDMDL
MODEL 3
REMARK VINA RESULT:    -5.643      4.023      6.467
REMARK INTER + INTRA:          -7.845
REMARK INTER:                  -7.319
REMARK INTRA:                  -0.526
REMARK UNBOUND:                -0.223
REMARK SMILES O=c1c(-c2ccc(O)cc2)coc2c([C@@H]3O[C@H](CO)[C@H](O)[C@@H](O)[C@H]3O)c(O)ccc12
REMARK SMILES IDX 3 1 11 2 12 3 13 4 30 5 2 6 1 7 29 8 28 9 26 10 14 11 4 12
REMARK SMILES IDX 5 13 6 14 7 15 10 16 9 17 8 18 15 20 24 21 16 22 22 23 17 24
REMARK SMILES IDX 20 25 25 26 23 28 18 30 19 31 21 33 27 35
REMARK H PARENT 8 19 25 27 23 29 19 32 21 34 27 36
REMARK Flexibility Score: inf
ROOT
ATOM      1  C   UNL     1     191.190 195.770 155.064  1.00  0.00     0.065 A 
ATOM      2  C   UNL     1     192.162 196.159 155.995  1.00  0.00     0.208 A 
ATOM      3  O   UNL     1     193.223 196.865 155.620  1.00  0.00    -0.463 OA
ATOM      4  C   UNL     1     193.445 197.239 154.363  1.00  0.00     0.147 A 
ATOM      5  C   UNL     1     192.512 196.887 153.360  1.00  0.00     0.066 A 
ATOM      6  C   UNL     1     191.373 196.144 153.722  1.00  0.00     0.200 A 
ATOM      7  O   UNL     1     190.528 195.807 152.848  1.00  0.00    -0.288 OA
ATOM      8  C   UNL     1     192.745 197.269 152.033  1.00  0.00     0.020 A 
ATOM      9  C   UNL     1     193.888 197.987 151.704  1.00  0.00     0.047 A 
ATOM     10  C   UNL     1     194.824 198.347 152.683  1.00  0.00     0.125 A 
ATOM     11  C   UNL     1     194.619 197.972 154.042  1.00  0.00     0.069 A 
ENDROOT
BRANCH   1  12
ATOM     12  C   UNL     1     190.013 194.979 155.508  1.00  0.00    -0.011 A 
ATOM     13  C   UNL     1     190.154 193.615 155.826  1.00  0.00     0.013 A 
ATOM     14  C   UNL     1     189.047 192.867 156.240  1.00  0.00     0.047 A 
ATOM     15  C   UNL     1     187.786 193.469 156.339  1.00  0.00     0.115 A 
ATOM     16  C   UNL     1     188.747 195.579 155.626  1.00  0.00     0.013 A 
ATOM     17  C   UNL     1     187.641 194.827 156.034  1.00  0.00     0.047 A 
BRANCH  15  18
ATOM     18  O   UNL     1     186.675 192.732 156.741  1.00  0.00    -0.508 OA
ATOM     19  H   UNL     1     185.734 193.096 156.654  1.00  0.00     0.293 HD
ENDBRANCH  15  18
ENDBRANCH   1  12
BRANCH  11  20
ATOM     20  C   UNL     1     195.553 198.346 155.207  1.00  0.00     0.188 C 
ATOM     21  C   UNL     1     194.983 198.380 156.657  1.00  0.00     0.179 C 
ATOM     22  O   UNL     1     196.813 197.690 155.065  1.00  0.00    -0.362 OA
ATOM     23  C   UNL     1     196.148 198.426 157.643  1.00  0.00     0.177 C 
ATOM     24  C   UNL     1     197.071 196.656 156.004  1.00  0.00     0.176 C 
ATOM     25  C   UNL     1     196.983 197.135 157.492  1.00  0.00     0.177 C 
BRANCH  21  26
ATOM     26  O   UNL     1     194.166 199.507 156.843  1.00  0.00    -0.387 OA
ATOM     27  H   UNL     1     193.923 199.833 155.938  1.00  0.00     0.211 HD
ENDBRANCH  21  26
BRANCH  23  28
ATOM     28  O   UNL     1     196.945 199.557 157.395  1.00  0.00    -0.387 OA
ATOM     29  H   UNL     1     196.852 200.154 158.185  1.00  0.00     0.211 HD
ENDBRANCH  23  28
BRANCH  24  30
ATOM     30  C   UNL     1     196.255 195.387 155.666  1.00  0.00     0.191 C 
BRANCH  30  31
ATOM     31  O   UNL     1     196.916 194.235 156.118  1.00  0.00    -0.394 OA
ATOM     32  H   UNL     1     197.322 193.807 155.319  1.00  0.00     0.210 HD
ENDBRANCH  30  31
ENDBRANCH  24  30
BRANCH  25  33
ATOM     33  O   UNL     1     196.442 196.123 158.308  1.00  0.00    -0.388 OA
ATOM     34  H   UNL     1     195.526 196.406 158.564  1.00  0.00     0.211 HD
ENDBRANCH  25  33
ENDBRANCH  11  20
BRANCH  10  35
ATOM     35  O   UNL     1     195.943 199.065 152.275  1.00  0.00    -0.507 OA
ATOM     36  H   UNL     1     195.888 200.042 152.011  1.00  0.00     0.293 HD
ENDBRANCH  10  35
TORSDOF 9
ENDMDL
MODEL 4
REMARK VINA RESULT:    -5.414      2.443      7.474
REMARK INTER + INTRA:          -7.536
REMARK INTER:                  -7.116
REMARK INTRA:                  -0.420
REMARK UNBOUND:                -0.223
REMARK SMILES O=c1c(-c2ccc(O)cc2)coc2c([C@@H]3O[C@H](CO)[C@H](O)[C@@H](O)[C@H]3O)c(O)ccc12
REMARK SMILES IDX 3 1 11 2 12 3 13 4 30 5 2 6 1 7 29 8 28 9 26 10 14 11 4 12
REMARK SMILES IDX 5 13 6 14 7 15 10 16 9 17 8 18 15 20 24 21 16 22 22 23 17 24
REMARK SMILES IDX 20 25 25 26 23 28 18 30 19 31 21 33 27 35
REMARK H PARENT 8 19 25 27 23 29 19 32 21 34 27 36
REMARK Flexibility Score: inf
ROOT
ATOM      1  C   UNL     1     198.008 198.122 157.619  1.00  0.00     0.065 A 
ATOM      2  C   UNL     1     197.828 197.240 156.545  1.00  0.00     0.208 A 
ATOM      3  O   UNL     1     196.650 197.129 155.942  1.00  0.00    -0.463 OA
ATOM      4  C   UNL     1     195.574 197.820 156.309  1.00  0.00     0.147 A 
ATOM      5  C   UNL     1     195.669 198.733 157.385  1.00  0.00     0.066 A 
ATOM      6  C   UNL     1     196.904 198.880 158.043  1.00  0.00     0.200 A 
ATOM      7  O   UNL     1     197.018 199.679 159.013  1.00  0.00    -0.288 OA
ATOM      8  C   UNL     1     194.537 199.456 157.783  1.00  0.00     0.020 A 
ATOM      9  C   UNL     1     193.327 199.275 157.124  1.00  0.00     0.047 A 
ATOM     10  C   UNL     1     193.212 198.377 156.055  1.00  0.00     0.125 A 
ATOM     11  C   UNL     1     194.342 197.624 155.627  1.00  0.00     0.069 A 
ENDROOT
BRANCH   1  12
ATOM     12  C   UNL     1     199.336 198.226 158.278  1.00  0.00    -0.011 A 
ATOM     13  C   UNL     1     200.305 199.118 157.783  1.00  0.00     0.013 A 
ATOM     14  C   UNL     1     201.557 199.216 158.399  1.00  0.00     0.047 A 
ATOM     15  C   UNL     1     201.858 198.423 159.514  1.00  0.00     0.115 A 
ATOM     16  C   UNL     1     199.641 197.447 159.407  1.00  0.00     0.013 A 
ATOM     17  C   UNL     1     200.896 197.541 160.016  1.00  0.00     0.047 A 
BRANCH  15  18
ATOM     18  O   UNL     1     203.104 198.505 160.129  1.00  0.00    -0.508 OA
ATOM     19  H   UNL     1     203.882 197.926 159.836  1.00  0.00     0.293 HD
ENDBRANCH  15  18
ENDBRANCH   1  12
BRANCH  11  20
ATOM     20  C   UNL     1     194.347 196.642 154.441  1.00  0.00     0.188 C 
ATOM     21  C   UNL     1     192.990 196.130 153.872  1.00  0.00     0.179 C 
ATOM     22  O   UNL     1     195.302 197.050 153.461  1.00  0.00    -0.362 OA
ATOM     23  C   UNL     1     193.242 195.471 152.517  1.00  0.00     0.177 C 
ATOM     24  C   UNL     1     194.755 197.546 152.248  1.00  0.00     0.176 C 
ATOM     25  C   UNL     1     193.796 196.531 151.540  1.00  0.00     0.177 C 
BRANCH  21  26
ATOM     26  O   UNL     1     192.405 195.200 154.746  1.00  0.00    -0.387 OA
ATOM     27  H   UNL     1     192.800 194.317 154.525  1.00  0.00     0.211 HD
ENDBRANCH  21  26
BRANCH  23  28
ATOM     28  O   UNL     1     194.153 194.410 152.660  1.00  0.00    -0.387 OA
ATOM     29  H   UNL     1     193.819 193.664 152.094  1.00  0.00     0.211 HD
ENDBRANCH  23  28
BRANCH  24  30
ATOM     30  C   UNL     1     194.188 198.971 152.439  1.00  0.00     0.191 C 
BRANCH  30  31
ATOM     31  O   UNL     1     195.154 199.822 152.998  1.00  0.00    -0.394 OA
ATOM     32  H   UNL     1     195.939 199.254 153.220  1.00  0.00     0.210 HD
ENDBRANCH  30  31
ENDBRANCH  24  30
BRANCH  25  33
ATOM     33  O   UNL     1     192.729 197.206 150.918  1.00  0.00    -0.388 OA
ATOM     34  H   UNL     1     191.980 196.561 150.831  1.00  0.00     0.211 HD
ENDBRANCH  25  33
ENDBRANCH  11  20
BRANCH  10  35
ATOM     35  O   UNL     1     191.967 198.251 155.447  1.00  0.00    -0.507 OA
ATOM     36  H   UNL     1     191.187 198.850 155.690  1.00  0.00     0.293 HD
ENDBRANCH  10  35
TORSDOF 9
ENDMDL
MODEL 5
REMARK VINA RESULT:    -5.379      3.479      8.225
REMARK INTER + INTRA:          -7.489
REMARK INTER:                  -7.002
REMARK INTRA:                  -0.487
REMARK UNBOUND:                -0.223
REMARK SMILES O=c1c(-c2ccc(O)cc2)coc2c([C@@H]3O[C@H](CO)[C@H](O)[C@@H](O)[C@H]3O)c(O)ccc12
REMARK SMILES IDX 3 1 11 2 12 3 13 4 30 5 2 6 1 7 29 8 28 9 26 10 14 11 4 12
REMARK SMILES IDX 5 13 6 14 7 15 10 16 9 17 8 18 15 20 24 21 16 22 22 23 17 24
REMARK SMILES IDX 20 25 25 26 23 28 18 30 19 31 21 33 27 35
REMARK H PARENT 8 19 25 27 23 29 19 32 21 34 27 36
REMARK Flexibility Score: inf
ROOT
ATOM      1  C   UNL     1     195.167 198.205 156.183  1.00  0.00     0.065 A 
ATOM      2  C   UNL     1     194.520 196.964 156.117  1.00  0.00     0.208 A 
ATOM      3  O   UNL     1     193.998 196.526 154.977  1.00  0.00    -0.463 OA
ATOM      4  C   UNL     1     194.038 197.217 153.841  1.00  0.00     0.147 A 
ATOM      5  C   UNL     1     194.674 198.480 153.820  1.00  0.00     0.066 A 
ATOM      6  C   UNL     1     195.243 198.974 155.008  1.00  0.00     0.200 A 
ATOM      7  O   UNL     1     195.808 200.101 155.024  1.00  0.00    -0.288 OA
ATOM      8  C   UNL     1     194.711 199.217 152.630  1.00  0.00     0.020 A 
ATOM      9  C   UNL     1     194.125 198.710 151.477  1.00  0.00     0.047 A 
ATOM     10  C   UNL     1     193.491 197.460 151.476  1.00  0.00     0.125 A 
ATOM     11  C   UNL     1     193.433 196.686 152.670  1.00  0.00     0.069 A 
ENDROOT
BRANCH   1  12
ATOM     12  C   UNL     1     195.741 198.675 157.470  1.00  0.00    -0.011 A 
ATOM     13  C   UNL     1     197.136 198.743 157.642  1.00  0.00     0.013 A 
ATOM     14  C   UNL     1     197.679 199.181 158.854  1.00  0.00     0.047 A 
ATOM     15  C   UNL     1     196.837 199.553 159.910  1.00  0.00     0.115 A 
ATOM     16  C   UNL     1     194.904 199.066 158.530  1.00  0.00     0.013 A 
ATOM     17  C   UNL     1     195.450 199.497 159.743  1.00  0.00     0.047 A 
BRANCH  15  18
ATOM     18  O   UNL     1     197.366 199.982 161.125  1.00  0.00    -0.508 OA
ATOM     19  H   UNL     1     198.271 200.432 161.183  1.00  0.00     0.293 HD
ENDBRANCH  15  18
ENDBRANCH   1  12
BRANCH  11  20
ATOM     20  C   UNL     1     192.804 195.285 152.780  1.00  0.00     0.188 C 
ATOM     21  C   UNL     1     193.211 194.360 153.965  1.00  0.00     0.179 C 
ATOM     22  O   UNL     1     191.404 195.346 152.509  1.00  0.00    -0.362 OA
ATOM     23  C   UNL     1     192.217 193.203 154.051  1.00  0.00     0.177 C 
ATOM     24  C   UNL     1     190.557 195.137 153.631  1.00  0.00     0.176 C 
ATOM     25  C   UNL     1     190.813 193.771 154.353  1.00  0.00     0.177 C 
BRANCH  21  26
ATOM     26  O   UNL     1     194.507 193.853 153.778  1.00  0.00    -0.387 OA
ATOM     27  H   UNL     1     195.089 194.314 154.435  1.00  0.00     0.211 HD
ENDBRANCH  21  26
BRANCH  23  28
ATOM     28  O   UNL     1     192.208 192.486 152.842  1.00  0.00    -0.387 OA
ATOM     29  H   UNL     1     192.475 193.124 152.127  1.00  0.00     0.211 HD
ENDBRANCH  23  28
BRANCH  24  30
ATOM     30  C   UNL     1     190.539 196.380 154.549  1.00  0.00     0.191 C 
BRANCH  30  31
ATOM     31  O   UNL     1     189.286 196.528 155.163  1.00  0.00    -0.394 OA
ATOM     32  H   UNL     1     189.401 196.263 156.113  1.00  0.00     0.210 HD
ENDBRANCH  30  31
ENDBRANCH  24  30
BRANCH  25  33
ATOM     33  O   UNL     1     190.646 193.906 155.745  1.00  0.00    -0.388 OA
ATOM     34  H   UNL     1     190.534 194.873 155.938  1.00  0.00     0.211 HD
ENDBRANCH  25  33
ENDBRANCH  11  20
BRANCH  10  35
ATOM     35  O   UNL     1     192.927 197.021 150.283  1.00  0.00    -0.507 OA
ATOM     36  H   UNL     1     193.478 196.898 149.441  1.00  0.00     0.293 HD
ENDBRANCH  10  35
TORSDOF 9
ENDMDL
MODEL 6
REMARK VINA RESULT:    -5.373      2.576      7.920
REMARK INTER + INTRA:          -7.481
REMARK INTER:                  -6.930
REMARK INTRA:                  -0.551
REMARK UNBOUND:                -0.223
REMARK SMILES O=c1c(-c2ccc(O)cc2)coc2c([C@@H]3O[C@H](CO)[C@H](O)[C@@H](O)[C@H]3O)c(O)ccc12
REMARK SMILES IDX 3 1 11 2 12 3 13 4 30 5 2 6 1 7 29 8 28 9 26 10 14 11 4 12
REMARK SMILES IDX 5 13 6 14 7 15 10 16 9 17 8 18 15 20 24 21 16 22 22 23 17 24
REMARK SMILES IDX 20 25 25 26 23 28 18 30 19 31 21 33 27 35
REMARK H PARENT 8 19 25 27 23 29 19 32 21 34 27 36
REMARK Flexibility Score: inf
ROOT
ATOM      1  C   UNL     1     198.388 195.573 156.064  1.00  0.00     0.065 A 
ATOM      2  C   UNL     1     197.263 196.407 156.026  1.00  0.00     0.208 A 
ATOM      3  O   UNL     1     196.169 196.049 155.364  1.00  0.00    -0.463 OA
ATOM      4  C   UNL     1     196.063 194.905 154.693  1.00  0.00     0.147 A 
ATOM      5  C   UNL     1     197.153 194.005 154.680  1.00  0.00     0.066 A 
ATOM      6  C   UNL     1     198.327 194.349 155.375  1.00  0.00     0.200 A 
ATOM      7  O   UNL     1     199.319 193.571 155.374  1.00  0.00    -0.288 OA
ATOM      8  C   UNL     1     197.051 192.804 153.967  1.00  0.00     0.020 A 
ATOM      9  C   UNL     1     195.885 192.500 153.275  1.00  0.00     0.047 A 
ATOM     10  C   UNL     1     194.793 193.377 153.276  1.00  0.00     0.125 A 
ATOM     11  C   UNL     1     194.864 194.609 153.989  1.00  0.00     0.069 A 
ENDROOT
BRANCH   1  12
ATOM     12  C   UNL     1     199.601 195.997 156.810  1.00  0.00    -0.011 A 
ATOM     13  C   UNL     1     200.550 196.840 156.202  1.00  0.00     0.013 A 
ATOM     14  C   UNL     1     201.694 197.238 156.901  1.00  0.00     0.047 A 
ATOM     15  C   UNL     1     201.908 196.796 158.213  1.00  0.00     0.115 A 
ATOM     16  C   UNL     1     199.816 195.572 158.133  1.00  0.00     0.013 A 
ATOM     17  C   UNL     1     200.964 195.966 158.827  1.00  0.00     0.047 A 
BRANCH  15  18
ATOM     18  O   UNL     1     203.048 197.177 158.915  1.00  0.00    -0.508 OA
ATOM     19  H   UNL     1     203.960 196.791 158.701  1.00  0.00     0.293 HD
ENDBRANCH  15  18
ENDBRANCH   1  12
BRANCH  11  20
ATOM     20  C   UNL     1     193.717 195.630 154.098  1.00  0.00     0.188 C 
ATOM     21  C   UNL     1     193.665 196.587 155.326  1.00  0.00     0.179 C 
ATOM     22  O   UNL     1     193.481 196.250 152.834  1.00  0.00    -0.362 OA
ATOM     23  C   UNL     1     192.670 197.709 155.035  1.00  0.00     0.177 C 
ATOM     24  C   UNL     1     193.861 197.616 152.745  1.00  0.00     0.176 C 
ATOM     25  C   UNL     1     193.172 198.521 153.821  1.00  0.00     0.177 C 
BRANCH  21  26
ATOM     26  O   UNL     1     193.267 195.893 156.480  1.00  0.00    -0.387 OA
ATOM     27  H   UNL     1     194.088 195.494 156.868  1.00  0.00     0.211 HD
ENDBRANCH  21  26
BRANCH  23  28
ATOM     28  O   UNL     1     191.399 197.168 154.772  1.00  0.00    -0.387 OA
ATOM     29  H   UNL     1     191.495 196.580 153.976  1.00  0.00     0.211 HD
ENDBRANCH  23  28
BRANCH  24  30
ATOM     30  C   UNL     1     195.397 197.756 152.644  1.00  0.00     0.191 C 
BRANCH  30  31
ATOM     31  O   UNL     1     195.746 198.958 152.008  1.00  0.00    -0.394 OA
ATOM     32  H   UNL     1     195.848 199.639 152.724  1.00  0.00     0.210 HD
ENDBRANCH  30  31
ENDBRANCH  24  30
BRANCH  25  33
ATOM     33  O   UNL     1     194.052 199.530 154.258  1.00  0.00    -0.388 OA
ATOM     34  H   UNL     1     193.913 199.643 155.234  1.00  0.00     0.211 HD
ENDBRANCH  25  33
ENDBRANCH  11  20
BRANCH  10  35
ATOM     35  O   UNL     1     193.661 193.004 152.560  1.00  0.00    -0.507 OA
ATOM     36  H   UNL     1     193.445 193.398 151.652  1.00  0.00     0.293 HD
ENDBRANCH  10  35
TORSDOF 9
ENDMDL
MODEL 7
REMARK VINA RESULT:    -5.371      2.255      7.368
REMARK INTER + INTRA:          -7.478
REMARK INTER:                  -6.907
REMARK INTRA:                  -0.572
REMARK UNBOUND:                -0.223
REMARK SMILES O=c1c(-c2ccc(O)cc2)coc2c([C@@H]3O[C@H](CO)[C@H](O)[C@@H](O)[C@H]3O)c(O)ccc12
REMARK SMILES IDX 3 1 11 2 12 3 13 4 30 5 2 6 1 7 29 8 28 9 26 10 14 11 4 12
REMARK SMILES IDX 5 13 6 14 7 15 10 16 9 17 8 18 15 20 24 21 16 22 22 23 17 24
REMARK SMILES IDX 20 25 25 26 23 28 18 30 19 31 21 33 27 35
REMARK H PARENT 8 19 25 27 23 29 19 32 21 34 27 36
REMARK Flexibility Score: inf
ROOT
ATOM      1  C   UNL     1     197.759 197.142 156.574  1.00  0.00     0.065 A 
ATOM      2  C   UNL     1     197.213 196.723 155.353  1.00  0.00     0.208 A 
ATOM      3  O   UNL     1     195.968 197.043 155.016  1.00  0.00    -0.463 OA
ATOM      4  C   UNL     1     195.162 197.759 155.795  1.00  0.00     0.147 A 
ATOM      5  C   UNL     1     195.635 198.222 157.045  1.00  0.00     0.066 A 
ATOM      6  C   UNL     1     196.950 197.906 157.432  1.00  0.00     0.200 A 
ATOM      7  O   UNL     1     197.397 198.296 158.545  1.00  0.00    -0.288 OA
ATOM      8  C   UNL     1     194.787 198.967 157.873  1.00  0.00     0.020 A 
ATOM      9  C   UNL     1     193.487 199.248 157.471  1.00  0.00     0.047 A 
ATOM     10  C   UNL     1     192.999 198.800 156.236  1.00  0.00     0.125 A 
ATOM     11  C   UNL     1     193.834 198.037 155.370  1.00  0.00     0.069 A 
ENDROOT
BRANCH   1  12
ATOM     12  C   UNL     1     199.152 196.769 156.929  1.00  0.00    -0.011 A 
ATOM     13  C   UNL     1     199.410 195.585 157.646  1.00  0.00     0.013 A 
ATOM     14  C   UNL     1     200.720 195.234 157.985  1.00  0.00     0.047 A 
ATOM     15  C   UNL     1     201.789 196.060 157.616  1.00  0.00     0.115 A 
ATOM     16  C   UNL     1     200.234 197.583 156.549  1.00  0.00     0.013 A 
ATOM     17  C   UNL     1     201.542 197.232 156.895  1.00  0.00     0.047 A 
BRANCH  15  18
ATOM     18  O   UNL     1     203.098 195.725 157.957  1.00  0.00    -0.508 OA
ATOM     19  H   UNL     1     203.879 195.949 157.353  1.00  0.00     0.293 HD
ENDBRANCH  15  18
ENDBRANCH   1  12
BRANCH  11  20
ATOM     20  C   UNL     1     193.424 197.528 153.976  1.00  0.00     0.188 C 
ATOM     21  C   UNL     1     194.530 197.080 152.974  1.00  0.00     0.179 C 
ATOM     22  O   UNL     1     192.303 196.650 154.076  1.00  0.00    -0.362 OA
ATOM     23  C   UNL     1     193.876 196.306 151.831  1.00  0.00     0.177 C 
ATOM     24  C   UNL     1     192.577 195.281 153.815  1.00  0.00     0.176 C 
ATOM     25  C   UNL     1     193.212 195.035 152.404  1.00  0.00     0.177 C 
BRANCH  21  26
ATOM     26  O   UNL     1     195.213 198.193 152.457  1.00  0.00    -0.387 OA
ATOM     27  H   UNL     1     195.369 198.809 153.220  1.00  0.00     0.211 HD
ENDBRANCH  21  26
BRANCH  23  28
ATOM     28  O   UNL     1     192.921 197.113 151.189  1.00  0.00    -0.387 OA
ATOM     29  H   UNL     1     192.678 196.654 150.341  1.00  0.00     0.211 HD
ENDBRANCH  23  28
BRANCH  24  30
ATOM     30  C   UNL     1     193.326 194.631 155.001  1.00  0.00     0.191 C 
BRANCH  30  31
ATOM     31  O   UNL     1     193.039 193.259 155.079  1.00  0.00    -0.394 OA
ATOM     32  H   UNL     1     192.741 192.978 154.174  1.00  0.00     0.210 HD
ENDBRANCH  30  31
ENDBRANCH  24  30
BRANCH  25  33
ATOM     33  O   UNL     1     194.155 193.991 152.458  1.00  0.00    -0.388 OA
ATOM     34  H   UNL     1     194.969 194.349 152.897  1.00  0.00     0.211 HD
ENDBRANCH  25  33
ENDBRANCH  11  20
BRANCH  10  35
ATOM     35  O   UNL     1     191.687 199.120 155.903  1.00  0.00    -0.507 OA
ATOM     36  H   UNL     1     191.444 199.531 155.009  1.00  0.00     0.293 HD
ENDBRANCH  10  35
TORSDOF 9
ENDMDL
MODEL 8
REMARK VINA RESULT:    -5.357      4.564      7.880
REMARK INTER + INTRA:          -7.459
REMARK INTER:                  -6.890
REMARK INTRA:                  -0.569
REMARK UNBOUND:                -0.223
REMARK SMILES O=c1c(-c2ccc(O)cc2)coc2c([C@@H]3O[C@H](CO)[C@H](O)[C@@H](O)[C@H]3O)c(O)ccc12
REMARK SMILES IDX 3 1 11 2 12 3 13 4 30 5 2 6 1 7 29 8 28 9 26 10 14 11 4 12
REMARK SMILES IDX 5 13 6 14 7 15 10 16 9 17 8 18 15 20 24 21 16 22 22 23 17 24
REMARK SMILES IDX 20 25 25 26 23 28 18 30 19 31 21 33 27 35
REMARK H PARENT 8 19 25 27 23 29 19 32 21 34 27 36
REMARK Flexibility Score: inf
ROOT
ATOM      1  C   UNL     1     190.646 193.916 153.813  1.00  0.00     0.065 A 
ATOM      2  C   UNL     1     191.087 195.191 153.434  1.00  0.00     0.208 A 
ATOM      3  O   UNL     1     192.382 195.484 153.399  1.00  0.00    -0.463 OA
ATOM      4  C   UNL     1     193.336 194.615 153.722  1.00  0.00     0.147 A 
ATOM      5  C   UNL     1     192.977 193.305 154.116  1.00  0.00     0.066 A 
ATOM      6  C   UNL     1     191.614 192.958 154.159  1.00  0.00     0.200 A 
ATOM      7  O   UNL     1     191.262 191.801 154.515  1.00  0.00    -0.288 OA
ATOM      8  C   UNL     1     193.976 192.389 154.467  1.00  0.00     0.020 A 
ATOM      9  C   UNL     1     195.313 192.767 154.431  1.00  0.00     0.047 A 
ATOM     10  C   UNL     1     195.690 194.059 154.043  1.00  0.00     0.125 A 
ATOM     11  C   UNL     1     194.699 195.017 153.682  1.00  0.00     0.069 A 
ENDROOT
BRANCH   1  12
ATOM     12  C   UNL     1     189.192 193.614 153.846  1.00  0.00    -0.011 A 
ATOM     13  C   UNL     1     188.561 193.036 152.729  1.00  0.00     0.013 A 
ATOM     14  C   UNL     1     187.191 192.754 152.757  1.00  0.00     0.047 A 
ATOM     15  C   UNL     1     186.434 193.049 153.898  1.00  0.00     0.115 A 
ATOM     16  C   UNL     1     188.427 193.891 154.993  1.00  0.00     0.013 A 
ATOM     17  C   UNL     1     187.056 193.615 155.015  1.00  0.00     0.047 A 
BRANCH  15  18
ATOM     18  O   UNL     1     185.068 192.781 153.933  1.00  0.00    -0.508 OA
ATOM     19  H   UNL     1     184.401 193.342 153.416  1.00  0.00     0.293 HD
ENDBRANCH  15  18
ENDBRANCH   1  12
BRANCH  11  20
ATOM     20  C   UNL     1     194.994 196.449 153.200  1.00  0.00     0.188 C 
ATOM     21  C   UNL     1     193.947 197.180 152.307  1.00  0.00     0.179 C 
ATOM     22  O   UNL     1     195.538 197.230 154.263  1.00  0.00    -0.362 OA
ATOM     23  C   UNL     1     194.296 198.667 152.258  1.00  0.00     0.177 C 
ATOM     24  C   UNL     1     194.682 198.241 154.776  1.00  0.00     0.176 C 
ATOM     25  C   UNL     1     194.195 199.252 153.683  1.00  0.00     0.177 C 
BRANCH  21  26
ATOM     26  O   UNL     1     193.949 196.654 151.005  1.00  0.00    -0.387 OA
ATOM     27  H   UNL     1     194.862 196.797 150.644  1.00  0.00     0.211 HD
ENDBRANCH  21  26
BRANCH  23  28
ATOM     28  O   UNL     1     195.594 198.840 151.746  1.00  0.00    -0.387 OA
ATOM     29  H   UNL     1     196.182 199.056 152.518  1.00  0.00     0.211 HD
ENDBRANCH  23  28
BRANCH  24  30
ATOM     30  C   UNL     1     193.568 197.629 155.656  1.00  0.00     0.191 C 
BRANCH  30  31
ATOM     31  O   UNL     1     193.053 198.585 156.544  1.00  0.00    -0.394 OA
ATOM     32  H   UNL     1     193.074 199.457 156.068  1.00  0.00     0.210 HD
ENDBRANCH  30  31
ENDBRANCH  24  30
BRANCH  25  33
ATOM     33  O   UNL     1     192.871 199.658 153.937  1.00  0.00    -0.388 OA
ATOM     34  H   UNL     1     192.698 200.466 153.388  1.00  0.00     0.211 HD
ENDBRANCH  25  33
ENDBRANCH  11  20
BRANCH  10  35
ATOM     35  O   UNL     1     197.048 194.362 154.033  1.00  0.00    -0.507 OA
ATOM     36  H   UNL     1     197.747 193.707 154.362  1.00  0.00     0.293 HD
ENDBRANCH  10  35
TORSDOF 9
ENDMDL
MODEL 9
REMARK VINA RESULT:    -5.306      2.470      3.485
REMARK INTER + INTRA:          -7.390
REMARK INTER:                  -7.058
REMARK INTRA:                  -0.333
REMARK UNBOUND:                -0.223
REMARK SMILES O=c1c(-c2ccc(O)cc2)coc2c([C@@H]3O[C@H](CO)[C@H](O)[C@@H](O)[C@H]3O)c(O)ccc12
REMARK SMILES IDX 3 1 11 2 12 3 13 4 30 5 2 6 1 7 29 8 28 9 26 10 14 11 4 12
REMARK SMILES IDX 5 13 6 14 7 15 10 16 9 17 8 18 15 20 24 21 16 22 22 23 17 24
REMARK SMILES IDX 20 25 25 26 23 28 18 30 19 31 21 33 27 35
REMARK H PARENT 8 19 25 27 23 29 19 32 21 34 27 36
REMARK Flexibility Score: inf
ROOT
ATOM      1  C   UNL     1     194.286 197.256 156.328  1.00  0.00     0.065 A 
ATOM      2  C   UNL     1     195.328 196.491 155.789  1.00  0.00     0.208 A 
ATOM      3  O   UNL     1     196.591 196.718 156.131  1.00  0.00    -0.463 OA
ATOM      4  C   UNL     1     196.956 197.673 156.983  1.00  0.00     0.147 A 
ATOM      5  C   UNL     1     195.966 198.491 157.574  1.00  0.00     0.066 A 
ATOM      6  C   UNL     1     194.617 198.275 157.238  1.00  0.00     0.200 A 
ATOM      7  O   UNL     1     193.712 198.995 157.741  1.00  0.00    -0.288 OA
ATOM      8  C   UNL     1     196.345 199.505 158.463  1.00  0.00     0.020 A 
ATOM      9  C   UNL     1     197.687 199.706 158.761  1.00  0.00     0.047 A 
ATOM     10  C   UNL     1     198.684 198.905 158.188  1.00  0.00     0.125 A 
ATOM     11  C   UNL     1     198.333 197.867 157.277  1.00  0.00     0.069 A 
ENDROOT
BRANCH   1  12
ATOM     12  C   UNL     1     192.881 196.983 155.928  1.00  0.00    -0.011 A 
ATOM     13  C   UNL     1     192.159 197.933 155.181  1.00  0.00     0.013 A 
ATOM     14  C   UNL     1     190.836 197.680 154.806  1.00  0.00     0.047 A 
ATOM     15  C   UNL     1     190.216 196.479 155.174  1.00  0.00     0.115 A 
ATOM     16  C   UNL     1     192.256 195.774 156.279  1.00  0.00     0.013 A 
ATOM     17  C   UNL     1     190.931 195.527 155.908  1.00  0.00     0.047 A 
BRANCH  15  18
ATOM     18  O   UNL     1     188.895 196.221 154.815  1.00  0.00    -0.508 OA
ATOM     19  H   UNL     1     188.191 195.989 155.504  1.00  0.00     0.293 HD
ENDBRANCH  15  18
ENDBRANCH   1  12
BRANCH  11  20
ATOM     20  C   UNL     1     199.333 196.899 156.619  1.00  0.00     0.188 C 
ATOM     21  C   UNL     1     200.857 197.218 156.686  1.00  0.00     0.179 C 
ATOM     22  O   UNL     1     198.982 195.546 156.910  1.00  0.00    -0.362 OA
ATOM     23  C   UNL     1     201.640 195.968 156.287  1.00  0.00     0.177 C 
ATOM     24  C   UNL     1     199.858 194.867 157.799  1.00  0.00     0.176 C 
ATOM     25  C   UNL     1     201.344 194.846 157.306  1.00  0.00     0.177 C 
BRANCH  21  26
ATOM     26  O   UNL     1     201.182 198.273 155.819  1.00  0.00    -0.387 OA
ATOM     27  H   UNL     1     200.968 199.112 156.302  1.00  0.00     0.211 HD
ENDBRANCH  21  26
BRANCH  23  28
ATOM     28  O   UNL     1     201.273 195.565 154.991  1.00  0.00    -0.387 OA
ATOM     29  H   UNL     1     200.306 195.773 154.887  1.00  0.00     0.211 HD
ENDBRANCH  23  28
BRANCH  24  30
ATOM     30  C   UNL     1     199.649 195.345 159.254  1.00  0.00     0.191 C 
BRANCH  30  31
ATOM     31  O   UNL     1     200.022 194.345 160.165  1.00  0.00    -0.394 OA
ATOM     32  H   UNL     1     200.192 194.799 161.032  1.00  0.00     0.210 HD
ENDBRANCH  30  31
ENDBRANCH  24  30
BRANCH  25  33
ATOM     33  O   UNL     1     202.230 194.950 158.395  1.00  0.00    -0.388 OA
ATOM     34  H   UNL     1     201.701 194.810 159.223  1.00  0.00     0.211 HD
ENDBRANCH  25  33
ENDBRANCH  11  20
BRANCH  10  35
ATOM     35  O   UNL     1     200.005 199.167 158.535  1.00  0.00    -0.507 OA
ATOM     36  H   UNL     1     200.414 198.821 159.394  1.00  0.00     0.293 HD
ENDBRANCH  10  35
TORSDOF 9
ENDMDL
