MODEL 1
REMARK VINA RESULT:    -4.707      0.000      0.000
REMARK INTER + INTRA:          -7.730
REMARK INTER:                  -6.358
REMARK INTRA:                  -1.372
REMARK UNBOUND:                -1.372
REMARK SMILES CC(=O)CCC=C(C)CCC=C(C)C
REMARK SMILES IDX 7 1 6 2 8 3 9 4 10 5 11 6 13 7 12 8 14 9 5 10 4 11 2 12 3 13
REMARK SMILES IDX 1 14
REMARK H PARENT
REMARK Flexibility Score: inf
ROOT
ATOM      1  C   UNL     1     -16.649 -37.849 209.749  1.00  0.00    -0.077 C 
ATOM      2  C   UNL     1     -15.896 -38.797 209.145  1.00  0.00    -0.028 C 
ATOM      3  C   UNL     1     -17.879 -37.355 209.032  1.00  0.00     0.039 C 
ENDROOT
BRANCH   1   4
ATOM      4  C   UNL     1     -16.349 -37.300 211.134  1.00  0.00     0.034 C 
BRANCH   4   5
ATOM      5  C   UNL     1     -17.236 -37.941 212.211  1.00  0.00     0.032 C 
BRANCH   5   6
ATOM      6  C   UNL     1     -16.560 -39.113 212.882  1.00  0.00    -0.028 C 
ATOM      7  C   UNL     1     -16.102 -41.470 213.400  1.00  0.00     0.039 C 
ATOM      8  C   UNL     1     -16.827 -40.410 212.611  1.00  0.00    -0.080 C 
ATOM      9  C   UNL     1     -17.821 -40.820 211.551  1.00  0.00     0.039 C 
ENDBRANCH   5   6
ENDBRANCH   4   5
ENDBRANCH   1   4
BRANCH   2  10
ATOM     10  C   UNL     1     -14.632 -39.393 209.713  1.00  0.00     0.035 C 
BRANCH  10  11
ATOM     11  C   UNL     1     -14.556 -40.897 209.426  1.00  0.00     0.079 C 
BRANCH  11  12
ATOM     12  C   UNL     1     -13.978 -41.147 208.059  1.00  0.00     0.130 C 
ATOM     13  O   UNL     1     -14.517 -41.956 207.318  1.00  0.00    -0.300 OA
ATOM     14  C   UNL     1     -12.747 -40.431 207.587  1.00  0.00     0.087 C 
ENDBRANCH  11  12
ENDBRANCH  10  11
ENDBRANCH   2  10
TORSDOF 6
ENDMDL
MODEL 2
REMARK VINA RESULT:    -4.707      1.894      3.694
REMARK INTER + INTRA:          -7.730
REMARK INTER:                  -6.542
REMARK INTRA:                  -1.187
REMARK UNBOUND:                -1.372
REMARK SMILES CC(=O)CCC=C(C)CCC=C(C)C
REMARK SMILES IDX 7 1 6 2 8 3 9 4 10 5 11 6 13 7 12 8 14 9 5 10 4 11 2 12 3 13
REMARK SMILES IDX 1 14
REMARK H PARENT
REMARK Flexibility Score: inf
ROOT
ATOM      1  C   UNL     1     -15.987 -38.368 209.931  1.00  0.00    -0.077 C 
ATOM      2  C   UNL     1     -16.773 -38.162 208.848  1.00  0.00    -0.028 C 
ATOM      3  C   UNL     1     -14.845 -39.343 209.804  1.00  0.00     0.039 C 
ENDROOT
BRANCH   1   4
ATOM      4  C   UNL     1     -16.163 -37.627 211.246  1.00  0.00     0.034 C 
BRANCH   4   5
ATOM      5  C   UNL     1     -17.157 -38.337 212.176  1.00  0.00     0.032 C 
BRANCH   5   6
ATOM      6  C   UNL     1     -16.515 -39.477 212.930  1.00  0.00    -0.028 C 
ATOM      7  C   UNL     1     -16.048 -41.811 213.538  1.00  0.00     0.039 C 
ATOM      8  C   UNL     1     -16.725 -40.786 212.665  1.00  0.00    -0.080 C 
ATOM      9  C   UNL     1     -17.609 -41.243 211.529  1.00  0.00     0.039 C 
ENDBRANCH   5   6
ENDBRANCH   4   5
ENDBRANCH   1   4
BRANCH   2  10
ATOM     10  C   UNL     1     -17.961 -37.233 208.804  1.00  0.00     0.035 C 
BRANCH  10  11
ATOM     11  C   UNL     1     -19.162 -37.908 208.132  1.00  0.00     0.079 C 
BRANCH  11  12
ATOM     12  C   UNL     1     -19.535 -39.172 208.859  1.00  0.00     0.130 C 
ATOM     13  O   UNL     1     -19.363 -40.252 208.313  1.00  0.00    -0.300 OA
ATOM     14  C   UNL     1     -20.125 -39.136 210.238  1.00  0.00     0.087 C 
ENDBRANCH  11  12
ENDBRANCH  10  11
ENDBRANCH   2  10
TORSDOF 6
ENDMDL
MODEL 3
REMARK VINA RESULT:    -4.494      2.225      4.796
REMARK INTER + INTRA:          -7.442
REMARK INTER:                  -5.762
REMARK INTRA:                  -1.680
REMARK UNBOUND:                -1.372
REMARK SMILES CC(=O)CCC=C(C)CCC=C(C)C
REMARK SMILES IDX 7 1 6 2 8 3 9 4 10 5 11 6 13 7 12 8 14 9 5 10 4 11 2 12 3 13
REMARK SMILES IDX 1 14
REMARK H PARENT
REMARK Flexibility Score: inf
ROOT
ATOM      1  C   UNL     1     -17.423 -39.516 212.166  1.00  0.00    -0.077 C 
ATOM      2  C   UNL     1     -18.317 -40.313 211.533  1.00  0.00    -0.028 C 
ATOM      3  C   UNL     1     -16.374 -40.171 213.028  1.00  0.00     0.039 C 
ENDROOT
BRANCH   1   4
ATOM      4  C   UNL     1     -17.391 -38.005 212.008  1.00  0.00     0.034 C 
BRANCH   4   5
ATOM      5  C   UNL     1     -16.248 -37.548 211.091  1.00  0.00     0.032 C 
BRANCH   5   6
ATOM      6  C   UNL     1     -16.576 -37.749 209.630  1.00  0.00    -0.028 C 
ATOM      7  C   UNL     1     -16.431 -38.758 207.395  1.00  0.00     0.039 C 
ATOM      8  C   UNL     1     -16.041 -38.714 208.850  1.00  0.00    -0.080 C 
ATOM      9  C   UNL     1     -15.073 -39.739 209.393  1.00  0.00     0.039 C 
ENDBRANCH   5   6
ENDBRANCH   4   5
ENDBRANCH   1   4
BRANCH   2  10
ATOM     10  C   UNL     1     -19.434 -39.826 210.646  1.00  0.00     0.035 C 
BRANCH  10  11
ATOM     11  C   UNL     1     -19.360 -40.477 209.260  1.00  0.00     0.079 C 
BRANCH  11  12
ATOM     12  C   UNL     1     -19.889 -39.541 208.205  1.00  0.00     0.130 C 
ATOM     13  O   UNL     1     -20.124 -39.970 207.086  1.00  0.00    -0.300 OA
ATOM     14  C   UNL     1     -20.125 -38.089 208.497  1.00  0.00     0.087 C 
ENDBRANCH  11  12
ENDBRANCH  10  11
ENDBRANCH   2  10
TORSDOF 6
ENDMDL
MODEL 4
REMARK VINA RESULT:    -4.279     12.077     13.100
REMARK INTER + INTRA:          -7.152
REMARK INTER:                  -5.949
REMARK INTRA:                  -1.203
REMARK UNBOUND:                -1.372
REMARK SMILES CC(=O)CCC=C(C)CCC=C(C)C
REMARK SMILES IDX 7 1 6 2 8 3 9 4 10 5 11 6 13 7 12 8 14 9 5 10 4 11 2 12 3 13
REMARK SMILES IDX 1 14
REMARK H PARENT
REMARK Flexibility Score: inf
ROOT
ATOM      1  C   UNL     1      -5.932 -39.301 215.285  1.00  0.00    -0.077 C 
ATOM      2  C   UNL     1      -4.934 -38.392 215.187  1.00  0.00    -0.028 C 
ATOM      3  C   UNL     1      -7.173 -39.087 214.457  1.00  0.00     0.039 C 
ENDROOT
BRANCH   1   4
ATOM      4  C   UNL     1      -5.842 -40.551 216.145  1.00  0.00     0.034 C 
BRANCH   4   5
ATOM      5  C   UNL     1      -6.371 -40.309 217.566  1.00  0.00     0.032 C 
BRANCH   5   6
ATOM      6  C   UNL     1      -5.273 -40.378 218.601  1.00  0.00    -0.028 C 
ATOM      7  C   UNL     1      -3.687 -39.537 220.278  1.00  0.00     0.039 C 
ATOM      8  C   UNL     1      -4.825 -39.320 219.314  1.00  0.00    -0.080 C 
ATOM      9  C   UNL     1      -5.428 -37.943 219.171  1.00  0.00     0.039 C 
ENDBRANCH   5   6
ENDBRANCH   4   5
ENDBRANCH   1   4
BRANCH   2  10
ATOM     10  C   UNL     1      -3.635 -38.445 215.950  1.00  0.00     0.035 C 
BRANCH  10  11
ATOM     11  C   UNL     1      -2.435 -38.324 215.004  1.00  0.00     0.079 C 
BRANCH  11  12
ATOM     12  C   UNL     1      -2.276 -39.578 214.186  1.00  0.00     0.130 C 
ATOM     13  O   UNL     1      -2.102 -39.491 212.980  1.00  0.00    -0.300 OA
ATOM     14  C   UNL     1      -2.337 -40.937 214.819  1.00  0.00     0.087 C 
ENDBRANCH  11  12
ENDBRANCH  10  11
ENDBRANCH   2  10
TORSDOF 6
ENDMDL
MODEL 5
REMARK VINA RESULT:    -4.271     11.464     12.727
REMARK INTER + INTRA:          -7.141
REMARK INTER:                  -5.878
REMARK INTRA:                  -1.264
REMARK UNBOUND:                -1.372
REMARK SMILES CC(=O)CCC=C(C)CCC=C(C)C
REMARK SMILES IDX 7 1 6 2 8 3 9 4 10 5 11 6 13 7 12 8 14 9 5 10 4 11 2 12 3 13
REMARK SMILES IDX 1 14
REMARK H PARENT
REMARK Flexibility Score: inf
ROOT
ATOM      1  C   UNL     1      -4.824 -38.880 217.524  1.00  0.00    -0.077 C 
ATOM      2  C   UNL     1      -4.431 -37.942 216.631  1.00  0.00    -0.028 C 
ATOM      3  C   UNL     1      -5.201 -38.428 218.911  1.00  0.00     0.039 C 
ENDROOT
BRANCH   1   4
ATOM      4  C   UNL     1      -4.956 -40.355 217.183  1.00  0.00     0.034 C 
BRANCH   4   5
ATOM      5  C   UNL     1      -6.299 -40.670 216.508  1.00  0.00     0.032 C 
BRANCH   5   6
ATOM      6  C   UNL     1      -6.122 -41.176 215.096  1.00  0.00    -0.028 C 
ATOM      7  C   UNL     1      -6.353 -41.189 212.650  1.00  0.00     0.039 C 
ATOM      8  C   UNL     1      -6.562 -40.534 213.991  1.00  0.00    -0.080 C 
ATOM      9  C   UNL     1      -7.251 -39.191 214.064  1.00  0.00     0.039 C 
ENDBRANCH   5   6
ENDBRANCH   4   5
ENDBRANCH   1   4
BRANCH   2  10
ATOM     10  C   UNL     1      -4.009 -38.220 215.211  1.00  0.00     0.035 C 
BRANCH  10  11
ATOM     11  C   UNL     1      -2.518 -38.569 215.137  1.00  0.00     0.079 C 
BRANCH  11  12
ATOM     12  C   UNL     1      -2.285 -39.698 214.169  1.00  0.00     0.130 C 
ATOM     13  O   UNL     1      -2.005 -39.444 213.007  1.00  0.00    -0.300 OA
ATOM     14  C   UNL     1      -2.400 -41.131 214.597  1.00  0.00     0.087 C 
ENDBRANCH  11  12
ENDBRANCH  10  11
ENDBRANCH   2  10
TORSDOF 6
ENDMDL
MODEL 6
REMARK VINA RESULT:    -4.190      2.730      4.184
REMARK INTER + INTRA:          -7.032
REMARK INTER:                  -5.302
REMARK INTRA:                  -1.730
REMARK UNBOUND:                -1.372
REMARK SMILES CC(=O)CCC=C(C)CCC=C(C)C
REMARK SMILES IDX 7 1 6 2 8 3 9 4 10 5 11 6 13 7 12 8 14 9 5 10 4 11 2 12 3 13
REMARK SMILES IDX 1 14
REMARK H PARENT
REMARK Flexibility Score: inf
ROOT
ATOM      1  C   UNL     1     -17.424 -38.215 207.879  1.00  0.00    -0.077 C 
ATOM      2  C   UNL     1     -16.324 -38.567 208.586  1.00  0.00    -0.028 C 
ATOM      3  C   UNL     1     -17.553 -38.724 206.467  1.00  0.00     0.039 C 
ENDROOT
BRANCH   1   4
ATOM      4  C   UNL     1     -18.555 -37.380 208.455  1.00  0.00     0.034 C 
BRANCH   4   5
ATOM      5  C   UNL     1     -19.830 -38.210 208.667  1.00  0.00     0.032 C 
BRANCH   5   6
ATOM      6  C   UNL     1     -19.772 -39.030 209.934  1.00  0.00    -0.028 C 
ATOM      7  C   UNL     1     -19.598 -41.054 211.315  1.00  0.00     0.039 C 
ATOM      8  C   UNL     1     -19.585 -40.368 209.973  1.00  0.00    -0.080 C 
ATOM      9  C   UNL     1     -19.366 -41.184 208.721  1.00  0.00     0.039 C 
ENDBRANCH   5   6
ENDBRANCH   4   5
ENDBRANCH   1   4
BRANCH   2  10
ATOM     10  C   UNL     1     -16.030 -38.139 210.002  1.00  0.00     0.035 C 
BRANCH  10  11
ATOM     11  C   UNL     1     -16.134 -39.325 210.968  1.00  0.00     0.079 C 
BRANCH  11  12
ATOM     12  C   UNL     1     -16.681 -38.879 212.298  1.00  0.00     0.130 C 
ATOM     13  O   UNL     1     -16.627 -39.636 213.255  1.00  0.00    -0.300 OA
ATOM     14  C   UNL     1     -17.304 -37.525 212.472  1.00  0.00     0.087 C 
ENDBRANCH  11  12
ENDBRANCH  10  11
ENDBRANCH   2  10
TORSDOF 6
ENDMDL
MODEL 7
REMARK VINA RESULT:    -4.178     11.647     13.077
REMARK INTER + INTRA:          -7.015
REMARK INTER:                  -5.435
REMARK INTRA:                  -1.580
REMARK UNBOUND:                -1.372
REMARK SMILES CC(=O)CCC=C(C)CCC=C(C)C
REMARK SMILES IDX 7 1 6 2 8 3 9 4 10 5 11 6 13 7 12 8 14 9 5 10 4 11 2 12 3 13
REMARK SMILES IDX 1 14
REMARK H PARENT
REMARK Flexibility Score: inf
ROOT
ATOM      1  C   UNL     1      -3.143 -39.241 215.475  1.00  0.00    -0.077 C 
ATOM      2  C   UNL     1      -2.931 -40.118 216.485  1.00  0.00    -0.028 C 
ATOM      3  C   UNL     1      -2.551 -39.555 214.125  1.00  0.00     0.039 C 
ENDROOT
BRANCH   1   4
ATOM      4  C   UNL     1      -3.990 -37.988 215.621  1.00  0.00     0.034 C 
BRANCH   4   5
ATOM      5  C   UNL     1      -5.246 -38.039 214.739  1.00  0.00     0.032 C 
BRANCH   5   6
ATOM      6  C   UNL     1      -6.288 -38.985 215.287  1.00  0.00    -0.028 C 
ATOM      7  C   UNL     1      -7.757 -40.953 215.337  1.00  0.00     0.039 C 
ATOM      8  C   UNL     1      -6.667 -40.137 214.691  1.00  0.00    -0.080 C 
ATOM      9  C   UNL     1      -6.034 -40.623 213.408  1.00  0.00     0.039 C 
ENDBRANCH   5   6
ENDBRANCH   4   5
ENDBRANCH   1   4
BRANCH   2  10
ATOM     10  C   UNL     1      -3.438 -39.955 217.895  1.00  0.00     0.035 C 
BRANCH  10  11
ATOM     11  C   UNL     1      -4.778 -40.675 218.085  1.00  0.00     0.079 C 
BRANCH  11  12
ATOM     12  C   UNL     1      -5.799 -39.745 218.686  1.00  0.00     0.130 C 
ATOM     13  O   UNL     1      -6.974 -40.078 218.710  1.00  0.00    -0.300 OA
ATOM     14  C   UNL     1      -5.405 -38.411 219.249  1.00  0.00     0.087 C 
ENDBRANCH  11  12
ENDBRANCH  10  11
ENDBRANCH   2  10
TORSDOF 6
ENDMDL
MODEL 8
REMARK VINA RESULT:    -4.149      1.748      2.748
REMARK INTER + INTRA:          -6.976
REMARK INTER:                  -5.214
REMARK INTRA:                  -1.762
REMARK UNBOUND:                -1.372
REMARK SMILES CC(=O)CCC=C(C)CCC=C(C)C
REMARK SMILES IDX 7 1 6 2 8 3 9 4 10 5 11 6 13 7 12 8 14 9 5 10 4 11 2 12 3 13
REMARK SMILES IDX 1 14
REMARK H PARENT
REMARK Flexibility Score: inf
ROOT
ATOM      1  C   UNL     1     -18.090 -38.204 208.095  1.00  0.00    -0.077 C 
ATOM      2  C   UNL     1     -16.851 -38.470 207.619  1.00  0.00    -0.028 C 
ATOM      3  C   UNL     1     -18.641 -36.814 207.906  1.00  0.00     0.039 C 
ENDROOT
BRANCH   1   4
ATOM      4  C   UNL     1     -18.972 -39.247 208.760  1.00  0.00     0.034 C 
BRANCH   4   5
ATOM      5  C   UNL     1     -19.390 -38.827 210.177  1.00  0.00     0.032 C 
BRANCH   5   6
ATOM      6  C   UNL     1     -18.541 -39.483 211.239  1.00  0.00    -0.028 C 
ATOM      7  C   UNL     1     -16.707 -39.697 212.860  1.00  0.00     0.039 C 
ATOM      8  C   UNL     1     -17.489 -38.896 211.852  1.00  0.00    -0.080 C 
ATOM      9  C   UNL     1     -17.081 -37.472 211.555  1.00  0.00     0.039 C 
ENDBRANCH   5   6
ENDBRANCH   4   5
ENDBRANCH   1   4
BRANCH   2  10
ATOM     10  C   UNL     1     -16.146 -39.798 207.732  1.00  0.00     0.035 C 
BRANCH  10  11
ATOM     11  C   UNL     1     -15.310 -39.869 209.014  1.00  0.00     0.079 C 
BRANCH  11  12
ATOM     12  C   UNL     1     -15.445 -41.223 209.661  1.00  0.00     0.130 C 
ATOM     13  O   UNL     1     -14.550 -41.636 210.383  1.00  0.00    -0.300 OA
ATOM     14  C   UNL     1     -16.653 -42.082 209.430  1.00  0.00     0.087 C 
ENDBRANCH  11  12
ENDBRANCH  10  11
ENDBRANCH   2  10
TORSDOF 6
ENDMDL
MODEL 9
REMARK VINA RESULT:    -4.101      1.627      4.633
REMARK INTER + INTRA:          -6.911
REMARK INTER:                  -5.625
REMARK INTRA:                  -1.286
REMARK UNBOUND:                -1.372
REMARK SMILES CC(=O)CCC=C(C)CCC=C(C)C
REMARK SMILES IDX 7 1 6 2 8 3 9 4 10 5 11 6 13 7 12 8 14 9 5 10 4 11 2 12 3 13
REMARK SMILES IDX 1 14
REMARK H PARENT
REMARK Flexibility Score: inf
ROOT
ATOM      1  C   UNL     1     -16.786 -40.301 212.663  1.00  0.00    -0.077 C 
ATOM      2  C   UNL     1     -16.705 -38.961 212.844  1.00  0.00    -0.028 C 
ATOM      3  C   UNL     1     -15.992 -41.192 213.583  1.00  0.00     0.039 C 
ENDROOT
BRANCH   1   4
ATOM      4  C   UNL     1     -17.677 -40.950 211.617  1.00  0.00     0.034 C 
BRANCH   4   5
ATOM      5  C   UNL     1     -16.868 -41.778 210.608  1.00  0.00     0.032 C 
BRANCH   5   6
ATOM      6  C   UNL     1     -15.601 -41.076 210.181  1.00  0.00    -0.028 C 
ATOM      7  C   UNL     1     -13.915 -40.193 208.628  1.00  0.00     0.039 C 
ATOM      8  C   UNL     1     -15.235 -40.868 208.897  1.00  0.00    -0.080 C 
ATOM      9  C   UNL     1     -16.105 -41.291 207.737  1.00  0.00     0.039 C 
ENDBRANCH   5   6
ENDBRANCH   4   5
ENDBRANCH   1   4
BRANCH   2  10
ATOM     10  C   UNL     1     -17.420 -37.929 212.009  1.00  0.00     0.035 C 
BRANCH  10  11
ATOM     11  C   UNL     1     -16.596 -37.553 210.773  1.00  0.00     0.079 C 
BRANCH  11  12
ATOM     12  C   UNL     1     -17.342 -37.900 209.512  1.00  0.00     0.130 C 
ATOM     13  O   UNL     1     -16.757 -37.868 208.440  1.00  0.00    -0.300 OA
ATOM     14  C   UNL     1     -18.794 -38.276 209.542  1.00  0.00     0.087 C 
ENDBRANCH  11  12
ENDBRANCH  10  11
ENDBRANCH   2  10
TORSDOF 6
ENDMDL
