MODEL 1
REMARK VINA RESULT:    -1.893      0.000      0.000
REMARK INTER + INTRA:          -1.893
REMARK INTER:                  -1.893
REMARK INTRA:                   0.000
REMARK UNBOUND:                 0.000
REMARK SMILES CC(=O)[O-]
REMARK SMILES IDX 1 1 2 2 3 3 4 4
REMARK H PARENT
REMARK Flexibility Score: inf
ROOT
ATOM      1  C   UNL     1     -46.752 -48.764  70.718  1.00  0.00     0.063 C 
ATOM      2  C   UNL     1     -47.841 -47.747  70.774  1.00  0.00     0.038 C 
ATOM      3  O   UNL     1     -47.674 -46.614  70.253  1.00  0.00    -0.550 OA
ATOM      4  O   UNL     1     -49.062 -48.066  71.355  1.00  0.00    -0.550 OA
ENDROOT
TORSDOF 0
ENDMDL
MODEL 2
REMARK VINA RESULT:    -1.892      0.113      1.624
REMARK INTER + INTRA:          -1.892
REMARK INTER:                  -1.892
REMARK INTRA:                   0.000
REMARK UNBOUND:                 0.000
REMARK SMILES CC(=O)[O-]
REMARK SMILES IDX 1 1 2 2 3 3 4 4
REMARK H PARENT
REMARK Flexibility Score: inf
ROOT
ATOM      1  C   UNL     1     -46.883 -48.857  70.722  1.00  0.00     0.063 C 
ATOM      2  C   UNL     1     -47.913 -47.781  70.790  1.00  0.00     0.038 C 
ATOM      3  O   UNL     1     -49.000 -47.985  71.391  1.00  0.00    -0.550 OA
ATOM      4  O   UNL     1     -47.654 -46.533  70.238  1.00  0.00    -0.550 OA
ENDROOT
TORSDOF 0
ENDMDL
MODEL 3
REMARK VINA RESULT:    -1.874      1.469      1.956
REMARK INTER + INTRA:          -1.874
REMARK INTER:                  -1.874
REMARK INTRA:                   0.000
REMARK UNBOUND:                 0.000
REMARK SMILES CC(=O)[O-]
REMARK SMILES IDX 1 1 2 2 3 3 4 4
REMARK H PARENT
REMARK Flexibility Score: inf
ROOT
ATOM      1  C   UNL     1     -45.617 -47.046  71.208  1.00  0.00     0.063 C 
ATOM      2  C   UNL     1     -46.976 -47.473  70.768  1.00  0.00     0.038 C 
ATOM      3  O   UNL     1     -47.376 -48.643  70.999  1.00  0.00    -0.550 OA
ATOM      4  O   UNL     1     -47.825 -46.563  70.149  1.00  0.00    -0.550 OA
ENDROOT
TORSDOF 0
ENDMDL
MODEL 4
REMARK VINA RESULT:    -1.641      1.597      2.020
REMARK INTER + INTRA:          -1.641
REMARK INTER:                  -1.641
REMARK INTRA:                   0.000
REMARK UNBOUND:                 0.000
REMARK SMILES CC(=O)[O-]
REMARK SMILES IDX 1 1 2 2 3 3 4 4
REMARK H PARENT
REMARK Flexibility Score: inf
ROOT
ATOM      1  C   UNL     1     -47.499 -47.193  70.488  1.00  0.00     0.063 C 
ATOM      2  C   UNL     1     -48.162 -48.469  70.886  1.00  0.00     0.038 C 
ATOM      3  O   UNL     1     -49.395 -48.489  71.134  1.00  0.00    -0.550 OA
ATOM      4  O   UNL     1     -47.429 -49.648  70.933  1.00  0.00    -0.550 OA
ENDROOT
TORSDOF 0
ENDMDL
MODEL 5
REMARK VINA RESULT:    -1.611      2.059      2.296
REMARK INTER + INTRA:          -1.611
REMARK INTER:                  -1.611
REMARK INTRA:                   0.000
REMARK UNBOUND:                 0.000
REMARK SMILES CC(=O)[O-]
REMARK SMILES IDX 1 1 2 2 3 3 4 4
REMARK H PARENT
REMARK Flexibility Score: inf
ROOT
ATOM      1  C   UNL     1     -47.649 -47.701  70.849  1.00  0.00     0.063 C 
ATOM      2  C   UNL     1     -47.027 -49.056  70.819  1.00  0.00     0.038 C 
ATOM      3  O   UNL     1     -45.775 -49.176  70.802  1.00  0.00    -0.550 OA
ATOM      4  O   UNL     1     -47.828 -50.190  70.865  1.00  0.00    -0.550 OA
ENDROOT
TORSDOF 0
ENDMDL
MODEL 6
REMARK VINA RESULT:    -1.598     10.749     10.781
REMARK INTER + INTRA:          -1.598
REMARK INTER:                  -1.598
REMARK INTRA:                   0.000
REMARK UNBOUND:                 0.000
REMARK SMILES CC(=O)[O-]
REMARK SMILES IDX 1 1 2 2 3 3 4 4
REMARK H PARENT
REMARK Flexibility Score: inf
ROOT
ATOM      1  C   UNL     1     -50.931 -37.666  72.075  1.00  0.00     0.063 C 
ATOM      2  C   UNL     1     -50.057 -37.378  70.902  1.00  0.00     0.038 C 
ATOM      3  O   UNL     1     -48.846 -37.082  71.074  1.00  0.00    -0.550 OA
ATOM      4  O   UNL     1     -50.564 -37.489  69.613  1.00  0.00    -0.550 OA
ENDROOT
TORSDOF 0
ENDMDL
MODEL 7
REMARK VINA RESULT:    -1.578     10.624     10.682
REMARK INTER + INTRA:          -1.578
REMARK INTER:                  -1.578
REMARK INTRA:                   0.000
REMARK UNBOUND:                 0.000
REMARK SMILES CC(=O)[O-]
REMARK SMILES IDX 1 1 2 2 3 3 4 4
REMARK H PARENT
REMARK Flexibility Score: inf
ROOT
ATOM      1  C   UNL     1     -48.754 -36.931  71.281  1.00  0.00     0.063 C 
ATOM      2  C   UNL     1     -50.129 -37.417  70.971  1.00  0.00     0.038 C 
ATOM      3  O   UNL     1     -50.519 -37.488  69.776  1.00  0.00    -0.550 OA
ATOM      4  O   UNL     1     -50.965 -37.844  71.995  1.00  0.00    -0.550 OA
ENDROOT
TORSDOF 0
ENDMDL
MODEL 8
REMARK VINA RESULT:    -1.526      8.493      8.647
REMARK INTER + INTRA:          -1.526
REMARK INTER:                  -1.526
REMARK INTRA:                   0.000
REMARK UNBOUND:                 0.000
REMARK SMILES CC(=O)[O-]
REMARK SMILES IDX 1 1 2 2 3 3 4 4
REMARK H PARENT
REMARK Flexibility Score: inf
ROOT
ATOM      1  C   UNL     1     -45.229 -39.634  72.131  1.00  0.00     0.063 C 
ATOM      2  C   UNL     1     -46.051 -39.847  73.357  1.00  0.00     0.038 C 
ATOM      3  O   UNL     1     -47.149 -39.248  73.493  1.00  0.00    -0.550 OA
ATOM      4  O   UNL     1     -45.633 -40.749  74.327  1.00  0.00    -0.550 OA
ENDROOT
TORSDOF 0
ENDMDL
MODEL 9
REMARK VINA RESULT:    -1.461      8.754      9.228
REMARK INTER + INTRA:          -1.461
REMARK INTER:                  -1.461
REMARK INTRA:                   0.000
REMARK UNBOUND:                 0.000
REMARK SMILES CC(=O)[O-]
REMARK SMILES IDX 1 1 2 2 3 3 4 4
REMARK H PARENT
REMARK Flexibility Score: inf
ROOT
ATOM      1  C   UNL     1     -47.114 -37.996  72.234  1.00  0.00     0.063 C 
ATOM      2  C   UNL     1     -46.136 -39.089  72.503  1.00  0.00     0.038 C 
ATOM      3  O   UNL     1     -45.006 -39.075  71.950  1.00  0.00    -0.550 OA
ATOM      4  O   UNL     1     -46.449 -40.096  73.408  1.00  0.00    -0.550 OA
ENDROOT
TORSDOF 0
ENDMDL
