MODEL 1
REMARK VINA RESULT:    79.382      0.000      0.000
REMARK INTER + INTRA:         126.064
REMARK INTER:                 116.507
REMARK INTRA:                   9.557
REMARK UNBOUND:                 9.557
REMARK SMILES Cc1cc2c(C(C)C)c(O)c(O)c(C=O)c2c(O)c1-c1c(C)cc2c(C(C)C)c(O)c(O)c(C=O)c2c1O
REMARK SMILES IDX 1 1 2 2 3 3 4 4 16 5 13 6 11 7 9 8 5 9 17 10 19 11 20 12
REMARK SMILES IDX 37 13 21 14 36 15 23 16 22 17 24 18 33 19 25 20 31 21 29 22
REMARK SMILES IDX 38 23 34 25 35 26 26 27 27 28 28 29 32 30 30 32 18 34 6 36
REMARK SMILES IDX 7 37 8 38 14 39 15 40 10 41 12 43
REMARK H PARENT 38 24 32 31 30 33 18 35 10 42 12 44
REMARK Flexibility Score: inf
ROOT
ATOM      1  C   UNL     1      85.071  20.118 106.827  1.00  0.00     0.045 C 
ATOM      2  C   UNL     1      84.992  18.778 107.518  1.00  0.00    -0.039 A 
ATOM      3  C   UNL     1      84.296  17.736 106.903  1.00  0.00     0.013 A 
ATOM      4  C   UNL     1      84.178  16.460 107.502  1.00  0.00    -0.006 A 
ATOM      5  C   UNL     1      84.847  16.223 108.739  1.00  0.00     0.039 A 
ATOM      6  C   UNL     1      84.728  14.942 109.349  1.00  0.00     0.072 A 
ATOM      7  C   UNL     1      84.173  13.873 108.629  1.00  0.00     0.169 A 
ATOM      8  C   UNL     1      83.607  14.090 107.360  1.00  0.00     0.162 A 
ATOM      9  C   UNL     1      83.452  15.405 106.868  1.00  0.00     0.008 A 
ATOM     10  C   UNL     1      85.659  17.252 109.298  1.00  0.00     0.132 A 
ATOM     11  C   UNL     1      85.688  18.535 108.714  1.00  0.00     0.031 A 
ENDROOT
BRANCH  11  12
ATOM     12  C   UNL     1      86.493  19.618 109.337  1.00  0.00     0.031 A 
ATOM     13  C   UNL     1      87.496  19.307 110.278  1.00  0.00     0.132 A 
ATOM     14  C   UNL     1      86.279  20.952 108.954  1.00  0.00    -0.039 A 
ATOM     15  C   UNL     1      88.245  20.346 110.904  1.00  0.00     0.039 A 
ATOM     16  C   UNL     1      87.090  21.959 109.480  1.00  0.00     0.013 A 
ATOM     17  C   UNL     1      85.239  21.307 107.918  1.00  0.00     0.045 C 
ATOM     18  C   UNL     1      88.061  21.694 110.471  1.00  0.00    -0.006 A 
ATOM     19  C   UNL     1      89.214  20.075 111.912  1.00  0.00     0.072 A 
ATOM     20  C   UNL     1      88.883  22.734 111.006  1.00  0.00     0.008 A 
ATOM     21  C   UNL     1      90.129  21.069 112.289  1.00  0.00     0.169 A 
ATOM     22  C   UNL     1      90.011  22.372 111.776  1.00  0.00     0.162 A 
BRANCH  13  23
ATOM     23  O   UNL     1      87.789  17.966 110.553  1.00  0.00    -0.507 OA
ATOM     24  H   UNL     1      88.286  17.356 109.918  1.00  0.00     0.293 HD
ENDBRANCH  13  23
BRANCH  19  25
ATOM     25  C   UNL     1      89.264  18.800 112.664  1.00  0.00     0.264 C 
ATOM     26  O   UNL     1      90.359  18.206 112.852  1.00  0.00    -0.298 OA
ENDBRANCH  19  25
BRANCH  20  27
ATOM     27  C   UNL     1      88.605  24.219 110.712  1.00  0.00     0.017 C 
ATOM     28  C   UNL     1      89.401  24.695 109.494  1.00  0.00     0.012 C 
ATOM     29  C   UNL     1      88.828  25.147 111.923  1.00  0.00     0.012 C 
ENDBRANCH  20  27
BRANCH  21  30
ATOM     30  O   UNL     1      91.124  20.742 113.218  1.00  0.00    -0.504 OA
ATOM     31  H   UNL     1      91.852  21.377 113.516  1.00  0.00     0.293 HD
ENDBRANCH  21  30
BRANCH  22  32
ATOM     32  O   UNL     1      91.009  23.323 112.011  1.00  0.00    -0.504 OA
ATOM     33  H   UNL     1      91.184  23.751 112.910  1.00  0.00     0.293 HD
ENDBRANCH  22  32
ENDBRANCH  11  12
BRANCH  10  34
ATOM     34  O   UNL     1      86.478  16.980 110.401  1.00  0.00    -0.507 OA
ATOM     35  H   UNL     1      87.426  17.321 110.497  1.00  0.00     0.293 HD
ENDBRANCH  10  34
BRANCH   9  36
ATOM     36  C   UNL     1      82.563  15.658 105.637  1.00  0.00     0.017 C 
ATOM     37  C   UNL     1      82.051  17.101 105.618  1.00  0.00     0.012 C 
ATOM     38  C   UNL     1      83.230  15.284 104.299  1.00  0.00     0.012 C 
ENDBRANCH   9  36
BRANCH   6  39
ATOM     39  C   UNL     1      85.091  14.682 110.760  1.00  0.00     0.264 C 
ATOM     40  O   UNL     1      86.186  14.131 111.052  1.00  0.00    -0.298 OA
ENDBRANCH   6  39
BRANCH   8  41
ATOM     41  O   UNL     1      83.202  13.013 106.568  1.00  0.00    -0.504 OA
ATOM     42  H   UNL     1      83.122  13.047 105.561  1.00  0.00     0.293 HD
ENDBRANCH   8  41
BRANCH   7  43
ATOM     43  O   UNL     1      84.152  12.606 109.226  1.00  0.00    -0.504 OA
ATOM     44  H   UNL     1      83.889  11.757 108.745  1.00  0.00     0.293 HD
ENDBRANCH   7  43
TORSDOF 11
ENDMDL
MODEL 2
REMARK VINA RESULT:    79.429      0.802      8.536
REMARK INTER + INTRA:         126.133
REMARK INTER:                 116.673
REMARK INTRA:                   9.460
REMARK UNBOUND:                 9.557
REMARK SMILES Cc1cc2c(C(C)C)c(O)c(O)c(C=O)c2c(O)c1-c1c(C)cc2c(C(C)C)c(O)c(O)c(C=O)c2c1O
REMARK SMILES IDX 1 1 2 2 3 3 4 4 16 5 13 6 11 7 9 8 5 9 17 10 19 11 20 12
REMARK SMILES IDX 37 13 21 14 36 15 23 16 22 17 24 18 33 19 25 20 31 21 29 22
REMARK SMILES IDX 38 23 34 25 35 26 26 27 27 28 28 29 32 30 30 32 18 34 6 36
REMARK SMILES IDX 7 37 8 38 14 39 15 40 10 41 12 43
REMARK H PARENT 38 24 32 31 30 33 18 35 10 42 12 44
REMARK Flexibility Score: inf
ROOT
ATOM      1  C   UNL     1      85.755  21.819 108.354  1.00  0.00     0.045 C 
ATOM      2  C   UNL     1      86.813  21.337 109.319  1.00  0.00    -0.039 A 
ATOM      3  C   UNL     1      87.567  22.276 110.025  1.00  0.00     0.013 A 
ATOM      4  C   UNL     1      88.577  21.889 110.936  1.00  0.00    -0.006 A 
ATOM      5  C   UNL     1      88.780  20.498 111.181  1.00  0.00     0.039 A 
ATOM      6  C   UNL     1      89.798  20.103 112.093  1.00  0.00     0.072 A 
ATOM      7  C   UNL     1      90.416  21.062 112.910  1.00  0.00     0.169 A 
ATOM      8  C   UNL     1      90.135  22.429 112.737  1.00  0.00     0.162 A 
ATOM      9  C   UNL     1      89.352  22.860 111.643  1.00  0.00     0.008 A 
ATOM     10  C   UNL     1      87.921  19.551 110.552  1.00  0.00     0.132 A 
ATOM     11  C   UNL     1      86.978  19.969 109.590  1.00  0.00     0.031 A 
ENDROOT
BRANCH  11  12
ATOM     12  C   UNL     1      86.127  18.967 108.898  1.00  0.00     0.031 A 
ATOM     13  C   UNL     1      85.971  17.672 109.436  1.00  0.00     0.132 A 
ATOM     14  C   UNL     1      85.442  19.326 107.726  1.00  0.00    -0.039 A 
ATOM     15  C   UNL     1      85.185  16.698 108.756  1.00  0.00     0.039 A 
ATOM     16  C   UNL     1      84.580  18.409 107.122  1.00  0.00     0.013 A 
ATOM     17  C   UNL     1      85.559  20.719 107.153  1.00  0.00     0.045 C 
ATOM     18  C   UNL     1      84.449  17.085 107.595  1.00  0.00    -0.006 A 
ATOM     19  C   UNL     1      85.066  15.360 109.229  1.00  0.00     0.072 A 
ATOM     20  C   UNL     1      83.566  16.153 106.966  1.00  0.00     0.008 A 
ATOM     21  C   UNL     1      84.065  14.521 108.716  1.00  0.00     0.169 A 
ATOM     22  C   UNL     1      83.266  14.948 107.640  1.00  0.00     0.162 A 
BRANCH  13  23
ATOM     23  O   UNL     1      86.552  17.368 110.673  1.00  0.00    -0.507 OA
ATOM     24  H   UNL     1      86.326  17.845 111.535  1.00  0.00     0.293 HD
ENDBRANCH  13  23
BRANCH  19  25
ATOM     25  C   UNL     1      86.009  14.759 110.200  1.00  0.00     0.264 C 
ATOM     26  O   UNL     1      85.598  13.974 111.096  1.00  0.00    -0.298 OA
ENDBRANCH  19  25
BRANCH  20  27
ATOM     27  C   UNL     1      82.894  16.458 105.615  1.00  0.00     0.017 C 
ATOM     28  C   UNL     1      81.500  17.058 105.821  1.00  0.00     0.012 C 
ATOM     29  C   UNL     1      82.848  15.254 104.655  1.00  0.00     0.012 C 
ENDBRANCH  20  27
BRANCH  21  30
ATOM     30  O   UNL     1      83.919  13.242 109.266  1.00  0.00    -0.504 OA
ATOM     31  H   UNL     1      84.357  12.942 110.126  1.00  0.00     0.293 HD
ENDBRANCH  21  30
BRANCH  22  32
ATOM     32  O   UNL     1      82.163  14.194 107.231  1.00  0.00    -0.504 OA
ATOM     33  H   UNL     1      81.209  14.393 107.499  1.00  0.00     0.293 HD
ENDBRANCH  22  32
ENDBRANCH  11  12
BRANCH  10  34
ATOM     34  O   UNL     1      87.969  18.202 110.926  1.00  0.00    -0.507 OA
ATOM     35  H   UNL     1      87.149  17.633 111.093  1.00  0.00     0.293 HD
ENDBRANCH  10  34
BRANCH   9  36
ATOM     36  C   UNL     1      89.305  24.355 111.281  1.00  0.00     0.017 C 
ATOM     37  C   UNL     1      88.990  24.549 109.795  1.00  0.00     0.012 C 
ATOM     38  C   UNL     1      88.354  25.181 112.168  1.00  0.00     0.012 C 
ENDBRANCH   9  36
BRANCH   6  39
ATOM     39  C   UNL     1      90.314  18.718 112.179  1.00  0.00     0.264 C 
ATOM     40  O   UNL     1      89.865  17.916 113.040  1.00  0.00    -0.298 OA
ENDBRANCH   6  39
BRANCH   8  41
ATOM     41  O   UNL     1      90.615  23.375 113.647  1.00  0.00    -0.504 OA
ATOM     42  H   UNL     1      90.117  24.214 113.909  1.00  0.00     0.293 HD
ENDBRANCH   8  41
BRANCH   7  43
ATOM     43  O   UNL     1      91.351  20.628 113.859  1.00  0.00    -0.504 OA
ATOM     44  H   UNL     1      91.535  19.657 114.069  1.00  0.00     0.293 HD
ENDBRANCH   7  43
TORSDOF 11
ENDMDL
