MODEL 1
REMARK VINA RESULT:    -3.494      0.000      0.000
REMARK INTER + INTRA:          -3.829
REMARK INTER:                  -3.800
REMARK INTRA:                  -0.029
REMARK UNBOUND:                -0.029
REMARK SMILES COc1ccccc1O
REMARK SMILES IDX 3 1 4 2 5 3 6 4 7 5 8 6 2 7 1 8 9 9
REMARK H PARENT 9 10
REMARK Flexibility Score: inf
ROOT
ATOM      1  C   UNL     1      -0.041  27.184  30.339  1.00  0.00     0.160 A 
ATOM      2  C   UNL     1      -0.015  28.527  29.911  1.00  0.00     0.050 A 
ATOM      3  C   UNL     1      -0.043  28.835  28.549  1.00  0.00     0.004 A 
ATOM      4  C   UNL     1      -0.098  27.811  27.600  1.00  0.00     0.004 A 
ATOM      5  C   UNL     1      -0.125  26.478  28.013  1.00  0.00     0.050 A 
ATOM      6  C   UNL     1      -0.097  26.158  29.375  1.00  0.00     0.157 A 
ENDROOT
BRANCH   1   7
ATOM      7  O   UNL     1      -0.014  26.836  31.699  1.00  0.00    -0.493 OA
ATOM      8  C   UNL     1       0.764  27.504  32.687  1.00  0.00     0.278 C 
ENDBRANCH   1   7
BRANCH   6   9
ATOM      9  O   UNL     1      -0.124  24.815  29.752  1.00  0.00    -0.504 OA
ATOM     10  H   UNL     1       0.177  24.506  30.668  1.00  0.00     0.293 HD
ENDBRANCH   6   9
TORSDOF 2
ENDMDL
MODEL 2
REMARK VINA RESULT:    -3.407      2.533      3.289
REMARK INTER + INTRA:          -3.735
REMARK INTER:                  -3.691
REMARK INTRA:                  -0.044
REMARK UNBOUND:                -0.029
REMARK SMILES COc1ccccc1O
REMARK SMILES IDX 3 1 4 2 5 3 6 4 7 5 8 6 2 7 1 8 9 9
REMARK H PARENT 9 10
REMARK Flexibility Score: inf
ROOT
ATOM      1  C   UNL     1       0.858  27.588  32.502  1.00  0.00     0.160 A 
ATOM      2  C   UNL     1      -0.125  26.714  31.997  1.00  0.00     0.050 A 
ATOM      3  C   UNL     1      -0.122  26.350  30.648  1.00  0.00     0.004 A 
ATOM      4  C   UNL     1       0.858  26.852  29.790  1.00  0.00     0.004 A 
ATOM      5  C   UNL     1       1.837  27.719  30.279  1.00  0.00     0.050 A 
ATOM      6  C   UNL     1       1.843  28.090  31.628  1.00  0.00     0.157 A 
ENDROOT
BRANCH   1   7
ATOM      7  O   UNL     1       0.887  27.976  33.851  1.00  0.00    -0.493 OA
ATOM      8  C   UNL     1      -0.061  28.846  34.460  1.00  0.00     0.278 C 
ENDBRANCH   1   7
BRANCH   6   9
ATOM      9  O   UNL     1       2.836  28.959  32.083  1.00  0.00    -0.504 OA
ATOM     10  H   UNL     1       3.703  28.623  32.485  1.00  0.00     0.293 HD
ENDBRANCH   6   9
TORSDOF 2
ENDMDL
MODEL 3
REMARK VINA RESULT:    -2.931      1.707      2.496
REMARK INTER + INTRA:          -3.217
REMARK INTER:                  -3.189
REMARK INTRA:                  -0.028
REMARK UNBOUND:                -0.029
REMARK SMILES COc1ccccc1O
REMARK SMILES IDX 3 1 4 2 5 3 6 4 7 5 8 6 2 7 1 8 9 9
REMARK H PARENT 9 10
REMARK Flexibility Score: inf
ROOT
ATOM      1  C   UNL     1      -0.066  27.854  30.247  1.00  0.00     0.160 A 
ATOM      2  C   UNL     1      -0.067  26.472  30.525  1.00  0.00     0.050 A 
ATOM      3  C   UNL     1      -0.097  25.542  29.483  1.00  0.00     0.004 A 
ATOM      4  C   UNL     1      -0.125  25.977  28.156  1.00  0.00     0.004 A 
ATOM      5  C   UNL     1      -0.124  27.343  27.870  1.00  0.00     0.050 A 
ATOM      6  C   UNL     1      -0.095  28.284  28.906  1.00  0.00     0.157 A 
ENDROOT
BRANCH   1   7
ATOM      7  O   UNL     1      -0.037  28.818  31.267  1.00  0.00    -0.493 OA
ATOM      8  C   UNL     1       0.615  28.645  32.522  1.00  0.00     0.278 C 
ENDBRANCH   1   7
BRANCH   6   9
ATOM      9  O   UNL     1      -0.095  29.641  28.583  1.00  0.00    -0.504 OA
ATOM     10  H   UNL     1      -0.949  30.146  28.378  1.00  0.00     0.293 HD
ENDBRANCH   6   9
TORSDOF 2
ENDMDL
MODEL 4
REMARK VINA RESULT:    -2.896      1.916      4.502
REMARK INTER + INTRA:          -3.180
REMARK INTER:                  -3.152
REMARK INTRA:                  -0.027
REMARK UNBOUND:                -0.029
REMARK SMILES COc1ccccc1O
REMARK SMILES IDX 3 1 4 2 5 3 6 4 7 5 8 6 2 7 1 8 9 9
REMARK H PARENT 9 10
REMARK Flexibility Score: inf
ROOT
ATOM      1  C   UNL     1       1.082  27.581  31.270  1.00  0.00     0.160 A 
ATOM      2  C   UNL     1       0.053  26.754  31.764  1.00  0.00     0.050 A 
ATOM      3  C   UNL     1      -0.123  26.590  33.140  1.00  0.00     0.004 A 
ATOM      4  C   UNL     1       0.723  27.246  34.037  1.00  0.00     0.004 A 
ATOM      5  C   UNL     1       1.745  28.067  33.559  1.00  0.00     0.050 A 
ATOM      6  C   UNL     1       1.930  28.239  32.182  1.00  0.00     0.157 A 
ENDROOT
BRANCH   1   7
ATOM      7  O   UNL     1       1.288  27.770  29.894  1.00  0.00    -0.493 OA
ATOM      8  C   UNL     1       0.259  27.733  28.911  1.00  0.00     0.278 C 
ENDBRANCH   1   7
BRANCH   6   9
ATOM      9  O   UNL     1       2.962  29.066  31.739  1.00  0.00    -0.504 OA
ATOM     10  H   UNL     1       3.844  28.696  31.404  1.00  0.00     0.293 HD
ENDBRANCH   6   9
TORSDOF 2
ENDMDL
MODEL 5
REMARK VINA RESULT:    -2.544      2.302      3.176
REMARK INTER + INTRA:          -2.796
REMARK INTER:                  -2.773
REMARK INTRA:                  -0.024
REMARK UNBOUND:                -0.029
REMARK SMILES COc1ccccc1O
REMARK SMILES IDX 3 1 4 2 5 3 6 4 7 5 8 6 2 7 1 8 9 9
REMARK H PARENT 9 10
REMARK Flexibility Score: inf
ROOT
ATOM      1  C   UNL     1       0.701  28.247  32.090  1.00  0.00     0.160 A 
ATOM      2  C   UNL     1       0.798  28.308  30.685  1.00  0.00     0.050 A 
ATOM      3  C   UNL     1       0.436  27.208  29.904  1.00  0.00     0.004 A 
ATOM      4  C   UNL     1      -0.025  26.038  30.512  1.00  0.00     0.004 A 
ATOM      5  C   UNL     1      -0.125  25.967  31.902  1.00  0.00     0.050 A 
ATOM      6  C   UNL     1       0.235  27.063  32.695  1.00  0.00     0.157 A 
ENDROOT
BRANCH   1   7
ATOM      7  O   UNL     1       1.055  29.332  32.908  1.00  0.00    -0.493 OA
ATOM      8  C   UNL     1       0.146  30.330  33.362  1.00  0.00     0.278 C 
ENDBRANCH   1   7
BRANCH   6   9
ATOM      9  O   UNL     1       0.123  26.957  34.081  1.00  0.00    -0.504 OA
ATOM     10  H   UNL     1      -0.379  27.640  34.636  1.00  0.00     0.293 HD
ENDBRANCH   6   9
TORSDOF 2
ENDMDL
MODEL 6
REMARK VINA RESULT:    -2.030      2.086      3.047
REMARK INTER + INTRA:          -2.237
REMARK INTER:                  -2.191
REMARK INTRA:                  -0.046
REMARK UNBOUND:                -0.029
REMARK SMILES COc1ccccc1O
REMARK SMILES IDX 3 1 4 2 5 3 6 4 7 5 8 6 2 7 1 8 9 9
REMARK H PARENT 9 10
REMARK Flexibility Score: inf
ROOT
ATOM      1  C   UNL     1       0.962  27.860  31.839  1.00  0.00     0.160 A 
ATOM      2  C   UNL     1       1.305  27.024  30.758  1.00  0.00     0.050 A 
ATOM      3  C   UNL     1       0.935  27.367  29.455  1.00  0.00     0.004 A 
ATOM      4  C   UNL     1       0.221  28.543  29.216  1.00  0.00     0.004 A 
ATOM      5  C   UNL     1      -0.124  29.379  30.280  1.00  0.00     0.050 A 
ATOM      6  C   UNL     1       0.242  29.045  31.589  1.00  0.00     0.157 A 
ENDROOT
BRANCH   1   7
ATOM      7  O   UNL     1       1.316  27.549  33.162  1.00  0.00    -0.493 OA
ATOM      8  C   UNL     1       0.586  26.665  34.006  1.00  0.00     0.278 C 
ENDBRANCH   1   7
BRANCH   6   9
ATOM      9  O   UNL     1      -0.120  29.903  32.628  1.00  0.00    -0.504 OA
ATOM     10  H   UNL     1      -0.644  30.754  32.466  1.00  0.00     0.293 HD
ENDBRANCH   6   9
TORSDOF 2
ENDMDL
MODEL 7
REMARK VINA RESULT:    -1.703      1.610      4.324
REMARK INTER + INTRA:          -1.882
REMARK INTER:                  -2.577
REMARK INTRA:                   0.695
REMARK UNBOUND:                -0.029
REMARK SMILES COc1ccccc1O
REMARK SMILES IDX 3 1 4 2 5 3 6 4 7 5 8 6 2 7 1 8 9 9
REMARK H PARENT 9 10
REMARK Flexibility Score: inf
ROOT
ATOM      1  C   UNL     1       0.186  26.988  31.740  1.00  0.00     0.160 A 
ATOM      2  C   UNL     1      -0.125  26.396  32.980  1.00  0.00     0.050 A 
ATOM      3  C   UNL     1      -0.111  27.157  34.151  1.00  0.00     0.004 A 
ATOM      4  C   UNL     1       0.212  28.515  34.099  1.00  0.00     0.004 A 
ATOM      5  C   UNL     1       0.522  29.113  32.876  1.00  0.00     0.050 A 
ATOM      6  C   UNL     1       0.510  28.359  31.697  1.00  0.00     0.157 A 
ENDROOT
BRANCH   1   7
ATOM      7  O   UNL     1       0.182  26.255  30.543  1.00  0.00    -0.493 OA
ATOM      8  C   UNL     1      -0.117  26.803  29.263  1.00  0.00     0.278 C 
ENDBRANCH   1   7
BRANCH   6   9
ATOM      9  O   UNL     1       0.825  28.988  30.492  1.00  0.00    -0.504 OA
ATOM     10  H   UNL     1       1.773  29.032  30.139  1.00  0.00     0.293 HD
ENDBRANCH   6   9
TORSDOF 2
ENDMDL
MODEL 8
REMARK VINA RESULT:    -1.677      1.933      3.789
REMARK INTER + INTRA:          -1.853
REMARK INTER:                  -1.828
REMARK INTRA:                  -0.026
REMARK UNBOUND:                -0.029
REMARK SMILES COc1ccccc1O
REMARK SMILES IDX 3 1 4 2 5 3 6 4 7 5 8 6 2 7 1 8 9 9
REMARK H PARENT 9 10
REMARK Flexibility Score: inf
ROOT
ATOM      1  C   UNL     1      -0.005  26.968  28.967  1.00  0.00     0.160 A 
ATOM      2  C   UNL     1      -0.107  26.074  30.053  1.00  0.00     0.050 A 
ATOM      3  C   UNL     1       0.017  26.538  31.365  1.00  0.00     0.004 A 
ATOM      4  C   UNL     1       0.242  27.894  31.609  1.00  0.00     0.004 A 
ATOM      5  C   UNL     1       0.344  28.789  30.542  1.00  0.00     0.050 A 
ATOM      6  C   UNL     1       0.222  28.334  29.224  1.00  0.00     0.157 A 
ENDROOT
BRANCH   1   7
ATOM      7  O   UNL     1      -0.125  26.538  27.636  1.00  0.00    -0.493 OA
ATOM      8  C   UNL     1      -0.089  25.176  27.222  1.00  0.00     0.278 C 
ENDBRANCH   1   7
BRANCH   6   9
ATOM      9  O   UNL     1       0.329  29.255  28.181  1.00  0.00    -0.504 OA
ATOM     10  H   UNL     1      -0.202  30.118  28.167  1.00  0.00     0.293 HD
ENDBRANCH   6   9
TORSDOF 2
ENDMDL
MODEL 9
REMARK VINA RESULT:    -1.004      2.967      4.354
REMARK INTER + INTRA:          -1.121
REMARK INTER:                  -1.096
REMARK INTRA:                  -0.025
REMARK UNBOUND:                -0.029
REMARK SMILES COc1ccccc1O
REMARK SMILES IDX 3 1 4 2 5 3 6 4 7 5 8 6 2 7 1 8 9 9
REMARK H PARENT 9 10
REMARK Flexibility Score: inf
ROOT
ATOM      1  C   UNL     1       0.018  27.439  33.547  1.00  0.00     0.160 A 
ATOM      2  C   UNL     1       0.163  27.006  32.214  1.00  0.00     0.050 A 
ATOM      3  C   UNL     1       0.303  27.934  31.180  1.00  0.00     0.004 A 
ATOM      4  C   UNL     1       0.300  29.302  31.462  1.00  0.00     0.004 A 
ATOM      5  C   UNL     1       0.157  29.743  32.779  1.00  0.00     0.050 A 
ATOM      6  C   UNL     1       0.016  28.821  33.822  1.00  0.00     0.157 A 
ENDROOT
BRANCH   1   7
ATOM      7  O   UNL     1      -0.125  26.536  34.612  1.00  0.00    -0.493 OA
ATOM      8  C   UNL     1      -0.065  25.119  34.482  1.00  0.00     0.278 C 
ENDBRANCH   1   7
BRANCH   6   9
ATOM      9  O   UNL     1      -0.125  29.297  35.126  1.00  0.00    -0.504 OA
ATOM     10  H   UNL     1       0.538  29.942  35.539  1.00  0.00     0.293 HD
ENDBRANCH   6   9
TORSDOF 2
ENDMDL
