MODEL 1
REMARK VINA RESULT:    -3.805      0.000      0.000
REMARK INTER + INTRA:          -5.255
REMARK INTER:                  -4.917
REMARK INTRA:                  -0.338
REMARK UNBOUND:                -0.338
REMARK SMILES CCCCCCC(=O)[O-]
REMARK SMILES IDX 5 1 6 2 7 3 8 4 9 5 4 6 3 7 2 8 1 9
REMARK H PARENT
REMARK Flexibility Score: inf
ROOT
ATOM      1  C   UNL     1      46.233   4.880 127.863  1.00  0.00     0.006 C 
ENDROOT
BRANCH   1   2
ATOM      2  C   UNL     1      46.381   5.556 129.234  1.00  0.00     0.053 C 
BRANCH   2   3
ATOM      3  C   UNL     1      46.621   7.029 129.105  1.00  0.00     0.041 C 
ATOM      4  O   UNL     1      45.662   7.840 129.184  1.00  0.00    -0.550 OA
ATOM      5  O   UNL     1      47.907   7.505 128.876  1.00  0.00    -0.550 OA
ENDBRANCH   2   3
ENDBRANCH   1   2
BRANCH   1   6
ATOM      6  C   UNL     1      44.781   4.522 127.493  1.00  0.00     0.000 C 
BRANCH   6   7
ATOM      7  C   UNL     1      44.055   5.628 126.698  1.00  0.00    -0.000 C 
BRANCH   7   8
ATOM      8  C   UNL     1      42.591   5.793 127.131  1.00  0.00    -0.003 C 
ATOM      9  C   UNL     1      42.489   6.551 128.452  1.00  0.00     0.004 C 
ENDBRANCH   7   8
ENDBRANCH   6   7
ENDBRANCH   1   6
TORSDOF 5
ENDMDL
MODEL 2
REMARK VINA RESULT:    -3.735      2.016      2.820
REMARK INTER + INTRA:          -5.164
REMARK INTER:                  -4.822
REMARK INTRA:                  -0.343
REMARK UNBOUND:                -0.338
REMARK SMILES CCCCCCC(=O)[O-]
REMARK SMILES IDX 5 1 6 2 7 3 8 4 9 5 4 6 3 7 2 8 1 9
REMARK H PARENT
REMARK Flexibility Score: inf
ROOT
ATOM      1  C   UNL     1      45.992   7.069 129.109  1.00  0.00     0.006 C 
ENDROOT
BRANCH   1   2
ATOM      2  C   UNL     1      46.399   5.588 129.062  1.00  0.00     0.053 C 
BRANCH   2   3
ATOM      3  C   UNL     1      46.188   4.911 130.382  1.00  0.00     0.041 C 
ATOM      4  O   UNL     1      47.162   4.696 131.149  1.00  0.00    -0.550 OA
ATOM      5  O   UNL     1      44.915   4.499 130.755  1.00  0.00    -0.550 OA
ENDBRANCH   2   3
ENDBRANCH   1   2
BRANCH   1   6
ATOM      6  C   UNL     1      44.789   7.417 128.211  1.00  0.00     0.000 C 
BRANCH   6   7
ATOM      7  C   UNL     1      43.423   7.137 128.873  1.00  0.00    -0.000 C 
BRANCH   7   8
ATOM      8  C   UNL     1      42.499   6.304 127.973  1.00  0.00    -0.003 C 
ATOM      9  C   UNL     1      43.293   5.572 126.894  1.00  0.00     0.004 C 
ENDBRANCH   7   8
ENDBRANCH   6   7
ENDBRANCH   1   6
TORSDOF 5
ENDMDL
MODEL 3
REMARK VINA RESULT:    -3.724      1.902      2.025
REMARK INTER + INTRA:          -5.150
REMARK INTER:                  -4.836
REMARK INTRA:                  -0.314
REMARK UNBOUND:                -0.338
REMARK SMILES CCCCCCC(=O)[O-]
REMARK SMILES IDX 5 1 6 2 7 3 8 4 9 5 4 6 3 7 2 8 1 9
REMARK H PARENT
REMARK Flexibility Score: inf
ROOT
ATOM      1  C   UNL     1      46.121   4.995 127.842  1.00  0.00     0.006 C 
ENDROOT
BRANCH   1   2
ATOM      2  C   UNL     1      46.691   5.612 129.127  1.00  0.00     0.053 C 
BRANCH   2   3
ATOM      3  C   UNL     1      46.185   4.914 130.352  1.00  0.00     0.041 C 
ATOM      4  O   UNL     1      44.977   4.571 130.435  1.00  0.00    -0.550 OA
ATOM      5  O   UNL     1      47.046   4.661 131.413  1.00  0.00    -0.550 OA
ENDBRANCH   2   3
ENDBRANCH   1   2
BRANCH   1   6
ATOM      6  C   UNL     1      45.095   5.889 127.118  1.00  0.00     0.000 C 
BRANCH   6   7
ATOM      7  C   UNL     1      43.803   5.146 126.716  1.00  0.00    -0.000 C 
BRANCH   7   8
ATOM      8  C   UNL     1      42.541   5.845 127.243  1.00  0.00    -0.003 C 
ATOM      9  C   UNL     1      42.853   6.694 128.472  1.00  0.00     0.004 C 
ENDBRANCH   7   8
ENDBRANCH   6   7
ENDBRANCH   1   6
TORSDOF 5
ENDMDL
MODEL 4
REMARK VINA RESULT:    -3.567      1.886      2.644
REMARK INTER + INTRA:          -4.947
REMARK INTER:                  -4.676
REMARK INTRA:                  -0.271
REMARK UNBOUND:                -0.338
REMARK SMILES CCCCCCC(=O)[O-]
REMARK SMILES IDX 5 1 6 2 7 3 8 4 9 5 4 6 3 7 2 8 1 9
REMARK H PARENT
REMARK Flexibility Score: inf
ROOT
ATOM      1  C   UNL     1      45.985   7.043 129.033  1.00  0.00     0.006 C 
ENDROOT
BRANCH   1   2
ATOM      2  C   UNL     1      46.607   6.244 127.879  1.00  0.00     0.053 C 
BRANCH   2   3
ATOM      3  C   UNL     1      46.970   7.126 126.723  1.00  0.00     0.041 C 
ATOM      4  O   UNL     1      48.125   7.616 126.635  1.00  0.00    -0.550 OA
ATOM      5  O   UNL     1      46.020   7.424 125.753  1.00  0.00    -0.550 OA
ENDBRANCH   2   3
ENDBRANCH   1   2
BRANCH   1   6
ATOM      6  C   UNL     1      44.559   7.550 128.748  1.00  0.00     0.000 C 
BRANCH   6   7
ATOM      7  C   UNL     1      43.458   6.523 129.089  1.00  0.00    -0.000 C 
BRANCH   7   8
ATOM      8  C   UNL     1      42.437   6.364 127.953  1.00  0.00    -0.003 C 
ATOM      9  C   UNL     1      43.040   5.614 126.769  1.00  0.00     0.004 C 
ENDBRANCH   7   8
ENDBRANCH   6   7
ENDBRANCH   1   6
TORSDOF 5
ENDMDL
MODEL 5
REMARK VINA RESULT:    -3.524      2.023      4.087
REMARK INTER + INTRA:          -4.891
REMARK INTER:                  -4.622
REMARK INTRA:                  -0.269
REMARK UNBOUND:                -0.338
REMARK SMILES CCCCCCC(=O)[O-]
REMARK SMILES IDX 5 1 6 2 7 3 8 4 9 5 4 6 3 7 2 8 1 9
REMARK H PARENT
REMARK Flexibility Score: inf
ROOT
ATOM      1  C   UNL     1      45.381   4.743 127.856  1.00  0.00     0.006 C 
ENDROOT
BRANCH   1   2
ATOM      2  C   UNL     1      44.229   5.321 127.020  1.00  0.00     0.053 C 
BRANCH   2   3
ATOM      3  C   UNL     1      43.211   6.011 127.876  1.00  0.00     0.041 C 
ATOM      4  O   UNL     1      42.075   6.291 127.414  1.00  0.00    -0.550 OA
ATOM      5  O   UNL     1      43.528   6.364 129.182  1.00  0.00    -0.550 OA
ENDBRANCH   2   3
ENDBRANCH   1   2
BRANCH   1   6
ATOM      6  C   UNL     1      46.652   5.613 127.857  1.00  0.00     0.000 C 
BRANCH   6   7
ATOM      7  C   UNL     1      47.176   5.941 129.272  1.00  0.00    -0.000 C 
BRANCH   7   8
ATOM      8  C   UNL     1      46.564   5.028 130.345  1.00  0.00    -0.003 C 
ATOM      9  C   UNL     1      47.645   4.423 131.237  1.00  0.00     0.004 C 
ENDBRANCH   7   8
ENDBRANCH   6   7
ENDBRANCH   1   6
TORSDOF 5
ENDMDL
MODEL 6
REMARK VINA RESULT:    -3.518      3.493      5.116
REMARK INTER + INTRA:          -4.883
REMARK INTER:                  -4.735
REMARK INTRA:                  -0.148
REMARK UNBOUND:                -0.338
REMARK SMILES CCCCCCC(=O)[O-]
REMARK SMILES IDX 5 1 6 2 7 3 8 4 9 5 4 6 3 7 2 8 1 9
REMARK H PARENT
REMARK Flexibility Score: inf
ROOT
ATOM      1  C   UNL     1      46.737   5.143 130.320  1.00  0.00     0.006 C 
ENDROOT
BRANCH   1   2
ATOM      2  C   UNL     1      45.272   4.916 129.918  1.00  0.00     0.053 C 
BRANCH   2   3
ATOM      3  C   UNL     1      45.091   4.950 128.431  1.00  0.00     0.041 C 
ATOM      4  O   UNL     1      45.990   4.504 127.671  1.00  0.00    -0.550 OA
ATOM      5  O   UNL     1      43.936   5.494 127.885  1.00  0.00    -0.550 OA
ENDBRANCH   2   3
ENDBRANCH   1   2
BRANCH   1   6
ATOM      6  C   UNL     1      47.132   4.479 131.653  1.00  0.00     0.000 C 
BRANCH   6   7
ATOM      7  C   UNL     1      45.947   3.819 132.389  1.00  0.00    -0.000 C 
BRANCH   7   8
ATOM      8  C   UNL     1      45.864   4.248 133.861  1.00  0.00    -0.003 C 
ATOM      9  C   UNL     1      46.062   3.056 134.795  1.00  0.00     0.004 C 
ENDBRANCH   7   8
ENDBRANCH   6   7
ENDBRANCH   1   6
TORSDOF 5
ENDMDL
MODEL 7
REMARK VINA RESULT:    -3.439      5.868      7.175
REMARK INTER + INTRA:          -4.782
REMARK INTER:                  -4.570
REMARK INTRA:                  -0.212
REMARK UNBOUND:                -0.338
REMARK SMILES CCCCCCC(=O)[O-]
REMARK SMILES IDX 5 1 6 2 7 3 8 4 9 5 4 6 3 7 2 8 1 9
REMARK H PARENT
REMARK Flexibility Score: inf
ROOT
ATOM      1  C   UNL     1      44.769   2.133 134.176  1.00  0.00     0.006 C 
ENDROOT
BRANCH   1   2
ATOM      2  C   UNL     1      43.921   2.130 132.896  1.00  0.00     0.053 C 
BRANCH   2   3
ATOM      3  C   UNL     1      43.898   0.780 132.247  1.00  0.00     0.041 C 
ATOM      4  O   UNL     1      44.920   0.047 132.266  1.00  0.00    -0.550 OA
ATOM      5  O   UNL     1      42.749   0.340 131.601  1.00  0.00    -0.550 OA
ENDBRANCH   2   3
ENDBRANCH   1   2
BRANCH   1   6
ATOM      6  C   UNL     1      45.897   3.182 134.179  1.00  0.00     0.000 C 
BRANCH   6   7
ATOM      7  C   UNL     1      45.899   4.089 132.929  1.00  0.00    -0.000 C 
BRANCH   7   8
ATOM      8  C   UNL     1      47.071   3.779 131.986  1.00  0.00    -0.003 C 
ATOM      9  C   UNL     1      47.102   4.749 130.808  1.00  0.00     0.004 C 
ENDBRANCH   7   8
ENDBRANCH   6   7
ENDBRANCH   1   6
TORSDOF 5
ENDMDL
MODEL 8
REMARK VINA RESULT:    -3.434      1.914      3.965
REMARK INTER + INTRA:          -4.775
REMARK INTER:                  -4.387
REMARK INTRA:                  -0.388
REMARK UNBOUND:                -0.338
REMARK SMILES CCCCCCC(=O)[O-]
REMARK SMILES IDX 5 1 6 2 7 3 8 4 9 5 4 6 3 7 2 8 1 9
REMARK H PARENT
REMARK Flexibility Score: inf
ROOT
ATOM      1  C   UNL     1      45.134   4.765 128.669  1.00  0.00     0.006 C 
ENDROOT
BRANCH   1   2
ATOM      2  C   UNL     1      44.227   5.180 127.501  1.00  0.00     0.053 C 
BRANCH   2   3
ATOM      3  C   UNL     1      43.382   6.368 127.847  1.00  0.00     0.041 C 
ATOM      4  O   UNL     1      43.895   7.373 128.404  1.00  0.00    -0.550 OA
ATOM      5  O   UNL     1      42.020   6.354 127.573  1.00  0.00    -0.550 OA
ENDBRANCH   2   3
ENDBRANCH   1   2
BRANCH   1   6
ATOM      6  C   UNL     1      46.640   4.850 128.356  1.00  0.00     0.000 C 
BRANCH   6   7
ATOM      7  C   UNL     1      47.399   5.860 129.244  1.00  0.00    -0.000 C 
BRANCH   7   8
ATOM      8  C   UNL     1      47.469   7.256 128.609  1.00  0.00    -0.003 C 
ATOM      9  C   UNL     1      47.522   7.168 127.086  1.00  0.00     0.004 C 
ENDBRANCH   7   8
ENDBRANCH   6   7
ENDBRANCH   1   6
TORSDOF 5
ENDMDL
MODEL 9
REMARK VINA RESULT:    -3.413      2.763      4.451
REMARK INTER + INTRA:          -4.749
REMARK INTER:                  -4.575
REMARK INTRA:                  -0.173
REMARK UNBOUND:                -0.338
REMARK SMILES CCCCCCC(=O)[O-]
REMARK SMILES IDX 5 1 6 2 7 3 8 4 9 5 4 6 3 7 2 8 1 9
REMARK H PARENT
REMARK Flexibility Score: inf
ROOT
ATOM      1  C   UNL     1      45.189   4.949 129.924  1.00  0.00     0.006 C 
ENDROOT
BRANCH   1   2
ATOM      2  C   UNL     1      44.900   5.103 128.424  1.00  0.00     0.053 C 
BRANCH   2   3
ATOM      3  C   UNL     1      43.998   6.267 128.148  1.00  0.00     0.041 C 
ATOM      4  O   UNL     1      42.824   6.079 127.737  1.00  0.00    -0.550 OA
ATOM      5  O   UNL     1      44.464   7.564 128.326  1.00  0.00    -0.550 OA
ENDBRANCH   2   3
ENDBRANCH   1   2
BRANCH   1   6
ATOM      6  C   UNL     1      46.689   4.939 130.276  1.00  0.00     0.000 C 
BRANCH   6   7
ATOM      7  C   UNL     1      46.977   4.547 131.742  1.00  0.00    -0.000 C 
BRANCH   7   8
ATOM      8  C   UNL     1      45.784   3.838 132.400  1.00  0.00    -0.003 C 
ATOM      9  C   UNL     1      45.829   3.979 133.919  1.00  0.00     0.004 C 
ENDBRANCH   7   8
ENDBRANCH   6   7
ENDBRANCH   1   6
TORSDOF 5
ENDMDL
