MODEL 1
REMARK VINA RESULT:    10.314      0.000      0.000
REMARK INTER + INTRA:          25.866
REMARK INTER:                  27.198
REMARK INTRA:                  -1.332
REMARK UNBOUND:                -1.332
REMARK SMILES CCCCCCCCCCCCCCCCCCCCCCCCCCCCCC(=O)[O-]
REMARK SMILES IDX 16 1 17 2 18 3 19 4 20 5 21 6 22 7 23 8 24 9 25 10 26 11
REMARK SMILES IDX 27 12 28 13 29 14 30 15 31 16 32 17 15 18 14 19 13 20 12 21
REMARK SMILES IDX 11 22 10 23 9 24 8 25 7 26 6 27 5 28 4 29 3 30 2 31 1 32
REMARK H PARENT
REMARK Flexibility Score: inf
ROOT
ATOM      1  C   UNL     1      13.034   5.582  23.535  1.00  0.00     0.000 C 
ENDROOT
BRANCH   1   2
ATOM      2  C   UNL     1      13.103   4.232  22.794  1.00  0.00     0.000 C 
BRANCH   2   3
ATOM      3  C   UNL     1      14.083   3.206  23.392  1.00  0.00     0.000 C 
BRANCH   3   4
ATOM      4  C   UNL     1      13.467   2.243  24.421  1.00  0.00     0.000 C 
BRANCH   4   5
ATOM      5  C   UNL     1      14.027   2.449  25.841  1.00  0.00     0.000 C 
BRANCH   5   6
ATOM      6  C   UNL     1      14.949   3.682  25.956  1.00  0.00     0.000 C 
BRANCH   6   7
ATOM      7  C   UNL     1      16.411   3.373  26.334  1.00  0.00     0.000 C 
BRANCH   7   8
ATOM      8  C   UNL     1      17.361   3.386  25.125  1.00  0.00     0.000 C 
BRANCH   8   9
ATOM      9  C   UNL     1      17.850   1.969  24.792  1.00  0.00     0.000 C 
BRANCH   9  10
ATOM     10  C   UNL     1      17.859   1.082  26.047  1.00  0.00     0.000 C 
BRANCH  10  11
ATOM     11  C   UNL     1      19.113   1.285  26.911  1.00  0.00     0.000 C 
BRANCH  11  12
ATOM     12  C   UNL     1      18.793   1.880  28.294  1.00  0.00     0.000 C 
BRANCH  12  13
ATOM     13  C   UNL     1      20.016   1.889  29.229  1.00  0.00     0.006 C 
BRANCH  13  14
ATOM     14  C   UNL     1      20.010   3.074  30.206  1.00  0.00     0.053 C 
BRANCH  14  15
ATOM     15  C   UNL     1      18.633   3.650  30.345  1.00  0.00     0.041 C 
ATOM     16  O   UNL     1      18.144   4.349  29.419  1.00  0.00    -0.550 OA
ATOM     17  O   UNL     1      17.904   3.449  31.513  1.00  0.00    -0.550 OA
ENDBRANCH  14  15
ENDBRANCH  13  14
ENDBRANCH  12  13
ENDBRANCH  11  12
ENDBRANCH  10  11
ENDBRANCH   9  10
ENDBRANCH   8   9
ENDBRANCH   7   8
ENDBRANCH   6   7
ENDBRANCH   5   6
ENDBRANCH   4   5
ENDBRANCH   3   4
ENDBRANCH   2   3
ENDBRANCH   1   2
BRANCH   1  18
ATOM     18  C   UNL     1      13.556   6.793  22.736  1.00  0.00     0.000 C 
BRANCH  18  19
ATOM     19  C   UNL     1      13.983   8.001  23.591  1.00  0.00     0.000 C 
BRANCH  19  20
ATOM     20  C   UNL     1      14.530   9.164  22.746  1.00  0.00     0.000 C 
BRANCH  20  21
ATOM     21  C   UNL     1      14.764  10.438  23.582  1.00  0.00     0.000 C 
BRANCH  21  22
ATOM     22  C   UNL     1      14.380  11.732  22.844  1.00  0.00     0.000 C 
BRANCH  22  23
ATOM     23  C   UNL     1      13.020  11.611  22.133  1.00  0.00     0.000 C 
BRANCH  23  24
ATOM     24  C   UNL     1      11.891  12.359  22.866  1.00  0.00    -0.000 C 
BRANCH  24  25
ATOM     25  C   UNL     1      10.919  13.107  21.927  1.00  0.00    -0.000 C 
BRANCH  25  26
ATOM     26  C   UNL     1      10.876  14.632  22.158  1.00  0.00    -0.000 C 
BRANCH  26  27
ATOM     27  C   UNL     1      11.434  15.028  23.535  1.00  0.00    -0.000 C 
BRANCH  27  28
ATOM     28  C   UNL     1      11.016  16.446  23.962  1.00  0.00    -0.000 C 
BRANCH  28  29
ATOM     29  C   UNL     1      10.876  17.460  22.810  1.00  0.00    -0.000 C 
BRANCH  29  30
ATOM     30  C   UNL     1      12.194  17.825  22.098  1.00  0.00    -0.000 C 
BRANCH  30  31
ATOM     31  C   UNL     1      12.330  17.270  20.669  1.00  0.00    -0.003 C 
ATOM     32  C   UNL     1      13.786  17.119  20.224  1.00  0.00     0.004 C 
ENDBRANCH  30  31
ENDBRANCH  29  30
ENDBRANCH  28  29
ENDBRANCH  27  28
ENDBRANCH  26  27
ENDBRANCH  25  26
ENDBRANCH  24  25
ENDBRANCH  23  24
ENDBRANCH  22  23
ENDBRANCH  21  22
ENDBRANCH  20  21
ENDBRANCH  19  20
ENDBRANCH  18  19
ENDBRANCH   1  18
TORSDOF 28
ENDMDL
MODEL 2
REMARK VINA RESULT:    10.461      1.129      2.505
REMARK INTER + INTRA:          26.253
REMARK INTER:                  28.015
REMARK INTRA:                  -1.762
REMARK UNBOUND:                -1.332
REMARK SMILES CCCCCCCCCCCCCCCCCCCCCCCCCCCCCC(=O)[O-]
REMARK SMILES IDX 16 1 17 2 18 3 19 4 20 5 21 6 22 7 23 8 24 9 25 10 26 11
REMARK SMILES IDX 27 12 28 13 29 14 30 15 31 16 32 17 15 18 14 19 13 20 12 21
REMARK SMILES IDX 11 22 10 23 9 24 8 25 7 26 6 27 5 28 4 29 3 30 2 31 1 32
REMARK H PARENT
REMARK Flexibility Score: inf
ROOT
ATOM      1  C   UNL     1      13.841   8.113  23.706  1.00  0.00     0.000 C 
ENDROOT
BRANCH   1   2
ATOM      2  C   UNL     1      13.706   6.919  22.741  1.00  0.00     0.000 C 
BRANCH   2   3
ATOM      3  C   UNL     1      13.697   5.533  23.413  1.00  0.00     0.000 C 
BRANCH   3   4
ATOM      4  C   UNL     1      13.201   4.382  22.520  1.00  0.00     0.000 C 
BRANCH   4   5
ATOM      5  C   UNL     1      13.478   2.994  23.128  1.00  0.00     0.000 C 
BRANCH   5   6
ATOM      6  C   UNL     1      13.567   3.014  24.668  1.00  0.00     0.000 C 
BRANCH   6   7
ATOM      7  C   UNL     1      14.761   2.245  25.265  1.00  0.00     0.000 C 
BRANCH   7   8
ATOM      8  C   UNL     1      15.585   3.086  26.255  1.00  0.00     0.000 C 
BRANCH   8   9
ATOM      9  C   UNL     1      16.933   3.493  25.643  1.00  0.00     0.000 C 
BRANCH   9  10
ATOM     10  C   UNL     1      17.506   2.363  24.773  1.00  0.00     0.000 C 
BRANCH  10  11
ATOM     11  C   UNL     1      18.685   1.637  25.439  1.00  0.00     0.000 C 
BRANCH  11  12
ATOM     12  C   UNL     1      18.421   1.307  26.920  1.00  0.00     0.000 C 
BRANCH  12  13
ATOM     13  C   UNL     1      19.677   1.474  27.793  1.00  0.00     0.006 C 
BRANCH  13  14
ATOM     14  C   UNL     1      19.349   1.638  29.284  1.00  0.00     0.053 C 
BRANCH  14  15
ATOM     15  C   UNL     1      19.068   3.072  29.618  1.00  0.00     0.041 C 
ATOM     16  O   UNL     1      18.218   3.722  28.953  1.00  0.00    -0.550 OA
ATOM     17  O   UNL     1      19.771   3.704  30.639  1.00  0.00    -0.550 OA
ENDBRANCH  14  15
ENDBRANCH  13  14
ENDBRANCH  12  13
ENDBRANCH  11  12
ENDBRANCH  10  11
ENDBRANCH   9  10
ENDBRANCH   8   9
ENDBRANCH   7   8
ENDBRANCH   6   7
ENDBRANCH   5   6
ENDBRANCH   4   5
ENDBRANCH   3   4
ENDBRANCH   2   3
ENDBRANCH   1   2
BRANCH   1  18
ATOM     18  C   UNL     1      14.416   9.398  23.077  1.00  0.00     0.000 C 
BRANCH  18  19
ATOM     19  C   UNL     1      13.862  10.711  23.660  1.00  0.00     0.000 C 
BRANCH  19  20
ATOM     20  C   UNL     1      13.632  11.789  22.586  1.00  0.00     0.000 C 
BRANCH  20  21
ATOM     21  C   UNL     1      12.140  11.970  22.246  1.00  0.00     0.000 C 
BRANCH  21  22
ATOM     22  C   UNL     1      11.549  13.290  22.774  1.00  0.00     0.000 C 
BRANCH  22  23
ATOM     23  C   UNL     1      10.877  13.114  24.148  1.00  0.00     0.000 C 
BRANCH  23  24
ATOM     24  C   UNL     1      10.881  14.404  24.988  1.00  0.00    -0.000 C 
BRANCH  24  25
ATOM     25  C   UNL     1      11.806  15.512  24.435  1.00  0.00    -0.000 C 
BRANCH  25  26
ATOM     26  C   UNL     1      11.528  16.910  25.025  1.00  0.00    -0.000 C 
BRANCH  26  27
ATOM     27  C   UNL     1      11.797  18.034  24.011  1.00  0.00    -0.000 C 
BRANCH  27  28
ATOM     28  C   UNL     1      11.210  17.734  22.620  1.00  0.00    -0.000 C 
BRANCH  28  29
ATOM     29  C   UNL     1      12.112  18.122  21.432  1.00  0.00    -0.000 C 
BRANCH  29  30
ATOM     30  C   UNL     1      12.335  17.006  20.391  1.00  0.00    -0.000 C 
BRANCH  30  31
ATOM     31  C   UNL     1      11.196  16.840  19.368  1.00  0.00    -0.003 C 
ATOM     32  C   UNL     1      11.188  15.464  18.702  1.00  0.00     0.004 C 
ENDBRANCH  30  31
ENDBRANCH  29  30
ENDBRANCH  28  29
ENDBRANCH  27  28
ENDBRANCH  26  27
ENDBRANCH  25  26
ENDBRANCH  24  25
ENDBRANCH  23  24
ENDBRANCH  22  23
ENDBRANCH  21  22
ENDBRANCH  20  21
ENDBRANCH  19  20
ENDBRANCH  18  19
ENDBRANCH   1  18
TORSDOF 28
ENDMDL
MODEL 3
REMARK VINA RESULT:    11.419      4.464     13.491
REMARK INTER + INTRA:          28.779
REMARK INTER:                  29.903
REMARK INTRA:                  -1.124
REMARK UNBOUND:                -1.332
REMARK SMILES CCCCCCCCCCCCCCCCCCCCCCCCCCCCCC(=O)[O-]
REMARK SMILES IDX 16 1 17 2 18 3 19 4 20 5 21 6 22 7 23 8 24 9 25 10 26 11
REMARK SMILES IDX 27 12 28 13 29 14 30 15 31 16 32 17 15 18 14 19 13 20 12 21
REMARK SMILES IDX 11 22 10 23 9 24 8 25 7 26 6 27 5 28 4 29 3 30 2 31 1 32
REMARK H PARENT
REMARK Flexibility Score: inf
ROOT
ATOM      1  C   UNL     1      13.444   5.332  23.787  1.00  0.00     0.000 C 
ENDROOT
BRANCH   1   2
ATOM      2  C   UNL     1      13.136   6.626  23.009  1.00  0.00     0.000 C 
BRANCH   2   3
ATOM      3  C   UNL     1      14.354   7.525  22.724  1.00  0.00     0.000 C 
BRANCH   3   4
ATOM      4  C   UNL     1      14.084   9.036  22.831  1.00  0.00     0.000 C 
BRANCH   4   5
ATOM      5  C   UNL     1      15.370   9.857  23.039  1.00  0.00     0.000 C 
BRANCH   5   6
ATOM      6  C   UNL     1      15.160  11.373  22.836  1.00  0.00     0.000 C 
BRANCH   6   7
ATOM      7  C   UNL     1      13.843  11.933  23.406  1.00  0.00     0.000 C 
BRANCH   7   8
ATOM      8  C   UNL     1      12.694  11.929  22.383  1.00  0.00     0.000 C 
BRANCH   8   9
ATOM      9  C   UNL     1      11.781  13.148  22.576  1.00  0.00     0.000 C 
BRANCH   9  10
ATOM     10  C   UNL     1      11.486  13.833  21.232  1.00  0.00     0.000 C 
BRANCH  10  11
ATOM     11  C   UNL     1      10.876  15.233  21.398  1.00  0.00     0.000 C 
BRANCH  11  12
ATOM     12  C   UNL     1      11.239  15.885  22.744  1.00  0.00     0.000 C 
BRANCH  12  13
ATOM     13  C   UNL     1      11.575  17.380  22.602  1.00  0.00     0.006 C 
BRANCH  13  14
ATOM     14  C   UNL     1      11.487  17.876  21.152  1.00  0.00     0.053 C 
BRANCH  14  15
ATOM     15  C   UNL     1      12.722  17.513  20.383  1.00  0.00     0.041 C 
ATOM     16  O   UNL     1      12.639  16.780  19.362  1.00  0.00    -0.550 OA
ATOM     17  O   UNL     1      13.970  17.950  20.815  1.00  0.00    -0.550 OA
ENDBRANCH  14  15
ENDBRANCH  13  14
ENDBRANCH  12  13
ENDBRANCH  11  12
ENDBRANCH  10  11
ENDBRANCH   9  10
ENDBRANCH   8   9
ENDBRANCH   7   8
ENDBRANCH   6   7
ENDBRANCH   5   6
ENDBRANCH   4   5
ENDBRANCH   3   4
ENDBRANCH   2   3
ENDBRANCH   1   2
BRANCH   1  18
ATOM     18  C   UNL     1      13.268   4.029  22.983  1.00  0.00     0.000 C 
BRANCH  18  19
ATOM     19  C   UNL     1      13.707   2.748  23.717  1.00  0.00     0.000 C 
BRANCH  19  20
ATOM     20  C   UNL     1      13.901   2.964  25.228  1.00  0.00     0.000 C 
BRANCH  20  21
ATOM     21  C   UNL     1      15.275   2.467  25.721  1.00  0.00     0.000 C 
BRANCH  21  22
ATOM     22  C   UNL     1      16.457   3.255  25.130  1.00  0.00     0.000 C 
BRANCH  22  23
ATOM     23  C   UNL     1      17.601   2.329  24.676  1.00  0.00     0.000 C 
BRANCH  23  24
ATOM     24  C   UNL     1      17.828   1.143  25.632  1.00  0.00    -0.000 C 
BRANCH  24  25
ATOM     25  C   UNL     1      19.121   1.251  26.471  1.00  0.00    -0.000 C 
BRANCH  25  26
ATOM     26  C   UNL     1      18.872   1.527  27.968  1.00  0.00    -0.000 C 
BRANCH  26  27
ATOM     27  C   UNL     1      20.181   1.612  28.770  1.00  0.00    -0.000 C 
BRANCH  27  28
ATOM     28  C   UNL     1      20.202   2.796  29.753  1.00  0.00    -0.000 C 
BRANCH  28  29
ATOM     29  C   UNL     1      18.947   2.934  30.636  1.00  0.00    -0.000 C 
BRANCH  29  30
ATOM     30  C   UNL     1      18.598   4.377  31.053  1.00  0.00    -0.000 C 
BRANCH  30  31
ATOM     31  C   UNL     1      17.113   4.751  30.901  1.00  0.00    -0.003 C 
ATOM     32  C   UNL     1      16.578   4.511  29.488  1.00  0.00     0.004 C 
ENDBRANCH  30  31
ENDBRANCH  29  30
ENDBRANCH  28  29
ENDBRANCH  27  28
ENDBRANCH  26  27
ENDBRANCH  25  26
ENDBRANCH  24  25
ENDBRANCH  23  24
ENDBRANCH  22  23
ENDBRANCH  21  22
ENDBRANCH  20  21
ENDBRANCH  19  20
ENDBRANCH  18  19
ENDBRANCH   1  18
TORSDOF 28
ENDMDL
MODEL 4
REMARK VINA RESULT:    11.550      3.593     13.018
REMARK INTER + INTRA:          29.125
REMARK INTER:                  28.432
REMARK INTRA:                   0.692
REMARK UNBOUND:                -1.332
REMARK SMILES CCCCCCCCCCCCCCCCCCCCCCCCCCCCCC(=O)[O-]
REMARK SMILES IDX 16 1 17 2 18 3 19 4 20 5 21 6 22 7 23 8 24 9 25 10 26 11
REMARK SMILES IDX 27 12 28 13 29 14 30 15 31 16 32 17 15 18 14 19 13 20 12 21
REMARK SMILES IDX 11 22 10 23 9 24 8 25 7 26 6 27 5 28 4 29 3 30 2 31 1 32
REMARK H PARENT
REMARK Flexibility Score: inf
ROOT
ATOM      1  C   UNL     1      13.444   5.308  23.583  1.00  0.00     0.000 C 
ENDROOT
BRANCH   1   2
ATOM      2  C   UNL     1      13.104   6.560  22.751  1.00  0.00     0.000 C 
BRANCH   2   3
ATOM      3  C   UNL     1      14.282   7.520  22.500  1.00  0.00     0.000 C 
BRANCH   3   4
ATOM      4  C   UNL     1      13.913   9.013  22.498  1.00  0.00     0.000 C 
BRANCH   4   5
ATOM      5  C   UNL     1      14.996   9.896  23.144  1.00  0.00     0.000 C 
BRANCH   5   6
ATOM      6  C   UNL     1      14.699  11.406  23.024  1.00  0.00     0.000 C 
BRANCH   6   7
ATOM      7  C   UNL     1      13.253  11.817  23.360  1.00  0.00     0.000 C 
BRANCH   7   8
ATOM      8  C   UNL     1      12.392  12.067  22.110  1.00  0.00     0.000 C 
BRANCH   8   9
ATOM      9  C   UNL     1      11.259  13.057  22.411  1.00  0.00     0.000 C 
BRANCH   9  10
ATOM     10  C   UNL     1      11.110  14.084  21.277  1.00  0.00     0.000 C 
BRANCH  10  11
ATOM     11  C   UNL     1      10.884  15.514  21.794  1.00  0.00     0.000 C 
BRANCH  11  12
ATOM     12  C   UNL     1      10.996  15.618  23.325  1.00  0.00     0.000 C 
BRANCH  12  13
ATOM     13  C   UNL     1      11.178  17.069  23.805  1.00  0.00     0.006 C 
BRANCH  13  14
ATOM     14  C   UNL     1      11.958  17.168  25.124  1.00  0.00     0.053 C 
BRANCH  14  15
ATOM     15  C   UNL     1      11.403  16.225  26.149  1.00  0.00     0.041 C 
ATOM     16  O   UNL     1      10.875  16.673  27.201  1.00  0.00    -0.550 OA
ATOM     17  O   UNL     1      11.502  14.849  25.962  1.00  0.00    -0.550 OA
ENDBRANCH  14  15
ENDBRANCH  13  14
ENDBRANCH  12  13
ENDBRANCH  11  12
ENDBRANCH  10  11
ENDBRANCH   9  10
ENDBRANCH   8   9
ENDBRANCH   7   8
ENDBRANCH   6   7
ENDBRANCH   5   6
ENDBRANCH   4   5
ENDBRANCH   3   4
ENDBRANCH   2   3
ENDBRANCH   1   2
BRANCH   1  18
ATOM     18  C   UNL     1      13.270   3.966  22.846  1.00  0.00     0.000 C 
BRANCH  18  19
ATOM     19  C   UNL     1      13.970   2.764  23.507  1.00  0.00     0.000 C 
BRANCH  19  20
ATOM     20  C   UNL     1      13.736   2.701  25.027  1.00  0.00     0.000 C 
BRANCH  20  21
ATOM     21  C   UNL     1      15.039   2.456  25.812  1.00  0.00     0.000 C 
BRANCH  21  22
ATOM     22  C   UNL     1      16.167   3.437  25.446  1.00  0.00     0.000 C 
BRANCH  22  23
ATOM     23  C   UNL     1      17.290   2.754  24.645  1.00  0.00     0.000 C 
BRANCH  23  24
ATOM     24  C   UNL     1      17.271   1.219  24.773  1.00  0.00    -0.000 C 
BRANCH  24  25
ATOM     25  C   UNL     1      18.479   0.637  25.541  1.00  0.00    -0.000 C 
BRANCH  25  26
ATOM     26  C   UNL     1      19.485   1.703  26.023  1.00  0.00    -0.000 C 
BRANCH  26  27
ATOM     27  C   UNL     1      18.787   2.922  26.648  1.00  0.00    -0.000 C 
BRANCH  27  28
ATOM     28  C   UNL     1      19.359   3.294  28.027  1.00  0.00    -0.000 C 
BRANCH  28  29
ATOM     29  C   UNL     1      18.855   2.431  29.199  1.00  0.00    -0.000 C 
BRANCH  29  30
ATOM     30  C   UNL     1      19.645   2.588  30.514  1.00  0.00    -0.000 C 
BRANCH  30  31
ATOM     31  C   UNL     1      19.134   3.702  31.445  1.00  0.00    -0.003 C 
ATOM     32  C   UNL     1      17.866   4.380  30.925  1.00  0.00     0.004 C 
ENDBRANCH  30  31
ENDBRANCH  29  30
ENDBRANCH  28  29
ENDBRANCH  27  28
ENDBRANCH  26  27
ENDBRANCH  25  26
ENDBRANCH  24  25
ENDBRANCH  23  24
ENDBRANCH  22  23
ENDBRANCH  21  22
ENDBRANCH  20  21
ENDBRANCH  19  20
ENDBRANCH  18  19
ENDBRANCH   1  18
TORSDOF 28
ENDMDL
MODEL 5
REMARK VINA RESULT:    11.624      1.284      2.293
REMARK INTER + INTRA:          29.318
REMARK INTER:                  29.270
REMARK INTRA:                   0.048
REMARK UNBOUND:                -1.332
REMARK SMILES CCCCCCCCCCCCCCCCCCCCCCCCCCCCCC(=O)[O-]
REMARK SMILES IDX 16 1 17 2 18 3 19 4 20 5 21 6 22 7 23 8 24 9 25 10 26 11
REMARK SMILES IDX 27 12 28 13 29 14 30 15 31 16 32 17 15 18 14 19 13 20 12 21
REMARK SMILES IDX 11 22 10 23 9 24 8 25 7 26 6 27 5 28 4 29 3 30 2 31 1 32
REMARK H PARENT
REMARK Flexibility Score: inf
ROOT
ATOM      1  C   UNL     1      13.449   6.476  23.454  1.00  0.00     0.000 C 
ENDROOT
BRANCH   1   2
ATOM      2  C   UNL     1      12.981   5.396  22.460  1.00  0.00     0.000 C 
BRANCH   2   3
ATOM      3  C   UNL     1      13.489   3.971  22.754  1.00  0.00     0.000 C 
BRANCH   3   4
ATOM      4  C   UNL     1      12.386   2.912  22.925  1.00  0.00     0.000 C 
BRANCH   4   5
ATOM      5  C   UNL     1      12.294   2.376  24.366  1.00  0.00     0.000 C 
BRANCH   5   6
ATOM      6  C   UNL     1      13.640   1.847  24.903  1.00  0.00     0.000 C 
BRANCH   6   7
ATOM      7  C   UNL     1      14.780   2.882  24.944  1.00  0.00     0.000 C 
BRANCH   7   8
ATOM      8  C   UNL     1      15.921   2.485  25.897  1.00  0.00     0.000 C 
BRANCH   8   9
ATOM      9  C   UNL     1      17.286   2.624  25.210  1.00  0.00     0.000 C 
BRANCH   9  10
ATOM     10  C   UNL     1      18.249   1.519  25.670  1.00  0.00     0.000 C 
BRANCH  10  11
ATOM     11  C   UNL     1      19.726   1.888  25.459  1.00  0.00     0.000 C 
BRANCH  11  12
ATOM     12  C   UNL     1      20.663   1.198  26.466  1.00  0.00     0.000 C 
BRANCH  12  13
ATOM     13  C   UNL     1      19.959   0.870  27.795  1.00  0.00     0.006 C 
BRANCH  13  14
ATOM     14  C   UNL     1      19.003   1.981  28.253  1.00  0.00     0.053 C 
BRANCH  14  15
ATOM     15  C   UNL     1      19.496   2.628  29.513  1.00  0.00     0.041 C 
ATOM     16  O   UNL     1      20.399   2.077  30.196  1.00  0.00    -0.550 OA
ATOM     17  O   UNL     1      18.930   3.820  29.956  1.00  0.00    -0.550 OA
ENDBRANCH  14  15
ENDBRANCH  13  14
ENDBRANCH  12  13
ENDBRANCH  11  12
ENDBRANCH  10  11
ENDBRANCH   9  10
ENDBRANCH   8   9
ENDBRANCH   7   8
ENDBRANCH   6   7
ENDBRANCH   5   6
ENDBRANCH   4   5
ENDBRANCH   3   4
ENDBRANCH   2   3
ENDBRANCH   1   2
BRANCH   1  18
ATOM     18  C   UNL     1      13.980   7.771  22.809  1.00  0.00     0.000 C 
BRANCH  18  19
ATOM     19  C   UNL     1      14.038   8.990  23.748  1.00  0.00     0.000 C 
BRANCH  19  20
ATOM     20  C   UNL     1      15.160   9.976  23.376  1.00  0.00     0.000 C 
BRANCH  20  21
ATOM     21  C   UNL     1      14.617  11.372  23.012  1.00  0.00     0.000 C 
BRANCH  21  22
ATOM     22  C   UNL     1      13.146  11.358  22.563  1.00  0.00     0.000 C 
BRANCH  22  23
ATOM     23  C   UNL     1      12.324  12.471  23.238  1.00  0.00     0.000 C 
BRANCH  23  24
ATOM     24  C   UNL     1      11.151  12.962  22.370  1.00  0.00    -0.000 C 
BRANCH  24  25
ATOM     25  C   UNL     1      11.585  13.728  21.100  1.00  0.00    -0.000 C 
BRANCH  25  26
ATOM     26  C   UNL     1      10.875  15.085  20.917  1.00  0.00    -0.000 C 
BRANCH  26  27
ATOM     27  C   UNL     1      10.896  15.931  22.201  1.00  0.00    -0.000 C 
BRANCH  27  28
ATOM     28  C   UNL     1      12.008  16.995  22.195  1.00  0.00    -0.000 C 
BRANCH  28  29
ATOM     29  C   UNL     1      11.944  18.015  23.348  1.00  0.00    -0.000 C 
BRANCH  29  30
ATOM     30  C   UNL     1      11.060  17.596  24.541  1.00  0.00    -0.000 C 
BRANCH  30  31
ATOM     31  C   UNL     1      11.833  17.235  25.822  1.00  0.00    -0.003 C 
ATOM     32  C   UNL     1      11.320  15.957  26.488  1.00  0.00     0.004 C 
ENDBRANCH  30  31
ENDBRANCH  29  30
ENDBRANCH  28  29
ENDBRANCH  27  28
ENDBRANCH  26  27
ENDBRANCH  25  26
ENDBRANCH  24  25
ENDBRANCH  23  24
ENDBRANCH  22  23
ENDBRANCH  21  22
ENDBRANCH  20  21
ENDBRANCH  19  20
ENDBRANCH  18  19
ENDBRANCH   1  18
TORSDOF 28
ENDMDL
MODEL 6
REMARK VINA RESULT:    12.215      2.276      3.366
REMARK INTER + INTRA:          30.877
REMARK INTER:                  32.629
REMARK INTRA:                  -1.752
REMARK UNBOUND:                -1.332
REMARK SMILES CCCCCCCCCCCCCCCCCCCCCCCCCCCCCC(=O)[O-]
REMARK SMILES IDX 16 1 17 2 18 3 19 4 20 5 21 6 22 7 23 8 24 9 25 10 26 11
REMARK SMILES IDX 27 12 28 13 29 14 30 15 31 16 32 17 15 18 14 19 13 20 12 21
REMARK SMILES IDX 11 22 10 23 9 24 8 25 7 26 6 27 5 28 4 29 3 30 2 31 1 32
REMARK H PARENT
REMARK Flexibility Score: inf
ROOT
ATOM      1  C   UNL     1      13.841   8.073  23.694  1.00  0.00     0.000 C 
ENDROOT
BRANCH   1   2
ATOM      2  C   UNL     1      13.791   6.845  22.764  1.00  0.00     0.000 C 
BRANCH   2   3
ATOM      3  C   UNL     1      13.735   5.482  23.480  1.00  0.00     0.000 C 
BRANCH   3   4
ATOM      4  C   UNL     1      13.087   4.349  22.667  1.00  0.00     0.000 C 
BRANCH   4   5
ATOM      5  C   UNL     1      13.189   2.980  23.367  1.00  0.00     0.000 C 
BRANCH   5   6
ATOM      6  C   UNL     1      13.098   3.077  24.904  1.00  0.00     0.000 C 
BRANCH   6   7
ATOM      7  C   UNL     1      14.290   2.471  25.670  1.00  0.00     0.000 C 
BRANCH   7   8
ATOM      8  C   UNL     1      15.348   3.517  26.062  1.00  0.00     0.000 C 
BRANCH   8   9
ATOM      9  C   UNL     1      16.589   3.407  25.165  1.00  0.00     0.000 C 
BRANCH   9  10
ATOM     10  C   UNL     1      16.754   1.977  24.626  1.00  0.00     0.000 C 
BRANCH  10  11
ATOM     11  C   UNL     1      17.885   1.204  25.322  1.00  0.00     0.000 C 
BRANCH  11  12
ATOM     12  C   UNL     1      18.336   1.865  26.638  1.00  0.00     0.000 C 
BRANCH  12  13
ATOM     13  C   UNL     1      19.812   2.297  26.604  1.00  0.00     0.006 C 
BRANCH  13  14
ATOM     14  C   UNL     1      20.772   1.171  27.016  1.00  0.00     0.053 C 
BRANCH  14  15
ATOM     15  C   UNL     1      21.320   0.464  25.812  1.00  0.00     0.041 C 
ATOM     16  O   UNL     1      20.585   0.259  24.810  1.00  0.00    -0.550 OA
ATOM     17  O   UNL     1      22.631  -0.003  25.810  1.00  0.00    -0.550 OA
ENDBRANCH  14  15
ENDBRANCH  13  14
ENDBRANCH  12  13
ENDBRANCH  11  12
ENDBRANCH  10  11
ENDBRANCH   9  10
ENDBRANCH   8   9
ENDBRANCH   7   8
ENDBRANCH   6   7
ENDBRANCH   5   6
ENDBRANCH   4   5
ENDBRANCH   3   4
ENDBRANCH   2   3
ENDBRANCH   1   2
BRANCH   1  18
ATOM     18  C   UNL     1      14.426   9.349  23.059  1.00  0.00     0.000 C 
BRANCH  18  19
ATOM     19  C   UNL     1      13.905  10.670  23.656  1.00  0.00     0.000 C 
BRANCH  19  20
ATOM     20  C   UNL     1      13.627  11.739  22.583  1.00  0.00     0.000 C 
BRANCH  20  21
ATOM     21  C   UNL     1      12.119  11.968  22.360  1.00  0.00     0.000 C 
BRANCH  21  22
ATOM     22  C   UNL     1      11.615  13.308  22.924  1.00  0.00     0.000 C 
BRANCH  22  23
ATOM     23  C   UNL     1      11.080  13.167  24.361  1.00  0.00     0.000 C 
BRANCH  23  24
ATOM     24  C   UNL     1      10.875  14.523  25.061  1.00  0.00    -0.000 C 
BRANCH  24  25
ATOM     25  C   UNL     1      11.596  15.702  24.371  1.00  0.00    -0.000 C 
BRANCH  25  26
ATOM     26  C   UNL     1      10.970  17.079  24.674  1.00  0.00    -0.000 C 
BRANCH  26  27
ATOM     27  C   UNL     1      11.117  18.057  23.497  1.00  0.00    -0.000 C 
BRANCH  27  28
ATOM     28  C   UNL     1      10.895  17.383  22.131  1.00  0.00    -0.000 C 
BRANCH  28  29
ATOM     29  C   UNL     1      11.710  17.979  20.967  1.00  0.00    -0.000 C 
BRANCH  29  30
ATOM     30  C   UNL     1      12.617  16.976  20.225  1.00  0.00    -0.000 C 
BRANCH  30  31
ATOM     31  C   UNL     1      12.086  15.532  20.186  1.00  0.00    -0.003 C 
ATOM     32  C   UNL     1      11.023  15.316  19.108  1.00  0.00     0.004 C 
ENDBRANCH  30  31
ENDBRANCH  29  30
ENDBRANCH  28  29
ENDBRANCH  27  28
ENDBRANCH  26  27
ENDBRANCH  25  26
ENDBRANCH  24  25
ENDBRANCH  23  24
ENDBRANCH  22  23
ENDBRANCH  21  22
ENDBRANCH  20  21
ENDBRANCH  19  20
ENDBRANCH  18  19
ENDBRANCH   1  18
TORSDOF 28
ENDMDL
MODEL 7
REMARK VINA RESULT:    12.822      1.183      3.537
REMARK INTER + INTRA:          32.479
REMARK INTER:                  34.805
REMARK INTRA:                  -2.326
REMARK UNBOUND:                -1.332
REMARK SMILES CCCCCCCCCCCCCCCCCCCCCCCCCCCCCC(=O)[O-]
REMARK SMILES IDX 16 1 17 2 18 3 19 4 20 5 21 6 22 7 23 8 24 9 25 10 26 11
REMARK SMILES IDX 27 12 28 13 29 14 30 15 31 16 32 17 15 18 14 19 13 20 12 21
REMARK SMILES IDX 11 22 10 23 9 24 8 25 7 26 6 27 5 28 4 29 3 30 2 31 1 32
REMARK H PARENT
REMARK Flexibility Score: inf
ROOT
ATOM      1  C   UNL     1      13.970   2.480  25.258  1.00  0.00     0.000 C 
ENDROOT
BRANCH   1   2
ATOM      2  C   UNL     1      14.963   3.531  25.791  1.00  0.00     0.000 C 
BRANCH   2   3
ATOM      3  C   UNL     1      16.450   3.156  25.655  1.00  0.00     0.000 C 
BRANCH   3   4
ATOM      4  C   UNL     1      16.722   1.665  25.395  1.00  0.00     0.000 C 
BRANCH   4   5
ATOM      5  C   UNL     1      18.171   1.392  24.951  1.00  0.00     0.000 C 
BRANCH   5   6
ATOM      6  C   UNL     1      19.059   2.654  24.969  1.00  0.00     0.000 C 
BRANCH   6   7
ATOM      7  C   UNL     1      20.541   2.406  25.310  1.00  0.00     0.000 C 
BRANCH   7   8
ATOM      8  C   UNL     1      20.902   0.913  25.380  1.00  0.00     0.000 C 
BRANCH   8   9
ATOM      9  C   UNL     1      21.146   0.473  26.830  1.00  0.00     0.000 C 
BRANCH   9  10
ATOM     10  C   UNL     1      19.822   0.128  27.531  1.00  0.00     0.000 C 
BRANCH  10  11
ATOM     11  C   UNL     1      19.606   0.929  28.824  1.00  0.00     0.000 C 
BRANCH  11  12
ATOM     12  C   UNL     1      19.073   2.349  28.563  1.00  0.00     0.000 C 
BRANCH  12  13
ATOM     13  C   UNL     1      19.545   3.358  29.624  1.00  0.00     0.006 C 
BRANCH  13  14
ATOM     14  C   UNL     1      18.696   3.318  30.904  1.00  0.00     0.053 C 
BRANCH  14  15
ATOM     15  C   UNL     1      17.632   4.373  30.876  1.00  0.00     0.041 C 
ATOM     16  O   UNL     1      17.485   5.149  31.857  1.00  0.00    -0.550 OA
ATOM     17  O   UNL     1      16.774   4.475  29.784  1.00  0.00    -0.550 OA
ENDBRANCH  14  15
ENDBRANCH  13  14
ENDBRANCH  12  13
ENDBRANCH  11  12
ENDBRANCH  10  11
ENDBRANCH   9  10
ENDBRANCH   8   9
ENDBRANCH   7   8
ENDBRANCH   6   7
ENDBRANCH   5   6
ENDBRANCH   4   5
ENDBRANCH   3   4
ENDBRANCH   2   3
ENDBRANCH   1   2
BRANCH   1  18
ATOM     18  C   UNL     1      13.149   2.920  24.030  1.00  0.00     0.000 C 
BRANCH  18  19
ATOM     19  C   UNL     1      13.817   3.995  23.152  1.00  0.00     0.000 C 
BRANCH  19  20
ATOM     20  C   UNL     1      12.944   5.251  22.981  1.00  0.00     0.000 C 
BRANCH  20  21
ATOM     21  C   UNL     1      13.774   6.549  23.006  1.00  0.00     0.000 C 
BRANCH  21  22
ATOM     22  C   UNL     1      13.314   7.548  24.083  1.00  0.00     0.000 C 
BRANCH  22  23
ATOM     23  C   UNL     1      14.346   8.668  24.312  1.00  0.00     0.000 C 
BRANCH  23  24
ATOM     24  C   UNL     1      14.958   9.197  23.003  1.00  0.00    -0.000 C 
BRANCH  24  25
ATOM     25  C   UNL     1      14.813  10.723  22.812  1.00  0.00    -0.000 C 
BRANCH  25  26
ATOM     26  C   UNL     1      13.456  11.285  23.286  1.00  0.00    -0.000 C 
BRANCH  26  27
ATOM     27  C   UNL     1      12.481  11.515  22.119  1.00  0.00    -0.000 C 
BRANCH  27  28
ATOM     28  C   UNL     1      11.336  12.477  22.481  1.00  0.00    -0.000 C 
BRANCH  28  29
ATOM     29  C   UNL     1      11.309  13.792  21.679  1.00  0.00    -0.000 C 
BRANCH  29  30
ATOM     30  C   UNL     1      11.081  15.065  22.520  1.00  0.00    -0.000 C 
BRANCH  30  31
ATOM     31  C   UNL     1      11.073  16.377  21.717  1.00  0.00    -0.003 C 
ATOM     32  C   UNL     1      11.962  16.321  20.474  1.00  0.00     0.004 C 
ENDBRANCH  30  31
ENDBRANCH  29  30
ENDBRANCH  28  29
ENDBRANCH  27  28
ENDBRANCH  26  27
ENDBRANCH  25  26
ENDBRANCH  24  25
ENDBRANCH  23  24
ENDBRANCH  22  23
ENDBRANCH  21  22
ENDBRANCH  20  21
ENDBRANCH  19  20
ENDBRANCH  18  19
ENDBRANCH   1  18
TORSDOF 28
ENDMDL
MODEL 8
REMARK VINA RESULT:    12.870      2.042      3.952
REMARK INTER + INTRA:          32.604
REMARK INTER:                  33.857
REMARK INTRA:                  -1.253
REMARK UNBOUND:                -1.332
REMARK SMILES CCCCCCCCCCCCCCCCCCCCCCCCCCCCCC(=O)[O-]
REMARK SMILES IDX 16 1 17 2 18 3 19 4 20 5 21 6 22 7 23 8 24 9 25 10 26 11
REMARK SMILES IDX 27 12 28 13 29 14 30 15 31 16 32 17 15 18 14 19 13 20 12 21
REMARK SMILES IDX 11 22 10 23 9 24 8 25 7 26 6 27 5 28 4 29 3 30 2 31 1 32
REMARK H PARENT
REMARK Flexibility Score: inf
ROOT
ATOM      1  C   UNL     1      14.087   3.340  24.738  1.00  0.00     0.000 C 
ENDROOT
BRANCH   1   2
ATOM      2  C   UNL     1      15.446   2.739  25.147  1.00  0.00     0.000 C 
BRANCH   2   3
ATOM      3  C   UNL     1      16.207   3.520  26.234  1.00  0.00     0.000 C 
BRANCH   3   4
ATOM      4  C   UNL     1      15.332   4.063  27.376  1.00  0.00     0.000 C 
BRANCH   4   5
ATOM      5  C   UNL     1      16.079   5.067  28.274  1.00  0.00     0.000 C 
BRANCH   5   6
ATOM      6  C   UNL     1      16.183   4.607  29.743  1.00  0.00     0.000 C 
BRANCH   6   7
ATOM      7  C   UNL     1      17.558   4.827  30.402  1.00  0.00     0.000 C 
BRANCH   7   8
ATOM      8  C   UNL     1      18.682   4.018  29.735  1.00  0.00     0.000 C 
BRANCH   8   9
ATOM      9  C   UNL     1      18.787   2.613  30.347  1.00  0.00     0.000 C 
BRANCH   9  10
ATOM     10  C   UNL     1      19.812   1.757  29.588  1.00  0.00     0.000 C 
BRANCH  10  11
ATOM     11  C   UNL     1      19.817   2.032  28.076  1.00  0.00     0.000 C 
BRANCH  11  12
ATOM     12  C   UNL     1      18.671   1.317  27.338  1.00  0.00     0.000 C 
BRANCH  12  13
ATOM     13  C   UNL     1      18.794   1.431  25.808  1.00  0.00     0.006 C 
BRANCH  13  14
ATOM     14  C   UNL     1      20.173   1.937  25.358  1.00  0.00     0.053 C 
BRANCH  14  15
ATOM     15  C   UNL     1      21.242   0.934  25.671  1.00  0.00     0.041 C 
ATOM     16  O   UNL     1      22.442   1.301  25.781  1.00  0.00    -0.550 OA
ATOM     17  O   UNL     1      20.922  -0.414  25.803  1.00  0.00    -0.550 OA
ENDBRANCH  14  15
ENDBRANCH  13  14
ENDBRANCH  12  13
ENDBRANCH  11  12
ENDBRANCH  10  11
ENDBRANCH   9  10
ENDBRANCH   8   9
ENDBRANCH   7   8
ENDBRANCH   6   7
ENDBRANCH   5   6
ENDBRANCH   4   5
ENDBRANCH   3   4
ENDBRANCH   2   3
ENDBRANCH   1   2
BRANCH   1  18
ATOM     18  C   UNL     1      13.845   3.434  23.219  1.00  0.00     0.000 C 
BRANCH  18  19
ATOM     19  C   UNL     1      12.964   4.615  22.772  1.00  0.00     0.000 C 
BRANCH  19  20
ATOM     20  C   UNL     1      13.405   5.953  23.391  1.00  0.00     0.000 C 
BRANCH  20  21
ATOM     21  C   UNL     1      14.104   6.871  22.369  1.00  0.00     0.000 C 
BRANCH  21  22
ATOM     22  C   UNL     1      13.762   8.361  22.551  1.00  0.00     0.000 C 
BRANCH  22  23
ATOM     23  C   UNL     1      14.916   9.144  23.204  1.00  0.00     0.000 C 
BRANCH  23  24
ATOM     24  C   UNL     1      14.693  10.667  23.187  1.00  0.00    -0.000 C 
BRANCH  24  25
ATOM     25  C   UNL     1      13.509  11.120  22.304  1.00  0.00    -0.000 C 
BRANCH  25  26
ATOM     26  C   UNL     1      12.542  12.094  23.008  1.00  0.00    -0.000 C 
BRANCH  26  27
ATOM     27  C   UNL     1      11.454  12.622  22.059  1.00  0.00    -0.000 C 
BRANCH  27  28
ATOM     28  C   UNL     1      11.209  14.134  22.217  1.00  0.00    -0.000 C 
BRANCH  28  29
ATOM     29  C   UNL     1      10.878  14.883  20.912  1.00  0.00    -0.000 C 
BRANCH  29  30
ATOM     30  C   UNL     1      12.033  15.724  20.331  1.00  0.00    -0.000 C 
BRANCH  30  31
ATOM     31  C   UNL     1      11.873  17.245  20.501  1.00  0.00    -0.003 C 
ATOM     32  C   UNL     1      11.331  17.638  21.876  1.00  0.00     0.004 C 
ENDBRANCH  30  31
ENDBRANCH  29  30
ENDBRANCH  28  29
ENDBRANCH  27  28
ENDBRANCH  26  27
ENDBRANCH  25  26
ENDBRANCH  24  25
ENDBRANCH  23  24
ENDBRANCH  22  23
ENDBRANCH  21  22
ENDBRANCH  20  21
ENDBRANCH  19  20
ENDBRANCH  18  19
ENDBRANCH   1  18
TORSDOF 28
ENDMDL
