MODEL 1
REMARK VINA RESULT:    -5.222      0.000      0.000
REMARK INTER + INTRA:          -8.614
REMARK INTER:                  -7.970
REMARK INTRA:                  -0.644
REMARK UNBOUND:                -0.644
REMARK SMILES CCCCCCCCCC=CC(=O)[O-]
REMARK SMILES IDX 7 1 8 2 9 3 10 4 11 5 12 6 13 7 14 8 6 9 5 10 4 11 3 12 2 13
REMARK SMILES IDX 1 14
REMARK H PARENT
REMARK Flexibility Score: inf
ROOT
ATOM      1  C   UNL     1      21.420 -12.221  21.610  1.00  0.00     0.000 C 
ENDROOT
BRANCH   1   2
ATOM      2  C   UNL     1      21.298 -13.358  20.589  1.00  0.00     0.004 C 
BRANCH   2   3
ATOM      3  C   UNL     1      22.561 -14.229  20.582  1.00  0.00     0.027 C 
BRANCH   3   4
ATOM      4  C   UNL     1      22.626 -15.082  19.349  1.00  0.00    -0.025 C 
ATOM      5  C   UNL     1      23.041 -16.352  19.397  1.00  0.00     0.020 C 
BRANCH   5   6
ATOM      6  C   UNL     1      23.124 -17.194  18.194  1.00  0.00     0.064 C 
ATOM      7  O   UNL     1      23.060 -16.661  17.056  1.00  0.00    -0.545 OA
ATOM      8  O   UNL     1      23.272 -18.573  18.295  1.00  0.00    -0.545 OA
ENDBRANCH   5   6
ENDBRANCH   3   4
ENDBRANCH   2   3
ENDBRANCH   1   2
BRANCH   1   9
ATOM      9  C   UNL     1      22.881 -11.788  21.780  1.00  0.00     0.000 C 
BRANCH   9  10
ATOM     10  C   UNL     1      22.986 -10.271  21.983  1.00  0.00     0.000 C 
BRANCH  10  11
ATOM     11  C   UNL     1      21.639  -9.680  22.413  1.00  0.00    -0.000 C 
BRANCH  11  12
ATOM     12  C   UNL     1      21.807  -8.745  23.616  1.00  0.00    -0.000 C 
BRANCH  12  13
ATOM     13  C   UNL     1      20.795  -9.079  24.718  1.00  0.00    -0.003 C 
ATOM     14  C   UNL     1      20.507 -10.577  24.765  1.00  0.00     0.004 C 
ENDBRANCH  12  13
ENDBRANCH  11  12
ENDBRANCH  10  11
ENDBRANCH   9  10
ENDBRANCH   1   9
TORSDOF 9
ENDMDL
MODEL 2
REMARK VINA RESULT:    -5.131      4.204      8.168
REMARK INTER + INTRA:          -8.475
REMARK INTER:                  -7.997
REMARK INTRA:                  -0.478
REMARK UNBOUND:                -0.644
REMARK SMILES CCCCCCCCCC=CC(=O)[O-]
REMARK SMILES IDX 7 1 8 2 9 3 10 4 11 5 12 6 13 7 14 8 6 9 5 10 4 11 3 12 2 13
REMARK SMILES IDX 1 14
REMARK H PARENT
REMARK Flexibility Score: inf
ROOT
ATOM      1  C   UNL     1      23.032 -14.411  21.160  1.00  0.00     0.000 C 
ENDROOT
BRANCH   1   2
ATOM      2  C   UNL     1      23.119 -12.950  21.619  1.00  0.00     0.004 C 
BRANCH   2   3
ATOM      3  C   UNL     1      21.828 -12.191  21.285  1.00  0.00     0.027 C 
BRANCH   3   4
ATOM      4  C   UNL     1      21.168 -11.668  22.528  1.00  0.00    -0.025 C 
ATOM      5  C   UNL     1      21.472 -10.467  23.029  1.00  0.00     0.020 C 
BRANCH   5   6
ATOM      6  C   UNL     1      20.844  -9.949  24.253  1.00  0.00     0.064 C 
ATOM      7  O   UNL     1      20.396 -10.754  25.111  1.00  0.00    -0.545 OA
ATOM      8  O   UNL     1      20.737  -8.581  24.479  1.00  0.00    -0.545 OA
ENDBRANCH   5   6
ENDBRANCH   3   4
ENDBRANCH   2   3
ENDBRANCH   1   2
BRANCH   1   9
ATOM      9  C   UNL     1      22.215 -14.535  19.869  1.00  0.00     0.000 C 
BRANCH   9  10
ATOM     10  C   UNL     1      22.860 -15.536  18.903  1.00  0.00     0.000 C 
BRANCH  10  11
ATOM     11  C   UNL     1      23.162 -16.863  19.607  1.00  0.00    -0.000 C 
BRANCH  11  12
ATOM     12  C   UNL     1      23.486 -17.964  18.591  1.00  0.00    -0.000 C 
BRANCH  12  13
ATOM     13  C   UNL     1      23.073 -17.546  17.175  1.00  0.00    -0.003 C 
ATOM     14  C   UNL     1      22.422 -18.704  16.426  1.00  0.00     0.004 C 
ENDBRANCH  12  13
ENDBRANCH  11  12
ENDBRANCH  10  11
ENDBRANCH   9  10
ENDBRANCH   1   9
TORSDOF 9
ENDMDL
MODEL 3
REMARK VINA RESULT:    -5.116      1.605      2.640
REMARK INTER + INTRA:          -8.451
REMARK INTER:                  -7.986
REMARK INTRA:                  -0.465
REMARK UNBOUND:                -0.644
REMARK SMILES CCCCCCCCCC=CC(=O)[O-]
REMARK SMILES IDX 7 1 8 2 9 3 10 4 11 5 12 6 13 7 14 8 6 9 5 10 4 11 3 12 2 13
REMARK SMILES IDX 1 14
REMARK H PARENT
REMARK Flexibility Score: inf
ROOT
ATOM      1  C   UNL     1      21.939 -10.759  22.678  1.00  0.00     0.000 C 
ENDROOT
BRANCH   1   2
ATOM      2  C   UNL     1      22.319 -11.821  21.639  1.00  0.00     0.004 C 
BRANCH   2   3
ATOM      3  C   UNL     1      21.111 -12.697  21.281  1.00  0.00     0.027 C 
BRANCH   3   4
ATOM      4  C   UNL     1      21.477 -13.736  20.261  1.00  0.00    -0.025 C 
ATOM      5  C   UNL     1      22.514 -14.559  20.441  1.00  0.00     0.020 C 
BRANCH   5   6
ATOM      6  C   UNL     1      22.892 -15.571  19.444  1.00  0.00     0.064 C 
ATOM      7  O   UNL     1      22.861 -15.279  18.220  1.00  0.00    -0.545 OA
ATOM      8  O   UNL     1      23.284 -16.847  19.832  1.00  0.00    -0.545 OA
ENDBRANCH   5   6
ENDBRANCH   3   4
ENDBRANCH   2   3
ENDBRANCH   1   2
BRANCH   1   9
ATOM      9  C   UNL     1      20.695 -11.182  23.469  1.00  0.00     0.000 C 
BRANCH   9  10
ATOM     10  C   UNL     1      20.483 -10.276  24.687  1.00  0.00     0.000 C 
BRANCH  10  11
ATOM     11  C   UNL     1      21.144  -8.909  24.477  1.00  0.00    -0.000 C 
BRANCH  11  12
ATOM     12  C   UNL     1      20.451  -7.828  25.316  1.00  0.00    -0.000 C 
BRANCH  12  13
ATOM     13  C   UNL     1      20.369  -6.504  24.548  1.00  0.00    -0.003 C 
ATOM     14  C   UNL     1      18.956  -5.928  24.592  1.00  0.00     0.004 C 
ENDBRANCH  12  13
ENDBRANCH  11  12
ENDBRANCH  10  11
ENDBRANCH   9  10
ENDBRANCH   1   9
TORSDOF 9
ENDMDL
MODEL 4
REMARK VINA RESULT:    -5.057      3.785      8.231
REMARK INTER + INTRA:          -8.361
REMARK INTER:                  -7.828
REMARK INTRA:                  -0.533
REMARK UNBOUND:                -0.644
REMARK SMILES CCCCCCCCCC=CC(=O)[O-]
REMARK SMILES IDX 7 1 8 2 9 3 10 4 11 5 12 6 13 7 14 8 6 9 5 10 4 11 3 12 2 13
REMARK SMILES IDX 1 14
REMARK H PARENT
REMARK Flexibility Score: inf
ROOT
ATOM      1  C   UNL     1      23.022 -15.673  19.865  1.00  0.00     0.000 C 
ENDROOT
BRANCH   1   2
ATOM      2  C   UNL     1      22.722 -14.475  20.774  1.00  0.00     0.004 C 
BRANCH   2   3
ATOM      3  C   UNL     1      21.495 -13.700  20.274  1.00  0.00     0.027 C 
BRANCH   3   4
ATOM      4  C   UNL     1      21.070 -12.657  21.267  1.00  0.00    -0.025 C 
ATOM      5  C   UNL     1      21.954 -11.831  21.836  1.00  0.00     0.020 C 
BRANCH   5   6
ATOM      6  C   UNL     1      21.553 -10.815  22.820  1.00  0.00     0.064 C 
ATOM      7  O   UNL     1      21.947  -9.628  22.684  1.00  0.00    -0.545 OA
ATOM      8  O   UNL     1      20.745 -11.146  23.902  1.00  0.00    -0.545 OA
ENDBRANCH   5   6
ENDBRANCH   3   4
ENDBRANCH   2   3
ENDBRANCH   1   2
BRANCH   1   9
ATOM      9  C   UNL     1      22.579 -15.396  18.423  1.00  0.00     0.000 C 
BRANCH   9  10
ATOM     10  C   UNL     1      23.010 -16.531  17.487  1.00  0.00     0.000 C 
BRANCH  10  11
ATOM     11  C   UNL     1      23.373 -17.791  18.281  1.00  0.00    -0.000 C 
BRANCH  11  12
ATOM     12  C   UNL     1      23.455 -19.016  17.363  1.00  0.00    -0.000 C 
BRANCH  12  13
ATOM     13  C   UNL     1      22.324 -19.004  16.328  1.00  0.00    -0.003 C 
ATOM     14  C   UNL     1      21.320 -20.122  16.595  1.00  0.00     0.004 C 
ENDBRANCH  12  13
ENDBRANCH  11  12
ENDBRANCH  10  11
ENDBRANCH   9  10
ENDBRANCH   1   9
TORSDOF 9
ENDMDL
MODEL 5
REMARK VINA RESULT:    -5.034      1.216      2.368
REMARK INTER + INTRA:          -8.327
REMARK INTER:                  -7.834
REMARK INTRA:                  -0.493
REMARK UNBOUND:                -0.644
REMARK SMILES CCCCCCCCCC=CC(=O)[O-]
REMARK SMILES IDX 7 1 8 2 9 3 10 4 11 5 12 6 13 7 14 8 6 9 5 10 4 11 3 12 2 13
REMARK SMILES IDX 1 14
REMARK H PARENT
REMARK Flexibility Score: inf
ROOT
ATOM      1  C   UNL     1      22.774 -14.469  20.759  1.00  0.00     0.000 C 
ENDROOT
BRANCH   1   2
ATOM      2  C   UNL     1      23.040 -15.681  19.857  1.00  0.00     0.004 C 
BRANCH   2   3
ATOM      3  C   UNL     1      22.693 -15.366  18.396  1.00  0.00     0.027 C 
BRANCH   3   4
ATOM      4  C   UNL     1      23.069 -16.503  17.491  1.00  0.00    -0.025 C 
ATOM      5  C   UNL     1      23.109 -17.764  17.932  1.00  0.00     0.020 C 
BRANCH   5   6
ATOM      6  C   UNL     1      23.490 -18.885  17.060  1.00  0.00     0.064 C 
ATOM      7  O   UNL     1      23.912 -18.654  15.898  1.00  0.00    -0.545 OA
ATOM      8  O   UNL     1      23.391 -20.200  17.502  1.00  0.00    -0.545 OA
ENDBRANCH   5   6
ENDBRANCH   3   4
ENDBRANCH   2   3
ENDBRANCH   1   2
BRANCH   1   9
ATOM      9  C   UNL     1      21.540 -13.691  20.285  1.00  0.00     0.000 C 
BRANCH   9  10
ATOM     10  C   UNL     1      21.175 -12.581  21.278  1.00  0.00     0.000 C 
BRANCH  10  11
ATOM     11  C   UNL     1      22.421 -11.810  21.725  1.00  0.00    -0.000 C 
BRANCH  11  12
ATOM     12  C   UNL     1      22.039 -10.577  22.552  1.00  0.00    -0.000 C 
BRANCH  12  13
ATOM     13  C   UNL     1      21.007 -10.935  23.628  1.00  0.00    -0.003 C 
ATOM     14  C   UNL     1      20.723  -9.742  24.536  1.00  0.00     0.004 C 
ENDBRANCH  12  13
ENDBRANCH  11  12
ENDBRANCH  10  11
ENDBRANCH   9  10
ENDBRANCH   1   9
TORSDOF 9
ENDMDL
MODEL 6
REMARK VINA RESULT:    -5.027      5.195      8.404
REMARK INTER + INTRA:          -8.315
REMARK INTER:                  -7.891
REMARK INTRA:                  -0.424
REMARK UNBOUND:                -0.644
REMARK SMILES CCCCCCCCCC=CC(=O)[O-]
REMARK SMILES IDX 7 1 8 2 9 3 10 4 11 5 12 6 13 7 14 8 6 9 5 10 4 11 3 12 2 13
REMARK SMILES IDX 1 14
REMARK H PARENT
REMARK Flexibility Score: inf
ROOT
ATOM      1  C   UNL     1      21.506 -12.006  21.834  1.00  0.00     0.000 C 
ENDROOT
BRANCH   1   2
ATOM      2  C   UNL     1      21.152 -10.987  22.924  1.00  0.00     0.004 C 
BRANCH   2   3
ATOM      3  C   UNL     1      21.972  -9.700  22.761  1.00  0.00     0.027 C 
BRANCH   3   4
ATOM      4  C   UNL     1      21.449  -8.607  23.646  1.00  0.00    -0.025 C 
ATOM      5  C   UNL     1      21.043  -8.852  24.895  1.00  0.00     0.020 C 
BRANCH   5   6
ATOM      6  C   UNL     1      20.515  -7.794  25.769  1.00  0.00     0.064 C 
ATOM      7  O   UNL     1      19.465  -7.182  25.439  1.00  0.00    -0.545 OA
ATOM      8  O   UNL     1      21.157  -7.457  26.955  1.00  0.00    -0.545 OA
ENDBRANCH   5   6
ENDBRANCH   3   4
ENDBRANCH   2   3
ENDBRANCH   1   2
BRANCH   1   9
ATOM      9  C   UNL     1      23.026 -12.162  21.699  1.00  0.00     0.000 C 
BRANCH   9  10
ATOM     10  C   UNL     1      23.397 -13.582  21.255  1.00  0.00     0.000 C 
BRANCH  10  11
ATOM     11  C   UNL     1      22.253 -14.227  20.464  1.00  0.00    -0.000 C 
BRANCH  11  12
ATOM     12  C   UNL     1      22.790 -15.237  19.444  1.00  0.00    -0.000 C 
BRANCH  12  13
ATOM     13  C   UNL     1      23.068 -16.592  20.105  1.00  0.00    -0.003 C 
ATOM     14  C   UNL     1      23.404 -17.655  19.063  1.00  0.00     0.004 C 
ENDBRANCH  12  13
ENDBRANCH  11  12
ENDBRANCH  10  11
ENDBRANCH   9  10
ENDBRANCH   1   9
TORSDOF 9
ENDMDL
MODEL 7
REMARK VINA RESULT:    -4.876      3.606      8.468
REMARK INTER + INTRA:          -8.085
REMARK INTER:                  -7.621
REMARK INTRA:                  -0.465
REMARK UNBOUND:                -0.644
REMARK SMILES CCCCCCCCCC=CC(=O)[O-]
REMARK SMILES IDX 7 1 8 2 9 3 10 4 11 5 12 6 13 7 14 8 6 9 5 10 4 11 3 12 2 13
REMARK SMILES IDX 1 14
REMARK H PARENT
REMARK Flexibility Score: inf
ROOT
ATOM      1  C   UNL     1      22.952 -16.177  17.114  1.00  0.00     0.000 C 
ENDROOT
BRANCH   1   2
ATOM      2  C   UNL     1      22.422 -15.214  18.183  1.00  0.00     0.004 C 
BRANCH   2   3
ATOM      3  C   UNL     1      22.906 -15.622  19.581  1.00  0.00     0.027 C 
BRANCH   3   4
ATOM      4  C   UNL     1      22.776 -14.487  20.554  1.00  0.00    -0.025 C 
ATOM      5  C   UNL     1      21.722 -13.665  20.533  1.00  0.00     0.020 C 
BRANCH   5   6
ATOM      6  C   UNL     1      21.588 -12.541  21.471  1.00  0.00     0.064 C 
ATOM      7  O   UNL     1      22.598 -11.845  21.756  1.00  0.00    -0.545 OA
ATOM      8  O   UNL     1      20.362 -12.233  22.050  1.00  0.00    -0.545 OA
ENDBRANCH   5   6
ENDBRANCH   3   4
ENDBRANCH   2   3
ENDBRANCH   1   2
BRANCH   1   9
ATOM      9  C   UNL     1      23.015 -17.613  17.650  1.00  0.00     0.000 C 
BRANCH   9  10
ATOM     10  C   UNL     1      23.065 -18.627  16.501  1.00  0.00     0.000 C 
BRANCH  10  11
ATOM     11  C   UNL     1      22.692 -20.031  16.990  1.00  0.00    -0.000 C 
BRANCH  11  12
ATOM     12  C   UNL     1      21.398 -20.002  17.812  1.00  0.00    -0.000 C 
BRANCH  12  13
ATOM     13  C   UNL     1      20.270 -20.747  17.088  1.00  0.00    -0.003 C 
ATOM     14  C   UNL     1      19.007 -20.799  17.943  1.00  0.00     0.004 C 
ENDBRANCH  12  13
ENDBRANCH  11  12
ENDBRANCH  10  11
ENDBRANCH   9  10
ENDBRANCH   1   9
TORSDOF 9
ENDMDL
MODEL 8
REMARK VINA RESULT:    -4.846      6.018      9.044
REMARK INTER + INTRA:          -8.039
REMARK INTER:                  -7.444
REMARK INTRA:                  -0.595
REMARK UNBOUND:                -0.644
REMARK SMILES CCCCCCCCCC=CC(=O)[O-]
REMARK SMILES IDX 7 1 8 2 9 3 10 4 11 5 12 6 13 7 14 8 6 9 5 10 4 11 3 12 2 13
REMARK SMILES IDX 1 14
REMARK H PARENT
REMARK Flexibility Score: inf
ROOT
ATOM      1  C   UNL     1      21.703  -9.396  23.235  1.00  0.00     0.000 C 
ENDROOT
BRANCH   1   2
ATOM      2  C   UNL     1      21.806  -8.204  24.194  1.00  0.00     0.004 C 
BRANCH   2   3
ATOM      3  C   UNL     1      20.789  -8.328  25.336  1.00  0.00     0.027 C 
BRANCH   3   4
ATOM      4  C   UNL     1      19.815  -7.185  25.322  1.00  0.00    -0.025 C 
ATOM      5  C   UNL     1      19.780  -6.309  24.314  1.00  0.00     0.020 C 
BRANCH   5   6
ATOM      6  C   UNL     1      18.841  -5.177  24.294  1.00  0.00     0.064 C 
ATOM      7  O   UNL     1      19.203  -4.078  23.798  1.00  0.00    -0.545 OA
ATOM      8  O   UNL     1      17.558  -5.302  24.815  1.00  0.00    -0.545 OA
ENDBRANCH   5   6
ENDBRANCH   3   4
ENDBRANCH   2   3
ENDBRANCH   1   2
BRANCH   1   9
ATOM      9  C   UNL     1      20.955 -10.565  23.887  1.00  0.00     0.000 C 
BRANCH   9  10
ATOM     10  C   UNL     1      20.443 -11.550  22.829  1.00  0.00     0.000 C 
BRANCH  10  11
ATOM     11  C   UNL     1      21.543 -11.892  21.819  1.00  0.00    -0.000 C 
BRANCH  11  12
ATOM     12  C   UNL     1      21.147 -13.099  20.960  1.00  0.00    -0.000 C 
BRANCH  12  13
ATOM     13  C   UNL     1      22.379 -13.920  20.562  1.00  0.00    -0.003 C 
ATOM     14  C   UNL     1      23.500 -13.762  21.585  1.00  0.00     0.004 C 
ENDBRANCH  12  13
ENDBRANCH  11  12
ENDBRANCH  10  11
ENDBRANCH   9  10
ENDBRANCH   1   9
TORSDOF 9
ENDMDL
MODEL 9
REMARK VINA RESULT:    -4.741      2.683      4.451
REMARK INTER + INTRA:          -7.880
REMARK INTER:                  -7.373
REMARK INTRA:                  -0.507
REMARK UNBOUND:                -0.644
REMARK SMILES CCCCCCCCCC=CC(=O)[O-]
REMARK SMILES IDX 7 1 8 2 9 3 10 4 11 5 12 6 13 7 14 8 6 9 5 10 4 11 3 12 2 13
REMARK SMILES IDX 1 14
REMARK H PARENT
REMARK Flexibility Score: inf
ROOT
ATOM      1  C   UNL     1      20.470 -10.251  24.915  1.00  0.00     0.000 C 
ENDROOT
BRANCH   1   2
ATOM      2  C   UNL     1      20.575 -11.132  23.664  1.00  0.00     0.004 C 
BRANCH   2   3
ATOM      3  C   UNL     1      21.721 -10.666  22.757  1.00  0.00     0.027 C 
BRANCH   3   4
ATOM      4  C   UNL     1      22.280 -11.808  21.959  1.00  0.00    -0.025 C 
ATOM      5  C   UNL     1      21.484 -12.694  21.354  1.00  0.00     0.020 C 
BRANCH   5   6
ATOM      6  C   UNL     1      22.018 -13.825  20.581  1.00  0.00     0.064 C 
ATOM      7  O   UNL     1      21.475 -14.146  19.492  1.00  0.00    -0.545 OA
ATOM      8  O   UNL     1      23.116 -14.548  21.034  1.00  0.00    -0.545 OA
ENDBRANCH   5   6
ENDBRANCH   3   4
ENDBRANCH   2   3
ENDBRANCH   1   2
BRANCH   1   9
ATOM      9  C   UNL     1      20.882  -8.806  24.606  1.00  0.00     0.000 C 
BRANCH   9  10
ATOM     10  C   UNL     1      20.824  -7.936  25.868  1.00  0.00     0.000 C 
BRANCH  10  11
ATOM     11  C   UNL     1      20.184  -6.576  25.569  1.00  0.00    -0.000 C 
BRANCH  11  12
ATOM     12  C   UNL     1      20.485  -6.129  24.133  1.00  0.00    -0.000 C 
BRANCH  12  13
ATOM     13  C   UNL     1      19.231  -5.561  23.460  1.00  0.00    -0.003 C 
ATOM     14  C   UNL     1      18.616  -4.441  24.295  1.00  0.00     0.004 C 
ENDBRANCH  12  13
ENDBRANCH  11  12
ENDBRANCH  10  11
ENDBRANCH   9  10
ENDBRANCH   1   9
TORSDOF 9
ENDMDL
