MODEL 1
REMARK VINA RESULT:    -3.615      0.000      0.000
REMARK INTER + INTRA:          -5.764
REMARK INTER:                  -4.883
REMARK INTRA:                  -0.881
REMARK UNBOUND:                -0.881
REMARK SMILES CCCCCCC=CC(=O)[O-]
REMARK SMILES IDX 5 1 6 2 7 3 8 4 9 5 10 6 11 7 4 8 3 9 2 10 1 11
REMARK H PARENT
REMARK Flexibility Score: inf
ROOT
ATOM      1  C   UNL     1     201.730 206.976 192.323  1.00  0.00     0.004 C 
ENDROOT
BRANCH   1   2
ATOM      2  C   UNL     1     200.555 206.502 193.194  1.00  0.00     0.027 C 
BRANCH   2   3
ATOM      3  C   UNL     1     199.879 205.281 192.627  1.00  0.00    -0.025 C 
ATOM      4  C   UNL     1     198.810 205.274 191.816  1.00  0.00     0.020 C 
BRANCH   4   5
ATOM      5  C   UNL     1     198.044 206.451 191.358  1.00  0.00     0.064 C 
ATOM      6  O   UNL     1     198.329 206.967 190.245  1.00  0.00    -0.545 OA
ATOM      7  O   UNL     1     196.998 206.990 192.097  1.00  0.00    -0.545 OA
ENDBRANCH   4   5
ENDBRANCH   2   3
ENDBRANCH   1   2
BRANCH   1   8
ATOM      8  C   UNL     1     202.775 205.867 192.112  1.00  0.00     0.000 C 
BRANCH   8   9
ATOM      9  C   UNL     1     203.050 205.589 190.626  1.00  0.00    -0.000 C 
BRANCH   9  10
ATOM     10  C   UNL     1     202.010 206.240 189.702  1.00  0.00    -0.003 C 
ATOM     11  C   UNL     1     201.181 205.182 188.978  1.00  0.00     0.004 C 
ENDBRANCH   9  10
ENDBRANCH   8   9
ENDBRANCH   1   8
TORSDOF 6
ENDMDL
MODEL 2
REMARK VINA RESULT:    -3.498      1.796      2.867
REMARK INTER + INTRA:          -5.606
REMARK INTER:                  -4.824
REMARK INTRA:                  -0.783
REMARK UNBOUND:                -0.881
REMARK SMILES CCCCCCC=CC(=O)[O-]
REMARK SMILES IDX 5 1 6 2 7 3 8 4 9 5 10 6 11 7 4 8 3 9 2 10 1 11
REMARK H PARENT
REMARK Flexibility Score: inf
ROOT
ATOM      1  C   UNL     1     200.189 206.145 189.021  1.00  0.00     0.004 C 
ENDROOT
BRANCH   1   2
ATOM      2  C   UNL     1     199.473 206.416 190.354  1.00  0.00     0.027 C 
BRANCH   2   3
ATOM      3  C   UNL     1     199.683 205.307 191.352  1.00  0.00    -0.025 C 
ATOM      4  C   UNL     1     199.846 205.455 192.676  1.00  0.00     0.020 C 
BRANCH   4   5
ATOM      5  C   UNL     1     199.908 206.731 193.419  1.00  0.00     0.064 C 
ATOM      6  O   UNL     1     201.023 207.138 193.838  1.00  0.00    -0.545 OA
ATOM      7  O   UNL     1     198.783 207.514 193.642  1.00  0.00    -0.545 OA
ENDBRANCH   4   5
ENDBRANCH   2   3
ENDBRANCH   1   2
BRANCH   1   8
ATOM      8  C   UNL     1     201.320 205.113 189.174  1.00  0.00     0.000 C 
BRANCH   8   9
ATOM      9  C   UNL     1     202.708 205.767 189.260  1.00  0.00    -0.000 C 
BRANCH   9  10
ATOM     10  C   UNL     1     203.262 205.789 190.693  1.00  0.00    -0.003 C 
ATOM     11  C   UNL     1     203.297 207.212 191.245  1.00  0.00     0.004 C 
ENDBRANCH   9  10
ENDBRANCH   8   9
ENDBRANCH   1   8
TORSDOF 6
ENDMDL
MODEL 3
REMARK VINA RESULT:    -3.448      2.159      3.998
REMARK INTER + INTRA:          -5.538
REMARK INTER:                  -4.890
REMARK INTRA:                  -0.649
REMARK UNBOUND:                -0.881
REMARK SMILES CCCCCCC=CC(=O)[O-]
REMARK SMILES IDX 5 1 6 2 7 3 8 4 9 5 10 6 11 7 4 8 3 9 2 10 1 11
REMARK H PARENT
REMARK Flexibility Score: inf
ROOT
ATOM      1  C   UNL     1     200.196 206.298 193.268  1.00  0.00     0.004 C 
ENDROOT
BRANCH   1   2
ATOM      2  C   UNL     1     201.263 206.969 192.387  1.00  0.00     0.027 C 
BRANCH   2   3
ATOM      3  C   UNL     1     202.416 206.048 192.086  1.00  0.00    -0.025 C 
ATOM      4  C   UNL     1     202.800 205.633 190.868  1.00  0.00     0.020 C 
BRANCH   4   5
ATOM      5  C   UNL     1     202.141 205.946 189.583  1.00  0.00     0.064 C 
ATOM      6  O   UNL     1     201.451 205.057 189.020  1.00  0.00    -0.545 OA
ATOM      7  O   UNL     1     202.230 207.200 188.991  1.00  0.00    -0.545 OA
ENDBRANCH   4   5
ENDBRANCH   2   3
ENDBRANCH   1   2
BRANCH   1   8
ATOM      8  C   UNL     1     199.613 205.037 192.606  1.00  0.00     0.000 C 
BRANCH   8   9
ATOM      9  C   UNL     1     198.804 205.355 191.339  1.00  0.00    -0.000 C 
BRANCH   9  10
ATOM     10  C   UNL     1     197.577 206.234 191.626  1.00  0.00    -0.003 C 
ATOM     11  C   UNL     1     197.604 207.506 190.785  1.00  0.00     0.004 C 
ENDBRANCH   9  10
ENDBRANCH   8   9
ENDBRANCH   1   8
TORSDOF 6
ENDMDL
MODEL 4
REMARK VINA RESULT:    -3.448      2.608      4.560
REMARK INTER + INTRA:          -5.538
REMARK INTER:                  -4.893
REMARK INTRA:                  -0.645
REMARK UNBOUND:                -0.881
REMARK SMILES CCCCCCC=CC(=O)[O-]
REMARK SMILES IDX 5 1 6 2 7 3 8 4 9 5 10 6 11 7 4 8 3 9 2 10 1 11
REMARK H PARENT
REMARK Flexibility Score: inf
ROOT
ATOM      1  C   UNL     1     198.821 206.738 190.822  1.00  0.00     0.004 C 
ENDROOT
BRANCH   1   2
ATOM      2  C   UNL     1     199.894 206.962 189.744  1.00  0.00     0.027 C 
BRANCH   2   3
ATOM      3  C   UNL     1     200.311 205.679 189.076  1.00  0.00    -0.025 C 
ATOM      4  C   UNL     1     201.545 205.153 189.073  1.00  0.00     0.020 C 
BRANCH   4   5
ATOM      5  C   UNL     1     202.757 205.747 189.675  1.00  0.00     0.064 C 
ATOM      6  O   UNL     1     202.995 205.541 190.894  1.00  0.00    -0.545 OA
ATOM      7  O   UNL     1     203.661 206.498 188.934  1.00  0.00    -0.545 OA
ENDBRANCH   4   5
ENDBRANCH   2   3
ENDBRANCH   1   2
BRANCH   1   8
ATOM      8  C   UNL     1     198.928 205.341 191.459  1.00  0.00     0.000 C 
BRANCH   8   9
ATOM      9  C   UNL     1     199.861 205.318 192.680  1.00  0.00    -0.000 C 
BRANCH   9  10
ATOM     10  C   UNL     1     199.888 206.661 193.426  1.00  0.00    -0.003 C 
ATOM     11  C   UNL     1     201.305 207.225 193.489  1.00  0.00     0.004 C 
ENDBRANCH   9  10
ENDBRANCH   8   9
ENDBRANCH   1   8
TORSDOF 6
ENDMDL
MODEL 5
REMARK VINA RESULT:    -3.380      1.407      2.325
REMARK INTER + INTRA:          -5.446
REMARK INTER:                  -5.034
REMARK INTRA:                  -0.412
REMARK UNBOUND:                -0.881
REMARK SMILES CCCCCCC=CC(=O)[O-]
REMARK SMILES IDX 5 1 6 2 7 3 8 4 9 5 10 6 11 7 4 8 3 9 2 10 1 11
REMARK H PARENT
REMARK Flexibility Score: inf
ROOT
ATOM      1  C   UNL     1     200.843 205.613 191.616  1.00  0.00     0.004 C 
ENDROOT
BRANCH   1   2
ATOM      2  C   UNL     1     199.543 205.296 192.375  1.00  0.00     0.027 C 
BRANCH   2   3
ATOM      3  C   UNL     1     198.323 205.443 191.504  1.00  0.00    -0.025 C 
ATOM      4  C   UNL     1     197.462 206.473 191.517  1.00  0.00     0.020 C 
BRANCH   4   5
ATOM      5  C   UNL     1     197.501 207.643 192.419  1.00  0.00     0.064 C 
ATOM      6  O   UNL     1     196.875 207.591 193.510  1.00  0.00    -0.545 OA
ATOM      7  O   UNL     1     198.233 208.785 192.121  1.00  0.00    -0.545 OA
ENDBRANCH   4   5
ENDBRANCH   2   3
ENDBRANCH   1   2
BRANCH   1   8
ATOM      8  C   UNL     1     200.684 205.423 190.097  1.00  0.00     0.000 C 
BRANCH   8   9
ATOM      9  C   UNL     1     202.032 205.422 189.359  1.00  0.00    -0.000 C 
BRANCH   9  10
ATOM     10  C   UNL     1     203.225 205.620 190.307  1.00  0.00    -0.003 C 
ATOM     11  C   UNL     1     204.520 205.821 189.525  1.00  0.00     0.004 C 
ENDBRANCH   9  10
ENDBRANCH   8   9
ENDBRANCH   1   8
TORSDOF 6
ENDMDL
MODEL 6
REMARK VINA RESULT:    -3.376      3.558      5.451
REMARK INTER + INTRA:          -5.442
REMARK INTER:                  -4.832
REMARK INTRA:                  -0.610
REMARK UNBOUND:                -0.881
REMARK SMILES CCCCCCC=CC(=O)[O-]
REMARK SMILES IDX 5 1 6 2 7 3 8 4 9 5 10 6 11 7 4 8 3 9 2 10 1 11
REMARK H PARENT
REMARK Flexibility Score: inf
ROOT
ATOM      1  C   UNL     1     200.803 205.461 189.276  1.00  0.00     0.004 C 
ENDROOT
BRANCH   1   2
ATOM      2  C   UNL     1     202.298 205.187 189.511  1.00  0.00     0.027 C 
BRANCH   2   3
ATOM      3  C   UNL     1     202.857 206.007 190.643  1.00  0.00    -0.025 C 
ATOM      4  C   UNL     1     204.039 206.644 190.650  1.00  0.00     0.020 C 
BRANCH   4   5
ATOM      5  C   UNL     1     205.054 206.628 189.576  1.00  0.00     0.064 C 
ATOM      6  O   UNL     1     205.248 207.675 188.906  1.00  0.00    -0.545 OA
ATOM      7  O   UNL     1     205.826 205.506 189.303  1.00  0.00    -0.545 OA
ENDBRANCH   4   5
ENDBRANCH   2   3
ENDBRANCH   1   2
BRANCH   1   8
ATOM      8  C   UNL     1     200.181 206.283 190.418  1.00  0.00     0.000 C 
BRANCH   8   9
ATOM      9  C   UNL     1     199.204 205.461 191.274  1.00  0.00    -0.000 C 
BRANCH   9  10
ATOM     10  C   UNL     1     199.739 205.197 192.689  1.00  0.00    -0.003 C 
ATOM     11  C   UNL     1     200.250 206.484 193.332  1.00  0.00     0.004 C 
ENDBRANCH   9  10
ENDBRANCH   8   9
ENDBRANCH   1   8
TORSDOF 6
ENDMDL
MODEL 7
REMARK VINA RESULT:    -3.336      2.752      4.683
REMARK INTER + INTRA:          -5.387
REMARK INTER:                  -4.740
REMARK INTRA:                  -0.648
REMARK UNBOUND:                -0.881
REMARK SMILES CCCCCCC=CC(=O)[O-]
REMARK SMILES IDX 5 1 6 2 7 3 8 4 9 5 10 6 11 7 4 8 3 9 2 10 1 11
REMARK H PARENT
REMARK Flexibility Score: inf
ROOT
ATOM      1  C   UNL     1     199.549 205.367 192.235  1.00  0.00     0.004 C 
ENDROOT
BRANCH   1   2
ATOM      2  C   UNL     1     200.873 205.715 191.533  1.00  0.00     0.027 C 
BRANCH   2   3
ATOM      3  C   UNL     1     200.881 205.296 190.087  1.00  0.00    -0.025 C 
ATOM      4  C   UNL     1     201.867 205.520 189.204  1.00  0.00     0.020 C 
BRANCH   4   5
ATOM      5  C   UNL     1     203.118 206.266 189.451  1.00  0.00     0.064 C 
ATOM      6  O   UNL     1     203.098 207.523 189.393  1.00  0.00    -0.545 OA
ATOM      7  O   UNL     1     204.308 205.629 189.779  1.00  0.00    -0.545 OA
ENDBRANCH   4   5
ENDBRANCH   2   3
ENDBRANCH   1   2
BRANCH   1   8
ATOM      8  C   UNL     1     198.360 205.381 191.258  1.00  0.00     0.000 C 
BRANCH   8   9
ATOM      9  C   UNL     1     197.353 206.500 191.569  1.00  0.00    -0.000 C 
BRANCH   9  10
ATOM     10  C   UNL     1     197.833 207.877 191.088  1.00  0.00    -0.003 C 
ATOM     11  C   UNL     1     198.229 207.835 189.614  1.00  0.00     0.004 C 
ENDBRANCH   9  10
ENDBRANCH   8   9
ENDBRANCH   1   8
TORSDOF 6
ENDMDL
MODEL 8
REMARK VINA RESULT:    -3.312      1.414      2.284
REMARK INTER + INTRA:          -5.355
REMARK INTER:                  -4.737
REMARK INTRA:                  -0.618
REMARK UNBOUND:                -0.881
REMARK SMILES CCCCCCC=CC(=O)[O-]
REMARK SMILES IDX 5 1 6 2 7 3 8 4 9 5 10 6 11 7 4 8 3 9 2 10 1 11
REMARK H PARENT
REMARK Flexibility Score: inf
ROOT
ATOM      1  C   UNL     1     199.498 205.249 192.570  1.00  0.00     0.004 C 
ENDROOT
BRANCH   1   2
ATOM      2  C   UNL     1     198.642 205.416 191.304  1.00  0.00     0.027 C 
BRANCH   2   3
ATOM      3  C   UNL     1     197.344 206.127 191.580  1.00  0.00    -0.025 C 
ATOM      4  C   UNL     1     197.062 207.404 191.280  1.00  0.00     0.020 C 
BRANCH   4   5
ATOM      5  C   UNL     1     197.979 208.389 190.671  1.00  0.00     0.064 C 
ATOM      6  O   UNL     1     197.919 208.590 189.430  1.00  0.00    -0.545 OA
ATOM      7  O   UNL     1     198.885 209.124 191.424  1.00  0.00    -0.545 OA
ENDBRANCH   4   5
ENDBRANCH   2   3
ENDBRANCH   1   2
BRANCH   1   8
ATOM      8  C   UNL     1     200.933 205.766 192.367  1.00  0.00     0.000 C 
BRANCH   8   9
ATOM      9  C   UNL     1     201.150 206.376 190.973  1.00  0.00    -0.000 C 
BRANCH   9  10
ATOM     10  C   UNL     1     202.098 205.538 190.103  1.00  0.00    -0.003 C 
ATOM     11  C   UNL     1     201.375 204.984 188.878  1.00  0.00     0.004 C 
ENDBRANCH   9  10
ENDBRANCH   8   9
ENDBRANCH   1   8
TORSDOF 6
ENDMDL
MODEL 9
REMARK VINA RESULT:    -3.130      1.890      3.236
REMARK INTER + INTRA:          -5.109
REMARK INTER:                  -4.329
REMARK INTRA:                  -0.780
REMARK UNBOUND:                -0.881
REMARK SMILES CCCCCCC=CC(=O)[O-]
REMARK SMILES IDX 5 1 6 2 7 3 8 4 9 5 10 6 11 7 4 8 3 9 2 10 1 11
REMARK H PARENT
REMARK Flexibility Score: inf
ROOT
ATOM      1  C   UNL     1     199.594 206.927 189.349  1.00  0.00     0.004 C 
ENDROOT
BRANCH   1   2
ATOM      2  C   UNL     1     198.721 207.833 190.233  1.00  0.00     0.027 C 
BRANCH   2   3
ATOM      3  C   UNL     1     197.553 207.095 190.831  1.00  0.00    -0.025 C 
ATOM      4  C   UNL     1     197.009 207.320 192.038  1.00  0.00     0.020 C 
BRANCH   4   5
ATOM      5  C   UNL     1     197.474 208.295 193.045  1.00  0.00     0.064 C 
ATOM      6  O   UNL     1     198.256 207.908 193.952  1.00  0.00    -0.545 OA
ATOM      7  O   UNL     1     197.104 209.634 193.007  1.00  0.00    -0.545 OA
ENDBRANCH   4   5
ENDBRANCH   2   3
ENDBRANCH   1   2
BRANCH   1   8
ATOM      8  C   UNL     1     199.975 205.619 190.065  1.00  0.00     0.000 C 
BRANCH   8   9
ATOM      9  C   UNL     1     201.303 205.731 190.831  1.00  0.00    -0.000 C 
BRANCH   9  10
ATOM     10  C   UNL     1     201.103 205.794 192.353  1.00  0.00    -0.003 C 
ATOM     11  C   UNL     1     199.851 205.030 192.773  1.00  0.00     0.004 C 
ENDBRANCH   9  10
ENDBRANCH   8   9
ENDBRANCH   1   8
TORSDOF 6
ENDMDL
