MODEL 1
REMARK VINA RESULT:    -0.825      0.000      0.000
REMARK INTER + INTRA:          -1.205
REMARK INTER:                  -1.114
REMARK INTRA:                  -0.091
REMARK UNBOUND:                -0.091
REMARK SMILES C=C1C(=O)O[C@H]2[C@@H]1CCC(C)=CCC[C@]1(C)O[C@H]21
REMARK SMILES IDX 6 1 7 2 2 3 1 4 3 5 4 6 5 7 8 8 9 9 10 10 11 11 12 12 18 14
REMARK SMILES IDX 15 15 17 16 16 17 14 18 13 19
REMARK H PARENT
REMARK Flexibility Score: 70.00
ROOT
ATOM      1  C   UNL     1     -19.351 -16.954  82.764  1.00  0.00     0.216 C 
ATOM      2  C   UNL     1     -18.848 -15.682  83.553  1.00  0.00     0.070 C 
ATOM      3  C   UNL     1     -18.588 -16.217  84.936  1.00  0.00     0.037 C 
ATOM      4  C   UNL     1     -18.244 -15.497  86.006  1.00  0.00     0.021 C 
ATOM      5  C   UNL     1     -18.975 -17.602  84.959  1.00  0.00     0.334 C 
ATOM      6  O   UNL     1     -18.928 -18.360  85.965  1.00  0.00    -0.247 OA
ATOM      7  O   UNL     1     -19.444 -17.999  83.730  1.00  0.00    -0.455 OA
ENDROOT
BRANCH   2   8
ATOM      8  C   UNL     1     -17.616 -14.915  82.973  1.00  0.00     0.017 C 
BRANCH   8   9
ATOM      9  C   UNL     1     -17.953 -13.499  82.444  1.00  0.00     0.031 C 
BRANCH   9  10
ATOM     10  C   UNL     1     -19.424 -13.325  82.112  1.00  0.00    -0.077 C 
ATOM     11  C   UNL     1     -20.296 -12.562  83.076  1.00  0.00     0.039 C 
ATOM     12  C   UNL     1     -20.005 -13.844  81.007  1.00  0.00    -0.028 CG0
ATOM     13  G   UNL     1     -19.278 -14.551  79.891  1.00  0.00     0.000 G0
ENDBRANCH   9  10
ENDBRANCH   8   9
ENDBRANCH   2   8
BRANCH   1  14
ATOM     14  C   UNL     1     -18.418 -17.448  81.647  1.00  0.00     0.192 C 
ATOM     15  C   UNL     1     -18.595 -17.017  80.228  1.00  0.00     0.096 C 
ATOM     16  O   UNL     1     -19.140 -18.224  80.712  1.00  0.00    -0.362 OA
ATOM     17  C   UNL     1     -17.431 -17.288  79.270  1.00  0.00     0.045 C 
BRANCH  15  18
ATOM     18  C   UNL     1     -19.702 -16.036  79.778  1.00  0.00     0.042 C 
BRANCH  18  19
ATOM     19  C   UNL     1     -19.289 -14.560  79.863  1.00  0.00     0.030 CG0
ATOM     20  G   UNL     1     -19.995 -13.846  80.989  1.00  0.00     0.000 G0
ENDBRANCH  18  19
ENDBRANCH  15  18
ENDBRANCH   1  14
TORSDOF 0
ENDMDL
MODEL 2
REMARK VINA RESULT:    -0.789      3.789      4.620
REMARK INTER + INTRA:          -1.156
REMARK INTER:                  -1.184
REMARK INTRA:                   0.028
REMARK UNBOUND:                -0.091
REMARK SMILES C=C1C(=O)O[C@H]2[C@@H]1CCC(C)=CCC[C@]1(C)O[C@H]21
REMARK SMILES IDX 6 1 7 2 2 3 1 4 3 5 4 6 5 7 8 8 9 9 10 10 11 11 12 12 18 14
REMARK SMILES IDX 15 15 17 16 16 17 14 18 13 19
REMARK H PARENT
REMARK Flexibility Score: 70.00
ROOT
ATOM      1  C   UNL     1     -16.601 -14.168  81.980  1.00  0.00     0.216 C 
ATOM      2  C   UNL     1     -16.382 -13.959  83.531  1.00  0.00     0.070 C 
ATOM      3  C   UNL     1     -17.366 -14.916  84.148  1.00  0.00     0.037 C 
ATOM      4  C   UNL     1     -17.637 -15.035  85.449  1.00  0.00     0.021 C 
ATOM      5  C   UNL     1     -18.116 -15.533  83.086  1.00  0.00     0.334 C 
ATOM      6  O   UNL     1     -19.052 -16.363  83.235  1.00  0.00    -0.247 OA
ATOM      7  O   UNL     1     -17.699 -15.070  81.861  1.00  0.00    -0.455 OA
ENDROOT
BRANCH   2   8
ATOM      8  C   UNL     1     -14.934 -14.158  84.086  1.00  0.00     0.017 C 
BRANCH   8   9
ATOM      9  C   UNL     1     -14.070 -12.874  84.054  1.00  0.00     0.031 C 
BRANCH   9  10
ATOM     10  C   UNL     1     -14.851 -11.644  83.626  1.00  0.00    -0.077 C 
ATOM     11  C   UNL     1     -15.743 -10.967  84.635  1.00  0.00     0.039 C 
ATOM     12  C   UNL     1     -14.813 -11.137  82.373  1.00  0.00    -0.028 CG0
ATOM     13  G   UNL     1     -13.914 -11.621  81.263  1.00  0.00     0.000 G0
ENDBRANCH   9  10
ENDBRANCH   8   9
ENDBRANCH   2   8
BRANCH   1  14
ATOM     14  C   UNL     1     -15.416 -14.790  81.225  1.00  0.00     0.192 C 
ATOM     15  C   UNL     1     -14.509 -13.967  80.371  1.00  0.00     0.096 C 
ATOM     16  O   UNL     1     -15.605 -14.669  79.830  1.00  0.00    -0.362 OA
ATOM     17  C   UNL     1     -13.185 -14.608  79.945  1.00  0.00     0.045 C 
BRANCH  15  18
ATOM     18  C   UNL     1     -14.673 -12.439  80.198  1.00  0.00     0.042 C 
BRANCH  18  19
ATOM     19  C   UNL     1     -13.903 -11.615  81.239  1.00  0.00     0.030 CG0
ATOM     20  G   UNL     1     -14.802 -11.140  82.353  1.00  0.00     0.000 G0
ENDBRANCH  18  19
ENDBRANCH  15  18
ENDBRANCH   1  14
TORSDOF 0
ENDMDL
MODEL 3
REMARK VINA RESULT:    -0.669      8.186      9.671
REMARK INTER + INTRA:          -0.994
REMARK INTER:                  -0.949
REMARK INTRA:                  -0.046
REMARK UNBOUND:                -0.091
REMARK SMILES C=C1C(=O)O[C@H]2[C@@H]1CCC(C)=CCC[C@]1(C)O[C@H]21
REMARK SMILES IDX 6 1 7 2 2 3 1 4 3 5 4 6 5 7 8 8 9 9 10 10 11 11 12 12 18 14
REMARK SMILES IDX 15 15 17 16 16 17 14 18 13 19
REMARK H PARENT
REMARK Flexibility Score: 70.00
ROOT
ATOM      1  C   UNL     1     -16.752 -23.260  82.855  1.00  0.00     0.216 C 
ATOM      2  C   UNL     1     -16.330 -24.666  83.439  1.00  0.00     0.070 C 
ATOM      3  C   UNL     1     -17.640 -25.397  83.554  1.00  0.00     0.037 C 
ATOM      4  C   UNL     1     -17.824 -26.600  84.100  1.00  0.00     0.021 C 
ATOM      5  C   UNL     1     -18.691 -24.494  83.167  1.00  0.00     0.334 C 
ATOM      6  O   UNL     1     -19.924 -24.756  83.175  1.00  0.00    -0.247 OA
ATOM      7  O   UNL     1     -18.177 -23.270  82.810  1.00  0.00    -0.455 OA
ENDROOT
BRANCH   2   8
ATOM      8  C   UNL     1     -15.263 -25.485  82.643  1.00  0.00     0.017 C 
BRANCH   8   9
ATOM      9  C   UNL     1     -13.964 -25.761  83.440  1.00  0.00     0.031 C 
BRANCH   9  10
ATOM     10  C   UNL     1     -13.666 -24.692  84.476  1.00  0.00    -0.077 C 
ATOM     11  C   UNL     1     -13.814 -25.038  85.935  1.00  0.00     0.039 C 
ATOM     12  C   UNL     1     -13.299 -23.429  84.158  1.00  0.00    -0.028 CG0
ATOM     13  G   UNL     1     -13.011 -22.930  82.764  1.00  0.00     0.000 G0
ENDBRANCH   9  10
ENDBRANCH   8   9
ENDBRANCH   2   8
BRANCH   1  14
ATOM     14  C   UNL     1     -16.253 -22.961  81.433  1.00  0.00     0.192 C 
ATOM     15  C   UNL     1     -14.950 -22.272  81.186  1.00  0.00     0.096 C 
ATOM     16  O   UNL     1     -16.169 -21.565  81.226  1.00  0.00    -0.362 OA
ATOM     17  C   UNL     1     -14.396 -22.326  79.759  1.00  0.00     0.045 C 
BRANCH  15  18
ATOM     18  C   UNL     1     -14.002 -21.832  82.325  1.00  0.00     0.042 C 
BRANCH  18  19
ATOM     19  C   UNL     1     -13.002 -22.917  82.748  1.00  0.00     0.030 CG0
ATOM     20  G   UNL     1     -13.284 -23.427  84.139  1.00  0.00     0.000 G0
ENDBRANCH  18  19
ENDBRANCH  15  18
ENDBRANCH   1  14
TORSDOF 0
ENDMDL
MODEL 4
REMARK VINA RESULT:    -0.622      7.856      8.889
REMARK INTER + INTRA:          -0.931
REMARK INTER:                  -0.929
REMARK INTRA:                  -0.002
REMARK UNBOUND:                -0.091
REMARK SMILES C=C1C(=O)O[C@H]2[C@@H]1CCC(C)=CCC[C@]1(C)O[C@H]21
REMARK SMILES IDX 6 1 7 2 2 3 1 4 3 5 4 6 5 7 8 8 9 9 10 10 11 11 12 12 18 14
REMARK SMILES IDX 15 15 17 16 16 17 14 18 13 19
REMARK H PARENT
REMARK Flexibility Score: 70.00
ROOT
ATOM      1  C   UNL     1     -15.126 -23.725  82.159  1.00  0.00     0.216 C 
ATOM      2  C   UNL     1     -16.351 -23.460  83.120  1.00  0.00     0.070 C 
ATOM      3  C   UNL     1     -15.694 -23.028  84.403  1.00  0.00     0.037 C 
ATOM      4  C   UNL     1     -16.312 -22.790  85.562  1.00  0.00     0.021 C 
ATOM      5  C   UNL     1     -14.269 -23.118  84.228  1.00  0.00     0.334 C 
ATOM      6  O   UNL     1     -13.404 -22.868  85.109  1.00  0.00    -0.247 OA
ATOM      7  O   UNL     1     -13.960 -23.553  82.961  1.00  0.00    -0.455 OA
ENDROOT
BRANCH   2   8
ATOM      8  C   UNL     1     -17.436 -22.442  82.638  1.00  0.00     0.017 C 
BRANCH   8   9
ATOM      9  C   UNL     1     -18.653 -23.105  81.948  1.00  0.00     0.031 C 
BRANCH   9  10
ATOM     10  C   UNL     1     -18.518 -24.612  81.828  1.00  0.00    -0.077 C 
ATOM     11  C   UNL     1     -18.938 -25.471  82.993  1.00  0.00     0.039 C 
ATOM     12  C   UNL     1     -18.012 -25.230  80.736  1.00  0.00    -0.028 CG0
ATOM     13  G   UNL     1     -17.629 -24.546  79.447  1.00  0.00     0.000 G0
ENDBRANCH   9  10
ENDBRANCH   8   9
ENDBRANCH   2   8
BRANCH   1  14
ATOM     14  C   UNL     1     -15.004 -22.764  80.966  1.00  0.00     0.192 C 
ATOM     15  C   UNL     1     -15.449 -23.154  79.595  1.00  0.00     0.096 C 
ATOM     16  O   UNL     1     -14.107 -23.285  80.006  1.00  0.00    -0.362 OA
ATOM     17  C   UNL     1     -15.598 -22.028  78.567  1.00  0.00     0.045 C 
BRANCH  15  18
ATOM     18  C   UNL     1     -16.080 -24.528  79.274  1.00  0.00     0.042 C 
BRANCH  18  19
ATOM     19  C   UNL     1     -17.606 -24.560  79.443  1.00  0.00     0.030 CG0
ATOM     20  G   UNL     1     -18.010 -25.221  80.737  1.00  0.00     0.000 G0
ENDBRANCH  18  19
ENDBRANCH  15  18
ENDBRANCH   1  14
TORSDOF 0
ENDMDL
MODEL 5
REMARK VINA RESULT:    -0.574      7.511      9.557
REMARK INTER + INTRA:          -0.866
REMARK INTER:                  -0.948
REMARK INTRA:                   0.081
REMARK UNBOUND:                -0.091
REMARK SMILES C=C1C(=O)O[C@H]2[C@@H]1CCC(C)=CCC[C@]1(C)O[C@H]21
REMARK SMILES IDX 6 1 7 2 2 3 1 4 3 5 4 6 5 7 8 8 9 9 10 10 11 11 12 12 18 14
REMARK SMILES IDX 15 15 17 16 16 17 14 18 13 19
REMARK H PARENT
REMARK Flexibility Score: 70.00
ROOT
ATOM      1  C   UNL     1     -15.214 -22.657  82.499  1.00  0.00     0.216 C 
ATOM      2  C   UNL     1     -16.105 -22.585  81.196  1.00  0.00     0.070 C 
ATOM      3  C   UNL     1     -15.488 -21.453  80.421  1.00  0.00     0.037 C 
ATOM      4  C   UNL     1     -15.954 -20.931  79.284  1.00  0.00     0.021 C 
ATOM      5  C   UNL     1     -14.431 -20.889  81.218  1.00  0.00     0.334 C 
ATOM      6  O   UNL     1     -13.719 -19.900  80.898  1.00  0.00    -0.247 OA
ATOM      7  O   UNL     1     -14.311 -21.557  82.413  1.00  0.00    -0.455 OA
ENDROOT
BRANCH   2   8
ATOM      8  C   UNL     1     -16.235 -23.887  80.340  1.00  0.00     0.017 C 
BRANCH   8   9
ATOM      9  C   UNL     1     -17.316 -24.869  80.855  1.00  0.00     0.031 C 
BRANCH   9  10
ATOM     10  C   UNL     1     -18.223 -24.254  81.906  1.00  0.00    -0.077 C 
ATOM     11  C   UNL     1     -19.254 -23.245  81.470  1.00  0.00     0.039 C 
ATOM     12  C   UNL     1     -18.137 -24.542  83.225  1.00  0.00    -0.028 CG0
ATOM     13  G   UNL     1     -17.235 -25.588  83.831  1.00  0.00     0.000 G0
ENDBRANCH   9  10
ENDBRANCH   8   9
ENDBRANCH   2   8
BRANCH   1  14
ATOM     14  C   UNL     1     -14.368 -23.931  82.649  1.00  0.00     0.192 C 
ATOM     15  C   UNL     1     -14.741 -25.014  83.608  1.00  0.00     0.096 C 
ATOM     16  O   UNL     1     -13.817 -24.004  83.948  1.00  0.00    -0.362 OA
ATOM     17  C   UNL     1     -14.037 -26.363  83.439  1.00  0.00     0.045 C 
BRANCH  15  18
ATOM     18  C   UNL     1     -16.003 -24.951  84.499  1.00  0.00     0.042 C 
BRANCH  18  19
ATOM     19  C   UNL     1     -17.244 -25.582  83.853  1.00  0.00     0.030 CG0
ATOM     20  G   UNL     1     -18.135 -24.542  83.220  1.00  0.00     0.000 G0
ENDBRANCH  18  19
ENDBRANCH  15  18
ENDBRANCH   1  14
TORSDOF 0
ENDMDL
MODEL 6
REMARK VINA RESULT:    -0.568      7.498      9.097
REMARK INTER + INTRA:          -0.859
REMARK INTER:                  -0.807
REMARK INTRA:                  -0.052
REMARK UNBOUND:                -0.091
REMARK SMILES C=C1C(=O)O[C@H]2[C@@H]1CCC(C)=CCC[C@]1(C)O[C@H]21
REMARK SMILES IDX 6 1 7 2 2 3 1 4 3 5 4 6 5 7 8 8 9 9 10 10 11 11 12 12 18 14
REMARK SMILES IDX 15 15 17 16 16 17 14 18 13 19
REMARK H PARENT
REMARK Flexibility Score: 70.00
ROOT
ATOM      1  C   UNL     1     -18.219 -23.212  82.799  1.00  0.00     0.216 C 
ATOM      2  C   UNL     1     -17.015 -23.380  83.807  1.00  0.00     0.070 C 
ATOM      3  C   UNL     1     -17.479 -22.627  85.024  1.00  0.00     0.037 C 
ATOM      4  C   UNL     1     -16.760 -22.388  86.123  1.00  0.00     0.021 C 
ATOM      5  C   UNL     1     -18.751 -22.028  84.721  1.00  0.00     0.334 C 
ATOM      6  O   UNL     1     -19.420 -21.294  85.497  1.00  0.00    -0.247 OA
ATOM      7  O   UNL     1     -19.143 -22.335  83.440  1.00  0.00    -0.455 OA
ENDROOT
BRANCH   2   8
ATOM      8  C   UNL     1     -16.560 -24.837  84.149  1.00  0.00     0.017 C 
BRANCH   8   9
ATOM      9  C   UNL     1     -15.183 -25.218  83.554  1.00  0.00     0.031 C 
BRANCH   9  10
ATOM     10  C   UNL     1     -14.750 -24.299  82.425  1.00  0.00    -0.077 C 
ATOM     11  C   UNL     1     -13.765 -23.199  82.727  1.00  0.00     0.039 C 
ATOM     12  C   UNL     1     -15.223 -24.397  81.163  1.00  0.00    -0.028 CG0
ATOM     13  G   UNL     1     -16.137 -25.485  80.656  1.00  0.00     0.000 G0
ENDBRANCH   9  10
ENDBRANCH   8   9
ENDBRANCH   2   8
BRANCH   1  14
ATOM     14  C   UNL     1     -18.978 -24.504  82.457  1.00  0.00     0.192 C 
ATOM     15  C   UNL     1     -18.650 -25.310  81.244  1.00  0.00     0.096 C 
ATOM     16  O   UNL     1     -19.683 -24.352  81.242  1.00  0.00    -0.362 OA
ATOM     17  C   UNL     1     -19.221 -26.730  81.178  1.00  0.00     0.045 C 
BRANCH  15  18
ATOM     18  C   UNL     1     -17.521 -24.927  80.259  1.00  0.00     0.042 C 
BRANCH  18  19
ATOM     19  C   UNL     1     -16.145 -25.482  80.653  1.00  0.00     0.030 CG0
ATOM     20  G   UNL     1     -15.228 -24.396  81.157  1.00  0.00     0.000 G0
ENDBRANCH  18  19
ENDBRANCH  15  18
ENDBRANCH   1  14
TORSDOF 0
ENDMDL
MODEL 7
REMARK VINA RESULT:    -0.558      2.740      3.979
REMARK INTER + INTRA:          -0.844
REMARK INTER:                  -1.089
REMARK INTRA:                   0.244
REMARK UNBOUND:                -0.091
REMARK SMILES C=C1C(=O)O[C@H]2[C@@H]1CCC(C)=CCC[C@]1(C)O[C@H]21
REMARK SMILES IDX 6 1 7 2 2 3 1 4 3 5 4 6 5 7 8 8 9 9 10 10 11 11 12 12 18 14
REMARK SMILES IDX 15 15 17 16 16 17 14 18 13 19
REMARK H PARENT
REMARK Flexibility Score: 70.00
ROOT
ATOM      1  C   UNL     1     -17.538 -15.541  82.732  1.00  0.00     0.216 C 
ATOM      2  C   UNL     1     -17.899 -15.455  84.267  1.00  0.00     0.070 C 
ATOM      3  C   UNL     1     -16.923 -14.438  84.793  1.00  0.00     0.037 C 
ATOM      4  C   UNL     1     -16.759 -14.093  86.072  1.00  0.00     0.021 C 
ATOM      5  C   UNL     1     -16.053 -14.053  83.714  1.00  0.00     0.334 C 
ATOM      6  O   UNL     1     -15.091 -13.244  83.799  1.00  0.00    -0.247 OA
ATOM      7  O   UNL     1     -16.387 -14.716  82.557  1.00  0.00    -0.455 OA
ENDROOT
BRANCH   2   8
ATOM      8  C   UNL     1     -19.377 -15.106  84.640  1.00  0.00     0.017 C 
BRANCH   8   9
ATOM      9  C   UNL     1     -20.397 -16.201  84.245  1.00  0.00     0.031 C 
BRANCH   9  10
ATOM     10  C   UNL     1     -19.826 -17.605  84.340  1.00  0.00    -0.077 C 
ATOM     11  C   UNL     1     -19.300 -18.083  85.670  1.00  0.00     0.039 C 
ATOM     12  C   UNL     1     -19.737 -18.445  83.285  1.00  0.00    -0.028 CG0
ATOM     13  G   UNL     1     -20.292 -18.178  81.908  1.00  0.00     0.000 G0
ENDBRANCH   9  10
ENDBRANCH   8   9
ENDBRANCH   2   8
BRANCH   1  14
ATOM     14  C   UNL     1     -18.619 -15.025  81.770  1.00  0.00     0.192 C 
ATOM     15  C   UNL     1     -19.437 -15.954  80.935  1.00  0.00     0.096 C 
ATOM     16  O   UNL     1     -18.275 -15.332  80.434  1.00  0.00    -0.362 OA
ATOM     17  C   UNL     1     -20.693 -15.375  80.279  1.00  0.00     0.045 C 
BRANCH  15  18
ATOM     18  C   UNL     1     -19.278 -17.491  80.986  1.00  0.00     0.042 C 
BRANCH  18  19
ATOM     19  C   UNL     1     -20.298 -18.186  81.900  1.00  0.00     0.030 CG0
ATOM     20  G   UNL     1     -19.733 -18.441  83.275  1.00  0.00     0.000 G0
ENDBRANCH  18  19
ENDBRANCH  15  18
ENDBRANCH   1  14
TORSDOF 0
ENDMDL
MODEL 8
REMARK VINA RESULT:    -0.524     15.586     17.067
REMARK INTER + INTRA:          -0.799
REMARK INTER:                  -0.905
REMARK INTRA:                   0.105
REMARK UNBOUND:                -0.091
REMARK SMILES C=C1C(=O)O[C@H]2[C@@H]1CCC(C)=CCC[C@]1(C)O[C@H]21
REMARK SMILES IDX 6 1 7 2 2 3 1 4 3 5 4 6 5 7 8 8 9 9 10 10 11 11 12 12 18 14
REMARK SMILES IDX 15 15 17 16 16 17 14 18 13 19
REMARK H PARENT
REMARK Flexibility Score: 70.00
ROOT
ATOM      1  C   UNL     1     -25.035 -19.985  66.346  1.00  0.00     0.216 C 
ATOM      2  C   UNL     1     -25.898 -18.799  66.934  1.00  0.00     0.070 C 
ATOM      3  C   UNL     1     -27.281 -19.387  67.011  1.00  0.00     0.037 C 
ATOM      4  C   UNL     1     -28.395 -18.735  67.351  1.00  0.00     0.021 C 
ATOM      5  C   UNL     1     -27.234 -20.714  66.457  1.00  0.00     0.334 C 
ATOM      6  O   UNL     1     -28.219 -21.489  66.326  1.00  0.00    -0.247 OA
ATOM      7  O   UNL     1     -25.961 -21.027  66.046  1.00  0.00    -0.455 OA
ENDROOT
BRANCH   2   8
ATOM      8  C   UNL     1     -25.439 -18.182  68.295  1.00  0.00     0.017 C 
BRANCH   8   9
ATOM      9  C   UNL     1     -24.270 -17.176  68.163  1.00  0.00     0.031 C 
BRANCH   9  10
ATOM     10  C   UNL     1     -24.058 -16.696  66.738  1.00  0.00    -0.077 C 
ATOM     11  C   UNL     1     -25.089 -15.784  66.122  1.00  0.00     0.039 C 
ATOM     12  C   UNL     1     -23.004 -17.067  65.976  1.00  0.00    -0.028 CG0
ATOM     13  G   UNL     1     -21.834 -17.892  66.450  1.00  0.00     0.000 G0
ENDBRANCH   9  10
ENDBRANCH   8   9
ENDBRANCH   2   8
BRANCH   1  14
ATOM     14  C   UNL     1     -23.983 -20.571  67.301  1.00  0.00     0.192 C 
ATOM     15  C   UNL     1     -22.526 -20.284  67.136  1.00  0.00     0.096 C 
ATOM     16  O   UNL     1     -23.121 -21.446  66.603  1.00  0.00    -0.362 OA
ATOM     17  C   UNL     1     -21.613 -20.630  68.316  1.00  0.00     0.045 C 
BRANCH  15  18
ATOM     18  C   UNL     1     -21.970 -19.371  66.020  1.00  0.00     0.042 C 
BRANCH  18  19
ATOM     19  C   UNL     1     -21.832 -17.900  66.440  1.00  0.00     0.030 CG0
ATOM     20  G   UNL     1     -23.007 -17.075  65.979  1.00  0.00     0.000 G0
ENDBRANCH  18  19
ENDBRANCH  15  18
ENDBRANCH   1  14
TORSDOF 0
ENDMDL
MODEL 9
REMARK VINA RESULT:    -0.513      6.257      8.164
REMARK INTER + INTRA:          -0.784
REMARK INTER:                  -0.737
REMARK INTRA:                  -0.047
REMARK UNBOUND:                -0.091
REMARK SMILES C=C1C(=O)O[C@H]2[C@@H]1CCC(C)=CCC[C@]1(C)O[C@H]21
REMARK SMILES IDX 6 1 7 2 2 3 1 4 3 5 4 6 5 7 8 8 9 9 10 10 11 11 12 12 18 14
REMARK SMILES IDX 15 15 17 16 16 17 14 18 13 19
REMARK H PARENT
REMARK Flexibility Score: 70.00
ROOT
ATOM      1  C   UNL     1     -16.035 -20.928  80.403  1.00  0.00     0.216 C 
ATOM      2  C   UNL     1     -15.295 -22.193  79.813  1.00  0.00     0.070 C 
ATOM      3  C   UNL     1     -13.959 -22.162  80.505  1.00  0.00     0.037 C 
ATOM      4  C   UNL     1     -12.928 -22.974  80.261  1.00  0.00     0.021 C 
ATOM      5  C   UNL     1     -13.906 -20.980  81.323  1.00  0.00     0.334 C 
ATOM      6  O   UNL     1     -12.922 -20.612  82.018  1.00  0.00    -0.247 OA
ATOM      7  O   UNL     1     -15.077 -20.267  81.226  1.00  0.00    -0.455 OA
ENDROOT
BRANCH   2   8
ATOM      8  C   UNL     1     -16.006 -23.578  79.961  1.00  0.00     0.017 C 
BRANCH   8   9
ATOM      9  C   UNL     1     -16.603 -24.119  78.639  1.00  0.00     0.031 C 
BRANCH   9  10
ATOM     10  C   UNL     1     -16.692 -23.061  77.552  1.00  0.00    -0.077 C 
ATOM     11  C   UNL     1     -15.591 -22.985  76.526  1.00  0.00     0.039 C 
ATOM     12  C   UNL     1     -17.697 -22.160  77.472  1.00  0.00    -0.028 CG0
ATOM     13  G   UNL     1     -18.924 -22.141  78.349  1.00  0.00     0.000 G0
ENDBRANCH   9  10
ENDBRANCH   8   9
ENDBRANCH   2   8
BRANCH   1  14
ATOM     14  C   UNL     1     -17.259 -21.232  81.282  1.00  0.00     0.192 C 
ATOM     15  C   UNL     1     -18.647 -21.203  80.733  1.00  0.00     0.096 C 
ATOM     16  O   UNL     1     -18.083 -20.089  81.386  1.00  0.00    -0.362 OA
ATOM     17  C   UNL     1     -19.746 -21.841  81.589  1.00  0.00     0.045 C 
BRANCH  15  18
ATOM     18  C   UNL     1     -18.959 -20.893  79.251  1.00  0.00     0.042 C 
BRANCH  18  19
ATOM     19  C   UNL     1     -18.932 -22.131  78.343  1.00  0.00     0.030 CG0
ATOM     20  G   UNL     1     -17.699 -22.159  77.474  1.00  0.00     0.000 G0
ENDBRANCH  18  19
ENDBRANCH  15  18
ENDBRANCH   1  14
TORSDOF 0
ENDMDL
