MODEL 1
REMARK VINA RESULT:    -5.724      0.000      0.000
REMARK INTER + INTRA:         -13.056
REMARK INTER:                 -10.742
REMARK INTRA:                  -2.313
REMARK UNBOUND:                -2.313
REMARK SMILES O=C([O-])CCCCCCCCCCCCCCC(=O)[O-]
REMARK SMILES IDX 10 1 9 2 8 3 7 4 6 5 5 6 4 7 2 8 1 9 3 10 11 11 12 12 13 13
REMARK SMILES IDX 14 14 15 15 16 16 17 17 18 18 19 19 20 20
REMARK H PARENT
REMARK Flexibility Score: inf
ROOT
ATOM      1  C   UNL     1      18.277  -6.714  36.389  1.00  0.00     0.000 C 
ENDROOT
BRANCH   1   2
ATOM      2  C   UNL     1      18.114  -5.251  36.829  1.00  0.00     0.000 C 
BRANCH   2   3
ATOM      3  C   UNL     1      17.090  -4.523  35.950  1.00  0.00     0.000 C 
BRANCH   3   4
ATOM      4  C   UNL     1      15.974  -5.478  35.502  1.00  0.00     0.000 C 
BRANCH   4   5
ATOM      5  C   UNL     1      15.872  -5.594  33.973  1.00  0.00     0.000 C 
BRANCH   5   6
ATOM      6  C   UNL     1      15.548  -7.021  33.507  1.00  0.00     0.006 C 
BRANCH   6   7
ATOM      7  C   UNL     1      16.182  -7.309  32.142  1.00  0.00     0.053 C 
BRANCH   7   8
ATOM      8  C   UNL     1      16.247  -8.783  31.895  1.00  0.00     0.041 C 
ATOM      9  O   UNL     1      15.223  -9.498  32.057  1.00  0.00    -0.550 OA
ATOM     10  O   UNL     1      17.425  -9.360  31.439  1.00  0.00    -0.550 OA
ENDBRANCH   7   8
ENDBRANCH   6   7
ENDBRANCH   5   6
ENDBRANCH   4   5
ENDBRANCH   3   4
ENDBRANCH   2   3
ENDBRANCH   1   2
BRANCH   1  11
ATOM     11  C   UNL     1      19.519  -6.933  35.512  1.00  0.00     0.000 C 
BRANCH  11  12
ATOM     12  C   UNL     1      19.162  -7.376  34.081  1.00  0.00     0.000 C 
BRANCH  12  13
ATOM     13  C   UNL     1      19.730  -6.429  33.012  1.00  0.00     0.000 C 
BRANCH  13  14
ATOM     14  C   UNL     1      19.287  -4.970  33.224  1.00  0.00     0.000 C 
BRANCH  14  15
ATOM     15  C   UNL     1      20.477  -4.010  33.382  1.00  0.00     0.000 C 
BRANCH  15  16
ATOM     16  C   UNL     1      20.388  -3.166  34.666  1.00  0.00     0.006 C 
BRANCH  16  17
ATOM     17  C   UNL     1      19.176  -2.225  34.656  1.00  0.00     0.053 C 
BRANCH  17  18
ATOM     18  C   UNL     1      19.250  -1.211  35.756  1.00  0.00     0.041 C 
ATOM     19  O   UNL     1      20.269  -0.481  35.876  1.00  0.00    -0.550 OA
ATOM     20  O   UNL     1      18.180  -1.050  36.627  1.00  0.00    -0.550 OA
ENDBRANCH  17  18
ENDBRANCH  16  17
ENDBRANCH  15  16
ENDBRANCH  14  15
ENDBRANCH  13  14
ENDBRANCH  12  13
ENDBRANCH  11  12
ENDBRANCH   1  11
TORSDOF 15
ENDMDL
MODEL 2
REMARK VINA RESULT:    -5.555      0.790      6.647
REMARK INTER + INTRA:         -12.740
REMARK INTER:                 -10.083
REMARK INTRA:                  -2.657
REMARK UNBOUND:                -2.313
REMARK SMILES O=C([O-])CCCCCCCCCCCCCCC(=O)[O-]
REMARK SMILES IDX 10 1 9 2 8 3 7 4 6 5 5 6 4 7 2 8 1 9 3 10 11 11 12 12 13 13
REMARK SMILES IDX 14 14 15 15 16 16 17 17 18 18 19 19 20 20
REMARK H PARENT
REMARK Flexibility Score: inf
ROOT
ATOM      1  C   UNL     1      19.071  -7.027  34.529  1.00  0.00     0.000 C 
ENDROOT
BRANCH   1   2
ATOM      2  C   UNL     1      19.724  -6.498  33.242  1.00  0.00     0.000 C 
BRANCH   2   3
ATOM      3  C   UNL     1      19.405  -5.013  33.034  1.00  0.00     0.000 C 
BRANCH   3   4
ATOM      4  C   UNL     1      20.658  -4.148  33.242  1.00  0.00     0.000 C 
BRANCH   4   5
ATOM      5  C   UNL     1      20.427  -2.999  34.236  1.00  0.00     0.000 C 
BRANCH   5   6
ATOM      6  C   UNL     1      18.942  -2.634  34.384  1.00  0.00     0.006 C 
BRANCH   6   7
ATOM      7  C   UNL     1      18.673  -1.976  35.740  1.00  0.00     0.053 C 
BRANCH   7   8
ATOM      8  C   UNL     1      19.235  -0.589  35.770  1.00  0.00     0.041 C 
ATOM      9  O   UNL     1      18.653   0.344  35.156  1.00  0.00    -0.550 OA
ATOM     10  O   UNL     1      20.374  -0.317  36.516  1.00  0.00    -0.550 OA
ENDBRANCH   7   8
ENDBRANCH   6   7
ENDBRANCH   5   6
ENDBRANCH   4   5
ENDBRANCH   3   4
ENDBRANCH   2   3
ENDBRANCH   1   2
BRANCH   1  11
ATOM     11  C   UNL     1      19.598  -6.325  35.790  1.00  0.00     0.000 C 
BRANCH  11  12
ATOM     12  C   UNL     1      18.471  -5.703  36.635  1.00  0.00     0.000 C 
BRANCH  12  13
ATOM     13  C   UNL     1      17.073  -6.048  36.099  1.00  0.00     0.000 C 
BRANCH  13  14
ATOM     14  C   UNL     1      16.316  -4.810  35.587  1.00  0.00     0.000 C 
BRANCH  14  15
ATOM     15  C   UNL     1      15.917  -4.933  34.108  1.00  0.00     0.000 C 
BRANCH  15  16
ATOM     16  C   UNL     1      15.540  -6.373  33.717  1.00  0.00     0.006 C 
BRANCH  16  17
ATOM     17  C   UNL     1      16.122  -6.773  32.355  1.00  0.00     0.053 C 
BRANCH  17  18
ATOM     18  C   UNL     1      16.281  -8.258  32.233  1.00  0.00     0.041 C 
ATOM     19  O   UNL     1      17.375  -8.747  31.847  1.00  0.00    -0.550 OA
ATOM     20  O   UNL     1      15.232  -9.101  32.579  1.00  0.00    -0.550 OA
ENDBRANCH  17  18
ENDBRANCH  16  17
ENDBRANCH  15  16
ENDBRANCH  14  15
ENDBRANCH  13  14
ENDBRANCH  12  13
ENDBRANCH  11  12
ENDBRANCH   1  11
TORSDOF 15
ENDMDL
MODEL 3
REMARK VINA RESULT:    -5.294      1.282      6.765
REMARK INTER + INTRA:         -12.250
REMARK INTER:                  -9.932
REMARK INTRA:                  -2.318
REMARK UNBOUND:                -2.313
REMARK SMILES O=C([O-])CCCCCCCCCCCCCCC(=O)[O-]
REMARK SMILES IDX 10 1 9 2 8 3 7 4 6 5 5 6 4 7 2 8 1 9 3 10 11 11 12 12 13 13
REMARK SMILES IDX 14 14 15 15 16 16 17 17 18 18 19 19 20 20
REMARK H PARENT
REMARK Flexibility Score: inf
ROOT
ATOM      1  C   UNL     1      16.107  -5.351  35.292  1.00  0.00     0.000 C 
ENDROOT
BRANCH   1   2
ATOM      2  C   UNL     1      15.932  -4.169  34.327  1.00  0.00     0.000 C 
BRANCH   2   3
ATOM      3  C   UNL     1      17.007  -4.189  33.232  1.00  0.00     0.000 C 
BRANCH   3   4
ATOM      4  C   UNL     1      17.960  -2.994  33.376  1.00  0.00     0.000 C 
BRANCH   4   5
ATOM      5  C   UNL     1      19.389  -3.417  33.753  1.00  0.00     0.000 C 
BRANCH   5   6
ATOM      6  C   UNL     1      19.813  -2.904  35.138  1.00  0.00     0.006 C 
BRANCH   6   7
ATOM      7  C   UNL     1      18.776  -1.927  35.701  1.00  0.00     0.053 C 
BRANCH   7   8
ATOM      8  C   UNL     1      19.348  -0.547  35.786  1.00  0.00     0.041 C 
ATOM      9  O   UNL     1      18.875   0.380  35.077  1.00  0.00    -0.550 OA
ATOM     10  O   UNL     1      20.372  -0.274  36.683  1.00  0.00    -0.550 OA
ENDBRANCH   7   8
ENDBRANCH   6   7
ENDBRANCH   5   6
ENDBRANCH   4   5
ENDBRANCH   3   4
ENDBRANCH   2   3
ENDBRANCH   1   2
BRANCH   1  11
ATOM     11  C   UNL     1      17.154  -5.076  36.382  1.00  0.00     0.000 C 
BRANCH  11  12
ATOM     12  C   UNL     1      18.220  -6.183  36.472  1.00  0.00     0.000 C 
BRANCH  12  13
ATOM     13  C   UNL     1      18.083  -7.226  35.352  1.00  0.00     0.000 C 
BRANCH  13  14
ATOM     14  C   UNL     1      19.335  -7.301  34.461  1.00  0.00     0.000 C 
BRANCH  14  15
ATOM     15  C   UNL     1      18.992  -7.513  32.978  1.00  0.00     0.000 C 
BRANCH  15  16
ATOM     16  C   UNL     1      17.475  -7.512  32.718  1.00  0.00     0.006 C 
BRANCH  16  17
ATOM     17  C   UNL     1      17.033  -8.713  31.873  1.00  0.00     0.053 C 
BRANCH  17  18
ATOM     18  C   UNL     1      15.664  -9.188  32.256  1.00  0.00     0.041 C 
ATOM     19  O   UNL     1      15.118 -10.125  31.615  1.00  0.00    -0.550 OA
ATOM     20  O   UNL     1      15.008  -8.621  33.341  1.00  0.00    -0.550 OA
ENDBRANCH  17  18
ENDBRANCH  16  17
ENDBRANCH  15  16
ENDBRANCH  14  15
ENDBRANCH  13  14
ENDBRANCH  12  13
ENDBRANCH  11  12
ENDBRANCH   1  11
TORSDOF 15
ENDMDL
MODEL 4
REMARK VINA RESULT:    -5.193      1.268      2.568
REMARK INTER + INTRA:         -12.059
REMARK INTER:                  -9.803
REMARK INTRA:                  -2.256
REMARK UNBOUND:                -2.313
REMARK SMILES O=C([O-])CCCCCCCCCCCCCCC(=O)[O-]
REMARK SMILES IDX 10 1 9 2 8 3 7 4 6 5 5 6 4 7 2 8 1 9 3 10 11 11 12 12 13 13
REMARK SMILES IDX 14 14 15 15 16 16 17 17 18 18 19 19 20 20
REMARK H PARENT
REMARK Flexibility Score: inf
ROOT
ATOM      1  C   UNL     1      17.329  -5.531  36.183  1.00  0.00     0.000 C 
ENDROOT
BRANCH   1   2
ATOM      2  C   UNL     1      18.192  -6.803  36.181  1.00  0.00     0.000 C 
BRANCH   2   3
ATOM      3  C   UNL     1      19.574  -6.529  35.576  1.00  0.00     0.000 C 
BRANCH   3   4
ATOM      4  C   UNL     1      19.562  -6.749  34.055  1.00  0.00     0.000 C 
BRANCH   4   5
ATOM      5  C   UNL     1      18.706  -7.956  33.639  1.00  0.00     0.000 C 
BRANCH   5   6
ATOM      6  C   UNL     1      17.670  -7.603  32.560  1.00  0.00     0.006 C 
BRANCH   6   7
ATOM      7  C   UNL     1      17.168  -8.864  31.851  1.00  0.00     0.053 C 
BRANCH   7   8
ATOM      8  C   UNL     1      15.732  -9.117  32.188  1.00  0.00     0.041 C 
ATOM      9  O   UNL     1      15.063  -9.952  31.523  1.00  0.00    -0.550 OA
ATOM     10  O   UNL     1      15.146  -8.467  33.266  1.00  0.00    -0.550 OA
ENDBRANCH   7   8
ENDBRANCH   6   7
ENDBRANCH   5   6
ENDBRANCH   4   5
ENDBRANCH   3   4
ENDBRANCH   2   3
ENDBRANCH   1   2
BRANCH   1  11
ATOM     11  C   UNL     1      16.098  -5.650  35.272  1.00  0.00     0.000 C 
BRANCH  11  12
ATOM     12  C   UNL     1      15.852  -4.377  34.441  1.00  0.00     0.000 C 
BRANCH  12  13
ATOM     13  C   UNL     1      16.829  -4.246  33.262  1.00  0.00     0.000 C 
BRANCH  13  14
ATOM     14  C   UNL     1      17.748  -3.018  33.393  1.00  0.00     0.000 C 
BRANCH  14  15
ATOM     15  C   UNL     1      19.219  -3.405  33.612  1.00  0.00     0.000 C 
BRANCH  15  16
ATOM     16  C   UNL     1      19.821  -2.752  34.869  1.00  0.00     0.006 C 
BRANCH  16  17
ATOM     17  C   UNL     1      18.795  -1.898  35.624  1.00  0.00     0.053 C 
BRANCH  17  18
ATOM     18  C   UNL     1      19.262  -0.485  35.789  1.00  0.00     0.041 C 
ATOM     19  O   UNL     1      18.641   0.456  35.228  1.00  0.00    -0.550 OA
ATOM     20  O   UNL     1      20.361  -0.204  36.591  1.00  0.00    -0.550 OA
ENDBRANCH  17  18
ENDBRANCH  16  17
ENDBRANCH  15  16
ENDBRANCH  14  15
ENDBRANCH  13  14
ENDBRANCH  12  13
ENDBRANCH  11  12
ENDBRANCH   1  11
TORSDOF 15
ENDMDL
MODEL 5
REMARK VINA RESULT:    -5.103     19.011     20.141
REMARK INTER + INTRA:         -11.891
REMARK INTER:                  -9.714
REMARK INTRA:                  -2.177
REMARK UNBOUND:                -2.313
REMARK SMILES O=C([O-])CCCCCCCCCCCCCCC(=O)[O-]
REMARK SMILES IDX 10 1 9 2 8 3 7 4 6 5 5 6 4 7 2 8 1 9 3 10 11 11 12 12 13 13
REMARK SMILES IDX 14 14 15 15 16 16 17 17 18 18 19 19 20 20
REMARK H PARENT
REMARK Flexibility Score: inf
ROOT
ATOM      1  C   UNL     1       8.500   5.484  20.575  1.00  0.00     0.000 C 
ENDROOT
BRANCH   1   2
ATOM      2  C   UNL     1       9.860   4.877  20.953  1.00  0.00     0.000 C 
BRANCH   2   3
ATOM      3  C   UNL     1      10.146   3.615  20.129  1.00  0.00     0.000 C 
BRANCH   3   4
ATOM      4  C   UNL     1      11.394   3.802  19.253  1.00  0.00     0.000 C 
BRANCH   4   5
ATOM      5  C   UNL     1      11.283   3.078  17.902  1.00  0.00     0.000 C 
BRANCH   5   6
ATOM      6  C   UNL     1       9.828   2.791  17.502  1.00  0.00     0.006 C 
BRANCH   6   7
ATOM      7  C   UNL     1       9.622   1.299  17.225  1.00  0.00     0.053 C 
BRANCH   7   8
ATOM      8  C   UNL     1       8.510   0.758  18.068  1.00  0.00     0.041 C 
ATOM      9  O   UNL     1       7.593   1.521  18.471  1.00  0.00    -0.550 OA
ATOM     10  O   UNL     1       8.461  -0.597  18.366  1.00  0.00    -0.550 OA
ENDBRANCH   7   8
ENDBRANCH   6   7
ENDBRANCH   5   6
ENDBRANCH   4   5
ENDBRANCH   3   4
ENDBRANCH   2   3
ENDBRANCH   1   2
BRANCH   1  11
ATOM     11  C   UNL     1       8.119   5.218  19.111  1.00  0.00     0.000 C 
BRANCH  11  12
ATOM     12  C   UNL     1       8.365   6.438  18.205  1.00  0.00     0.000 C 
BRANCH  12  13
ATOM     13  C   UNL     1       9.392   6.152  17.097  1.00  0.00     0.000 C 
BRANCH  13  14
ATOM     14  C   UNL     1      10.673   6.991  17.251  1.00  0.00     0.000 C 
BRANCH  14  15
ATOM     15  C   UNL     1      10.822   7.586  18.660  1.00  0.00     0.000 C 
BRANCH  15  16
ATOM     16  C   UNL     1      12.120   7.138  19.356  1.00  0.00     0.006 C 
BRANCH  16  17
ATOM     17  C   UNL     1      12.206   7.645  20.801  1.00  0.00     0.053 C 
BRANCH  17  18
ATOM     18  C   UNL     1      13.353   8.589  20.991  1.00  0.00     0.041 C 
ATOM     19  O   UNL     1      14.023   8.979  19.998  1.00  0.00    -0.550 OA
ATOM     20  O   UNL     1      13.661   9.064  22.260  1.00  0.00    -0.550 OA
ENDBRANCH  17  18
ENDBRANCH  16  17
ENDBRANCH  15  16
ENDBRANCH  14  15
ENDBRANCH  13  14
ENDBRANCH  12  13
ENDBRANCH  11  12
ENDBRANCH   1  11
TORSDOF 15
ENDMDL
MODEL 6
REMARK VINA RESULT:    -5.097     19.074     20.292
REMARK INTER + INTRA:         -11.881
REMARK INTER:                  -9.569
REMARK INTRA:                  -2.312
REMARK UNBOUND:                -2.313
REMARK SMILES O=C([O-])CCCCCCCCCCCCCCC(=O)[O-]
REMARK SMILES IDX 10 1 9 2 8 3 7 4 6 5 5 6 4 7 2 8 1 9 3 10 11 11 12 12 13 13
REMARK SMILES IDX 14 14 15 15 16 16 17 17 18 18 19 19 20 20
REMARK H PARENT
REMARK Flexibility Score: inf
ROOT
ATOM      1  C   UNL     1      10.166   7.392  17.660  1.00  0.00     0.000 C 
ENDROOT
BRANCH   1   2
ATOM      2  C   UNL     1      10.938   6.088  17.410  1.00  0.00     0.000 C 
BRANCH   2   3
ATOM      3  C   UNL     1      12.131   5.963  18.366  1.00  0.00     0.000 C 
BRANCH   3   4
ATOM      4  C   UNL     1      12.288   4.518  18.863  1.00  0.00     0.000 C 
BRANCH   4   5
ATOM      5  C   UNL     1      11.574   3.500  17.961  1.00  0.00     0.000 C 
BRANCH   5   6
ATOM      6  C   UNL     1      10.527   2.669  18.718  1.00  0.00     0.006 C 
BRANCH   6   7
ATOM      7  C   UNL     1       9.472   2.112  17.757  1.00  0.00     0.053 C 
BRANCH   7   8
ATOM      8  C   UNL     1       8.451   1.314  18.506  1.00  0.00     0.041 C 
ATOM      9  O   UNL     1       8.788   0.260  19.108  1.00  0.00    -0.550 OA
ATOM     10  O   UNL     1       7.138   1.760  18.581  1.00  0.00    -0.550 OA
ENDBRANCH   7   8
ENDBRANCH   6   7
ENDBRANCH   5   6
ENDBRANCH   4   5
ENDBRANCH   3   4
ENDBRANCH   2   3
ENDBRANCH   1   2
BRANCH   1  11
ATOM     11  C   UNL     1       8.729   7.146  18.145  1.00  0.00     0.000 C 
BRANCH  11  12
ATOM     12  C   UNL     1       8.325   5.663  18.067  1.00  0.00     0.000 C 
BRANCH  12  13
ATOM     13  C   UNL     1       8.169   5.021  19.455  1.00  0.00     0.000 C 
BRANCH  13  14
ATOM     14  C   UNL     1       8.382   6.029  20.597  1.00  0.00     0.000 C 
BRANCH  14  15
ATOM     15  C   UNL     1       9.784   5.927  21.219  1.00  0.00     0.000 C 
BRANCH  15  16
ATOM     16  C   UNL     1      10.448   7.303  21.406  1.00  0.00     0.006 C 
BRANCH  16  17
ATOM     17  C   UNL     1      11.976   7.201  21.491  1.00  0.00     0.053 C 
BRANCH  17  18
ATOM     18  C   UNL     1      12.635   8.531  21.291  1.00  0.00     0.041 C 
ATOM     19  O   UNL     1      12.298   9.517  21.998  1.00  0.00    -0.550 OA
ATOM     20  O   UNL     1      13.645   8.673  20.347  1.00  0.00    -0.550 OA
ENDBRANCH  17  18
ENDBRANCH  16  17
ENDBRANCH  15  16
ENDBRANCH  14  15
ENDBRANCH  13  14
ENDBRANCH  12  13
ENDBRANCH  11  12
ENDBRANCH   1  11
TORSDOF 15
ENDMDL
MODEL 7
REMARK VINA RESULT:    -5.029     18.844     20.804
REMARK INTER + INTRA:         -11.753
REMARK INTER:                  -9.469
REMARK INTRA:                  -2.284
REMARK UNBOUND:                -2.313
REMARK SMILES O=C([O-])CCCCCCCCCCCCCCC(=O)[O-]
REMARK SMILES IDX 10 1 9 2 8 3 7 4 6 5 5 6 4 7 2 8 1 9 3 10 11 11 12 12 13 13
REMARK SMILES IDX 14 14 15 15 16 16 17 17 18 18 19 19 20 20
REMARK H PARENT
REMARK Flexibility Score: inf
ROOT
ATOM      1  C   UNL     1       8.372   5.482  18.673  1.00  0.00     0.000 C 
ENDROOT
BRANCH   1   2
ATOM      2  C   UNL     1       8.192   5.599  20.194  1.00  0.00     0.000 C 
BRANCH   2   3
ATOM      3  C   UNL     1       9.297   4.839  20.938  1.00  0.00     0.000 C 
BRANCH   3   4
ATOM      4  C   UNL     1      10.324   5.811  21.539  1.00  0.00     0.000 C 
BRANCH   4   5
ATOM      5  C   UNL     1       9.759   7.227  21.728  1.00  0.00     0.000 C 
BRANCH   5   6
ATOM      6  C   UNL     1      10.778   8.323  21.380  1.00  0.00     0.006 C 
BRANCH   6   7
ATOM      7  C   UNL     1      12.191   7.742  21.273  1.00  0.00     0.053 C 
BRANCH   7   8
ATOM      8  C   UNL     1      13.206   8.841  21.216  1.00  0.00     0.041 C 
ATOM      9  O   UNL     1      13.326   9.642  22.180  1.00  0.00    -0.550 OA
ATOM     10  O   UNL     1      14.052   8.949  20.120  1.00  0.00    -0.550 OA
ENDBRANCH   7   8
ENDBRANCH   6   7
ENDBRANCH   5   6
ENDBRANCH   4   5
ENDBRANCH   3   4
ENDBRANCH   2   3
ENDBRANCH   1   2
BRANCH   1  11
ATOM     11  C   UNL     1       9.275   6.583  18.097  1.00  0.00     0.000 C 
BRANCH  11  12
ATOM     12  C   UNL     1      10.527   6.018  17.401  1.00  0.00     0.000 C 
BRANCH  12  13
ATOM     13  C   UNL     1      11.763   6.026  18.314  1.00  0.00     0.000 C 
BRANCH  13  14
ATOM     14  C   UNL     1      12.236   4.607  18.678  1.00  0.00     0.000 C 
BRANCH  14  15
ATOM     15  C   UNL     1      11.571   3.525  17.812  1.00  0.00     0.000 C 
BRANCH  15  16
ATOM     16  C   UNL     1      10.528   2.704  18.591  1.00  0.00     0.006 C 
BRANCH  16  17
ATOM     17  C   UNL     1       9.476   2.080  17.666  1.00  0.00     0.053 C 
BRANCH  17  18
ATOM     18  C   UNL     1       8.413   1.361  18.438  1.00  0.00     0.041 C 
ATOM     19  O   UNL     1       8.604   0.179  18.829  1.00  0.00    -0.550 OA
ATOM     20  O   UNL     1       7.225   2.009  18.757  1.00  0.00    -0.550 OA
ENDBRANCH  17  18
ENDBRANCH  16  17
ENDBRANCH  15  16
ENDBRANCH  14  15
ENDBRANCH  13  14
ENDBRANCH  12  13
ENDBRANCH  11  12
ENDBRANCH   1  11
TORSDOF 15
ENDMDL
MODEL 8
REMARK VINA RESULT:    -4.915      2.083      6.272
REMARK INTER + INTRA:         -11.538
REMARK INTER:                  -9.278
REMARK INTRA:                  -2.260
REMARK UNBOUND:                -2.313
REMARK SMILES O=C([O-])CCCCCCCCCCCCCCC(=O)[O-]
REMARK SMILES IDX 10 1 9 2 8 3 7 4 6 5 5 6 4 7 2 8 1 9 3 10 11 11 12 12 13 13
REMARK SMILES IDX 14 14 15 15 16 16 17 17 18 18 19 19 20 20
REMARK H PARENT
REMARK Flexibility Score: inf
ROOT
ATOM      1  C   UNL     1      19.614  -7.191  32.932  1.00  0.00     0.000 C 
ENDROOT
BRANCH   1   2
ATOM      2  C   UNL     1      19.280  -5.701  32.760  1.00  0.00     0.000 C 
BRANCH   2   3
ATOM      3  C   UNL     1      20.559  -4.858  32.676  1.00  0.00     0.000 C 
BRANCH   3   4
ATOM      4  C   UNL     1      20.475  -3.638  33.606  1.00  0.00     0.000 C 
BRANCH   4   5
ATOM      5  C   UNL     1      19.065  -3.029  33.658  1.00  0.00     0.000 C 
BRANCH   5   6
ATOM      6  C   UNL     1      18.751  -2.378  35.014  1.00  0.00     0.006 C 
BRANCH   6   7
ATOM      7  C   UNL     1      20.017  -1.791  35.646  1.00  0.00     0.053 C 
BRANCH   7   8
ATOM      8  C   UNL     1      19.802  -0.357  36.014  1.00  0.00     0.041 C 
ATOM      9  O   UNL     1      20.451   0.157  36.963  1.00  0.00    -0.550 OA
ATOM     10  O   UNL     1      18.922   0.425  35.277  1.00  0.00    -0.550 OA
ENDBRANCH   7   8
ENDBRANCH   6   7
ENDBRANCH   5   6
ENDBRANCH   4   5
ENDBRANCH   3   4
ENDBRANCH   2   3
ENDBRANCH   1   2
BRANCH   1  11
ATOM     11  C   UNL     1      18.361  -8.059  33.127  1.00  0.00     0.000 C 
BRANCH  11  12
ATOM     12  C   UNL     1      17.074  -7.355  32.660  1.00  0.00     0.000 C 
BRANCH  12  13
ATOM     13  C   UNL     1      15.967  -7.382  33.725  1.00  0.00     0.000 C 
BRANCH  13  14
ATOM     14  C   UNL     1      15.378  -5.987  33.998  1.00  0.00     0.000 C 
BRANCH  14  15
ATOM     15  C   UNL     1      16.349  -5.077  34.767  1.00  0.00     0.000 C 
BRANCH  15  16
ATOM     16  C   UNL     1      16.729  -5.649  36.144  1.00  0.00     0.006 C 
BRANCH  16  17
ATOM     17  C   UNL     1      18.236  -5.555  36.414  1.00  0.00     0.053 C 
BRANCH  17  18
ATOM     18  C   UNL     1      18.861  -6.909  36.556  1.00  0.00     0.041 C 
ATOM     19  O   UNL     1      18.137  -7.925  36.725  1.00  0.00    -0.550 OA
ATOM     20  O   UNL     1      20.240  -7.052  36.466  1.00  0.00    -0.550 OA
ENDBRANCH  17  18
ENDBRANCH  16  17
ENDBRANCH  15  16
ENDBRANCH  14  15
ENDBRANCH  13  14
ENDBRANCH  12  13
ENDBRANCH  11  12
ENDBRANCH   1  11
TORSDOF 15
ENDMDL
MODEL 9
REMARK VINA RESULT:    -4.795      1.241      6.705
REMARK INTER + INTRA:         -11.313
REMARK INTER:                  -9.905
REMARK INTRA:                  -1.408
REMARK UNBOUND:                -2.313
REMARK SMILES O=C([O-])CCCCCCCCCCCCCCC(=O)[O-]
REMARK SMILES IDX 10 1 9 2 8 3 7 4 6 5 5 6 4 7 2 8 1 9 3 10 11 11 12 12 13 13
REMARK SMILES IDX 14 14 15 15 16 16 17 17 18 18 19 19 20 20
REMARK H PARENT
REMARK Flexibility Score: inf
ROOT
ATOM      1  C   UNL     1      18.543  -7.413  35.667  1.00  0.00     0.000 C 
ENDROOT
BRANCH   1   2
ATOM      2  C   UNL     1      18.325  -6.414  36.814  1.00  0.00     0.000 C 
BRANCH   2   3
ATOM      3  C   UNL     1      17.406  -5.267  36.376  1.00  0.00     0.000 C 
BRANCH   3   4
ATOM      4  C   UNL     1      18.202  -3.966  36.188  1.00  0.00     0.000 C 
BRANCH   4   5
ATOM      5  C   UNL     1      17.729  -3.152  34.974  1.00  0.00     0.000 C 
BRANCH   5   6
ATOM      6  C   UNL     1      18.849  -2.299  34.359  1.00  0.00     0.006 C 
BRANCH   6   7
ATOM      7  C   UNL     1      19.886  -1.913  35.417  1.00  0.00     0.053 C 
BRANCH   7   8
ATOM      8  C   UNL     1      19.677  -0.500  35.864  1.00  0.00     0.041 C 
ATOM      9  O   UNL     1      18.845   0.236  35.270  1.00  0.00    -0.550 OA
ATOM     10  O   UNL     1      20.364  -0.012  36.968  1.00  0.00    -0.550 OA
ENDBRANCH   7   8
ENDBRANCH   6   7
ENDBRANCH   5   6
ENDBRANCH   4   5
ENDBRANCH   3   4
ENDBRANCH   2   3
ENDBRANCH   1   2
BRANCH   1  11
ATOM     11  C   UNL     1      19.618  -6.946  34.673  1.00  0.00     0.000 C 
BRANCH  11  12
ATOM     12  C   UNL     1      19.152  -7.042  33.209  1.00  0.00     0.000 C 
BRANCH  12  13
ATOM     13  C   UNL     1      18.759  -5.676  32.625  1.00  0.00     0.000 C 
BRANCH  13  14
ATOM     14  C   UNL     1      17.253  -5.388  32.762  1.00  0.00     0.000 C 
BRANCH  14  15
ATOM     15  C   UNL     1      16.383  -6.516  32.184  1.00  0.00     0.000 C 
BRANCH  15  16
ATOM     16  C   UNL     1      15.796  -7.427  33.277  1.00  0.00     0.006 C 
BRANCH  16  17
ATOM     17  C   UNL     1      15.418  -8.811  32.734  1.00  0.00     0.053 C 
BRANCH  17  18
ATOM     18  C   UNL     1      16.145  -9.127  31.462  1.00  0.00     0.041 C 
ATOM     19  O   UNL     1      15.536  -9.091  30.360  1.00  0.00    -0.550 OA
ATOM     20  O   UNL     1      17.501  -9.426  31.491  1.00  0.00    -0.550 OA
ENDBRANCH  17  18
ENDBRANCH  16  17
ENDBRANCH  15  16
ENDBRANCH  14  15
ENDBRANCH  13  14
ENDBRANCH  12  13
ENDBRANCH  11  12
ENDBRANCH   1  11
TORSDOF 15
ENDMDL
