MODEL 1
REMARK VINA RESULT:    -3.386      0.000      0.000
REMARK INTER + INTRA:          -5.404
REMARK INTER:                  -5.167
REMARK INTRA:                  -0.237
REMARK UNBOUND:                -0.237
REMARK SMILES CC1=CCC[C@H](C)C(=O)C[C@@H](C(C)C)C(=O)C1
REMARK SMILES IDX 8 1 9 2 6 3 7 4 5 5 4 6 3 7 2 8 1 9 10 11 11 12 15 13 16 14
REMARK SMILES IDX 17 15 12 17 13 18 14 19
REMARK H PARENT
REMARK Flexibility Score: 70.00
ROOT
ATOM      1  C   UNL     1      21.097 -11.933  45.716  1.00  0.00     0.136 C 
ATOM      2  O   UNL     1      21.115 -10.717  45.855  1.00  0.00    -0.299 OA
ENDROOT
BRANCH   1   3
ATOM      3  C   UNL     1      19.916 -12.553  44.972  1.00  0.00     0.053 C 
ATOM      4  C   UNL     1      19.082 -11.474  44.253  1.00  0.00     0.016 C 
BRANCH   3   5
ATOM      5  C   UNL     1      20.251 -13.723  44.015  1.00  0.00     0.015 C 
BRANCH   5   6
ATOM      6  C   UNL     1      20.019 -15.135  44.603  1.00  0.00     0.028 C 
BRANCH   6   7
ATOM      7  C   UNL     1      21.046 -16.109  44.083  1.00  0.00    -0.028 C 
ATOM      8  C   UNL     1      22.252 -16.356  44.643  1.00  0.00    -0.070 CG0
ATOM      9  C   UNL     1      23.142 -17.364  43.957  1.00  0.00     0.039 C 
ATOM     10  G   UNL     1      22.795 -15.582  45.834  1.00  0.00     0.000 G0
ENDBRANCH   6   7
ENDBRANCH   5   6
ENDBRANCH   3   5
ENDBRANCH   1   3
BRANCH   1  11
ATOM     11  C   UNL     1      22.191 -12.728  46.408  1.00  0.00     0.087 C 
BRANCH  11  12
ATOM     12  C   UNL     1      23.412 -12.971  45.482  1.00  0.00     0.066 C 
BRANCH  12  13
ATOM     13  C   UNL     1      23.782 -14.452  45.473  1.00  0.00     0.140 C 
ATOM     14  O   UNL     1      24.933 -14.749  45.188  1.00  0.00    -0.299 OA
BRANCH  13  15
ATOM     15  C   UNL     1      22.832 -15.582  45.829  1.00  0.00     0.106 CG0
ATOM     16  G   UNL     1      22.261 -16.353  44.648  1.00  0.00     0.000 G0
ENDBRANCH  13  15
ENDBRANCH  12  13
BRANCH  12  17
ATOM     17  C   UNL     1      24.635 -12.042  45.775  1.00  0.00    -0.006 C 
ATOM     18  C   UNL     1      24.409 -11.125  46.990  1.00  0.00     0.008 C 
ATOM     19  C   UNL     1      24.960 -11.164  44.552  1.00  0.00     0.008 C 
ENDBRANCH  12  17
ENDBRANCH  11  12
ENDBRANCH   1  11
TORSDOF 1
ENDMDL
MODEL 2
REMARK VINA RESULT:    -3.243      2.246      4.876
REMARK INTER + INTRA:          -5.187
REMARK INTER:                  -4.974
REMARK INTRA:                  -0.213
REMARK UNBOUND:                -0.237
REMARK SMILES CC1=CCC[C@H](C)C(=O)C[C@@H](C(C)C)C(=O)C1
REMARK SMILES IDX 8 1 9 2 6 3 7 4 5 5 4 6 3 7 2 8 1 9 10 11 11 12 15 13 16 14
REMARK SMILES IDX 17 15 12 17 13 18 14 19
REMARK H PARENT
REMARK Flexibility Score: 70.00
ROOT
ATOM      1  C   UNL     1      24.005 -13.656  47.086  1.00  0.00     0.136 C 
ATOM      2  O   UNL     1      25.030 -14.292  47.292  1.00  0.00    -0.299 OA
ENDROOT
BRANCH   1   3
ATOM      3  C   UNL     1      24.078 -12.132  47.174  1.00  0.00     0.053 C 
ATOM      4  C   UNL     1      25.124 -11.684  48.213  1.00  0.00     0.016 C 
BRANCH   3   5
ATOM      5  C   UNL     1      24.269 -11.381  45.834  1.00  0.00     0.015 C 
BRANCH   5   6
ATOM      6  C   UNL     1      23.137 -10.391  45.472  1.00  0.00     0.028 C 
BRANCH   6   7
ATOM      7  C   UNL     1      22.482 -10.777  44.169  1.00  0.00    -0.028 C 
ATOM      8  C   UNL     1      21.375 -11.542  44.040  1.00  0.00    -0.070 CG0
ATOM      9  C   UNL     1      20.885 -11.824  42.641  1.00  0.00     0.039 C 
ATOM     10  G   UNL     1      20.691 -12.229  45.213  1.00  0.00     0.000 G0
ENDBRANCH   6   7
ENDBRANCH   5   6
ENDBRANCH   3   5
ENDBRANCH   1   3
BRANCH   1  11
ATOM     11  C   UNL     1      22.723 -14.446  46.886  1.00  0.00     0.087 C 
BRANCH  11  12
ATOM     12  C   UNL     1      22.253 -14.431  45.407  1.00  0.00     0.066 C 
BRANCH  12  13
ATOM     13  C   UNL     1      20.900 -13.735  45.290  1.00  0.00     0.140 C 
ATOM     14  O   UNL     1      19.898 -14.435  45.280  1.00  0.00    -0.299 OA
BRANCH  13  15
ATOM     15  C   UNL     1      20.706 -12.229  45.221  1.00  0.00     0.106 CG0
ATOM     16  G   UNL     1      21.377 -11.536  44.045  1.00  0.00     0.000 G0
ENDBRANCH  13  15
ENDBRANCH  12  13
BRANCH  12  17
ATOM     17  C   UNL     1      22.277 -15.832  44.712  1.00  0.00    -0.006 C 
ATOM     18  C   UNL     1      23.471 -16.695  45.152  1.00  0.00     0.008 C 
ATOM     19  C   UNL     1      22.319 -15.680  43.180  1.00  0.00     0.008 C 
ENDBRANCH  12  17
ENDBRANCH  11  12
ENDBRANCH   1  11
TORSDOF 1
ENDMDL
MODEL 3
REMARK VINA RESULT:    -3.089      2.907      5.431
REMARK INTER + INTRA:          -4.952
REMARK INTER:                  -4.629
REMARK INTRA:                  -0.323
REMARK UNBOUND:                -0.237
REMARK SMILES CC1=CCC[C@H](C)C(=O)C[C@@H](C(C)C)C(=O)C1
REMARK SMILES IDX 8 1 9 2 6 3 7 4 5 5 4 6 3 7 2 8 1 9 10 11 11 12 15 13 16 14
REMARK SMILES IDX 17 15 12 17 13 18 14 19
REMARK H PARENT
REMARK Flexibility Score: 70.00
ROOT
ATOM      1  C   UNL     1      22.979 -12.072  46.580  1.00  0.00     0.136 C 
ATOM      2  O   UNL     1      23.041 -12.974  47.404  1.00  0.00    -0.299 OA
ENDROOT
BRANCH   1   3
ATOM      3  C   UNL     1      24.095 -11.029  46.573  1.00  0.00     0.053 C 
ATOM      4  C   UNL     1      25.069 -11.248  47.748  1.00  0.00     0.016 C 
BRANCH   3   5
ATOM      5  C   UNL     1      24.864 -10.863  45.240  1.00  0.00     0.015 C 
BRANCH   5   6
ATOM      6  C   UNL     1      24.531  -9.575  44.450  1.00  0.00     0.028 C 
BRANCH   6   7
ATOM      7  C   UNL     1      24.388  -9.870  42.977  1.00  0.00    -0.028 C 
ATOM      8  C   UNL     1      23.241 -10.222  42.352  1.00  0.00    -0.070 CG0
ATOM      9  C   UNL     1      23.313 -10.487  40.868  1.00  0.00     0.039 C 
ATOM     10  G   UNL     1      21.936 -10.488  43.087  1.00  0.00     0.000 G0
ENDBRANCH   6   7
ENDBRANCH   5   6
ENDBRANCH   3   5
ENDBRANCH   1   3
BRANCH   1  11
ATOM     11  C   UNL     1      21.727 -11.999  45.721  1.00  0.00     0.087 C 
BRANCH  11  12
ATOM     12  C   UNL     1      21.858 -12.844  44.427  1.00  0.00     0.066 C 
BRANCH  12  13
ATOM     13  C   UNL     1      21.566 -11.982  43.201  1.00  0.00     0.140 C 
ATOM     14  O   UNL     1      20.979 -12.504  42.265  1.00  0.00    -0.299 OA
BRANCH  13  15
ATOM     15  C   UNL     1      21.921 -10.510  43.076  1.00  0.00     0.106 CG0
ATOM     16  G   UNL     1      23.232 -10.211  42.364  1.00  0.00     0.000 G0
ENDBRANCH  13  15
ENDBRANCH  12  13
BRANCH  12  17
ATOM     17  C   UNL     1      21.034 -14.173  44.443  1.00  0.00    -0.006 C 
ATOM     18  C   UNL     1      19.923 -14.173  45.506  1.00  0.00     0.008 C 
ATOM     19  C   UNL     1      21.955 -15.383  44.696  1.00  0.00     0.008 C 
ENDBRANCH  12  17
ENDBRANCH  11  12
ENDBRANCH   1  11
TORSDOF 1
ENDMDL
MODEL 4
REMARK VINA RESULT:    -3.042      2.169      3.899
REMARK INTER + INTRA:          -4.880
REMARK INTER:                  -5.237
REMARK INTRA:                   0.358
REMARK UNBOUND:                -0.237
REMARK SMILES CC1=CCC[C@H](C)C(=O)C[C@@H](C(C)C)C(=O)C1
REMARK SMILES IDX 8 1 9 2 6 3 7 4 5 5 4 6 3 7 2 8 1 9 10 11 11 12 15 13 16 14
REMARK SMILES IDX 17 15 12 17 13 18 14 19
REMARK H PARENT
REMARK Flexibility Score: 70.00
ROOT
ATOM      1  C   UNL     1      21.077 -13.875  45.381  1.00  0.00     0.136 C 
ATOM      2  O   UNL     1      20.162 -14.079  46.167  1.00  0.00    -0.299 OA
ENDROOT
BRANCH   1   3
ATOM      3  C   UNL     1      20.986 -12.646  44.477  1.00  0.00     0.053 C 
ATOM      4  C   UNL     1      19.790 -12.754  43.511  1.00  0.00     0.016 C 
BRANCH   3   5
ATOM      5  C   UNL     1      21.001 -11.273  45.191  1.00  0.00     0.015 C 
BRANCH   5   6
ATOM      6  C   UNL     1      22.342 -10.506  45.104  1.00  0.00     0.028 C 
BRANCH   6   7
ATOM      7  C   UNL     1      23.312 -11.221  44.196  1.00  0.00    -0.028 C 
ATOM      8  C   UNL     1      24.237 -12.126  44.588  1.00  0.00    -0.070 CG0
ATOM      9  C   UNL     1      25.123 -12.720  43.519  1.00  0.00     0.039 C 
ATOM     10  G   UNL     1      24.510 -12.465  46.045  1.00  0.00     0.000 G0
ENDBRANCH   6   7
ENDBRANCH   5   6
ENDBRANCH   3   5
ENDBRANCH   1   3
BRANCH   1  11
ATOM     11  C   UNL     1      22.162 -14.934  45.287  1.00  0.00     0.087 C 
BRANCH  11  12
ATOM     12  C   UNL     1      23.208 -14.802  46.425  1.00  0.00     0.066 C 
BRANCH  12  13
ATOM     13  C   UNL     1      23.467 -13.329  46.736  1.00  0.00     0.140 C 
ATOM     14  O   UNL     1      22.809 -12.811  47.625  1.00  0.00    -0.299 OA
BRANCH  13  15
ATOM     15  C   UNL     1      24.512 -12.471  46.043  1.00  0.00     0.106 CG0
ATOM     16  G   UNL     1      24.225 -12.139  44.587  1.00  0.00     0.000 G0
ENDBRANCH  13  15
ENDBRANCH  12  13
BRANCH  12  17
ATOM     17  C   UNL     1      24.524 -15.612  46.185  1.00  0.00    -0.006 C 
ATOM     18  C   UNL     1      24.534 -16.346  44.834  1.00  0.00     0.008 C 
ATOM     19  C   UNL     1      24.741 -16.645  47.307  1.00  0.00     0.008 C 
ENDBRANCH  12  17
ENDBRANCH  11  12
ENDBRANCH   1  11
TORSDOF 1
ENDMDL
MODEL 5
REMARK VINA RESULT:    -3.011      2.574      5.038
REMARK INTER + INTRA:          -4.832
REMARK INTER:                  -4.866
REMARK INTRA:                   0.034
REMARK UNBOUND:                -0.237
REMARK SMILES CC1=CCC[C@H](C)C(=O)C[C@@H](C(C)C)C(=O)C1
REMARK SMILES IDX 8 1 9 2 6 3 7 4 5 5 4 6 3 7 2 8 1 9 10 11 11 12 15 13 16 14
REMARK SMILES IDX 17 15 12 17 13 18 14 19
REMARK H PARENT
REMARK Flexibility Score: 70.00
ROOT
ATOM      1  C   UNL     1      20.595 -13.855  45.847  1.00  0.00     0.136 C 
ATOM      2  O   UNL     1      19.575 -14.497  46.058  1.00  0.00    -0.299 OA
ENDROOT
BRANCH   1   3
ATOM      3  C   UNL     1      21.755 -14.007  46.831  1.00  0.00     0.053 C 
ATOM      4  C   UNL     1      22.765 -15.063  46.341  1.00  0.00     0.016 C 
BRANCH   3   5
ATOM      5  C   UNL     1      22.474 -12.700  47.242  1.00  0.00     0.015 C 
BRANCH   5   6
ATOM      6  C   UNL     1      23.996 -12.677  46.967  1.00  0.00     0.028 C 
BRANCH   6   7
ATOM      7  C   UNL     1      24.465 -11.278  46.653  1.00  0.00    -0.028 C 
ATOM      8  C   UNL     1      24.468 -10.704  45.429  1.00  0.00    -0.070 CG0
ATOM      9  C   UNL     1      24.992  -9.292  45.326  1.00  0.00     0.039 C 
ATOM     10  G   UNL     1      24.101 -11.450  44.155  1.00  0.00     0.000 G0
ENDBRANCH   6   7
ENDBRANCH   5   6
ENDBRANCH   3   5
ENDBRANCH   1   3
BRANCH   1  11
ATOM     11  C   UNL     1      20.569 -12.866  44.694  1.00  0.00     0.087 C 
BRANCH  11  12
ATOM     12  C   UNL     1      21.866 -12.925  43.845  1.00  0.00     0.066 C 
BRANCH  12  13
ATOM     13  C   UNL     1      22.599 -11.586  43.906  1.00  0.00     0.140 C 
ATOM     14  O   UNL     1      21.935 -10.568  43.783  1.00  0.00    -0.299 OA
BRANCH  13  15
ATOM     15  C   UNL     1      24.091 -11.429  44.145  1.00  0.00     0.106 CG0
ATOM     16  G   UNL     1      24.475 -10.702  45.425  1.00  0.00     0.000 G0
ENDBRANCH  13  15
ENDBRANCH  12  13
BRANCH  12  17
ATOM     17  C   UNL     1      21.653 -13.433  42.382  1.00  0.00    -0.006 C 
ATOM     18  C   UNL     1      20.168 -13.617  42.025  1.00  0.00     0.008 C 
ATOM     19  C   UNL     1      22.381 -14.772  42.158  1.00  0.00     0.008 C 
ENDBRANCH  12  17
ENDBRANCH  11  12
ENDBRANCH   1  11
TORSDOF 1
ENDMDL
MODEL 6
REMARK VINA RESULT:    -2.996      1.891      3.675
REMARK INTER + INTRA:          -4.810
REMARK INTER:                  -4.466
REMARK INTRA:                  -0.344
REMARK UNBOUND:                -0.237
REMARK SMILES CC1=CCC[C@H](C)C(=O)C[C@@H](C(C)C)C(=O)C1
REMARK SMILES IDX 8 1 9 2 6 3 7 4 5 5 4 6 3 7 2 8 1 9 10 11 11 12 15 13 16 14
REMARK SMILES IDX 17 15 12 17 13 18 14 19
REMARK H PARENT
REMARK Flexibility Score: 70.00
ROOT
ATOM      1  C   UNL     1      23.070 -11.101  45.119  1.00  0.00     0.136 C 
ATOM      2  O   UNL     1      22.674  -9.967  45.353  1.00  0.00    -0.299 OA
ENDROOT
BRANCH   1   3
ATOM      3  C   UNL     1      23.707 -11.888  46.263  1.00  0.00     0.053 C 
ATOM      4  C   UNL     1      24.773 -11.048  46.992  1.00  0.00     0.016 C 
BRANCH   3   5
ATOM      5  C   UNL     1      22.728 -12.537  47.272  1.00  0.00     0.015 C 
BRANCH   5   6
ATOM      6  C   UNL     1      22.126 -13.889  46.821  1.00  0.00     0.028 C 
BRANCH   6   7
ATOM      7  C   UNL     1      23.208 -14.826  46.345  1.00  0.00    -0.028 C 
ATOM      8  C   UNL     1      23.301 -15.357  45.105  1.00  0.00    -0.070 CG0
ATOM      9  C   UNL     1      24.459 -16.287  44.833  1.00  0.00     0.039 C 
ATOM     10  G   UNL     1      22.238 -15.168  44.033  1.00  0.00     0.000 G0
ENDBRANCH   6   7
ENDBRANCH   5   6
ENDBRANCH   3   5
ENDBRANCH   1   3
BRANCH   1  11
ATOM     11  C   UNL     1      23.008 -11.576  43.678  1.00  0.00     0.087 C 
BRANCH  11  12
ATOM     12  C   UNL     1      21.845 -12.576  43.443  1.00  0.00     0.066 C 
BRANCH  12  13
ATOM     13  C   UNL     1      22.398 -13.964  43.127  1.00  0.00     0.140 C 
ATOM     14  O   UNL     1      23.039 -14.100  42.095  1.00  0.00    -0.299 OA
BRANCH  13  15
ATOM     15  C   UNL     1      22.240 -15.181  44.022  1.00  0.00     0.106 CG0
ATOM     16  G   UNL     1      23.300 -15.342  45.101  1.00  0.00     0.000 G0
ENDBRANCH  13  15
ENDBRANCH  12  13
BRANCH  12  17
ATOM     17  C   UNL     1      20.785 -12.094  42.400  1.00  0.00    -0.006 C 
ATOM     18  C   UNL     1      21.261 -10.882  41.582  1.00  0.00     0.008 C 
ATOM     19  C   UNL     1      19.461 -11.726  43.097  1.00  0.00     0.008 C 
ENDBRANCH  12  17
ENDBRANCH  11  12
ENDBRANCH   1  11
TORSDOF 1
ENDMDL
MODEL 7
REMARK VINA RESULT:    -2.993      1.587      2.237
REMARK INTER + INTRA:          -4.805
REMARK INTER:                  -4.884
REMARK INTRA:                   0.079
REMARK UNBOUND:                -0.237
REMARK SMILES CC1=CCC[C@H](C)C(=O)C[C@@H](C(C)C)C(=O)C1
REMARK SMILES IDX 8 1 9 2 6 3 7 4 5 5 4 6 3 7 2 8 1 9 10 11 11 12 15 13 16 14
REMARK SMILES IDX 17 15 12 17 13 18 14 19
REMARK H PARENT
REMARK Flexibility Score: 70.00
ROOT
ATOM      1  C   UNL     1      20.656 -12.701  45.292  1.00  0.00     0.136 C 
ATOM      2  O   UNL     1      19.581 -12.197  44.996  1.00  0.00    -0.299 OA
ENDROOT
BRANCH   1   3
ATOM      3  C   UNL     1      20.719 -14.220  45.444  1.00  0.00     0.053 C 
ATOM      4  C   UNL     1      19.479 -14.757  46.186  1.00  0.00     0.016 C 
BRANCH   3   5
ATOM      5  C   UNL     1      20.980 -15.023  44.147  1.00  0.00     0.015 C 
BRANCH   5   6
ATOM      6  C   UNL     1      22.466 -15.356  43.873  1.00  0.00     0.028 C 
BRANCH   6   7
ATOM      7  C   UNL     1      23.058 -16.149  45.011  1.00  0.00    -0.028 C 
ATOM      8  C   UNL     1      24.000 -15.706  45.874  1.00  0.00    -0.070 CG0
ATOM      9  C   UNL     1      24.470 -16.665  46.940  1.00  0.00     0.039 C 
ATOM     10  G   UNL     1      24.690 -14.357  45.738  1.00  0.00     0.000 G0
ENDBRANCH   6   7
ENDBRANCH   5   6
ENDBRANCH   3   5
ENDBRANCH   1   3
BRANCH   1  11
ATOM     11  C   UNL     1      21.803 -11.757  45.608  1.00  0.00     0.087 C 
BRANCH  11  12
ATOM     12  C   UNL     1      23.153 -12.265  45.036  1.00  0.00     0.066 C 
BRANCH  12  13
ATOM     13  C   UNL     1      23.875 -13.126  46.070  1.00  0.00     0.140 C 
ATOM     14  O   UNL     1      23.751 -12.825  47.247  1.00  0.00    -0.299 OA
BRANCH  13  15
ATOM     15  C   UNL     1      24.707 -14.354  45.741  1.00  0.00     0.106 CG0
ATOM     16  G   UNL     1      23.986 -15.687  45.871  1.00  0.00     0.000 G0
ENDBRANCH  13  15
ENDBRANCH  12  13
BRANCH  12  17
ATOM     17  C   UNL     1      24.062 -11.141  44.441  1.00  0.00    -0.006 C 
ATOM     18  C   UNL     1      24.161  -9.908  45.355  1.00  0.00     0.008 C 
ATOM     19  C   UNL     1      23.541 -10.689  43.063  1.00  0.00     0.008 C 
ENDBRANCH  12  17
ENDBRANCH  11  12
ENDBRANCH   1  11
TORSDOF 1
ENDMDL
MODEL 8
REMARK VINA RESULT:    -2.956      2.119      2.713
REMARK INTER + INTRA:          -4.749
REMARK INTER:                  -4.699
REMARK INTRA:                  -0.050
REMARK UNBOUND:                -0.237
REMARK SMILES CC1=CCC[C@H](C)C(=O)C[C@@H](C(C)C)C(=O)C1
REMARK SMILES IDX 8 1 9 2 6 3 7 4 5 5 4 6 3 7 2 8 1 9 10 11 11 12 15 13 16 14
REMARK SMILES IDX 17 15 12 17 13 18 14 19
REMARK H PARENT
REMARK Flexibility Score: 70.00
ROOT
ATOM      1  C   UNL     1      20.457 -11.452  43.854  1.00  0.00     0.136 C 
ATOM      2  O   UNL     1      21.294 -10.988  43.092  1.00  0.00    -0.299 OA
ENDROOT
BRANCH   1   3
ATOM      3  C   UNL     1      19.040 -11.660  43.323  1.00  0.00     0.053 C 
ATOM      4  C   UNL     1      18.289 -10.319  43.202  1.00  0.00     0.016 C 
BRANCH   3   5
ATOM      5  C   UNL     1      18.915 -12.484  42.019  1.00  0.00     0.015 C 
BRANCH   5   6
ATOM      6  C   UNL     1      19.068 -14.014  42.196  1.00  0.00     0.028 C 
BRANCH   6   7
ATOM      7  C   UNL     1      20.521 -14.417  42.154  1.00  0.00    -0.028 C 
ATOM      8  C   UNL     1      21.195 -15.039  43.148  1.00  0.00    -0.070 CG0
ATOM      9  C   UNL     1      22.654 -15.346  42.911  1.00  0.00     0.039 C 
ATOM     10  G   UNL     1      20.595 -15.317  44.518  1.00  0.00     0.000 G0
ENDBRANCH   6   7
ENDBRANCH   5   6
ENDBRANCH   3   5
ENDBRANCH   1   3
BRANCH   1  11
ATOM     11  C   UNL     1      20.873 -11.662  45.300  1.00  0.00     0.087 C 
BRANCH  11  12
ATOM     12  C   UNL     1      21.596 -13.019  45.509  1.00  0.00     0.066 C 
BRANCH  12  13
ATOM     13  C   UNL     1      20.584 -14.162  45.516  1.00  0.00     0.140 C 
ATOM     14  O   UNL     1      19.690 -14.125  46.348  1.00  0.00    -0.299 OA
BRANCH  13  15
ATOM     15  C   UNL     1      20.586 -15.323  44.537  1.00  0.00     0.106 CG0
ATOM     16  G   UNL     1      21.187 -15.027  43.172  1.00  0.00     0.000 G0
ENDBRANCH  13  15
ENDBRANCH  12  13
BRANCH  12  17
ATOM     17  C   UNL     1      22.556 -13.051  46.743  1.00  0.00    -0.006 C 
ATOM     18  C   UNL     1      23.253 -11.703  46.992  1.00  0.00     0.008 C 
ATOM     19  C   UNL     1      23.635 -14.136  46.567  1.00  0.00     0.008 C 
ENDBRANCH  12  17
ENDBRANCH  11  12
ENDBRANCH   1  11
TORSDOF 1
ENDMDL
MODEL 9
REMARK VINA RESULT:    -2.924     15.104     17.302
REMARK INTER + INTRA:          -4.699
REMARK INTER:                  -4.640
REMARK INTRA:                  -0.059
REMARK UNBOUND:                -0.237
REMARK SMILES CC1=CCC[C@H](C)C(=O)C[C@@H](C(C)C)C(=O)C1
REMARK SMILES IDX 8 1 9 2 6 3 7 4 5 5 4 6 3 7 2 8 1 9 10 11 11 12 15 13 16 14
REMARK SMILES IDX 17 15 12 17 13 18 14 19
REMARK H PARENT
REMARK Flexibility Score: 70.00
ROOT
ATOM      1  C   UNL     1      12.159  -2.316  41.728  1.00  0.00     0.136 C 
ATOM      2  O   UNL     1      13.032  -1.850  41.008  1.00  0.00    -0.299 OA
ENDROOT
BRANCH   1   3
ATOM      3  C   UNL     1      11.602  -1.433  42.843  1.00  0.00     0.053 C 
ATOM      4  C   UNL     1      12.733  -0.697  43.588  1.00  0.00     0.016 C 
BRANCH   3   5
ATOM      5  C   UNL     1      10.476  -0.452  42.437  1.00  0.00     0.015 C 
BRANCH   5   6
ATOM      6  C   UNL     1       9.049  -1.051  42.456  1.00  0.00     0.028 C 
BRANCH   6   7
ATOM      7  C   UNL     1       8.526  -1.238  41.054  1.00  0.00    -0.028 C 
ATOM      8  C   UNL     1       8.122  -2.410  40.514  1.00  0.00    -0.070 CG0
ATOM      9  C   UNL     1       7.641  -2.385  39.083  1.00  0.00     0.039 C 
ATOM     10  G   UNL     1       8.254  -3.748  41.225  1.00  0.00     0.000 G0
ENDBRANCH   6   7
ENDBRANCH   5   6
ENDBRANCH   3   5
ENDBRANCH   1   3
BRANCH   1  11
ATOM     11  C   UNL     1      11.798  -3.778  41.526  1.00  0.00     0.087 C 
BRANCH  11  12
ATOM     12  C   UNL     1      10.793  -3.976  40.361  1.00  0.00     0.066 C 
BRANCH  12  13
ATOM     13  C   UNL     1       9.485  -4.565  40.885  1.00  0.00     0.140 C 
ATOM     14  O   UNL     1       9.440  -5.772  41.073  1.00  0.00    -0.299 OA
BRANCH  13  15
ATOM     15  C   UNL     1       8.246  -3.754  41.224  1.00  0.00     0.106 CG0
ATOM     16  G   UNL     1       8.128  -2.414  40.515  1.00  0.00     0.000 G0
ENDBRANCH  13  15
ENDBRANCH  12  13
BRANCH  12  17
ATOM     17  C   UNL     1      11.370  -4.767  39.143  1.00  0.00    -0.006 C 
ATOM     18  C   UNL     1      12.904  -4.873  39.174  1.00  0.00     0.008 C 
ATOM     19  C   UNL     1      10.951  -4.109  37.815  1.00  0.00     0.008 C 
ENDBRANCH  12  17
ENDBRANCH  11  12
ENDBRANCH   1  11
TORSDOF 1
ENDMDL
