MODEL 1
REMARK VINA RESULT:    -4.715      0.000      0.000
REMARK INTER + INTRA:          -5.228
REMARK INTER:                  -5.129
REMARK INTRA:                  -0.099
REMARK UNBOUND:                -0.099
REMARK SMILES Cc1ccc(C(C)C)cc1O
REMARK SMILES IDX 1 1 2 2 10 3 9 4 5 5 4 6 3 7 11 8 6 10 7 11 8 12
REMARK H PARENT 11 9
REMARK Flexibility Score: inf
ROOT
ATOM      1  C   UNL     1      26.369  -1.128  35.985  1.00  0.00     0.048 C 
ATOM      2  C   UNL     1      27.288  -2.225  35.524  1.00  0.00    -0.009 A 
ATOM      3  C   UNL     1      26.880  -3.113  34.513  1.00  0.00     0.118 A 
ATOM      4  C   UNL     1      27.743  -4.133  34.089  1.00  0.00     0.050 A 
ATOM      5  C   UNL     1      29.017  -4.281  34.663  1.00  0.00    -0.042 A 
ATOM      6  C   UNL     1      29.416  -3.388  35.673  1.00  0.00     0.004 A 
ATOM      7  C   UNL     1      28.560  -2.370  36.099  1.00  0.00     0.007 A 
ENDROOT
BRANCH   3   8
ATOM      8  O   UNL     1      25.619  -2.979  33.934  1.00  0.00    -0.508 OA
ATOM      9  H   UNL     1      25.143  -2.084  33.896  1.00  0.00     0.293 HD
ENDBRANCH   3   8
BRANCH   5  10
ATOM     10  C   UNL     1      29.938  -5.391  34.191  1.00  0.00     0.013 C 
ATOM     11  C   UNL     1      30.302  -5.216  32.712  1.00  0.00     0.012 C 
ATOM     12  C   UNL     1      29.321  -6.770  34.448  1.00  0.00     0.012 C 
ENDBRANCH   5  10
TORSDOF 2
ENDMDL
MODEL 2
REMARK VINA RESULT:    -4.695      3.467      5.104
REMARK INTER + INTRA:          -5.205
REMARK INTER:                  -5.097
REMARK INTRA:                  -0.108
REMARK UNBOUND:                -0.099
REMARK SMILES Cc1ccc(C(C)C)cc1O
REMARK SMILES IDX 1 1 2 2 10 3 9 4 5 5 4 6 3 7 11 8 6 10 7 11 8 12
REMARK H PARENT 11 9
REMARK Flexibility Score: inf
ROOT
ATOM      1  C   UNL     1      34.395  -2.663  32.404  1.00  0.00     0.048 C 
ATOM      2  C   UNL     1      33.146  -3.267  32.982  1.00  0.00    -0.009 A 
ATOM      3  C   UNL     1      32.619  -4.455  32.445  1.00  0.00     0.118 A 
ATOM      4  C   UNL     1      31.453  -5.012  32.990  1.00  0.00     0.050 A 
ATOM      5  C   UNL     1      30.801  -4.396  34.071  1.00  0.00    -0.042 A 
ATOM      6  C   UNL     1      31.335  -3.208  34.602  1.00  0.00     0.004 A 
ATOM      7  C   UNL     1      32.496  -2.650  34.062  1.00  0.00     0.007 A 
ENDROOT
BRANCH   3   8
ATOM      8  O   UNL     1      33.256  -5.078  31.373  1.00  0.00    -0.508 OA
ATOM      9  H   UNL     1      32.976  -4.904  30.414  1.00  0.00     0.293 HD
ENDBRANCH   3   8
BRANCH   5  10
ATOM     10  C   UNL     1      29.540  -5.013  34.649  1.00  0.00     0.013 C 
ATOM     11  C   UNL     1      29.477  -6.517  34.356  1.00  0.00     0.012 C 
ATOM     12  C   UNL     1      28.287  -4.297  34.132  1.00  0.00     0.012 C 
ENDBRANCH   5  10
TORSDOF 2
ENDMDL
MODEL 3
REMARK VINA RESULT:    -4.508      3.183      4.761
REMARK INTER + INTRA:          -5.003
REMARK INTER:                  -4.882
REMARK INTRA:                  -0.121
REMARK UNBOUND:                -0.099
REMARK SMILES Cc1ccc(C(C)C)cc1O
REMARK SMILES IDX 1 1 2 2 10 3 9 4 5 5 4 6 3 7 11 8 6 10 7 11 8 12
REMARK H PARENT 11 9
REMARK Flexibility Score: inf
ROOT
ATOM      1  C   UNL     1      34.503  -2.658  34.033  1.00  0.00     0.048 C 
ATOM      2  C   UNL     1      33.171  -3.350  33.951  1.00  0.00    -0.009 A 
ATOM      3  C   UNL     1      31.986  -2.637  34.199  1.00  0.00     0.118 A 
ATOM      4  C   UNL     1      30.747  -3.290  34.120  1.00  0.00     0.050 A 
ATOM      5  C   UNL     1      30.674  -4.655  33.795  1.00  0.00    -0.042 A 
ATOM      6  C   UNL     1      31.866  -5.360  33.548  1.00  0.00     0.004 A 
ATOM      7  C   UNL     1      33.102  -4.714  33.626  1.00  0.00     0.007 A 
ENDROOT
BRANCH   3   8
ATOM      8  O   UNL     1      32.041  -1.282  34.522  1.00  0.00    -0.508 OA
ATOM      9  H   UNL     1      32.645  -0.935  35.260  1.00  0.00     0.293 HD
ENDBRANCH   3   8
BRANCH   5  10
ATOM     10  C   UNL     1      29.326  -5.346  33.714  1.00  0.00     0.013 C 
ATOM     11  C   UNL     1      28.197  -4.408  34.157  1.00  0.00     0.012 C 
ATOM     12  C   UNL     1      29.318  -6.643  34.530  1.00  0.00     0.012 C 
ENDBRANCH   5  10
TORSDOF 2
ENDMDL
MODEL 4
REMARK VINA RESULT:    -4.472      1.543      2.258
REMARK INTER + INTRA:          -4.963
REMARK INTER:                  -4.837
REMARK INTRA:                  -0.127
REMARK UNBOUND:                -0.099
REMARK SMILES Cc1ccc(C(C)C)cc1O
REMARK SMILES IDX 1 1 2 2 10 3 9 4 5 5 4 6 3 7 11 8 6 10 7 11 8 12
REMARK H PARENT 11 9
REMARK Flexibility Score: inf
ROOT
ATOM      1  C   UNL     1      25.352  -1.412  35.007  1.00  0.00     0.048 C 
ATOM      2  C   UNL     1      26.595  -2.256  35.004  1.00  0.00    -0.009 A 
ATOM      3  C   UNL     1      27.640  -1.982  35.904  1.00  0.00     0.118 A 
ATOM      4  C   UNL     1      28.797  -2.775  35.894  1.00  0.00     0.050 A 
ATOM      5  C   UNL     1      28.928  -3.844  34.993  1.00  0.00    -0.042 A 
ATOM      6  C   UNL     1      27.877  -4.110  34.096  1.00  0.00     0.004 A 
ATOM      7  C   UNL     1      26.723  -3.324  34.101  1.00  0.00     0.007 A 
ENDROOT
BRANCH   3   8
ATOM      8  O   UNL     1      27.525  -0.925  36.805  1.00  0.00    -0.508 OA
ATOM      9  H   UNL     1      27.002  -1.017  37.669  1.00  0.00     0.293 HD
ENDBRANCH   3   8
BRANCH   5  10
ATOM     10  C   UNL     1      30.187  -4.691  34.996  1.00  0.00     0.013 C 
ATOM     11  C   UNL     1      31.439  -3.819  35.143  1.00  0.00     0.012 C 
ATOM     12  C   UNL     1      30.268  -5.567  33.741  1.00  0.00     0.012 C 
ENDBRANCH   5  10
TORSDOF 2
ENDMDL
MODEL 5
REMARK VINA RESULT:    -4.400      3.288      4.308
REMARK INTER + INTRA:          -4.885
REMARK INTER:                  -4.759
REMARK INTRA:                  -0.126
REMARK UNBOUND:                -0.099
REMARK SMILES Cc1ccc(C(C)C)cc1O
REMARK SMILES IDX 1 1 2 2 10 3 9 4 5 5 4 6 3 7 11 8 6 10 7 11 8 12
REMARK H PARENT 11 9
REMARK Flexibility Score: inf
ROOT
ATOM      1  C   UNL     1      28.318  -4.312  34.235  1.00  0.00     0.048 C 
ATOM      2  C   UNL     1      29.819  -4.262  34.293  1.00  0.00    -0.009 A 
ATOM      3  C   UNL     1      30.588  -4.848  33.272  1.00  0.00     0.118 A 
ATOM      4  C   UNL     1      31.988  -4.796  33.334  1.00  0.00     0.050 A 
ATOM      5  C   UNL     1      32.637  -4.165  34.407  1.00  0.00    -0.042 A 
ATOM      6  C   UNL     1      31.860  -3.581  35.425  1.00  0.00     0.004 A 
ATOM      7  C   UNL     1      30.465  -3.630  35.368  1.00  0.00     0.007 A 
ENDROOT
BRANCH   3   8
ATOM      8  O   UNL     1      29.958  -5.478  32.199  1.00  0.00    -0.508 OA
ATOM      9  H   UNL     1      30.184  -5.244  31.239  1.00  0.00     0.293 HD
ENDBRANCH   3   8
BRANCH   5  10
ATOM     10  C   UNL     1      34.153  -4.119  34.458  1.00  0.00     0.013 C 
ATOM     11  C   UNL     1      34.747  -5.530  34.531  1.00  0.00     0.012 C 
ATOM     12  C   UNL     1      34.642  -3.253  35.625  1.00  0.00     0.012 C 
ENDBRANCH   5  10
TORSDOF 2
ENDMDL
MODEL 6
REMARK VINA RESULT:    -4.373      2.741      4.004
REMARK INTER + INTRA:          -4.856
REMARK INTER:                  -4.742
REMARK INTRA:                  -0.114
REMARK UNBOUND:                -0.099
REMARK SMILES Cc1ccc(C(C)C)cc1O
REMARK SMILES IDX 1 1 2 2 10 3 9 4 5 5 4 6 3 7 11 8 6 10 7 11 8 12
REMARK H PARENT 11 9
REMARK Flexibility Score: inf
ROOT
ATOM      1  C   UNL     1      27.767  -4.183  34.151  1.00  0.00     0.048 C 
ATOM      2  C   UNL     1      29.265  -4.298  34.182  1.00  0.00    -0.009 A 
ATOM      3  C   UNL     1      30.032  -3.364  34.899  1.00  0.00     0.118 A 
ATOM      4  C   UNL     1      31.430  -3.479  34.922  1.00  0.00     0.050 A 
ATOM      5  C   UNL     1      32.077  -4.520  34.236  1.00  0.00    -0.042 A 
ATOM      6  C   UNL     1      31.300  -5.450  33.521  1.00  0.00     0.004 A 
ATOM      7  C   UNL     1      29.908  -5.339  33.494  1.00  0.00     0.007 A 
ENDROOT
BRANCH   3   8
ATOM      8  O   UNL     1      29.405  -2.326  35.586  1.00  0.00    -0.508 OA
ATOM      9  H   UNL     1      29.846  -1.869  36.376  1.00  0.00     0.293 HD
ENDBRANCH   3   8
BRANCH   5  10
ATOM     10  C   UNL     1      33.590  -4.629  34.272  1.00  0.00     0.013 C 
ATOM     11  C   UNL     1      34.190  -3.655  35.293  1.00  0.00     0.012 C 
ATOM     12  C   UNL     1      34.195  -4.412  32.881  1.00  0.00     0.012 C 
ENDBRANCH   5  10
TORSDOF 2
ENDMDL
MODEL 7
REMARK VINA RESULT:    -4.337      1.938      4.398
REMARK INTER + INTRA:          -4.816
REMARK INTER:                  -4.690
REMARK INTRA:                  -0.126
REMARK UNBOUND:                -0.099
REMARK SMILES Cc1ccc(C(C)C)cc1O
REMARK SMILES IDX 1 1 2 2 10 3 9 4 5 5 4 6 3 7 11 8 6 10 7 11 8 12
REMARK H PARENT 11 9
REMARK Flexibility Score: inf
ROOT
ATOM      1  C   UNL     1      30.041  -3.838  35.750  1.00  0.00     0.048 C 
ATOM      2  C   UNL     1      28.700  -3.272  35.375  1.00  0.00    -0.009 A 
ATOM      3  C   UNL     1      27.981  -3.812  34.295  1.00  0.00     0.118 A 
ATOM      4  C   UNL     1      26.730  -3.278  33.951  1.00  0.00     0.050 A 
ATOM      5  C   UNL     1      26.184  -2.205  34.675  1.00  0.00    -0.042 A 
ATOM      6  C   UNL     1      26.912  -1.671  35.754  1.00  0.00     0.004 A 
ATOM      7  C   UNL     1      28.158  -2.200  36.099  1.00  0.00     0.007 A 
ENDROOT
BRANCH   3   8
ATOM      8  O   UNL     1      28.509  -4.878  33.567  1.00  0.00    -0.508 OA
ATOM      9  H   UNL     1      28.236  -5.053  32.606  1.00  0.00     0.293 HD
ENDBRANCH   3   8
BRANCH   5  10
ATOM     10  C   UNL     1      24.829  -1.640  34.289  1.00  0.00     0.013 C 
ATOM     11  C   UNL     1      24.981  -0.394  33.409  1.00  0.00     0.012 C 
ATOM     12  C   UNL     1      23.982  -1.339  35.531  1.00  0.00     0.012 C 
ENDBRANCH   5  10
TORSDOF 2
ENDMDL
MODEL 8
REMARK VINA RESULT:    -4.297      2.478      5.565
REMARK INTER + INTRA:          -4.773
REMARK INTER:                  -4.647
REMARK INTRA:                  -0.126
REMARK UNBOUND:                -0.099
REMARK SMILES Cc1ccc(C(C)C)cc1O
REMARK SMILES IDX 1 1 2 2 10 3 9 4 5 5 4 6 3 7 11 8 6 10 7 11 8 12
REMARK H PARENT 11 9
REMARK Flexibility Score: inf
ROOT
ATOM      1  C   UNL     1      28.508  -2.555  35.801  1.00  0.00     0.048 C 
ATOM      2  C   UNL     1      27.082  -2.089  35.711  1.00  0.00    -0.009 A 
ATOM      3  C   UNL     1      26.301  -2.411  34.587  1.00  0.00     0.118 A 
ATOM      4  C   UNL     1      24.971  -1.973  34.511  1.00  0.00     0.050 A 
ATOM      5  C   UNL     1      24.405  -1.212  35.547  1.00  0.00    -0.042 A 
ATOM      6  C   UNL     1      25.194  -0.894  36.667  1.00  0.00     0.004 A 
ATOM      7  C   UNL     1      26.519  -1.329  36.748  1.00  0.00     0.007 A 
ENDROOT
BRANCH   3   8
ATOM      8  O   UNL     1      26.848  -3.167  33.550  1.00  0.00    -0.508 OA
ATOM      9  H   UNL     1      26.638  -4.153  33.443  1.00  0.00     0.293 HD
ENDBRANCH   3   8
BRANCH   5  10
ATOM     10  C   UNL     1      22.964  -0.746  35.448  1.00  0.00     0.013 C 
ATOM     11  C   UNL     1      22.780   0.236  34.285  1.00  0.00     0.012 C 
ATOM     12  C   UNL     1      22.489  -0.132  36.770  1.00  0.00     0.012 C 
ENDBRANCH   5  10
TORSDOF 2
ENDMDL
MODEL 9
REMARK VINA RESULT:    -4.136      3.801      6.985
REMARK INTER + INTRA:          -4.598
REMARK INTER:                  -4.473
REMARK INTRA:                  -0.125
REMARK UNBOUND:                -0.099
REMARK SMILES Cc1ccc(C(C)C)cc1O
REMARK SMILES IDX 1 1 2 2 10 3 9 4 5 5 4 6 3 7 11 8 6 10 7 11 8 12
REMARK H PARENT 11 9
REMARK Flexibility Score: inf
ROOT
ATOM      1  C   UNL     1      26.252  -2.822  33.570  1.00  0.00     0.048 C 
ATOM      2  C   UNL     1      25.138  -1.848  33.832  1.00  0.00    -0.009 A 
ATOM      3  C   UNL     1      23.891  -2.306  34.293  1.00  0.00     0.118 A 
ATOM      4  C   UNL     1      22.856  -1.392  34.535  1.00  0.00     0.050 A 
ATOM      5  C   UNL     1      23.049  -0.017  34.322  1.00  0.00    -0.042 A 
ATOM      6  C   UNL     1      24.299   0.432  33.861  1.00  0.00     0.004 A 
ATOM      7  C   UNL     1      25.333  -0.475  33.618  1.00  0.00     0.007 A 
ENDROOT
BRANCH   3   8
ATOM      8  O   UNL     1      23.685  -3.668  34.510  1.00  0.00    -0.508 OA
ATOM      9  H   UNL     1      23.342  -4.278  33.776  1.00  0.00     0.293 HD
ENDBRANCH   3   8
BRANCH   5  10
ATOM     10  C   UNL     1      21.918   0.960  34.590  1.00  0.00     0.013 C 
ATOM     11  C   UNL     1      21.605   1.797  33.345  1.00  0.00     0.012 C 
ATOM     12  C   UNL     1      22.233   1.856  35.793  1.00  0.00     0.012 C 
ENDBRANCH   5  10
TORSDOF 2
ENDMDL
