MODEL 1
REMARK VINA RESULT:     0.545      0.000      0.000
REMARK INTER + INTRA:           0.589
REMARK INTER:                   0.800
REMARK INTRA:                  -0.211
REMARK UNBOUND:                -0.211
REMARK SMILES O=C([O-])CCCCCCCC(=O)[O-]
REMARK SMILES IDX 7 1 6 2 5 3 4 4 2 5 1 6 3 7 8 8 9 9 10 10 11 11 12 12 13 13
REMARK H PARENT
REMARK Flexibility Score: inf
ROOT
ATOM      1  C   UNL     1      16.719  -7.483  27.552  1.00  0.00     0.000 C 
ENDROOT
BRANCH   1   2
ATOM      2  C   UNL     1      15.886  -6.949  28.733  1.00  0.00     0.000 C 
BRANCH   2   3
ATOM      3  C   UNL     1      16.222  -7.579  30.097  1.00  0.00     0.006 C 
BRANCH   3   4
ATOM      4  C   UNL     1      17.607  -8.240  30.125  1.00  0.00     0.053 C 
BRANCH   4   5
ATOM      5  C   UNL     1      17.478  -9.725  29.994  1.00  0.00     0.041 C 
ATOM      6  O   UNL     1      18.490 -10.428  29.735  1.00  0.00    -0.550 OA
ATOM      7  O   UNL     1      16.233 -10.329  30.111  1.00  0.00    -0.550 OA
ENDBRANCH   4   5
ENDBRANCH   3   4
ENDBRANCH   2   3
ENDBRANCH   1   2
BRANCH   1   8
ATOM      8  C   UNL     1      16.049  -8.668  26.838  1.00  0.00     0.000 C 
BRANCH   8   9
ATOM      9  C   UNL     1      16.306  -8.680  25.320  1.00  0.00     0.006 C 
BRANCH   9  10
ATOM     10  C   UNL     1      17.724  -9.135  24.932  1.00  0.00     0.053 C 
BRANCH  10  11
ATOM     11  C   UNL     1      18.578  -8.009  24.435  1.00  0.00     0.041 C 
ATOM     12  O   UNL     1      18.361  -6.829  24.818  1.00  0.00    -0.550 OA
ATOM     13  O   UNL     1      19.602  -8.259  23.529  1.00  0.00    -0.550 OA
ENDBRANCH  10  11
ENDBRANCH   9  10
ENDBRANCH   8   9
ENDBRANCH   1   8
TORSDOF 8
ENDMDL
MODEL 2
REMARK VINA RESULT:     1.025      1.573      5.133
REMARK INTER + INTRA:           1.293
REMARK INTER:                   0.714
REMARK INTRA:                   0.579
REMARK UNBOUND:                -0.211
REMARK SMILES O=C([O-])CCCCCCCC(=O)[O-]
REMARK SMILES IDX 7 1 6 2 5 3 4 4 2 5 1 6 3 7 8 8 9 9 10 10 11 11 12 12 13 13
REMARK H PARENT
REMARK Flexibility Score: inf
ROOT
ATOM      1  C   UNL     1      16.117 -10.183  27.502  1.00  0.00     0.000 C 
ENDROOT
BRANCH   1   2
ATOM      2  C   UNL     1      16.107  -8.643  27.524  1.00  0.00     0.000 C 
BRANCH   2   3
ATOM      3  C   UNL     1      16.580  -7.976  26.220  1.00  0.00     0.006 C 
BRANCH   3   4
ATOM      4  C   UNL     1      17.551  -8.852  25.418  1.00  0.00     0.053 C 
BRANCH   4   5
ATOM      5  C   UNL     1      18.445  -8.001  24.573  1.00  0.00     0.041 C 
ATOM      6  O   UNL     1      18.239  -6.762  24.481  1.00  0.00    -0.550 OA
ATOM      7  O   UNL     1      19.478  -8.582  23.849  1.00  0.00    -0.550 OA
ENDBRANCH   4   5
ENDBRANCH   3   4
ENDBRANCH   2   3
ENDBRANCH   1   2
BRANCH   1   8
ATOM      8  C   UNL     1      15.876 -10.801  28.890  1.00  0.00     0.000 C 
BRANCH   8   9
ATOM      9  C   UNL     1      16.197  -9.835  30.044  1.00  0.00     0.006 C 
BRANCH   9  10
ATOM     10  C   UNL     1      17.671  -9.394  30.095  1.00  0.00     0.053 C 
BRANCH  10  11
ATOM     11  C   UNL     1      17.842  -7.920  29.894  1.00  0.00     0.041 C 
ATOM     12  O   UNL     1      18.956  -7.452  29.538  1.00  0.00    -0.550 OA
ATOM     13  O   UNL     1      16.777  -7.058  30.123  1.00  0.00    -0.550 OA
ENDBRANCH  10  11
ENDBRANCH   9  10
ENDBRANCH   8   9
ENDBRANCH   1   8
TORSDOF 8
ENDMDL
MODEL 3
REMARK VINA RESULT:     1.061      1.600      1.788
REMARK INTER + INTRA:           1.345
REMARK INTER:                   0.463
REMARK INTRA:                   0.883
REMARK UNBOUND:                -0.211
REMARK SMILES O=C([O-])CCCCCCCC(=O)[O-]
REMARK SMILES IDX 7 1 6 2 5 3 4 4 2 5 1 6 3 7 8 8 9 9 10 10 11 11 12 12 13 13
REMARK H PARENT
REMARK Flexibility Score: inf
ROOT
ATOM      1  C   UNL     1      16.614  -8.986  27.263  1.00  0.00     0.000 C 
ENDROOT
BRANCH   1   2
ATOM      2  C   UNL     1      15.875  -9.318  28.573  1.00  0.00     0.000 C 
BRANCH   2   3
ATOM      3  C   UNL     1      16.695 -10.136  29.588  1.00  0.00     0.006 C 
BRANCH   3   4
ATOM      4  C   UNL     1      17.996  -9.439  30.005  1.00  0.00     0.053 C 
BRANCH   4   5
ATOM      5  C   UNL     1      17.939  -7.983  29.667  1.00  0.00     0.041 C 
ATOM      6  O   UNL     1      18.867  -7.450  29.002  1.00  0.00    -0.550 OA
ATOM      7  O   UNL     1      16.885  -7.203  30.125  1.00  0.00    -0.550 OA
ENDBRANCH   4   5
ENDBRANCH   3   4
ENDBRANCH   2   3
ENDBRANCH   1   2
BRANCH   1   8
ATOM      8  C   UNL     1      15.887  -7.925  26.420  1.00  0.00     0.000 C 
BRANCH   8   9
ATOM      9  C   UNL     1      16.209  -8.026  24.918  1.00  0.00     0.006 C 
BRANCH   9  10
ATOM     10  C   UNL     1      17.462  -8.864  24.605  1.00  0.00     0.053 C 
BRANCH  10  11
ATOM     11  C   UNL     1      18.678  -8.022  24.368  1.00  0.00     0.041 C 
ATOM     12  O   UNL     1      18.756  -6.865  24.862  1.00  0.00    -0.550 OA
ATOM     13  O   UNL     1      19.717  -8.505  23.583  1.00  0.00    -0.550 OA
ENDBRANCH  10  11
ENDBRANCH   9  10
ENDBRANCH   8   9
ENDBRANCH   1   8
TORSDOF 8
ENDMDL
