MODEL 1
REMARK VINA RESULT:    -5.689      0.000      0.000
REMARK INTER + INTRA:          -6.537
REMARK INTER:                  -6.354
REMARK INTRA:                  -0.183
REMARK UNBOUND:                -0.183
REMARK SMILES O=C([O-])c1ccccc1C(=O)[O-]
REMARK SMILES IDX 4 1 9 2 5 3 8 4 6 5 7 6 2 7 1 8 3 9 10 10 11 11 12 12
REMARK H PARENT
REMARK Flexibility Score: inf
ROOT
ATOM      1  C   UNL     1      12.396  22.877  -7.840  1.00  0.00     0.006 A 
ATOM      2  C   UNL     1      11.432  21.994  -8.399  1.00  0.00     0.006 A 
ATOM      3  C   UNL     1      12.572  24.149  -8.415  1.00  0.00     0.010 A 
ATOM      4  C   UNL     1      10.728  22.388  -9.552  1.00  0.00     0.010 A 
ATOM      5  C   UNL     1      11.848  24.529  -9.546  1.00  0.00     0.001 A 
ATOM      6  C   UNL     1      10.937  23.646 -10.120  1.00  0.00     0.001 A 
ENDROOT
BRANCH   1   7
ATOM      7  C   UNL     1      13.280  22.499  -6.714  1.00  0.00     0.072 C 
ATOM      8  O   UNL     1      14.501  22.256  -6.907  1.00  0.00    -0.545 OA
ATOM      9  O   UNL     1      12.785  22.472  -5.416  1.00  0.00    -0.545 OA
ENDBRANCH   1   7
BRANCH   2  10
ATOM     10  C   UNL     1      11.081  20.696  -7.778  1.00  0.00     0.072 C 
ATOM     11  O   UNL     1      10.109  20.617  -6.980  1.00  0.00    -0.545 OA
ATOM     12  O   UNL     1      11.854  19.565  -8.012  1.00  0.00    -0.545 OA
ENDBRANCH   2  10
TORSDOF 2
ENDMDL
MODEL 2
REMARK VINA RESULT:    -5.639      0.146      3.136
REMARK INTER + INTRA:          -6.481
REMARK INTER:                  -6.305
REMARK INTRA:                  -0.176
REMARK UNBOUND:                -0.183
REMARK SMILES O=C([O-])c1ccccc1C(=O)[O-]
REMARK SMILES IDX 4 1 9 2 5 3 8 4 6 5 7 6 2 7 1 8 3 9 10 10 11 11 12 12
REMARK H PARENT
REMARK Flexibility Score: inf
ROOT
ATOM      1  C   UNL     1      11.342  22.040  -8.294  1.00  0.00     0.006 A 
ATOM      2  C   UNL     1      12.367  22.904  -7.817  1.00  0.00     0.006 A 
ATOM      3  C   UNL     1      10.581  22.433  -9.410  1.00  0.00     0.010 A 
ATOM      4  C   UNL     1      12.547  24.157  -8.432  1.00  0.00     0.010 A 
ATOM      5  C   UNL     1      10.792  23.671 -10.019  1.00  0.00     0.001 A 
ATOM      6  C   UNL     1      11.764  24.536  -9.523  1.00  0.00     0.001 A 
ENDROOT
BRANCH   1   7
ATOM      7  C   UNL     1      10.987  20.766  -7.628  1.00  0.00     0.072 C 
ATOM      8  O   UNL     1      10.015  20.705  -6.830  1.00  0.00    -0.545 OA
ATOM      9  O   UNL     1      11.685  19.602  -7.930  1.00  0.00    -0.545 OA
ENDBRANCH   1   7
BRANCH   2  10
ATOM     10  C   UNL     1      13.306  22.514  -6.740  1.00  0.00     0.072 C 
ATOM     11  O   UNL     1      14.479  22.153  -7.022  1.00  0.00    -0.545 OA
ATOM     12  O   UNL     1      12.889  22.476  -5.414  1.00  0.00    -0.545 OA
ENDBRANCH   2  10
TORSDOF 2
ENDMDL
MODEL 3
REMARK VINA RESULT:    -5.563      1.996      3.351
REMARK INTER + INTRA:          -6.397
REMARK INTER:                  -6.186
REMARK INTRA:                  -0.210
REMARK UNBOUND:                -0.183
REMARK SMILES O=C([O-])c1ccccc1C(=O)[O-]
REMARK SMILES IDX 4 1 9 2 5 3 8 4 6 5 7 6 2 7 1 8 3 9 10 10 11 11 12 12
REMARK H PARENT
REMARK Flexibility Score: inf
ROOT
ATOM      1  C   UNL     1      10.804  22.405  -7.604  1.00  0.00     0.006 A 
ATOM      2  C   UNL     1      10.178  23.123  -8.660  1.00  0.00     0.006 A 
ATOM      3  C   UNL     1      12.126  22.728  -7.248  1.00  0.00     0.010 A 
ATOM      4  C   UNL     1      10.918  24.090  -9.365  1.00  0.00     0.010 A 
ATOM      5  C   UNL     1      12.836  23.707  -7.946  1.00  0.00     0.001 A 
ATOM      6  C   UNL     1      12.238  24.377  -9.009  1.00  0.00     0.001 A 
ENDROOT
BRANCH   1   7
ATOM      7  C   UNL     1      10.153  21.278  -6.897  1.00  0.00     0.072 C 
ATOM      8  O   UNL     1       9.408  21.486  -5.903  1.00  0.00    -0.545 OA
ATOM      9  O   UNL     1      10.306  19.979  -7.365  1.00  0.00    -0.545 OA
ENDBRANCH   1   7
BRANCH   2  10
ATOM     10  C   UNL     1       8.749  22.948  -9.009  1.00  0.00     0.072 C 
ATOM     11  O   UNL     1       8.423  22.299 -10.038  1.00  0.00    -0.545 OA
ATOM     12  O   UNL     1       7.753  23.550  -8.248  1.00  0.00    -0.545 OA
ENDBRANCH   2  10
TORSDOF 2
ENDMDL
MODEL 4
REMARK VINA RESULT:    -5.531      1.978      3.411
REMARK INTER + INTRA:          -6.360
REMARK INTER:                  -6.143
REMARK INTRA:                  -0.217
REMARK UNBOUND:                -0.183
REMARK SMILES O=C([O-])c1ccccc1C(=O)[O-]
REMARK SMILES IDX 4 1 9 2 5 3 8 4 6 5 7 6 2 7 1 8 3 9 10 10 11 11 12 12
REMARK H PARENT
REMARK Flexibility Score: inf
ROOT
ATOM      1  C   UNL     1      10.220  23.115  -8.710  1.00  0.00     0.006 A 
ATOM      2  C   UNL     1      10.832  22.367  -7.666  1.00  0.00     0.006 A 
ATOM      3  C   UNL     1      10.973  24.095  -9.381  1.00  0.00     0.010 A 
ATOM      4  C   UNL     1      12.153  22.672  -7.288  1.00  0.00     0.010 A 
ATOM      5  C   UNL     1      12.289  24.367  -9.005  1.00  0.00     0.001 A 
ATOM      6  C   UNL     1      12.874  23.666  -7.953  1.00  0.00     0.001 A 
ENDROOT
BRANCH   1   7
ATOM      7  C   UNL     1       8.795  22.960  -9.085  1.00  0.00     0.072 C 
ATOM      8  O   UNL     1       8.460  22.234 -10.057  1.00  0.00    -0.545 OA
ATOM      9  O   UNL     1       7.803  23.566  -8.323  1.00  0.00    -0.545 OA
ENDBRANCH   1   7
BRANCH   2  10
ATOM     10  C   UNL     1      10.163  21.225  -7.001  1.00  0.00     0.072 C 
ATOM     11  O   UNL     1       9.462  21.413  -5.972  1.00  0.00    -0.545 OA
ATOM     12  O   UNL     1      10.350  19.927  -7.462  1.00  0.00    -0.545 OA
ENDBRANCH   2  10
TORSDOF 2
ENDMDL
MODEL 5
REMARK VINA RESULT:    -5.475      3.554      4.684
REMARK INTER + INTRA:          -6.298
REMARK INTER:                  -6.109
REMARK INTRA:                  -0.189
REMARK UNBOUND:                -0.183
REMARK SMILES O=C([O-])c1ccccc1C(=O)[O-]
REMARK SMILES IDX 4 1 9 2 5 3 8 4 6 5 7 6 2 7 1 8 3 9 10 10 11 11 12 12
REMARK H PARENT
REMARK Flexibility Score: inf
ROOT
ATOM      1  C   UNL     1       8.331  23.073  -7.967  1.00  0.00     0.006 A 
ATOM      2  C   UNL     1       8.796  22.380  -6.814  1.00  0.00     0.006 A 
ATOM      3  C   UNL     1       7.223  23.931  -7.848  1.00  0.00     0.010 A 
ATOM      4  C   UNL     1       8.095  22.520  -5.603  1.00  0.00     0.010 A 
ATOM      5  C   UNL     1       6.556  24.072  -6.631  1.00  0.00     0.001 A 
ATOM      6  C   UNL     1       6.983  23.359  -5.514  1.00  0.00     0.001 A 
ENDROOT
BRANCH   1   7
ATOM      7  C   UNL     1       8.919  22.883  -9.314  1.00  0.00     0.072 C 
ATOM      8  O   UNL     1       8.303  22.232 -10.199  1.00  0.00    -0.545 OA
ATOM      9  O   UNL     1      10.131  23.480  -9.637  1.00  0.00    -0.545 OA
ENDBRANCH   1   7
BRANCH   2  10
ATOM     10  C   UNL     1      10.034  21.568  -6.814  1.00  0.00     0.072 C 
ATOM     11  O   UNL     1      11.145  22.106  -6.567  1.00  0.00    -0.545 OA
ATOM     12  O   UNL     1       9.999  20.219  -7.151  1.00  0.00    -0.545 OA
ENDBRANCH   2  10
TORSDOF 2
ENDMDL
MODEL 6
REMARK VINA RESULT:    -5.467      5.482      6.639
REMARK INTER + INTRA:          -6.289
REMARK INTER:                  -6.109
REMARK INTRA:                  -0.180
REMARK UNBOUND:                -0.183
REMARK SMILES O=C([O-])c1ccccc1C(=O)[O-]
REMARK SMILES IDX 4 1 9 2 5 3 8 4 6 5 7 6 2 7 1 8 3 9 10 10 11 11 12 12
REMARK H PARENT
REMARK Flexibility Score: inf
ROOT
ATOM      1  C   UNL     1       6.326  23.375  -8.144  1.00  0.00     0.006 A 
ATOM      2  C   UNL     1       5.881  23.377  -6.793  1.00  0.00     0.006 A 
ATOM      3  C   UNL     1       5.428  22.998  -9.159  1.00  0.00     0.010 A 
ATOM      4  C   UNL     1       4.576  22.938  -6.501  1.00  0.00     0.010 A 
ATOM      5  C   UNL     1       4.131  22.587  -8.849  1.00  0.00     0.001 A 
ATOM      6  C   UNL     1       3.710  22.546  -7.522  1.00  0.00     0.001 A 
ENDROOT
BRANCH   1   7
ATOM      7  C   UNL     1       7.720  23.688  -8.535  1.00  0.00     0.072 C 
ATOM      8  O   UNL     1       8.115  24.882  -8.610  1.00  0.00    -0.545 OA
ATOM      9  O   UNL     1       8.629  22.662  -8.760  1.00  0.00    -0.545 OA
ENDBRANCH   1   7
BRANCH   2  10
ATOM     10  C   UNL     1       6.710  23.891  -5.678  1.00  0.00     0.072 C 
ATOM     11  O   UNL     1       7.409  23.099  -4.992  1.00  0.00    -0.545 OA
ATOM     12  O   UNL     1       6.679  25.237  -5.332  1.00  0.00    -0.545 OA
ENDBRANCH   2  10
TORSDOF 2
ENDMDL
MODEL 7
REMARK VINA RESULT:    -5.462      5.505      6.526
REMARK INTER + INTRA:          -6.284
REMARK INTER:                  -6.127
REMARK INTRA:                  -0.157
REMARK UNBOUND:                -0.183
REMARK SMILES O=C([O-])c1ccccc1C(=O)[O-]
REMARK SMILES IDX 4 1 9 2 5 3 8 4 6 5 7 6 2 7 1 8 3 9 10 10 11 11 12 12
REMARK H PARENT
REMARK Flexibility Score: inf
ROOT
ATOM      1  C   UNL     1       5.810  23.326  -6.840  1.00  0.00     0.006 A 
ATOM      2  C   UNL     1       6.270  23.321  -8.186  1.00  0.00     0.006 A 
ATOM      3  C   UNL     1       4.502  22.888  -6.563  1.00  0.00     0.010 A 
ATOM      4  C   UNL     1       5.385  22.941  -9.211  1.00  0.00     0.010 A 
ATOM      5  C   UNL     1       3.647  22.495  -7.593  1.00  0.00     0.001 A 
ATOM      6  C   UNL     1       4.083  22.533  -8.915  1.00  0.00     0.001 A 
ENDROOT
BRANCH   1   7
ATOM      7  C   UNL     1       6.622  23.838  -5.711  1.00  0.00     0.072 C 
ATOM      8  O   UNL     1       7.351  23.062  -5.039  1.00  0.00    -0.545 OA
ATOM      9  O   UNL     1       6.637  25.197  -5.423  1.00  0.00    -0.545 OA
ENDBRANCH   1   7
BRANCH   2  10
ATOM     10  C   UNL     1       7.672  23.631  -8.553  1.00  0.00     0.072 C 
ATOM     11  O   UNL     1       8.073  24.824  -8.569  1.00  0.00    -0.545 OA
ATOM     12  O   UNL     1       8.542  22.621  -8.948  1.00  0.00    -0.545 OA
ENDBRANCH   2  10
TORSDOF 2
ENDMDL
MODEL 8
REMARK VINA RESULT:    -5.359      3.460      4.395
REMARK INTER + INTRA:          -6.168
REMARK INTER:                  -5.986
REMARK INTRA:                  -0.182
REMARK UNBOUND:                -0.183
REMARK SMILES O=C([O-])c1ccccc1C(=O)[O-]
REMARK SMILES IDX 4 1 9 2 5 3 8 4 6 5 7 6 2 7 1 8 3 9 10 10 11 11 12 12
REMARK H PARENT
REMARK Flexibility Score: inf
ROOT
ATOM      1  C   UNL     1       8.990  22.153  -6.756  1.00  0.00     0.006 A 
ATOM      2  C   UNL     1       8.425  22.946  -7.793  1.00  0.00     0.006 A 
ATOM      3  C   UNL     1       8.361  22.126  -5.498  1.00  0.00     0.010 A 
ATOM      4  C   UNL     1       7.293  23.733  -7.514  1.00  0.00     0.010 A 
ATOM      5  C   UNL     1       7.226  22.897  -5.249  1.00  0.00     0.001 A 
ATOM      6  C   UNL     1       6.700  23.708  -6.251  1.00  0.00     0.001 A 
ENDROOT
BRANCH   1   7
ATOM      7  C   UNL     1      10.256  21.400  -6.914  1.00  0.00     0.072 C 
ATOM      8  O   UNL     1      10.248  20.200  -7.295  1.00  0.00    -0.545 OA
ATOM      9  O   UNL     1      11.475  22.034  -6.705  1.00  0.00    -0.545 OA
ENDBRANCH   1   7
BRANCH   2  10
ATOM     10  C   UNL     1       8.937  22.927  -9.183  1.00  0.00     0.072 C 
ATOM     11  O   UNL     1       8.324  22.283 -10.075  1.00  0.00    -0.545 OA
ATOM     12  O   UNL     1      10.131  23.561  -9.509  1.00  0.00    -0.545 OA
ENDBRANCH   2  10
TORSDOF 2
ENDMDL
MODEL 9
REMARK VINA RESULT:    -5.224      4.680      6.252
REMARK INTER + INTRA:          -6.018
REMARK INTER:                  -5.822
REMARK INTRA:                  -0.197
REMARK UNBOUND:                -0.183
REMARK SMILES O=C([O-])c1ccccc1C(=O)[O-]
REMARK SMILES IDX 4 1 9 2 5 3 8 4 6 5 7 6 2 7 1 8 3 9 10 10 11 11 12 12
REMARK H PARENT
REMARK Flexibility Score: inf
ROOT
ATOM      1  C   UNL     1       7.006  23.137  -8.930  1.00  0.00     0.006 A 
ATOM      2  C   UNL     1       7.409  23.322  -7.579  1.00  0.00     0.006 A 
ATOM      3  C   UNL     1       7.907  22.547  -9.837  1.00  0.00     0.010 A 
ATOM      4  C   UNL     1       8.718  22.973  -7.199  1.00  0.00     0.010 A 
ATOM      5  C   UNL     1       9.193  22.188  -9.434  1.00  0.00     0.001 A 
ATOM      6  C   UNL     1       9.602  22.411  -8.122  1.00  0.00     0.001 A 
ENDROOT
BRANCH   1   7
ATOM      7  C   UNL     1       5.700  23.599  -9.455  1.00  0.00     0.072 C 
ATOM      8  O   UNL     1       5.618  24.652 -10.141  1.00  0.00    -0.545 OA
ATOM      9  O   UNL     1       4.557  22.837  -9.249  1.00  0.00    -0.545 OA
ENDBRANCH   1   7
BRANCH   2  10
ATOM     10  C   UNL     1       6.483  23.805  -6.527  1.00  0.00     0.072 C 
ATOM     11  O   UNL     1       6.588  24.977  -6.080  1.00  0.00    -0.545 OA
ATOM     12  O   UNL     1       5.532  22.954  -5.975  1.00  0.00    -0.545 OA
ENDBRANCH   2  10
TORSDOF 2
ENDMDL
