MODEL 1
REMARK VINA RESULT:    -4.565      0.000      0.000
REMARK INTER + INTRA:          -4.925
REMARK INTER:                  -4.832
REMARK INTRA:                  -0.094
REMARK UNBOUND:                -0.094
REMARK SMILES C=C(C)[C@H]1CC=C(C)C(=O)C1
REMARK SMILES IDX 8 1 7 2 6 3 5 4 4 5 11 6 9 7 10 8 2 9 1 10 3 11
REMARK H PARENT
REMARK Flexibility Score: inf
ROOT
ATOM      1  C   UNL     1      -4.548   6.418  64.867  1.00  0.00     0.048 C 
ATOM      2  C   UNL     1      -3.149   5.989  64.525  1.00  0.00    -0.012 C 
ATOM      3  C   UNL     1      -2.952   4.909  63.749  1.00  0.00    -0.019 C 
ATOM      4  C   UNL     1      -1.571   4.424  63.391  1.00  0.00     0.036 C 
ATOM      5  C   UNL     1      -0.583   5.600  63.276  1.00  0.00     0.025 C 
ATOM      6  C   UNL     1      -0.591   6.433  64.572  1.00  0.00     0.089 C 
ATOM      7  C   UNL     1      -1.995   6.827  64.938  1.00  0.00     0.158 C 
ATOM      8  O   UNL     1      -2.182   7.861  65.636  1.00  0.00    -0.295 OA
ENDROOT
BRANCH   5   9
ATOM      9  C   UNL     1       0.820   5.125  62.924  1.00  0.00    -0.077 C 
ATOM     10  C   UNL     1       1.632   4.593  63.854  1.00  0.00     0.008 C 
ATOM     11  C   UNL     1       1.325   5.243  61.509  1.00  0.00     0.039 C 
ENDBRANCH   5   9
TORSDOF 1
ENDMDL
MODEL 2
REMARK VINA RESULT:    -4.503      2.218      4.543
REMARK INTER + INTRA:          -4.860
REMARK INTER:                  -4.766
REMARK INTRA:                  -0.093
REMARK UNBOUND:                -0.094
REMARK SMILES C=C(C)[C@H]1CC=C(C)C(=O)C1
REMARK SMILES IDX 8 1 7 2 6 3 5 4 4 5 11 6 9 7 10 8 2 9 1 10 3 11
REMARK H PARENT
REMARK Flexibility Score: inf
ROOT
ATOM      1  C   UNL     1       3.148   7.801  60.941  1.00  0.00     0.048 C 
ATOM      2  C   UNL     1       2.032   7.057  61.618  1.00  0.00    -0.012 C 
ATOM      3  C   UNL     1       1.787   5.776  61.291  1.00  0.00    -0.019 C 
ATOM      4  C   UNL     1       0.669   4.989  61.925  1.00  0.00     0.036 C 
ATOM      5  C   UNL     1       0.436   5.432  63.381  1.00  0.00     0.025 C 
ATOM      6  C   UNL     1       0.189   6.951  63.445  1.00  0.00     0.089 C 
ATOM      7  C   UNL     1       1.284   7.695  62.730  1.00  0.00     0.158 C 
ATOM      8  O   UNL     1       1.536   8.885  63.062  1.00  0.00    -0.295 OA
ENDROOT
BRANCH   5   9
ATOM      9  C   UNL     1      -0.698   4.651  64.033  1.00  0.00    -0.077 C 
ATOM     10  C   UNL     1      -1.896   4.529  63.435  1.00  0.00     0.008 C 
ATOM     11  C   UNL     1      -0.491   3.995  65.373  1.00  0.00     0.039 C 
ENDBRANCH   5   9
TORSDOF 1
ENDMDL
MODEL 3
REMARK VINA RESULT:    -4.503      2.097      2.517
REMARK INTER + INTRA:          -4.860
REMARK INTER:                  -4.766
REMARK INTRA:                  -0.093
REMARK UNBOUND:                -0.094
REMARK SMILES C=C(C)[C@H]1CC=C(C)C(=O)C1
REMARK SMILES IDX 8 1 7 2 6 3 5 4 4 5 11 6 9 7 10 8 2 9 1 10 3 11
REMARK H PARENT
REMARK Flexibility Score: inf
ROOT
ATOM      1  C   UNL     1      -2.795   4.426  66.081  1.00  0.00     0.048 C 
ATOM      2  C   UNL     1      -1.660   4.407  65.096  1.00  0.00    -0.012 C 
ATOM      3  C   UNL     1      -1.893   4.681  63.801  1.00  0.00    -0.019 C 
ATOM      4  C   UNL     1      -0.796   4.658  62.769  1.00  0.00     0.036 C 
ATOM      5  C   UNL     1       0.550   5.093  63.380  1.00  0.00     0.025 C 
ATOM      6  C   UNL     1       0.884   4.224  64.607  1.00  0.00     0.089 C 
ATOM      7  C   UNL     1      -0.268   4.208  65.574  1.00  0.00     0.158 C 
ATOM      8  O   UNL     1      -0.043   3.986  66.795  1.00  0.00    -0.295 OA
ENDROOT
BRANCH   5   9
ATOM      9  C   UNL     1       1.671   5.065  62.350  1.00  0.00    -0.077 C 
ATOM     10  C   UNL     1       1.587   5.766  61.206  1.00  0.00     0.008 C 
ATOM     11  C   UNL     1       2.907   4.241  62.601  1.00  0.00     0.039 C 
ENDBRANCH   5   9
TORSDOF 1
ENDMDL
MODEL 4
REMARK VINA RESULT:    -4.442      1.550      2.154
REMARK INTER + INTRA:          -4.796
REMARK INTER:                  -4.707
REMARK INTRA:                  -0.088
REMARK UNBOUND:                -0.094
REMARK SMILES C=C(C)[C@H]1CC=C(C)C(=O)C1
REMARK SMILES IDX 8 1 7 2 6 3 5 4 4 5 11 6 9 7 10 8 2 9 1 10 3 11
REMARK H PARENT
REMARK Flexibility Score: inf
ROOT
ATOM      1  C   UNL     1      -4.743   6.122  65.072  1.00  0.00     0.048 C 
ATOM      2  C   UNL     1      -3.384   5.915  64.465  1.00  0.00    -0.012 C 
ATOM      3  C   UNL     1      -2.389   6.776  64.742  1.00  0.00    -0.019 C 
ATOM      4  C   UNL     1      -1.014   6.627  64.147  1.00  0.00     0.036 C 
ATOM      5  C   UNL     1      -0.661   5.144  63.931  1.00  0.00     0.025 C 
ATOM      6  C   UNL     1      -1.743   4.455  63.079  1.00  0.00     0.089 C 
ATOM      7  C   UNL     1      -3.108   4.697  63.662  1.00  0.00     0.158 C 
ATOM      8  O   UNL     1      -4.031   3.869  63.430  1.00  0.00    -0.295 OA
ENDROOT
BRANCH   5   9
ATOM      9  C   UNL     1       0.724   4.978  63.320  1.00  0.00    -0.077 C 
ATOM     10  C   UNL     1       1.783   4.629  64.072  1.00  0.00     0.008 C 
ATOM     11  C   UNL     1       0.931   5.203  61.845  1.00  0.00     0.039 C 
ENDBRANCH   5   9
TORSDOF 1
ENDMDL
MODEL 5
REMARK VINA RESULT:    -4.438      2.319      4.973
REMARK INTER + INTRA:          -4.791
REMARK INTER:                  -4.699
REMARK INTRA:                  -0.093
REMARK UNBOUND:                -0.094
REMARK SMILES C=C(C)[C@H]1CC=C(C)C(=O)C1
REMARK SMILES IDX 8 1 7 2 6 3 5 4 4 5 11 6 9 7 10 8 2 9 1 10 3 11
REMARK H PARENT
REMARK Flexibility Score: inf
ROOT
ATOM      1  C   UNL     1       4.449   5.328  61.964  1.00  0.00     0.048 C 
ATOM      2  C   UNL     1       3.005   5.506  62.341  1.00  0.00    -0.012 C 
ATOM      3  C   UNL     1       2.043   4.932  61.598  1.00  0.00    -0.019 C 
ATOM      4  C   UNL     1       0.581   5.094  61.920  1.00  0.00     0.036 C 
ATOM      5  C   UNL     1       0.358   5.217  63.439  1.00  0.00     0.025 C 
ATOM      6  C   UNL     1       1.212   6.364  64.012  1.00  0.00     0.089 C 
ATOM      7  C   UNL     1       2.650   6.210  63.600  1.00  0.00     0.158 C 
ATOM      8  O   UNL     1       3.554   6.718  64.317  1.00  0.00    -0.295 OA
ENDROOT
BRANCH   5   9
ATOM      9  C   UNL     1      -1.116   5.391  63.780  1.00  0.00    -0.077 C 
ATOM     10  C   UNL     1      -2.025   4.457  63.448  1.00  0.00     0.008 C 
ATOM     11  C   UNL     1      -1.584   6.627  64.503  1.00  0.00     0.039 C 
ENDBRANCH   5   9
TORSDOF 1
ENDMDL
MODEL 6
REMARK VINA RESULT:    -4.437      2.307      3.209
REMARK INTER + INTRA:          -4.790
REMARK INTER:                  -4.693
REMARK INTRA:                  -0.096
REMARK UNBOUND:                -0.094
REMARK SMILES C=C(C)[C@H]1CC=C(C)C(=O)C1
REMARK SMILES IDX 8 1 7 2 6 3 5 4 4 5 11 6 9 7 10 8 2 9 1 10 3 11
REMARK H PARENT
REMARK Flexibility Score: inf
ROOT
ATOM      1  C   UNL     1      -1.298   3.653  66.224  1.00  0.00     0.048 C 
ATOM      2  C   UNL     1      -0.455   4.263  65.140  1.00  0.00    -0.012 C 
ATOM      3  C   UNL     1       0.862   4.447  65.340  1.00  0.00    -0.019 C 
ATOM      4  C   UNL     1       1.749   5.072  64.295  1.00  0.00     0.036 C 
ATOM      5  C   UNL     1       1.265   4.722  62.875  1.00  0.00     0.025 C 
ATOM      6  C   UNL     1      -0.212   5.123  62.701  1.00  0.00     0.089 C 
ATOM      7  C   UNL     1      -1.051   4.547  63.810  1.00  0.00     0.158 C 
ATOM      8  O   UNL     1      -2.279   4.342  63.609  1.00  0.00    -0.295 OA
ENDROOT
BRANCH   5   9
ATOM      9  C   UNL     1       2.147   5.355  61.808  1.00  0.00    -0.077 C 
ATOM     10  C   UNL     1       1.669   6.292  60.971  1.00  0.00     0.008 C 
ATOM     11  C   UNL     1       3.588   4.935  61.672  1.00  0.00     0.039 C 
ENDBRANCH   5   9
TORSDOF 1
ENDMDL
MODEL 7
REMARK VINA RESULT:    -4.385      2.366      3.739
REMARK INTER + INTRA:          -4.735
REMARK INTER:                  -4.645
REMARK INTRA:                  -0.090
REMARK UNBOUND:                -0.094
REMARK SMILES C=C(C)[C@H]1CC=C(C)C(=O)C1
REMARK SMILES IDX 8 1 7 2 6 3 5 4 4 5 11 6 9 7 10 8 2 9 1 10 3 11
REMARK H PARENT
REMARK Flexibility Score: inf
ROOT
ATOM      1  C   UNL     1      -1.510   5.264  63.892  1.00  0.00     0.048 C 
ATOM      2  C   UNL     1      -0.131   4.933  63.397  1.00  0.00    -0.012 C 
ATOM      3  C   UNL     1       0.219   5.240  62.135  1.00  0.00    -0.019 C 
ATOM      4  C   UNL     1       1.581   4.914  61.582  1.00  0.00     0.036 C 
ATOM      5  C   UNL     1       2.658   4.988  62.680  1.00  0.00     0.025 C 
ATOM      6  C   UNL     1       2.277   4.080  63.864  1.00  0.00     0.089 C 
ATOM      7  C   UNL     1       0.880   4.382  64.334  1.00  0.00     0.158 C 
ATOM      8  O   UNL     1       0.564   4.126  65.528  1.00  0.00    -0.295 OA
ENDROOT
BRANCH   5   9
ATOM      9  C   UNL     1       4.041   4.651  62.137  1.00  0.00    -0.077 C 
ATOM     10  C   UNL     1       4.785   5.572  61.501  1.00  0.00     0.008 C 
ATOM     11  C   UNL     1       4.601   3.263  62.307  1.00  0.00     0.039 C 
ENDBRANCH   5   9
TORSDOF 1
ENDMDL
MODEL 8
REMARK VINA RESULT:    -4.294      2.745      4.868
REMARK INTER + INTRA:          -4.639
REMARK INTER:                  -4.545
REMARK INTRA:                  -0.094
REMARK UNBOUND:                -0.094
REMARK SMILES C=C(C)[C@H]1CC=C(C)C(=O)C1
REMARK SMILES IDX 8 1 7 2 6 3 5 4 4 5 11 6 9 7 10 8 2 9 1 10 3 11
REMARK H PARENT
REMARK Flexibility Score: inf
ROOT
ATOM      1  C   UNL     1       2.940   7.925  61.150  1.00  0.00     0.048 C 
ATOM      2  C   UNL     1       2.024   7.099  62.009  1.00  0.00    -0.012 C 
ATOM      3  C   UNL     1       0.992   7.684  62.642  1.00  0.00    -0.019 C 
ATOM      4  C   UNL     1       0.055   6.906  63.529  1.00  0.00     0.036 C 
ATOM      5  C   UNL     1      -0.118   5.462  63.023  1.00  0.00     0.025 C 
ATOM      6  C   UNL     1       1.254   4.777  62.883  1.00  0.00     0.089 C 
ATOM      7  C   UNL     1       2.185   5.624  62.058  1.00  0.00     0.158 C 
ATOM      8  O   UNL     1       3.132   5.069  61.436  1.00  0.00    -0.295 OA
ENDROOT
BRANCH   5   9
ATOM      9  C   UNL     1      -1.056   4.661  63.916  1.00  0.00    -0.077 C 
ATOM     10  C   UNL     1      -0.636   4.142  65.084  1.00  0.00     0.008 C 
ATOM     11  C   UNL     1      -2.487   4.436  63.501  1.00  0.00     0.039 C 
ENDBRANCH   5   9
TORSDOF 1
ENDMDL
MODEL 9
REMARK VINA RESULT:    -4.239      1.958      4.263
REMARK INTER + INTRA:          -4.581
REMARK INTER:                  -4.492
REMARK INTRA:                  -0.089
REMARK UNBOUND:                -0.094
REMARK SMILES C=C(C)[C@H]1CC=C(C)C(=O)C1
REMARK SMILES IDX 8 1 7 2 6 3 5 4 4 5 11 6 9 7 10 8 2 9 1 10 3 11
REMARK H PARENT
REMARK Flexibility Score: inf
ROOT
ATOM      1  C   UNL     1       0.497   7.992  63.738  1.00  0.00     0.048 C 
ATOM      2  C   UNL     1      -0.503   6.891  63.955  1.00  0.00    -0.012 C 
ATOM      3  C   UNL     1      -1.664   7.155  64.578  1.00  0.00    -0.019 C 
ATOM      4  C   UNL     1      -2.693   6.085  64.837  1.00  0.00     0.036 C 
ATOM      5  C   UNL     1      -2.684   5.025  63.720  1.00  0.00     0.025 C 
ATOM      6  C   UNL     1      -1.269   4.443  63.547  1.00  0.00     0.089 C 
ATOM      7  C   UNL     1      -0.261   5.546  63.373  1.00  0.00     0.158 C 
ATOM      8  O   UNL     1       0.813   5.306  62.757  1.00  0.00    -0.295 OA
ENDROOT
BRANCH   5   9
ATOM      9  C   UNL     1      -3.713   3.931  63.974  1.00  0.00    -0.077 C 
ATOM     10  C   UNL     1      -4.646   3.622  63.056  1.00  0.00     0.008 C 
ATOM     11  C   UNL     1      -3.701   3.169  65.274  1.00  0.00     0.039 C 
ENDBRANCH   5   9
TORSDOF 1
ENDMDL
