MODEL 1
REMARK VINA RESULT:    -4.983      0.000      0.000
REMARK INTER + INTRA:          -4.983
REMARK INTER:                  -4.983
REMARK INTRA:                   0.000
REMARK UNBOUND:                 0.000
REMARK SMILES CC(C)=C1CC[C@@H](C)CC1=O
REMARK SMILES IDX 8 1 7 2 6 3 5 4 4 5 2 6 1 7 3 8 10 9 11 10 9 11
REMARK H PARENT
REMARK Flexibility Score: inf
ROOT
ATOM      1  C   UNL     1      21.984  28.609  -9.668  1.00  0.00     0.008 C 
ATOM      2  C   UNL     1      21.313  28.071 -10.937  1.00  0.00    -0.006 C 
ATOM      3  C   UNL     1      21.567  29.014 -12.124  1.00  0.00     0.008 C 
ATOM      4  C   UNL     1      20.989  28.440 -13.424  1.00  0.00     0.039 C 
ATOM      5  C   UNL     1      19.523  28.051 -13.290  1.00  0.00    -0.006 C 
ATOM      6  C   UNL     1      18.666  28.139 -14.350  1.00  0.00    -0.070 C 
ATOM      7  C   UNL     1      17.197  27.810 -14.214  1.00  0.00     0.039 C 
ATOM      8  C   UNL     1      19.141  28.609 -15.706  1.00  0.00     0.039 C 
ATOM      9  C   UNL     1      19.118  27.466 -11.978  1.00  0.00     0.159 C 
ATOM     10  O   UNL     1      18.207  26.599 -11.902  1.00  0.00    -0.295 OA
ATOM     11  C   UNL     1      19.803  27.902 -10.715  1.00  0.00     0.084 C 
ENDROOT
TORSDOF 0
ENDMDL
MODEL 2
REMARK VINA RESULT:    -4.962      2.579      4.753
REMARK INTER + INTRA:          -4.962
REMARK INTER:                  -4.962
REMARK INTRA:                   0.000
REMARK UNBOUND:                 0.000
REMARK SMILES CC(C)=C1CC[C@@H](C)CC1=O
REMARK SMILES IDX 8 1 7 2 6 3 5 4 4 5 2 6 1 7 3 8 10 9 11 10 9 11
REMARK H PARENT
REMARK Flexibility Score: inf
ROOT
ATOM      1  C   UNL     1      17.611  27.816 -14.947  1.00  0.00     0.008 C 
ATOM      2  C   UNL     1      19.081  28.217 -15.106  1.00  0.00    -0.006 C 
ATOM      3  C   UNL     1      19.797  27.272 -16.085  1.00  0.00     0.008 C 
ATOM      4  C   UNL     1      21.243  27.719 -16.334  1.00  0.00     0.039 C 
ATOM      5  C   UNL     1      22.023  27.921 -15.043  1.00  0.00    -0.006 C 
ATOM      6  C   UNL     1      23.367  27.686 -14.980  1.00  0.00    -0.070 C 
ATOM      7  C   UNL     1      24.141  27.828 -13.691  1.00  0.00     0.039 C 
ATOM      8  C   UNL     1      24.140  27.232 -16.198  1.00  0.00     0.039 C 
ATOM      9  C   UNL     1      21.256  28.498 -13.898  1.00  0.00     0.159 C 
ATOM     10  O   UNL     1      21.813  29.243 -13.047  1.00  0.00    -0.295 OA
ATOM     11  C   UNL     1      19.793  28.198 -13.745  1.00  0.00     0.084 C 
ENDROOT
TORSDOF 0
ENDMDL
MODEL 3
REMARK VINA RESULT:    -4.960      2.926      4.875
REMARK INTER + INTRA:          -4.960
REMARK INTER:                  -4.960
REMARK INTRA:                   0.000
REMARK UNBOUND:                 0.000
REMARK SMILES CC(C)=C1CC[C@@H](C)CC1=O
REMARK SMILES IDX 8 1 7 2 6 3 5 4 4 5 2 6 1 7 3 8 10 9 11 10 9 11
REMARK H PARENT
REMARK Flexibility Score: inf
ROOT
ATOM      1  C   UNL     1      23.478  28.899 -18.392  1.00  0.00     0.008 C 
ATOM      2  C   UNL     1      22.635  28.265 -17.281  1.00  0.00    -0.006 C 
ATOM      3  C   UNL     1      21.136  28.383 -17.604  1.00  0.00     0.008 C 
ATOM      4  C   UNL     1      20.281  27.665 -16.552  1.00  0.00     0.039 C 
ATOM      5  C   UNL     1      20.609  28.105 -15.132  1.00  0.00    -0.006 C 
ATOM      6  C   UNL     1      19.651  28.133 -14.158  1.00  0.00    -0.070 C 
ATOM      7  C   UNL     1      19.952  28.622 -12.761  1.00  0.00     0.039 C 
ATOM      8  C   UNL     1      18.229  27.709 -14.446  1.00  0.00     0.039 C 
ATOM      9  C   UNL     1      22.048  28.387 -14.849  1.00  0.00     0.159 C 
ATOM     10  O   UNL     1      22.546  28.171 -13.712  1.00  0.00    -0.295 OA
ATOM     11  C   UNL     1      22.934  28.934 -15.931  1.00  0.00     0.084 C 
ENDROOT
TORSDOF 0
ENDMDL
MODEL 4
REMARK VINA RESULT:    -4.890     13.364     15.073
REMARK INTER + INTRA:          -4.890
REMARK INTER:                  -4.890
REMARK INTRA:                   0.000
REMARK UNBOUND:                 0.000
REMARK SMILES CC(C)=C1CC[C@@H](C)CC1=O
REMARK SMILES IDX 8 1 7 2 6 3 5 4 4 5 2 6 1 7 3 8 10 9 11 10 9 11
REMARK H PARENT
REMARK Flexibility Score: inf
ROOT
ATOM      1  C   UNL     1      32.194  29.697  -9.754  1.00  0.00     0.008 C 
ATOM      2  C   UNL     1      32.806  30.528 -10.887  1.00  0.00    -0.006 C 
ATOM      3  C   UNL     1      32.446  29.926 -12.255  1.00  0.00     0.008 C 
ATOM      4  C   UNL     1      32.965  30.801 -13.402  1.00  0.00     0.039 C 
ATOM      5  C   UNL     1      34.449  31.113 -13.274  1.00  0.00    -0.006 C 
ATOM      6  C   UNL     1      35.237  31.282 -14.377  1.00  0.00    -0.070 C 
ATOM      7  C   UNL     1      36.722  31.536 -14.263  1.00  0.00     0.039 C 
ATOM      8  C   UNL     1      34.663  31.185 -15.772  1.00  0.00     0.039 C 
ATOM      9  C   UNL     1      34.955  31.335 -11.887  1.00  0.00     0.159 C 
ATOM     10  O   UNL     1      35.900  32.135 -11.655  1.00  0.00    -0.295 OA
ATOM     11  C   UNL     1      34.333  30.604 -10.733  1.00  0.00     0.084 C 
ENDROOT
TORSDOF 0
ENDMDL
MODEL 5
REMARK VINA RESULT:    -4.889      2.436      4.817
REMARK INTER + INTRA:          -4.889
REMARK INTER:                  -4.889
REMARK INTRA:                   0.000
REMARK UNBOUND:                 0.000
REMARK SMILES CC(C)=C1CC[C@@H](C)CC1=O
REMARK SMILES IDX 8 1 7 2 6 3 5 4 4 5 2 6 1 7 3 8 10 9 11 10 9 11
REMARK H PARENT
REMARK Flexibility Score: inf
ROOT
ATOM      1  C   UNL     1      17.606  27.894 -14.931  1.00  0.00     0.008 C 
ATOM      2  C   UNL     1      19.065  27.711 -14.498  1.00  0.00    -0.006 C 
ATOM      3  C   UNL     1      19.469  28.797 -13.487  1.00  0.00     0.008 C 
ATOM      4  C   UNL     1      20.894  28.570 -12.965  1.00  0.00     0.039 C 
ATOM      5  C   UNL     1      21.909  28.411 -14.089  1.00  0.00    -0.006 C 
ATOM      6  C   UNL     1      23.201  28.828 -13.943  1.00  0.00    -0.070 C 
ATOM      7  C   UNL     1      24.202  28.728 -15.070  1.00  0.00     0.039 C 
ATOM      8  C   UNL     1      23.682  29.448 -12.651  1.00  0.00     0.039 C 
ATOM      9  C   UNL     1      21.437  27.675 -15.300  1.00  0.00     0.159 C 
ATOM     10  O   UNL     1      22.225  26.971 -15.986  1.00  0.00    -0.295 OA
ATOM     11  C   UNL     1      19.997  27.758 -15.718  1.00  0.00     0.084 C 
ENDROOT
TORSDOF 0
ENDMDL
MODEL 6
REMARK VINA RESULT:    -4.861      2.120      2.797
REMARK INTER + INTRA:          -4.861
REMARK INTER:                  -4.861
REMARK INTRA:                   0.000
REMARK UNBOUND:                 0.000
REMARK SMILES CC(C)=C1CC[C@@H](C)CC1=O
REMARK SMILES IDX 8 1 7 2 6 3 5 4 4 5 2 6 1 7 3 8 10 9 11 10 9 11
REMARK H PARENT
REMARK Flexibility Score: inf
ROOT
ATOM      1  C   UNL     1      23.003  28.867  -9.628  1.00  0.00     0.008 C 
ATOM      2  C   UNL     1      22.371  29.116 -11.002  1.00  0.00    -0.006 C 
ATOM      3  C   UNL     1      20.850  28.898 -10.946  1.00  0.00     0.008 C 
ATOM      4  C   UNL     1      20.188  29.241 -12.286  1.00  0.00     0.039 C 
ATOM      5  C   UNL     1      20.838  28.522 -13.460  1.00  0.00    -0.006 C 
ATOM      6  C   UNL     1      20.112  28.152 -14.556  1.00  0.00    -0.070 C 
ATOM      7  C   UNL     1      20.735  27.388 -15.702  1.00  0.00     0.039 C 
ATOM      8  C   UNL     1      18.635  28.457 -14.657  1.00  0.00     0.039 C 
ATOM      9  C   UNL     1      22.321  28.356 -13.387  1.00  0.00     0.159 C 
ATOM     10  O   UNL     1      23.031  28.357 -14.428  1.00  0.00    -0.295 OA
ATOM     11  C   UNL     1      22.995  28.189 -12.056  1.00  0.00     0.084 C 
ENDROOT
TORSDOF 0
ENDMDL
MODEL 7
REMARK VINA RESULT:    -4.792     12.240     13.702
REMARK INTER + INTRA:          -4.792
REMARK INTER:                  -4.792
REMARK INTRA:                   0.000
REMARK UNBOUND:                 0.000
REMARK SMILES CC(C)=C1CC[C@@H](C)CC1=O
REMARK SMILES IDX 8 1 7 2 6 3 5 4 4 5 2 6 1 7 3 8 10 9 11 10 9 11
REMARK H PARENT
REMARK Flexibility Score: inf
ROOT
ATOM      1  C   UNL     1      36.479  31.453 -14.386  1.00  0.00     0.008 C 
ATOM      2  C   UNL     1      34.989  31.199 -14.638  1.00  0.00    -0.006 C 
ATOM      3  C   UNL     1      34.299  32.478 -15.141  1.00  0.00     0.008 C 
ATOM      4  C   UNL     1      32.830  32.217 -15.495  1.00  0.00     0.039 C 
ATOM      5  C   UNL     1      32.065  31.548 -14.360  1.00  0.00    -0.006 C 
ATOM      6  C   UNL     1      30.735  31.787 -14.163  1.00  0.00    -0.070 C 
ATOM      7  C   UNL     1      29.980  31.174 -13.007  1.00  0.00     0.039 C 
ATOM      8  C   UNL     1      29.962  32.712 -15.075  1.00  0.00     0.039 C 
ATOM      9  C   UNL     1      32.826  30.540 -13.562  1.00  0.00     0.159 C 
ATOM     10  O   UNL     1      32.252  29.540 -13.055  1.00  0.00    -0.295 OA
ATOM     11  C   UNL     1      34.304  30.704 -13.356  1.00  0.00     0.084 C 
ENDROOT
TORSDOF 0
ENDMDL
MODEL 8
REMARK VINA RESULT:    -4.785     12.028     13.722
REMARK INTER + INTRA:          -4.785
REMARK INTER:                  -4.785
REMARK INTRA:                   0.000
REMARK UNBOUND:                 0.000
REMARK SMILES CC(C)=C1CC[C@@H](C)CC1=O
REMARK SMILES IDX 8 1 7 2 6 3 5 4 4 5 2 6 1 7 3 8 10 9 11 10 9 11
REMARK H PARENT
REMARK Flexibility Score: inf
ROOT
ATOM      1  C   UNL     1      31.252  29.316 -10.048  1.00  0.00     0.008 C 
ATOM      2  C   UNL     1      31.894  29.489 -11.429  1.00  0.00    -0.006 C 
ATOM      3  C   UNL     1      33.421  29.620 -11.303  1.00  0.00     0.008 C 
ATOM      4  C   UNL     1      34.089  29.693 -12.682  1.00  0.00     0.039 C 
ATOM      5  C   UNL     1      33.481  30.770 -13.570  1.00  0.00    -0.006 C 
ATOM      6  C   UNL     1      34.235  31.440 -14.491  1.00  0.00    -0.070 C 
ATOM      7  C   UNL     1      33.657  32.550 -15.337  1.00  0.00     0.039 C 
ATOM      8  C   UNL     1      35.702  31.125 -14.681  1.00  0.00     0.039 C 
ATOM      9  C   UNL     1      32.005  30.962 -13.451  1.00  0.00     0.159 C 
ATOM     10  O   UNL     1      31.310  31.317 -14.440  1.00  0.00    -0.295 OA
ATOM     11  C   UNL     1      31.319  30.725 -12.137  1.00  0.00     0.084 C 
ENDROOT
TORSDOF 0
ENDMDL
MODEL 9
REMARK VINA RESULT:    -4.747     17.311     18.517
REMARK INTER + INTRA:          -4.747
REMARK INTER:                  -4.747
REMARK INTRA:                   0.000
REMARK UNBOUND:                 0.000
REMARK SMILES CC(C)=C1CC[C@@H](C)CC1=O
REMARK SMILES IDX 8 1 7 2 6 3 5 4 4 5 2 6 1 7 3 8 10 9 11 10 9 11
REMARK H PARENT
REMARK Flexibility Score: inf
ROOT
ATOM      1  C   UNL     1      34.590  34.353 -22.271  1.00  0.00     0.008 C 
ATOM      2  C   UNL     1      33.751  35.624 -22.103  1.00  0.00    -0.006 C 
ATOM      3  C   UNL     1      32.356  35.282 -21.552  1.00  0.00     0.008 C 
ATOM      4  C   UNL     1      31.538  36.551 -21.282  1.00  0.00     0.039 C 
ATOM      5  C   UNL     1      31.479  37.477 -22.490  1.00  0.00    -0.006 C 
ATOM      6  C   UNL     1      30.386  38.260 -22.732  1.00  0.00    -0.070 C 
ATOM      7  C   UNL     1      30.292  39.138 -23.958  1.00  0.00     0.039 C 
ATOM      8  C   UNL     1      29.197  38.254 -21.799  1.00  0.00     0.039 C 
ATOM      9  C   UNL     1      32.721  37.558 -23.315  1.00  0.00     0.159 C 
ATOM     10  O   UNL     1      33.042  38.621 -23.910  1.00  0.00    -0.295 OA
ATOM     11  C   UNL     1      33.618  36.361 -23.444  1.00  0.00     0.084 C 
ENDROOT
TORSDOF 0
ENDMDL
