MODEL 1
REMARK VINA RESULT:    -3.586      0.000      0.000
REMARK INTER + INTRA:          -4.304
REMARK INTER:                  -4.215
REMARK INTRA:                  -0.089
REMARK UNBOUND:                -0.089
REMARK SMILES O=C([O-])CCC(=O)[O-]
REMARK SMILES IDX 4 1 2 2 1 3 3 4 5 5 6 6 7 7 8 8
REMARK H PARENT
REMARK Flexibility Score: inf
ROOT
ATOM      1  C   UNL     1      23.485  -8.498   4.155  1.00  0.00     0.059 C 
ENDROOT
BRANCH   1   2
ATOM      2  C   UNL     1      23.392  -7.829   5.489  1.00  0.00     0.042 C 
ATOM      3  O   UNL     1      24.224  -8.102   6.395  1.00  0.00    -0.550 OA
ATOM      4  O   UNL     1      22.357  -6.940   5.751  1.00  0.00    -0.550 OA
ENDBRANCH   1   2
BRANCH   1   5
ATOM      5  C   UNL     1      22.618  -7.767   3.128  1.00  0.00     0.059 C 
BRANCH   5   6
ATOM      6  C   UNL     1      23.436  -6.775   2.363  1.00  0.00     0.042 C 
ATOM      7  O   UNL     1      23.735  -5.666   2.880  1.00  0.00    -0.550 OA
ATOM      8  O   UNL     1      23.827  -7.055   1.060  1.00  0.00    -0.550 OA
ENDBRANCH   5   6
ENDBRANCH   1   5
TORSDOF 3
ENDMDL
MODEL 2
REMARK VINA RESULT:    -3.581      0.034      3.746
REMARK INTER + INTRA:          -4.299
REMARK INTER:                  -4.200
REMARK INTRA:                  -0.099
REMARK UNBOUND:                -0.089
REMARK SMILES O=C([O-])CCC(=O)[O-]
REMARK SMILES IDX 4 1 2 2 1 3 3 4 5 5 6 6 7 7 8 8
REMARK H PARENT
REMARK Flexibility Score: inf
ROOT
ATOM      1  C   UNL     1      22.611  -7.765   3.108  1.00  0.00     0.059 C 
ENDROOT
BRANCH   1   2
ATOM      2  C   UNL     1      23.439  -6.785   2.339  1.00  0.00     0.042 C 
ATOM      3  O   UNL     1      23.712  -5.660   2.835  1.00  0.00    -0.550 OA
ATOM      4  O   UNL     1      23.867  -7.093   1.054  1.00  0.00    -0.550 OA
ENDBRANCH   1   2
BRANCH   1   5
ATOM      5  C   UNL     1      23.472  -8.502   4.136  1.00  0.00     0.059 C 
BRANCH   5   6
ATOM      6  C   UNL     1      23.378  -7.835   5.472  1.00  0.00     0.042 C 
ATOM      7  O   UNL     1      24.201  -8.120   6.382  1.00  0.00    -0.550 OA
ATOM      8  O   UNL     1      22.352  -6.934   5.728  1.00  0.00    -0.550 OA
ENDBRANCH   5   6
ENDBRANCH   1   5
TORSDOF 3
ENDMDL
MODEL 3
REMARK VINA RESULT:    -3.562      0.114      3.751
REMARK INTER + INTRA:          -4.276
REMARK INTER:                  -4.168
REMARK INTRA:                  -0.107
REMARK UNBOUND:                -0.089
REMARK SMILES O=C([O-])CCC(=O)[O-]
REMARK SMILES IDX 4 1 2 2 1 3 3 4 5 5 6 6 7 7 8 8
REMARK H PARENT
REMARK Flexibility Score: inf
ROOT
ATOM      1  C   UNL     1      22.652  -7.783   3.105  1.00  0.00     0.059 C 
ENDROOT
BRANCH   1   2
ATOM      2  C   UNL     1      23.488  -6.794   2.358  1.00  0.00     0.042 C 
ATOM      3  O   UNL     1      23.661  -5.634   2.819  1.00  0.00    -0.550 OA
ATOM      4  O   UNL     1      24.037  -7.135   1.128  1.00  0.00    -0.550 OA
ENDBRANCH   1   2
BRANCH   1   5
ATOM      5  C   UNL     1      23.489  -8.498   4.167  1.00  0.00     0.059 C 
BRANCH   5   6
ATOM      6  C   UNL     1      23.319  -7.837   5.499  1.00  0.00     0.042 C 
ATOM      7  O   UNL     1      22.362  -7.043   5.695  1.00  0.00    -0.550 OA
ATOM      8  O   UNL     1      24.248  -8.059   6.508  1.00  0.00    -0.550 OA
ENDBRANCH   5   6
ENDBRANCH   1   5
TORSDOF 3
ENDMDL
MODEL 4
REMARK VINA RESULT:    -3.461      1.869      2.972
REMARK INTER + INTRA:          -4.158
REMARK INTER:                  -4.093
REMARK INTRA:                  -0.064
REMARK UNBOUND:                -0.089
REMARK SMILES O=C([O-])CCC(=O)[O-]
REMARK SMILES IDX 4 1 2 2 1 3 3 4 5 5 6 6 7 7 8 8
REMARK H PARENT
REMARK Flexibility Score: inf
ROOT
ATOM      1  C   UNL     1      24.238  -9.621   4.625  1.00  0.00     0.059 C 
ENDROOT
BRANCH   1   2
ATOM      2  C   UNL     1      25.030  -9.906   5.862  1.00  0.00     0.042 C 
ATOM      3  O   UNL     1      25.001  -9.103   6.832  1.00  0.00    -0.550 OA
ATOM      4  O   UNL     1      25.839 -11.034   5.925  1.00  0.00    -0.550 OA
ENDBRANCH   1   2
BRANCH   1   5
ATOM      5  C   UNL     1      22.839  -9.119   4.989  1.00  0.00     0.059 C 
BRANCH   5   6
ATOM      6  C   UNL     1      22.746  -7.639   4.792  1.00  0.00     0.042 C 
ATOM      7  O   UNL     1      22.460  -6.888   5.761  1.00  0.00    -0.550 OA
ATOM      8  O   UNL     1      22.927  -7.094   3.527  1.00  0.00    -0.550 OA
ENDBRANCH   5   6
ENDBRANCH   1   5
TORSDOF 3
ENDMDL
MODEL 5
REMARK VINA RESULT:    -3.446      1.810      3.955
REMARK INTER + INTRA:          -4.140
REMARK INTER:                  -4.100
REMARK INTRA:                  -0.040
REMARK UNBOUND:                -0.089
REMARK SMILES O=C([O-])CCC(=O)[O-]
REMARK SMILES IDX 4 1 2 2 1 3 3 4 5 5 6 6 7 7 8 8
REMARK H PARENT
REMARK Flexibility Score: inf
ROOT
ATOM      1  C   UNL     1      22.841  -9.075   5.033  1.00  0.00     0.059 C 
ENDROOT
BRANCH   1   2
ATOM      2  C   UNL     1      22.800  -7.589   4.871  1.00  0.00     0.042 C 
ATOM      3  O   UNL     1      22.399  -6.859   5.816  1.00  0.00    -0.550 OA
ATOM      4  O   UNL     1      23.157  -7.011   3.659  1.00  0.00    -0.550 OA
ENDBRANCH   1   2
BRANCH   1   5
ATOM      5  C   UNL     1      24.213  -9.619   4.631  1.00  0.00     0.059 C 
BRANCH   5   6
ATOM      6  C   UNL     1      25.055  -9.865   5.843  1.00  0.00     0.042 C 
ATOM      7  O   UNL     1      25.775 -10.895   5.917  1.00  0.00    -0.550 OA
ATOM      8  O   UNL     1      25.007  -8.980   6.913  1.00  0.00    -0.550 OA
ENDBRANCH   5   6
ENDBRANCH   1   5
TORSDOF 3
ENDMDL
MODEL 6
REMARK VINA RESULT:    -3.438      1.815      2.788
REMARK INTER + INTRA:          -4.130
REMARK INTER:                  -4.070
REMARK INTRA:                  -0.060
REMARK UNBOUND:                -0.089
REMARK SMILES O=C([O-])CCC(=O)[O-]
REMARK SMILES IDX 4 1 2 2 1 3 3 4 5 5 6 6 7 7 8 8
REMARK H PARENT
REMARK Flexibility Score: inf
ROOT
ATOM      1  C   UNL     1      24.235  -9.615   4.611  1.00  0.00     0.059 C 
ENDROOT
BRANCH   1   2
ATOM      2  C   UNL     1      25.049  -9.852   5.843  1.00  0.00     0.042 C 
ATOM      3  O   UNL     1      25.751 -10.892   5.948  1.00  0.00    -0.550 OA
ATOM      4  O   UNL     1      24.994  -8.949   6.897  1.00  0.00    -0.550 OA
ENDBRANCH   1   2
BRANCH   1   5
ATOM      5  C   UNL     1      22.836  -9.117   4.981  1.00  0.00     0.059 C 
BRANCH   5   6
ATOM      6  C   UNL     1      22.737  -7.638   4.778  1.00  0.00     0.042 C 
ATOM      7  O   UNL     1      22.393  -6.889   5.730  1.00  0.00    -0.550 OA
ATOM      8  O   UNL     1      22.976  -7.091   3.523  1.00  0.00    -0.550 OA
ENDBRANCH   5   6
ENDBRANCH   1   5
TORSDOF 3
ENDMDL
MODEL 7
REMARK VINA RESULT:    -3.389      0.450      1.641
REMARK INTER + INTRA:          -4.073
REMARK INTER:                  -3.948
REMARK INTRA:                  -0.124
REMARK UNBOUND:                -0.089
REMARK SMILES O=C([O-])CCC(=O)[O-]
REMARK SMILES IDX 4 1 2 2 1 3 3 4 5 5 6 6 7 7 8 8
REMARK H PARENT
REMARK Flexibility Score: inf
ROOT
ATOM      1  C   UNL     1      23.100  -8.684   4.438  1.00  0.00     0.059 C 
ENDROOT
BRANCH   1   2
ATOM      2  C   UNL     1      23.205  -7.812   5.649  1.00  0.00     0.042 C 
ATOM      3  O   UNL     1      22.381  -6.876   5.830  1.00  0.00    -0.550 OA
ATOM      4  O   UNL     1      24.241  -8.001   6.555  1.00  0.00    -0.550 OA
ENDBRANCH   1   2
BRANCH   1   5
ATOM      5  C   UNL     1      22.441  -7.923   3.287  1.00  0.00     0.059 C 
BRANCH   5   6
ATOM      6  C   UNL     1      23.461  -7.137   2.526  1.00  0.00     0.042 C 
ATOM      7  O   UNL     1      24.209  -7.710   1.691  1.00  0.00    -0.550 OA
ATOM      8  O   UNL     1      23.619  -5.779   2.775  1.00  0.00    -0.550 OA
ENDBRANCH   5   6
ENDBRANCH   1   5
TORSDOF 3
ENDMDL
MODEL 8
REMARK VINA RESULT:    -3.201      2.421      3.464
REMARK INTER + INTRA:          -3.851
REMARK INTER:                  -3.721
REMARK INTRA:                  -0.130
REMARK UNBOUND:                -0.089
REMARK SMILES O=C([O-])CCC(=O)[O-]
REMARK SMILES IDX 4 1 2 2 1 3 3 4 5 5 6 6 7 7 8 8
REMARK H PARENT
REMARK Flexibility Score: inf
ROOT
ATOM      1  C   UNL     1      23.671  -8.708   5.453  1.00  0.00     0.059 C 
ENDROOT
BRANCH   1   2
ATOM      2  C   UNL     1      22.930  -7.471   5.055  1.00  0.00     0.042 C 
ATOM      3  O   UNL     1      22.321  -6.790   5.923  1.00  0.00    -0.550 OA
ATOM      4  O   UNL     1      22.870  -7.095   3.719  1.00  0.00    -0.550 OA
ENDBRANCH   1   2
BRANCH   1   5
ATOM      5  C   UNL     1      23.665  -9.725   4.311  1.00  0.00     0.059 C 
BRANCH   5   6
ATOM      6  C   UNL     1      22.358 -10.452   4.263  1.00  0.00     0.042 C 
ATOM      7  O   UNL     1      21.966 -11.117   5.258  1.00  0.00    -0.550 OA
ATOM      8  O   UNL     1      21.596 -10.436   3.101  1.00  0.00    -0.550 OA
ENDBRANCH   5   6
ENDBRANCH   1   5
TORSDOF 3
ENDMDL
MODEL 9
REMARK VINA RESULT:    -2.985      1.718      3.737
REMARK INTER + INTRA:          -3.598
REMARK INTER:                  -3.440
REMARK INTRA:                  -0.158
REMARK UNBOUND:                -0.089
REMARK SMILES O=C([O-])CCC(=O)[O-]
REMARK SMILES IDX 4 1 2 2 1 3 3 4 5 5 6 6 7 7 8 8
REMARK H PARENT
REMARK Flexibility Score: inf
ROOT
ATOM      1  C   UNL     1      23.698  -9.950   3.846  1.00  0.00     0.059 C 
ENDROOT
BRANCH   1   2
ATOM      2  C   UNL     1      23.573  -9.141   2.594  1.00  0.00     0.042 C 
ATOM      3  O   UNL     1      22.437  -8.900   2.106  1.00  0.00    -0.550 OA
ATOM      4  O   UNL     1      24.713  -8.694   1.937  1.00  0.00    -0.550 OA
ENDBRANCH   1   2
BRANCH   1   5
ATOM      5  C   UNL     1      22.758  -9.412   4.926  1.00  0.00     0.059 C 
BRANCH   5   6
ATOM      6  C   UNL     1      23.285  -8.130   5.489  1.00  0.00     0.042 C 
ATOM      7  O   UNL     1      24.279  -8.138   6.261  1.00  0.00    -0.550 OA
ATOM      8  O   UNL     1      22.648  -6.930   5.198  1.00  0.00    -0.550 OA
ENDBRANCH   5   6
ENDBRANCH   1   5
TORSDOF 3
ENDMDL
