MODEL 1
REMARK VINA RESULT:    -5.971      0.000      0.000
REMARK INTER + INTRA:          -7.168
REMARK INTER:                  -7.018
REMARK INTRA:                  -0.151
REMARK UNBOUND:                -0.151
REMARK SMILES O=c1c(O)c(-c2ccc(O)cc2)oc2cc(O)cc(O)c12
REMARK SMILES IDX 5 1 3 2 2 3 1 4 21 5 19 6 18 7 16 8 15 9 14 10 13 11 6 12
REMARK SMILES IDX 7 13 8 14 9 15 12 16 11 17 10 18 4 20 20 22 17 24
REMARK H PARENT 10 19 4 21 20 23 17 25
REMARK Flexibility Score: inf
ROOT
ATOM      1  C   UNL     1      29.797 -18.939  22.439  1.00  0.00     0.180 A 
ATOM      2  C   UNL     1      29.400 -19.761  23.509  1.00  0.00     0.208 A 
ATOM      3  C   UNL     1      29.936 -21.056  23.607  1.00  0.00     0.238 A 
ATOM      4  O   UNL     1      29.619 -21.767  24.596  1.00  0.00    -0.285 OA
ATOM      5  C   UNL     1      30.848 -21.518  22.627  1.00  0.00     0.111 A 
ATOM      6  C   UNL     1      31.420 -22.824  22.606  1.00  0.00     0.134 A 
ATOM      7  C   UNL     1      32.410 -23.129  21.663  1.00  0.00     0.093 A 
ATOM      8  C   UNL     1      32.800 -22.195  20.700  1.00  0.00     0.123 A 
ATOM      9  C   UNL     1      32.203 -20.937  20.677  1.00  0.00     0.094 A 
ATOM     10  C   UNL     1      31.239 -20.591  21.627  1.00  0.00     0.146 A 
ATOM     11  O   UNL     1      30.704 -19.377  21.574  1.00  0.00    -0.452 OA
ENDROOT
BRANCH   1  12
ATOM     12  C   UNL     1      29.258 -17.572  22.254  1.00  0.00     0.021 A 
ATOM     13  C   UNL     1      29.544 -16.541  23.167  1.00  0.00     0.016 A 
ATOM     14  C   UNL     1      29.004 -15.264  22.984  1.00  0.00     0.047 A 
ATOM     15  C   UNL     1      28.161 -15.006  21.896  1.00  0.00     0.115 A 
ATOM     16  C   UNL     1      28.395 -17.310  21.177  1.00  0.00     0.016 A 
ATOM     17  C   UNL     1      27.857 -16.032  20.996  1.00  0.00     0.047 A 
BRANCH  15  18
ATOM     18  O   UNL     1      27.617 -13.738  21.703  1.00  0.00    -0.508 OA
ATOM     19  H   UNL     1      26.648 -13.613  21.434  1.00  0.00     0.293 HD
ENDBRANCH  15  18
ENDBRANCH   1  12
BRANCH   2  20
ATOM     20  O   UNL     1      28.517 -19.278  24.478  1.00  0.00    -0.502 OA
ATOM     21  H   UNL     1      28.011 -19.889  25.106  1.00  0.00     0.293 HD
ENDBRANCH   2  20
BRANCH   6  22
ATOM     22  O   UNL     1      31.036 -23.859  23.464  1.00  0.00    -0.507 OA
ATOM     23  H   UNL     1      30.524 -24.680  23.180  1.00  0.00     0.293 HD
ENDBRANCH   6  22
BRANCH   8  24
ATOM     24  O   UNL     1      33.774 -22.512  19.757  1.00  0.00    -0.508 OA
ATOM     25  H   UNL     1      33.839 -22.015  18.875  1.00  0.00     0.293 HD
ENDBRANCH   8  24
TORSDOF 5
ENDMDL
MODEL 2
REMARK VINA RESULT:    -5.827      2.766      4.228
REMARK INTER + INTRA:          -6.999
REMARK INTER:                  -6.699
REMARK INTRA:                  -0.300
REMARK UNBOUND:                -0.151
REMARK SMILES O=c1c(O)c(-c2ccc(O)cc2)oc2cc(O)cc(O)c12
REMARK SMILES IDX 5 1 3 2 2 3 1 4 21 5 19 6 18 7 16 8 15 9 14 10 13 11 6 12
REMARK SMILES IDX 7 13 8 14 9 15 12 16 11 17 10 18 4 20 20 22 17 24
REMARK H PARENT 10 19 4 21 20 23 17 25
REMARK Flexibility Score: inf
ROOT
ATOM      1  C   UNL     1      29.355 -18.281  24.234  1.00  0.00     0.180 A 
ATOM      2  C   UNL     1      29.509 -18.875  22.968  1.00  0.00     0.208 A 
ATOM      3  C   UNL     1      29.353 -20.266  22.845  1.00  0.00     0.238 A 
ATOM      4  O   UNL     1      29.437 -20.784  21.702  1.00  0.00    -0.285 OA
ATOM      5  C   UNL     1      29.061 -21.046  23.990  1.00  0.00     0.111 A 
ATOM      6  C   UNL     1      28.923 -22.466  23.988  1.00  0.00     0.134 A 
ATOM      7  C   UNL     1      28.505 -23.120  25.154  1.00  0.00     0.093 A 
ATOM      8  C   UNL     1      28.285 -22.413  26.338  1.00  0.00     0.123 A 
ATOM      9  C   UNL     1      28.476 -21.033  26.365  1.00  0.00     0.094 A 
ATOM     10  C   UNL     1      28.857 -20.347  25.208  1.00  0.00     0.146 A 
ATOM     11  O   UNL     1      29.017 -19.031  25.276  1.00  0.00    -0.452 OA
ENDROOT
BRANCH   1  12
ATOM     12  C   UNL     1      29.529 -16.826  24.447  1.00  0.00     0.021 A 
ATOM     13  C   UNL     1      30.790 -16.274  24.738  1.00  0.00     0.016 A 
ATOM     14  C   UNL     1      30.926 -14.900  24.959  1.00  0.00     0.047 A 
ATOM     15  C   UNL     1      29.803 -14.064  24.907  1.00  0.00     0.115 A 
ATOM     16  C   UNL     1      28.405 -15.983  24.417  1.00  0.00     0.016 A 
ATOM     17  C   UNL     1      28.545 -14.610  24.637  1.00  0.00     0.047 A 
BRANCH  15  18
ATOM     18  O   UNL     1      29.926 -12.694  25.125  1.00  0.00    -0.508 OA
ATOM     19  H   UNL     1      30.227 -12.065  24.389  1.00  0.00     0.293 HD
ENDBRANCH  15  18
ENDBRANCH   1  12
BRANCH   2  20
ATOM     20  O   UNL     1      29.774 -18.084  21.847  1.00  0.00    -0.502 OA
ATOM     21  H   UNL     1      30.193 -17.165  21.917  1.00  0.00     0.293 HD
ENDBRANCH   2  20
BRANCH   6  22
ATOM     22  O   UNL     1      29.206 -23.277  22.885  1.00  0.00    -0.507 OA
ATOM     23  H   UNL     1      28.612 -24.018  22.549  1.00  0.00     0.293 HD
ENDBRANCH   6  22
BRANCH   8  24
ATOM     24  O   UNL     1      27.885 -23.073  27.497  1.00  0.00    -0.508 OA
ATOM     25  H   UNL     1      28.133 -22.727  28.417  1.00  0.00     0.293 HD
ENDBRANCH   8  24
TORSDOF 5
ENDMDL
MODEL 3
REMARK VINA RESULT:    -5.760      2.464      3.311
REMARK INTER + INTRA:          -6.921
REMARK INTER:                  -6.633
REMARK INTRA:                  -0.288
REMARK UNBOUND:                -0.151
REMARK SMILES O=c1c(O)c(-c2ccc(O)cc2)oc2cc(O)cc(O)c12
REMARK SMILES IDX 5 1 3 2 2 3 1 4 21 5 19 6 18 7 16 8 15 9 14 10 13 11 6 12
REMARK SMILES IDX 7 13 8 14 9 15 12 16 11 17 10 18 4 20 20 22 17 24
REMARK H PARENT 10 19 4 21 20 23 17 25
REMARK Flexibility Score: inf
ROOT
ATOM      1  C   UNL     1      29.202 -17.441  23.728  1.00  0.00     0.180 A 
ATOM      2  C   UNL     1      29.112 -17.439  25.132  1.00  0.00     0.208 A 
ATOM      3  C   UNL     1      29.031 -18.666  25.811  1.00  0.00     0.238 A 
ATOM      4  O   UNL     1      29.008 -18.659  27.069  1.00  0.00    -0.285 OA
ATOM      5  C   UNL     1      29.024 -19.877  25.078  1.00  0.00     0.111 A 
ATOM      6  C   UNL     1      28.905 -21.175  25.660  1.00  0.00     0.134 A 
ATOM      7  C   UNL     1      29.040 -22.309  24.850  1.00  0.00     0.093 A 
ATOM      8  C   UNL     1      29.225 -22.193  23.471  1.00  0.00     0.123 A 
ATOM      9  C   UNL     1      29.283 -20.930  22.886  1.00  0.00     0.094 A 
ATOM     10  C   UNL     1      29.187 -19.779  23.672  1.00  0.00     0.146 A 
ATOM     11  O   UNL     1      29.258 -18.595  23.075  1.00  0.00    -0.452 OA
ENDROOT
BRANCH   1  12
ATOM     12  C   UNL     1      29.264 -16.188  22.941  1.00  0.00     0.021 A 
ATOM     13  C   UNL     1      30.490 -15.554  22.669  1.00  0.00     0.016 A 
ATOM     14  C   UNL     1      30.522 -14.359  21.944  1.00  0.00     0.047 A 
ATOM     15  C   UNL     1      29.330 -13.776  21.493  1.00  0.00     0.115 A 
ATOM     16  C   UNL     1      28.073 -15.587  22.503  1.00  0.00     0.016 A 
ATOM     17  C   UNL     1      28.108 -14.392  21.777  1.00  0.00     0.047 A 
BRANCH  15  18
ATOM     18  O   UNL     1      29.350 -12.587  20.770  1.00  0.00    -0.508 OA
ATOM     19  H   UNL     1      30.217 -12.193  20.421  1.00  0.00     0.293 HD
ENDBRANCH  15  18
ENDBRANCH   1  12
BRANCH   2  20
ATOM     20  O   UNL     1      29.144 -16.232  25.837  1.00  0.00    -0.502 OA
ATOM     21  H   UNL     1      29.517 -15.380  25.439  1.00  0.00     0.293 HD
ENDBRANCH   2  20
BRANCH   6  22
ATOM     22  O   UNL     1      28.629 -21.402  27.012  1.00  0.00    -0.507 OA
ATOM     23  H   UNL     1      28.120 -22.195  27.369  1.00  0.00     0.293 HD
ENDBRANCH   6  22
BRANCH   8  24
ATOM     24  O   UNL     1      29.343 -23.326  22.671  1.00  0.00    -0.508 OA
ATOM     25  H   UNL     1      28.538 -23.895  22.434  1.00  0.00     0.293 HD
ENDBRANCH   8  24
TORSDOF 5
ENDMDL
MODEL 4
REMARK VINA RESULT:    -5.695      3.065      6.115
REMARK INTER + INTRA:          -6.845
REMARK INTER:                  -6.616
REMARK INTRA:                  -0.229
REMARK UNBOUND:                -0.151
REMARK SMILES O=c1c(O)c(-c2ccc(O)cc2)oc2cc(O)cc(O)c12
REMARK SMILES IDX 5 1 3 2 2 3 1 4 21 5 19 6 18 7 16 8 15 9 14 10 13 11 6 12
REMARK SMILES IDX 7 13 8 14 9 15 12 16 11 17 10 18 4 20 20 22 17 24
REMARK H PARENT 10 19 4 21 20 23 17 25
REMARK Flexibility Score: inf
ROOT
ATOM      1  C   UNL     1      31.039 -21.816  22.838  1.00  0.00     0.180 A 
ATOM      2  C   UNL     1      30.566 -23.100  23.165  1.00  0.00     0.208 A 
ATOM      3  C   UNL     1      29.517 -23.223  24.091  1.00  0.00     0.238 A 
ATOM      4  O   UNL     1      29.061 -24.369  24.338  1.00  0.00    -0.285 OA
ATOM      5  C   UNL     1      28.965 -22.064  24.688  1.00  0.00     0.111 A 
ATOM      6  C   UNL     1      27.927 -22.074  25.668  1.00  0.00     0.134 A 
ATOM      7  C   UNL     1      27.369 -20.863  26.094  1.00  0.00     0.093 A 
ATOM      8  C   UNL     1      27.855 -19.640  25.626  1.00  0.00     0.123 A 
ATOM      9  C   UNL     1      28.908 -19.619  24.714  1.00  0.00     0.094 A 
ATOM     10  C   UNL     1      29.462 -20.812  24.242  1.00  0.00     0.146 A 
ATOM     11  O   UNL     1      30.457 -20.746  23.366  1.00  0.00    -0.452 OA
ENDROOT
BRANCH   1  12
ATOM     12  C   UNL     1      32.159 -21.607  21.891  1.00  0.00     0.021 A 
ATOM     13  C   UNL     1      33.485 -21.914  22.245  1.00  0.00     0.016 A 
ATOM     14  C   UNL     1      34.528 -21.686  21.343  1.00  0.00     0.047 A 
ATOM     15  C   UNL     1      34.262 -21.135  20.082  1.00  0.00     0.115 A 
ATOM     16  C   UNL     1      31.902 -21.036  20.633  1.00  0.00     0.016 A 
ATOM     17  C   UNL     1      32.948 -20.810  19.732  1.00  0.00     0.047 A 
BRANCH  15  18
ATOM     18  O   UNL     1      35.293 -20.904  19.175  1.00  0.00    -0.508 OA
ATOM     19  H   UNL     1      35.297 -21.335  18.258  1.00  0.00     0.293 HD
ENDBRANCH  15  18
ENDBRANCH   1  12
BRANCH   2  20
ATOM     20  O   UNL     1      31.110 -24.229  22.546  1.00  0.00    -0.502 OA
ATOM     21  H   UNL     1      32.108 -24.383  22.477  1.00  0.00     0.293 HD
ENDBRANCH   2  20
BRANCH   6  22
ATOM     22  O   UNL     1      27.432 -23.236  26.269  1.00  0.00    -0.507 OA
ATOM     23  H   UNL     1      26.454 -23.458  26.370  1.00  0.00     0.293 HD
ENDBRANCH   6  22
BRANCH   8  24
ATOM     24  O   UNL     1      27.304 -18.440  26.067  1.00  0.00    -0.508 OA
ATOM     25  H   UNL     1      26.688 -18.403  26.871  1.00  0.00     0.293 HD
ENDBRANCH   8  24
TORSDOF 5
ENDMDL
MODEL 5
REMARK VINA RESULT:    -5.691      1.670      3.733
REMARK INTER + INTRA:          -6.840
REMARK INTER:                  -6.552
REMARK INTRA:                  -0.288
REMARK UNBOUND:                -0.151
REMARK SMILES O=c1c(O)c(-c2ccc(O)cc2)oc2cc(O)cc(O)c12
REMARK SMILES IDX 5 1 3 2 2 3 1 4 21 5 19 6 18 7 16 8 15 9 14 10 13 11 6 12
REMARK SMILES IDX 7 13 8 14 9 15 12 16 11 17 10 18 4 20 20 22 17 24
REMARK H PARENT 10 19 4 21 20 23 17 25
REMARK Flexibility Score: inf
ROOT
ATOM      1  C   UNL     1      29.645 -19.017  22.765  1.00  0.00     0.180 A 
ATOM      2  C   UNL     1      30.474 -19.900  22.050  1.00  0.00     0.208 A 
ATOM      3  C   UNL     1      30.553 -21.242  22.459  1.00  0.00     0.238 A 
ATOM      4  O   UNL     1      31.253 -22.039  21.783  1.00  0.00    -0.285 OA
ATOM      5  C   UNL     1      29.817 -21.679  23.587  1.00  0.00     0.111 A 
ATOM      6  C   UNL     1      29.854 -23.005  24.113  1.00  0.00     0.134 A 
ATOM      7  C   UNL     1      28.986 -23.359  25.153  1.00  0.00     0.093 A 
ATOM      8  C   UNL     1      28.128 -22.418  25.729  1.00  0.00     0.123 A 
ATOM      9  C   UNL     1      28.128 -21.106  25.260  1.00  0.00     0.094 A 
ATOM     10  C   UNL     1      28.957 -20.731  24.200  1.00  0.00     0.146 A 
ATOM     11  O   UNL     1      28.917 -19.473  23.778  1.00  0.00    -0.452 OA
ENDROOT
BRANCH   1  12
ATOM     12  C   UNL     1      29.529 -17.584  22.411  1.00  0.00     0.021 A 
ATOM     13  C   UNL     1      28.593 -17.138  21.460  1.00  0.00     0.016 A 
ATOM     14  C   UNL     1      28.518 -15.783  21.124  1.00  0.00     0.047 A 
ATOM     15  C   UNL     1      29.385 -14.860  21.723  1.00  0.00     0.115 A 
ATOM     16  C   UNL     1      30.408 -16.655  22.991  1.00  0.00     0.016 A 
ATOM     17  C   UNL     1      30.330 -15.300  22.654  1.00  0.00     0.047 A 
BRANCH  15  18
ATOM     18  O   UNL     1      29.319 -13.507  21.397  1.00  0.00    -0.508 OA
ATOM     19  H   UNL     1      29.472 -13.184  20.448  1.00  0.00     0.293 HD
ENDBRANCH  15  18
ENDBRANCH   1  12
BRANCH   2  20
ATOM     20  O   UNL     1      31.174 -19.453  20.926  1.00  0.00    -0.502 OA
ATOM     21  H   UNL     1      30.713 -19.215  20.057  1.00  0.00     0.293 HD
ENDBRANCH   2  20
BRANCH   6  22
ATOM     22  O   UNL     1      30.737 -23.995  23.673  1.00  0.00    -0.507 OA
ATOM     23  H   UNL     1      30.802 -24.325  22.722  1.00  0.00     0.293 HD
ENDBRANCH   6  22
BRANCH   8  24
ATOM     24  O   UNL     1      27.279 -22.775  26.772  1.00  0.00    -0.508 OA
ATOM     25  H   UNL     1      27.025 -22.115  27.499  1.00  0.00     0.293 HD
ENDBRANCH   8  24
TORSDOF 5
ENDMDL
MODEL 6
REMARK VINA RESULT:    -5.663      1.898      6.936
REMARK INTER + INTRA:          -6.807
REMARK INTER:                  -6.520
REMARK INTRA:                  -0.287
REMARK UNBOUND:                -0.151
REMARK SMILES O=c1c(O)c(-c2ccc(O)cc2)oc2cc(O)cc(O)c12
REMARK SMILES IDX 5 1 3 2 2 3 1 4 21 5 19 6 18 7 16 8 15 9 14 10 13 11 6 12
REMARK SMILES IDX 7 13 8 14 9 15 12 16 11 17 10 18 4 20 20 22 17 24
REMARK H PARENT 10 19 4 21 20 23 17 25
REMARK Flexibility Score: inf
ROOT
ATOM      1  C   UNL     1      29.588 -18.392  23.644  1.00  0.00     0.180 A 
ATOM      2  C   UNL     1      29.881 -17.865  24.914  1.00  0.00     0.208 A 
ATOM      3  C   UNL     1      29.701 -16.491  25.140  1.00  0.00     0.238 A 
ATOM      4  O   UNL     1      29.912 -16.035  26.293  1.00  0.00    -0.285 OA
ATOM      5  C   UNL     1      29.247 -15.658  24.088  1.00  0.00     0.111 A 
ATOM      6  C   UNL     1      29.069 -14.246  24.193  1.00  0.00     0.134 A 
ATOM      7  C   UNL     1      28.491 -13.542  23.130  1.00  0.00     0.093 A 
ATOM      8  C   UNL     1      28.146 -14.189  21.940  1.00  0.00     0.123 A 
ATOM      9  C   UNL     1      28.371 -15.557  21.807  1.00  0.00     0.094 A 
ATOM     10  C   UNL     1      28.913 -16.293  22.864  1.00  0.00     0.146 A 
ATOM     11  O   UNL     1      29.101 -17.596  22.698  1.00  0.00    -0.452 OA
ENDROOT
BRANCH   1  12
ATOM     12  C   UNL     1      29.776 -19.825  23.322  1.00  0.00     0.021 A 
ATOM     13  C   UNL     1      28.764 -20.771  23.568  1.00  0.00     0.016 A 
ATOM     14  C   UNL     1      28.973 -22.122  23.278  1.00  0.00     0.047 A 
ATOM     15  C   UNL     1      30.200 -22.548  22.753  1.00  0.00     0.115 A 
ATOM     16  C   UNL     1      31.010 -20.264  22.815  1.00  0.00     0.016 A 
ATOM     17  C   UNL     1      31.217 -21.616  22.525  1.00  0.00     0.047 A 
BRANCH  15  18
ATOM     18  O   UNL     1      30.420 -23.892  22.460  1.00  0.00    -0.508 OA
ATOM     19  H   UNL     1      30.407 -24.600  23.184  1.00  0.00     0.293 HD
ENDBRANCH  15  18
ENDBRANCH   1  12
BRANCH   2  20
ATOM     20  O   UNL     1      30.306 -18.709  25.945  1.00  0.00    -0.502 OA
ATOM     21  H   UNL     1      31.281 -18.811  26.196  1.00  0.00     0.293 HD
ENDBRANCH   2  20
BRANCH   6  22
ATOM     22  O   UNL     1      29.464 -13.490  25.301  1.00  0.00    -0.507 OA
ATOM     23  H   UNL     1      29.452 -12.483  25.342  1.00  0.00     0.293 HD
ENDBRANCH   6  22
BRANCH   8  24
ATOM     24  O   UNL     1      27.586 -13.479  20.882  1.00  0.00    -0.508 OA
ATOM     25  H   UNL     1      28.082 -13.352  20.007  1.00  0.00     0.293 HD
ENDBRANCH   8  24
TORSDOF 5
ENDMDL
MODEL 7
REMARK VINA RESULT:    -5.594      5.974     10.628
REMARK INTER + INTRA:          -6.726
REMARK INTER:                  -6.539
REMARK INTRA:                  -0.186
REMARK UNBOUND:                -0.151
REMARK SMILES O=c1c(O)c(-c2ccc(O)cc2)oc2cc(O)cc(O)c12
REMARK SMILES IDX 5 1 3 2 2 3 1 4 21 5 19 6 18 7 16 8 15 9 14 10 13 11 6 12
REMARK SMILES IDX 7 13 8 14 9 15 12 16 11 17 10 18 4 20 20 22 17 24
REMARK H PARENT 10 19 4 21 20 23 17 25
REMARK Flexibility Score: inf
ROOT
ATOM      1  C   UNL     1      29.956 -11.845  22.931  1.00  0.00     0.180 A 
ATOM      2  C   UNL     1      30.798 -11.854  21.804  1.00  0.00     0.208 A 
ATOM      3  C   UNL     1      31.280 -10.633  21.305  1.00  0.00     0.238 A 
ATOM      4  O   UNL     1      32.076 -10.651  20.331  1.00  0.00    -0.285 OA
ATOM      5  C   UNL     1      30.903  -9.419  21.928  1.00  0.00     0.111 A 
ATOM      6  C   UNL     1      31.300  -8.123  21.482  1.00  0.00     0.134 A 
ATOM      7  C   UNL     1      30.975  -6.999  22.251  1.00  0.00     0.093 A 
ATOM      8  C   UNL     1      30.211  -7.118  23.415  1.00  0.00     0.123 A 
ATOM      9  C   UNL     1      29.769  -8.374  23.826  1.00  0.00     0.094 A 
ATOM     10  C   UNL     1      30.108  -9.518  23.099  1.00  0.00     0.146 A 
ATOM     11  O   UNL     1      29.674 -10.695  23.532  1.00  0.00    -0.452 OA
ENDROOT
BRANCH   1  12
ATOM     12  C   UNL     1      29.388 -13.089  23.500  1.00  0.00     0.021 A 
ATOM     13  C   UNL     1      28.439 -13.850  22.794  1.00  0.00     0.016 A 
ATOM     14  C   UNL     1      27.898 -15.008  23.361  1.00  0.00     0.047 A 
ATOM     15  C   UNL     1      28.288 -15.412  24.645  1.00  0.00     0.115 A 
ATOM     16  C   UNL     1      29.758 -13.489  24.794  1.00  0.00     0.016 A 
ATOM     17  C   UNL     1      29.216 -14.648  25.359  1.00  0.00     0.047 A 
BRANCH  15  18
ATOM     18  O   UNL     1      27.757 -16.564  25.220  1.00  0.00    -0.508 OA
ATOM     19  H   UNL     1      27.993 -16.840  26.166  1.00  0.00     0.293 HD
ENDBRANCH  15  18
ENDBRANCH   1  12
BRANCH   2  20
ATOM     20  O   UNL     1      31.176 -13.066  21.218  1.00  0.00    -0.502 OA
ATOM     21  H   UNL     1      30.773 -13.952  21.494  1.00  0.00     0.293 HD
ENDBRANCH   2  20
BRANCH   6  22
ATOM     22  O   UNL     1      31.986  -7.885  20.287  1.00  0.00    -0.507 OA
ATOM     23  H   UNL     1      32.728  -7.212  20.175  1.00  0.00     0.293 HD
ENDBRANCH   6  22
BRANCH   8  24
ATOM     24  O   UNL     1      29.879  -5.993  24.166  1.00  0.00    -0.508 OA
ATOM     25  H   UNL     1      29.714  -5.094  23.728  1.00  0.00     0.293 HD
ENDBRANCH   8  24
TORSDOF 5
ENDMDL
MODEL 8
REMARK VINA RESULT:    -5.545      1.787      6.687
REMARK INTER + INTRA:          -6.669
REMARK INTER:                  -6.381
REMARK INTRA:                  -0.288
REMARK UNBOUND:                -0.151
REMARK SMILES O=c1c(O)c(-c2ccc(O)cc2)oc2cc(O)cc(O)c12
REMARK SMILES IDX 5 1 3 2 2 3 1 4 21 5 19 6 18 7 16 8 15 9 14 10 13 11 6 12
REMARK SMILES IDX 7 13 8 14 9 15 12 16 11 17 10 18 4 20 20 22 17 24
REMARK H PARENT 10 19 4 21 20 23 17 25
REMARK Flexibility Score: inf
ROOT
ATOM      1  C   UNL     1      30.416 -18.296  22.680  1.00  0.00     0.180 A 
ATOM      2  C   UNL     1      30.119 -18.323  24.054  1.00  0.00     0.208 A 
ATOM      3  C   UNL     1      29.345 -17.287  24.604  1.00  0.00     0.238 A 
ATOM      4  O   UNL     1      29.036 -17.346  25.822  1.00  0.00    -0.285 OA
ATOM      5  C   UNL     1      28.892 -16.231  23.776  1.00  0.00     0.111 A 
ATOM      6  C   UNL     1      28.136 -15.111  24.235  1.00  0.00     0.134 A 
ATOM      7  C   UNL     1      27.630 -14.193  23.306  1.00  0.00     0.093 A 
ATOM      8  C   UNL     1      27.909 -14.319  21.943  1.00  0.00     0.123 A 
ATOM      9  C   UNL     1      28.696 -15.377  21.493  1.00  0.00     0.094 A 
ATOM     10  C   UNL     1      29.184 -16.329  22.391  1.00  0.00     0.146 A 
ATOM     11  O   UNL     1      29.921 -17.327  21.919  1.00  0.00    -0.452 OA
ENDROOT
BRANCH   1  12
ATOM     12  C   UNL     1      31.247 -19.337  22.033  1.00  0.00     0.021 A 
ATOM     13  C   UNL     1      32.631 -19.164  21.855  1.00  0.00     0.016 A 
ATOM     14  C   UNL     1      33.391 -20.152  21.220  1.00  0.00     0.047 A 
ATOM     15  C   UNL     1      32.776 -21.316  20.744  1.00  0.00     0.115 A 
ATOM     16  C   UNL     1      30.634 -20.499  21.534  1.00  0.00     0.016 A 
ATOM     17  C   UNL     1      31.397 -21.485  20.900  1.00  0.00     0.047 A 
BRANCH  15  18
ATOM     18  O   UNL     1      33.523 -22.307  20.110  1.00  0.00    -0.508 OA
ATOM     19  H   UNL     1      33.273 -22.651  19.190  1.00  0.00     0.293 HD
ENDBRANCH  15  18
ENDBRANCH   1  12
BRANCH   2  20
ATOM     20  O   UNL     1      30.556 -19.387  24.848  1.00  0.00    -0.502 OA
ATOM     21  H   UNL     1      30.957 -19.250  25.768  1.00  0.00     0.293 HD
ENDBRANCH   2  20
BRANCH   6  22
ATOM     22  O   UNL     1      27.879 -14.842  25.583  1.00  0.00    -0.507 OA
ATOM     23  H   UNL     1      27.047 -14.390  25.929  1.00  0.00     0.293 HD
ENDBRANCH   6  22
BRANCH   8  24
ATOM     24  O   UNL     1      27.415 -13.393  21.028  1.00  0.00    -0.508 OA
ATOM     25  H   UNL     1      26.441 -13.395  20.744  1.00  0.00     0.293 HD
ENDBRANCH   8  24
TORSDOF 5
ENDMDL
MODEL 9
REMARK VINA RESULT:    -5.466      5.611      8.470
REMARK INTER + INTRA:          -6.575
REMARK INTER:                  -6.477
REMARK INTRA:                  -0.098
REMARK UNBOUND:                -0.151
REMARK SMILES O=c1c(O)c(-c2ccc(O)cc2)oc2cc(O)cc(O)c12
REMARK SMILES IDX 5 1 3 2 2 3 1 4 21 5 19 6 18 7 16 8 15 9 14 10 13 11 6 12
REMARK SMILES IDX 7 13 8 14 9 15 12 16 11 17 10 18 4 20 20 22 17 24
REMARK H PARENT 10 19 4 21 20 23 17 25
REMARK Flexibility Score: inf
ROOT
ATOM      1  C   UNL     1      30.457 -11.031  22.149  1.00  0.00     0.180 A 
ATOM      2  C   UNL     1      30.469 -11.248  23.539  1.00  0.00     0.208 A 
ATOM      3  C   UNL     1      29.916 -12.435  24.047  1.00  0.00     0.238 A 
ATOM      4  O   UNL     1      29.979 -12.648  25.286  1.00  0.00    -0.285 OA
ATOM      5  C   UNL     1      29.345 -13.381  23.163  1.00  0.00     0.111 A 
ATOM      6  C   UNL     1      28.721 -14.598  23.572  1.00  0.00     0.134 A 
ATOM      7  C   UNL     1      28.306 -15.520  22.603  1.00  0.00     0.093 A 
ATOM      8  C   UNL     1      28.432 -15.240  21.240  1.00  0.00     0.123 A 
ATOM      9  C   UNL     1      28.986 -14.029  20.832  1.00  0.00     0.094 A 
ATOM     10  C   UNL     1      29.442 -13.104  21.775  1.00  0.00     0.146 A 
ATOM     11  O   UNL     1      29.973 -11.967  21.342  1.00  0.00    -0.452 OA
ENDROOT
BRANCH   1  12
ATOM     12  C   UNL     1      30.997  -9.793  21.541  1.00  0.00     0.021 A 
ATOM     13  C   UNL     1      30.491  -8.526  21.884  1.00  0.00     0.016 A 
ATOM     14  C   UNL     1      31.001  -7.374  21.278  1.00  0.00     0.047 A 
ATOM     15  C   UNL     1      32.012  -7.474  20.313  1.00  0.00     0.115 A 
ATOM     16  C   UNL     1      31.996  -9.886  20.557  1.00  0.00     0.016 A 
ATOM     17  C   UNL     1      32.504  -8.732  19.954  1.00  0.00     0.047 A 
BRANCH  15  18
ATOM     18  O   UNL     1      32.527  -6.333  19.703  1.00  0.00    -0.508 OA
ATOM     19  H   UNL     1      33.264  -6.391  19.010  1.00  0.00     0.293 HD
ENDBRANCH  15  18
ENDBRANCH   1  12
BRANCH   2  20
ATOM     20  O   UNL     1      31.058 -10.311  24.392  1.00  0.00    -0.502 OA
ATOM     21  H   UNL     1      30.803 -10.228  25.368  1.00  0.00     0.293 HD
ENDBRANCH   2  20
BRANCH   6  22
ATOM     22  O   UNL     1      28.464 -14.934  24.905  1.00  0.00    -0.507 OA
ATOM     23  H   UNL     1      28.871 -14.472  25.702  1.00  0.00     0.293 HD
ENDBRANCH   6  22
BRANCH   8  24
ATOM     24  O   UNL     1      28.003 -16.157  20.284  1.00  0.00    -0.508 OA
ATOM     25  H   UNL     1      28.192 -16.021  19.297  1.00  0.00     0.293 HD
ENDBRANCH   8  24
TORSDOF 5
ENDMDL
