MODEL 1
REMARK VINA RESULT:    -3.462      0.000      0.000
REMARK INTER + INTRA:          -4.167
REMARK INTER:                  -4.069
REMARK INTRA:                  -0.097
REMARK UNBOUND:                -0.097
REMARK SMILES CCCCC(=O)[O-]
REMARK SMILES IDX 4 1 5 2 6 3 7 4 3 5 2 6 1 7
REMARK H PARENT
REMARK Flexibility Score: inf
ROOT
ATOM      1  C   UNL     1      15.082  13.955   4.037  1.00  0.00     0.053 C 
ENDROOT
BRANCH   1   2
ATOM      2  C   UNL     1      16.248  13.427   3.260  1.00  0.00     0.041 C 
ATOM      3  O   UNL     1      16.063  12.768   2.204  1.00  0.00    -0.550 OA
ATOM      4  O   UNL     1      17.543  13.639   3.719  1.00  0.00    -0.550 OA
ENDBRANCH   1   2
BRANCH   1   5
ATOM      5  C   UNL     1      14.503  12.919   5.017  1.00  0.00     0.006 C 
BRANCH   5   6
ATOM      6  C   UNL     1      13.370  12.064   4.424  1.00  0.00    -0.003 C 
ATOM      7  C   UNL     1      12.636  12.751   3.273  1.00  0.00     0.004 C 
ENDBRANCH   5   6
ENDBRANCH   1   5
TORSDOF 3
ENDMDL
MODEL 2
REMARK VINA RESULT:    -3.462      7.197      8.233
REMARK INTER + INTRA:          -4.166
REMARK INTER:                  -4.150
REMARK INTRA:                  -0.016
REMARK UNBOUND:                -0.097
REMARK SMILES CCCCC(=O)[O-]
REMARK SMILES IDX 4 1 5 2 6 3 7 4 3 5 2 6 1 7
REMARK H PARENT
REMARK Flexibility Score: inf
ROOT
ATOM      1  C   UNL     1       8.664  11.473   6.993  1.00  0.00     0.053 C 
ENDROOT
BRANCH   1   2
ATOM      2  C   UNL     1       7.242  11.721   7.391  1.00  0.00     0.041 C 
ATOM      3  O   UNL     1       6.488  12.415   6.659  1.00  0.00    -0.550 OA
ATOM      4  O   UNL     1       6.755  11.209   8.588  1.00  0.00    -0.550 OA
ENDBRANCH   1   2
BRANCH   1   5
ATOM      5  C   UNL     1       8.791  10.889   5.575  1.00  0.00     0.006 C 
BRANCH   5   6
ATOM      6  C   UNL     1      10.103  10.121   5.332  1.00  0.00    -0.003 C 
ATOM      7  C   UNL     1      11.067  10.854   4.399  1.00  0.00     0.004 C 
ENDBRANCH   5   6
ENDBRANCH   1   5
TORSDOF 3
ENDMDL
MODEL 3
REMARK VINA RESULT:    -3.426      7.449      8.339
REMARK INTER + INTRA:          -4.124
REMARK INTER:                  -4.071
REMARK INTRA:                  -0.053
REMARK UNBOUND:                -0.097
REMARK SMILES CCCCC(=O)[O-]
REMARK SMILES IDX 4 1 5 2 6 3 7 4 3 5 2 6 1 7
REMARK H PARENT
REMARK Flexibility Score: inf
ROOT
ATOM      1  C   UNL     1       8.780  12.028   7.497  1.00  0.00     0.053 C 
ENDROOT
BRANCH   1   2
ATOM      2  C   UNL     1       7.300  11.822   7.602  1.00  0.00     0.041 C 
ATOM      3  O   UNL     1       6.809  11.233   8.600  1.00  0.00    -0.550 OA
ATOM      4  O   UNL     1       6.463  12.257   6.580  1.00  0.00    -0.550 OA
ENDBRANCH   1   2
BRANCH   1   5
ATOM      5  C   UNL     1       9.513  10.795   6.941  1.00  0.00     0.006 C 
BRANCH   5   6
ATOM      6  C   UNL     1       9.354  10.608   5.421  1.00  0.00    -0.003 C 
ATOM      7  C   UNL     1      10.475   9.779   4.796  1.00  0.00     0.004 C 
ENDBRANCH   5   6
ENDBRANCH   1   5
TORSDOF 3
ENDMDL
MODEL 4
REMARK VINA RESULT:    -3.365      1.848      2.346
REMARK INTER + INTRA:          -4.053
REMARK INTER:                  -4.016
REMARK INTRA:                  -0.037
REMARK UNBOUND:                -0.097
REMARK SMILES CCCCC(=O)[O-]
REMARK SMILES IDX 4 1 5 2 6 3 7 4 3 5 2 6 1 7
REMARK H PARENT
REMARK Flexibility Score: inf
ROOT
ATOM      1  C   UNL     1      15.526  13.125   2.477  1.00  0.00     0.053 C 
ENDROOT
BRANCH   1   2
ATOM      2  C   UNL     1      16.330  13.363   3.718  1.00  0.00     0.041 C 
ATOM      3  O   UNL     1      15.830  13.139   4.852  1.00  0.00    -0.550 OA
ATOM      4  O   UNL     1      17.624  13.861   3.625  1.00  0.00    -0.550 OA
ENDBRANCH   1   2
BRANCH   1   5
ATOM      5  C   UNL     1      14.011  13.120   2.743  1.00  0.00     0.006 C 
BRANCH   5   6
ATOM      6  C   UNL     1      13.162  13.509   1.519  1.00  0.00    -0.003 C 
ATOM      7  C   UNL     1      13.835  14.549   0.625  1.00  0.00     0.004 C 
ENDBRANCH   5   6
ENDBRANCH   1   5
TORSDOF 3
ENDMDL
MODEL 5
REMARK VINA RESULT:    -3.306      1.390      1.756
REMARK INTER + INTRA:          -3.983
REMARK INTER:                  -3.954
REMARK INTRA:                  -0.030
REMARK UNBOUND:                -0.097
REMARK SMILES CCCCC(=O)[O-]
REMARK SMILES IDX 4 1 5 2 6 3 7 4 3 5 2 6 1 7
REMARK H PARENT
REMARK Flexibility Score: inf
ROOT
ATOM      1  C   UNL     1      15.583  13.164   2.553  1.00  0.00     0.053 C 
ENDROOT
BRANCH   1   2
ATOM      2  C   UNL     1      16.551  14.136   3.153  1.00  0.00     0.041 C 
ATOM      3  O   UNL     1      17.684  13.748   3.542  1.00  0.00    -0.550 OA
ATOM      4  O   UNL     1      16.192  15.469   3.310  1.00  0.00    -0.550 OA
ENDBRANCH   1   2
BRANCH   1   5
ATOM      5  C   UNL     1      14.377  12.886   3.467  1.00  0.00     0.006 C 
BRANCH   5   6
ATOM      6  C   UNL     1      13.016  13.009   2.757  1.00  0.00    -0.003 C 
ATOM      7  C   UNL     1      11.962  12.049   3.306  1.00  0.00     0.004 C 
ENDBRANCH   5   6
ENDBRANCH   1   5
TORSDOF 3
ENDMDL
MODEL 6
REMARK VINA RESULT:    -3.266     13.326     13.739
REMARK INTER + INTRA:          -3.936
REMARK INTER:                  -3.916
REMARK INTRA:                  -0.020
REMARK UNBOUND:                -0.097
REMARK SMILES CCCCC(=O)[O-]
REMARK SMILES IDX 4 1 5 2 6 3 7 4 3 5 2 6 1 7
REMARK H PARENT
REMARK Flexibility Score: inf
ROOT
ATOM      1  C   UNL     1       9.413  24.483   6.783  1.00  0.00     0.053 C 
ENDROOT
BRANCH   1   2
ATOM      2  C   UNL     1      10.763  25.127   6.863  1.00  0.00     0.041 C 
ATOM      3  O   UNL     1      11.180  25.850   5.921  1.00  0.00    -0.550 OA
ATOM      4  O   UNL     1      11.575  24.904   7.969  1.00  0.00    -0.550 OA
ENDBRANCH   1   2
BRANCH   1   5
ATOM      5  C   UNL     1       8.347  25.412   6.176  1.00  0.00     0.006 C 
BRANCH   5   6
ATOM      6  C   UNL     1       7.052  24.689   5.765  1.00  0.00    -0.003 C 
ATOM      7  C   UNL     1       6.225  25.468   4.743  1.00  0.00     0.004 C 
ENDBRANCH   5   6
ENDBRANCH   1   5
TORSDOF 3
ENDMDL
MODEL 7
REMARK VINA RESULT:    -3.199      3.391      4.155
REMARK INTER + INTRA:          -3.858
REMARK INTER:                  -3.748
REMARK INTRA:                  -0.110
REMARK UNBOUND:                -0.097
REMARK SMILES CCCCC(=O)[O-]
REMARK SMILES IDX 4 1 5 2 6 3 7 4 3 5 2 6 1 7
REMARK H PARENT
REMARK Flexibility Score: inf
ROOT
ATOM      1  C   UNL     1      12.456  11.680   4.063  1.00  0.00     0.053 C 
ENDROOT
BRANCH   1   2
ATOM      2  C   UNL     1      12.959  12.511   5.203  1.00  0.00     0.041 C 
ATOM      3  O   UNL     1      12.153  13.000   6.038  1.00  0.00    -0.550 OA
ATOM      4  O   UNL     1      14.318  12.773   5.327  1.00  0.00    -0.550 OA
ENDBRANCH   1   2
BRANCH   1   5
ATOM      5  C   UNL     1      10.934  11.464   4.111  1.00  0.00     0.006 C 
BRANCH   5   6
ATOM      6  C   UNL     1      10.514  10.114   4.720  1.00  0.00    -0.003 C 
ATOM      7  C   UNL     1       9.892  10.247   6.110  1.00  0.00     0.004 C 
ENDBRANCH   5   6
ENDBRANCH   1   5
TORSDOF 3
ENDMDL
MODEL 8
REMARK VINA RESULT:    -3.126      2.775      3.553
REMARK INTER + INTRA:          -3.772
REMARK INTER:                  -3.726
REMARK INTRA:                  -0.046
REMARK UNBOUND:                -0.097
REMARK SMILES CCCCC(=O)[O-]
REMARK SMILES IDX 4 1 5 2 6 3 7 4 3 5 2 6 1 7
REMARK H PARENT
REMARK Flexibility Score: inf
ROOT
ATOM      1  C   UNL     1      15.625  15.236   3.021  1.00  0.00     0.053 C 
ENDROOT
BRANCH   1   2
ATOM      2  C   UNL     1      16.442  13.981   2.989  1.00  0.00     0.041 C 
ATOM      3  O   UNL     1      16.028  12.968   2.367  1.00  0.00    -0.550 OA
ATOM      4  O   UNL     1      17.650  13.920   3.673  1.00  0.00    -0.550 OA
ENDBRANCH   1   2
BRANCH   1   5
ATOM      5  C   UNL     1      15.731  16.048   1.718  1.00  0.00     0.006 C 
BRANCH   5   6
ATOM      6  C   UNL     1      14.603  15.761   0.711  1.00  0.00    -0.003 C 
ATOM      7  C   UNL     1      14.823  16.428  -0.646  1.00  0.00     0.004 C 
ENDBRANCH   5   6
ENDBRANCH   1   5
TORSDOF 3
ENDMDL
MODEL 9
REMARK VINA RESULT:    -3.066      6.434      7.516
REMARK INTER + INTRA:          -3.701
REMARK INTER:                  -3.651
REMARK INTRA:                  -0.050
REMARK UNBOUND:                -0.097
REMARK SMILES CCCCC(=O)[O-]
REMARK SMILES IDX 4 1 5 2 6 3 7 4 3 5 2 6 1 7
REMARK H PARENT
REMARK Flexibility Score: inf
ROOT
ATOM      1  C   UNL     1       8.216  11.805   4.778  1.00  0.00     0.053 C 
ENDROOT
BRANCH   1   2
ATOM      2  C   UNL     1       7.554  12.585   5.872  1.00  0.00     0.041 C 
ATOM      3  O   UNL     1       6.590  12.089   6.513  1.00  0.00    -0.550 OA
ATOM      4  O   UNL     1       7.982  13.874   6.166  1.00  0.00    -0.550 OA
ENDBRANCH   1   2
BRANCH   1   5
ATOM      5  C   UNL     1       9.728  12.077   4.686  1.00  0.00     0.006 C 
BRANCH   5   6
ATOM      6  C   UNL     1      10.584  10.804   4.559  1.00  0.00    -0.003 C 
ATOM      7  C   UNL     1      10.084   9.652   5.430  1.00  0.00     0.004 C 
ENDBRANCH   5   6
ENDBRANCH   1   5
TORSDOF 3
ENDMDL
