MODEL 1
REMARK VINA RESULT:    -3.948      0.000      0.000
REMARK INTER + INTRA:          -4.547
REMARK INTER:                  -4.294
REMARK INTRA:                  -0.253
REMARK UNBOUND:                -0.253
REMARK SMILES O=C([O-])c1ccccc1O
REMARK SMILES IDX 4 1 9 2 5 3 8 4 6 5 7 6 2 7 1 8 3 9 10 10
REMARK H PARENT 10 11
REMARK Flexibility Score: inf
ROOT
ATOM      1  C   UNL     1     -24.917  13.676 -25.512  1.00  0.00     0.039 A 
ATOM      2  C   UNL     1     -24.219  13.389 -24.314  1.00  0.00     0.124 A 
ATOM      3  C   UNL     1     -24.375  14.623 -26.403  1.00  0.00     0.014 A 
ATOM      4  C   UNL     1     -23.010  14.046 -24.035  1.00  0.00     0.047 A 
ATOM      5  C   UNL     1     -23.171  15.268 -26.113  1.00  0.00     0.001 A 
ATOM      6  C   UNL     1     -22.490  14.980 -24.930  1.00  0.00     0.004 A 
ENDROOT
BRANCH   1   7
ATOM      7  C   UNL     1     -26.200  13.010 -25.853  1.00  0.00     0.075 C 
ATOM      8  O   UNL     1     -26.372  12.466 -26.976  1.00  0.00    -0.545 OA
ATOM      9  O   UNL     1     -27.240  12.977 -24.930  1.00  0.00    -0.545 OA
ENDBRANCH   1   7
BRANCH   2  10
ATOM     10  O   UNL     1     -24.719  12.459 -23.403  1.00  0.00    -0.507 OA
ATOM     11  H   UNL     1     -24.154  11.687 -23.066  1.00  0.00     0.293 HD
ENDBRANCH   2  10
TORSDOF 2
ENDMDL
MODEL 2
REMARK VINA RESULT:    -3.895     11.828     12.897
REMARK INTER + INTRA:          -4.489
REMARK INTER:                  -4.236
REMARK INTRA:                  -0.253
REMARK UNBOUND:                -0.253
REMARK SMILES O=C([O-])c1ccccc1O
REMARK SMILES IDX 4 1 9 2 5 3 8 4 6 5 7 6 2 7 1 8 3 9 10 10
REMARK H PARENT 10 11
REMARK Flexibility Score: inf
ROOT
ATOM      1  C   UNL     1     -12.978  14.337 -20.723  1.00  0.00     0.039 A 
ATOM      2  C   UNL     1     -12.543  15.113 -19.621  1.00  0.00     0.124 A 
ATOM      3  C   UNL     1     -13.413  14.997 -21.888  1.00  0.00     0.014 A 
ATOM      4  C   UNL     1     -12.553  16.514 -19.706  1.00  0.00     0.047 A 
ATOM      5  C   UNL     1     -13.416  16.392 -21.959  1.00  0.00     0.001 A 
ATOM      6  C   UNL     1     -12.987  17.149 -20.869  1.00  0.00     0.004 A 
ENDROOT
BRANCH   1   7
ATOM      7  C   UNL     1     -12.987  12.853 -20.683  1.00  0.00     0.075 C 
ATOM      8  O   UNL     1     -13.965  12.196 -21.129  1.00  0.00    -0.545 OA
ATOM      9  O   UNL     1     -11.907  12.159 -20.149  1.00  0.00    -0.545 OA
ENDBRANCH   1   7
BRANCH   2  10
ATOM     10  O   UNL     1     -12.104  14.502 -18.447  1.00  0.00    -0.507 OA
ATOM     11  H   UNL     1     -11.592  15.015 -17.738  1.00  0.00     0.293 HD
ENDBRANCH   2  10
TORSDOF 2
ENDMDL
MODEL 3
REMARK VINA RESULT:    -3.878     11.239     13.029
REMARK INTER + INTRA:          -4.471
REMARK INTER:                  -4.217
REMARK INTRA:                  -0.254
REMARK UNBOUND:                -0.253
REMARK SMILES O=C([O-])c1ccccc1O
REMARK SMILES IDX 4 1 9 2 5 3 8 4 6 5 7 6 2 7 1 8 3 9 10 10
REMARK H PARENT 10 11
REMARK Flexibility Score: inf
ROOT
ATOM      1  C   UNL     1     -12.971  14.728 -20.249  1.00  0.00     0.039 A 
ATOM      2  C   UNL     1     -13.923  14.520 -21.278  1.00  0.00     0.124 A 
ATOM      3  C   UNL     1     -12.249  13.624 -19.759  1.00  0.00     0.014 A 
ATOM      4  C   UNL     1     -14.131  13.228 -21.786  1.00  0.00     0.047 A 
ATOM      5  C   UNL     1     -12.466  12.343 -20.274  1.00  0.00     0.001 A 
ATOM      6  C   UNL     1     -13.406  12.146 -21.286  1.00  0.00     0.004 A 
ENDROOT
BRANCH   1   7
ATOM      7  C   UNL     1     -12.715  16.075 -19.678  1.00  0.00     0.075 C 
ATOM      8  O   UNL     1     -12.697  16.260 -18.432  1.00  0.00    -0.545 OA
ATOM      9  O   UNL     1     -12.490  17.161 -20.516  1.00  0.00    -0.545 OA
ENDBRANCH   1   7
BRANCH   2  10
ATOM     10  O   UNL     1     -14.661  15.585 -21.794  1.00  0.00    -0.507 OA
ATOM     11  H   UNL     1     -14.251  16.257 -22.433  1.00  0.00     0.293 HD
ENDBRANCH   2  10
TORSDOF 2
ENDMDL
MODEL 4
REMARK VINA RESULT:    -3.856     11.198     12.634
REMARK INTER + INTRA:          -4.447
REMARK INTER:                  -4.197
REMARK INTRA:                  -0.250
REMARK UNBOUND:                -0.253
REMARK SMILES O=C([O-])c1ccccc1O
REMARK SMILES IDX 4 1 9 2 5 3 8 4 6 5 7 6 2 7 1 8 3 9 10 10
REMARK H PARENT 10 11
REMARK Flexibility Score: inf
ROOT
ATOM      1  C   UNL     1     -13.521  14.736 -20.805  1.00  0.00     0.039 A 
ATOM      2  C   UNL     1     -12.514  14.696 -19.810  1.00  0.00     0.124 A 
ATOM      3  C   UNL     1     -13.861  13.545 -21.475  1.00  0.00     0.014 A 
ATOM      4  C   UNL     1     -11.876  13.482 -19.511  1.00  0.00     0.047 A 
ATOM      5  C   UNL     1     -13.217  12.344 -21.167  1.00  0.00     0.001 A 
ATOM      6  C   UNL     1     -12.226  12.313 -20.186  1.00  0.00     0.004 A 
ENDROOT
BRANCH   1   7
ATOM      7  C   UNL     1     -14.226  15.994 -21.159  1.00  0.00     0.075 C 
ATOM      8  O   UNL     1     -13.592  17.067 -21.338  1.00  0.00    -0.545 OA
ATOM      9  O   UNL     1     -15.610  16.006 -21.299  1.00  0.00    -0.545 OA
ENDBRANCH   1   7
BRANCH   2  10
ATOM     10  O   UNL     1     -12.146  15.851 -19.121  1.00  0.00    -0.507 OA
ATOM     11  H   UNL     1     -11.224  16.261 -19.222  1.00  0.00     0.293 HD
ENDBRANCH   2  10
TORSDOF 2
ENDMDL
MODEL 5
REMARK VINA RESULT:    -3.833      3.528      4.382
REMARK INTER + INTRA:          -4.423
REMARK INTER:                  -4.186
REMARK INTRA:                  -0.236
REMARK UNBOUND:                -0.253
REMARK SMILES O=C([O-])c1ccccc1O
REMARK SMILES IDX 4 1 9 2 5 3 8 4 6 5 7 6 2 7 1 8 3 9 10 10
REMARK H PARENT 10 11
REMARK Flexibility Score: inf
ROOT
ATOM      1  C   UNL     1     -24.669  12.236 -27.787  1.00  0.00     0.039 A 
ATOM      2  C   UNL     1     -23.349  11.873 -28.152  1.00  0.00     0.124 A 
ATOM      3  C   UNL     1     -25.710  12.028 -28.712  1.00  0.00     0.014 A 
ATOM      4  C   UNL     1     -23.102  11.318 -29.417  1.00  0.00     0.047 A 
ATOM      5  C   UNL     1     -25.449  11.474 -29.967  1.00  0.00     0.001 A 
ATOM      6  C   UNL     1     -24.146  11.120 -30.319  1.00  0.00     0.004 A 
ENDROOT
BRANCH   1   7
ATOM      7  C   UNL     1     -24.983  12.828 -26.461  1.00  0.00     0.075 C 
ATOM      8  O   UNL     1     -26.080  12.595 -25.888  1.00  0.00    -0.545 OA
ATOM      9  O   UNL     1     -24.063  13.656 -25.828  1.00  0.00    -0.545 OA
ENDBRANCH   1   7
BRANCH   2  10
ATOM     10  O   UNL     1     -22.287  12.062 -27.267  1.00  0.00    -0.507 OA
ATOM     11  H   UNL     1     -22.392  12.604 -26.417  1.00  0.00     0.293 HD
ENDBRANCH   2  10
TORSDOF 2
ENDMDL
MODEL 6
REMARK VINA RESULT:    -3.832      8.779     10.160
REMARK INTER + INTRA:          -4.421
REMARK INTER:                  -4.182
REMARK INTRA:                  -0.238
REMARK UNBOUND:                -0.253
REMARK SMILES O=C([O-])c1ccccc1O
REMARK SMILES IDX 4 1 9 2 5 3 8 4 6 5 7 6 2 7 1 8 3 9 10 10
REMARK H PARENT 10 11
REMARK Flexibility Score: inf
ROOT
ATOM      1  C   UNL     1     -28.877  14.071 -33.934  1.00  0.00     0.039 A 
ATOM      2  C   UNL     1     -28.900  15.142 -34.861  1.00  0.00     0.124 A 
ATOM      3  C   UNL     1     -28.738  14.362 -32.564  1.00  0.00     0.014 A 
ATOM      4  C   UNL     1     -28.783  16.463 -34.404  1.00  0.00     0.047 A 
ATOM      5  C   UNL     1     -28.622  15.683 -32.124  1.00  0.00     0.001 A 
ATOM      6  C   UNL     1     -28.645  16.732 -33.043  1.00  0.00     0.004 A 
ENDROOT
BRANCH   1   7
ATOM      7  C   UNL     1     -28.997  12.655 -34.366  1.00  0.00     0.075 C 
ATOM      8  O   UNL     1     -30.003  12.253 -35.009  1.00  0.00    -0.545 OA
ATOM      9  O   UNL     1     -27.991  11.743 -34.065  1.00  0.00    -0.545 OA
ENDBRANCH   1   7
BRANCH   2  10
ATOM     10  O   UNL     1     -29.037  14.899 -36.228  1.00  0.00    -0.507 OA
ATOM     11  H   UNL     1     -28.835  13.991 -36.631  1.00  0.00     0.293 HD
ENDBRANCH   2  10
TORSDOF 2
ENDMDL
MODEL 7
REMARK VINA RESULT:    -3.821     11.431     12.581
REMARK INTER + INTRA:          -4.409
REMARK INTER:                  -4.166
REMARK INTRA:                  -0.242
REMARK UNBOUND:                -0.253
REMARK SMILES O=C([O-])c1ccccc1O
REMARK SMILES IDX 4 1 9 2 5 3 8 4 6 5 7 6 2 7 1 8 3 9 10 10
REMARK H PARENT 10 11
REMARK Flexibility Score: inf
ROOT
ATOM      1  C   UNL     1     -12.974  13.260 -21.025  1.00  0.00     0.039 A 
ATOM      2  C   UNL     1     -13.742  14.357 -21.485  1.00  0.00     0.124 A 
ATOM      3  C   UNL     1     -12.231  13.402 -19.837  1.00  0.00     0.014 A 
ATOM      4  C   UNL     1     -13.751  15.558 -20.758  1.00  0.00     0.047 A 
ATOM      5  C   UNL     1     -12.250  14.603 -19.123  1.00  0.00     0.001 A 
ATOM      6  C   UNL     1     -13.008  15.679 -19.584  1.00  0.00     0.004 A 
ENDROOT
BRANCH   1   7
ATOM      7  C   UNL     1     -12.931  11.969 -21.757  1.00  0.00     0.075 C 
ATOM      8  O   UNL     1     -11.875  11.284 -21.807  1.00  0.00    -0.545 OA
ATOM      9  O   UNL     1     -14.066  11.492 -22.405  1.00  0.00    -0.545 OA
ENDBRANCH   1   7
BRANCH   2  10
ATOM     10  O   UNL     1     -14.493  14.261 -22.657  1.00  0.00    -0.507 OA
ATOM     11  H   UNL     1     -14.166  13.731 -23.457  1.00  0.00     0.293 HD
ENDBRANCH   2  10
TORSDOF 2
ENDMDL
MODEL 8
REMARK VINA RESULT:    -3.798     11.366     12.444
REMARK INTER + INTRA:          -4.384
REMARK INTER:                  -4.149
REMARK INTRA:                  -0.234
REMARK UNBOUND:                -0.253
REMARK SMILES O=C([O-])c1ccccc1O
REMARK SMILES IDX 4 1 9 2 5 3 8 4 6 5 7 6 2 7 1 8 3 9 10 10
REMARK H PARENT 10 11
REMARK Flexibility Score: inf
ROOT
ATOM      1  C   UNL     1     -13.357  13.916 -21.149  1.00  0.00     0.039 A 
ATOM      2  C   UNL     1     -12.524  13.503 -20.081  1.00  0.00     0.124 A 
ATOM      3  C   UNL     1     -13.766  15.262 -21.210  1.00  0.00     0.014 A 
ATOM      4  C   UNL     1     -12.123  14.432 -19.108  1.00  0.00     0.047 A 
ATOM      5  C   UNL     1     -13.359  16.176 -20.235  1.00  0.00     0.001 A 
ATOM      6  C   UNL     1     -12.539  15.761 -19.185  1.00  0.00     0.004 A 
ENDROOT
BRANCH   1   7
ATOM      7  C   UNL     1     -13.810  12.972 -22.203  1.00  0.00     0.075 C 
ATOM      8  O   UNL     1     -14.049  11.765 -21.936  1.00  0.00    -0.545 OA
ATOM      9  O   UNL     1     -13.976  13.411 -23.512  1.00  0.00    -0.545 OA
ENDBRANCH   1   7
BRANCH   2  10
ATOM     10  O   UNL     1     -12.095  12.179 -19.981  1.00  0.00    -0.507 OA
ATOM     11  H   UNL     1     -11.112  11.941 -19.923  1.00  0.00     0.293 HD
ENDBRANCH   2  10
TORSDOF 2
ENDMDL
MODEL 9
REMARK VINA RESULT:    -3.648     10.240     11.726
REMARK INTER + INTRA:          -4.221
REMARK INTER:                  -3.975
REMARK INTRA:                  -0.246
REMARK UNBOUND:                -0.253
REMARK SMILES O=C([O-])c1ccccc1O
REMARK SMILES IDX 4 1 9 2 5 3 8 4 6 5 7 6 2 7 1 8 3 9 10 10
REMARK H PARENT 10 11
REMARK Flexibility Score: inf
ROOT
ATOM      1  C   UNL     1     -13.907  13.646 -21.836  1.00  0.00     0.039 A 
ATOM      2  C   UNL     1     -13.699  12.427 -22.527  1.00  0.00     0.124 A 
ATOM      3  C   UNL     1     -13.081  13.954 -20.739  1.00  0.00     0.014 A 
ATOM      4  C   UNL     1     -12.683  11.553 -22.110  1.00  0.00     0.047 A 
ATOM      5  C   UNL     1     -12.073  13.075 -20.335  1.00  0.00     0.001 A 
ATOM      6  C   UNL     1     -11.875  11.876 -21.020  1.00  0.00     0.004 A 
ENDROOT
BRANCH   1   7
ATOM      7  C   UNL     1     -14.969  14.604 -22.237  1.00  0.00     0.075 C 
ATOM      8  O   UNL     1     -15.632  15.239 -21.375  1.00  0.00    -0.545 OA
ATOM      9  O   UNL     1     -15.250  14.817 -23.583  1.00  0.00    -0.545 OA
ENDBRANCH   1   7
BRANCH   2  10
ATOM     10  O   UNL     1     -14.494  12.081 -23.620  1.00  0.00    -0.507 OA
ATOM     11  H   UNL     1     -14.603  11.118 -23.916  1.00  0.00     0.293 HD
ENDBRANCH   2  10
TORSDOF 2
ENDMDL
