MODEL 1
REMARK VINA RESULT:    -3.712      0.000      0.000
REMARK INTER + INTRA:          -3.945
REMARK INTER:                  -3.929
REMARK INTRA:                  -0.016
REMARK UNBOUND:                -0.016
REMARK SMILES O=C([O-])c1cccnc1
REMARK SMILES IDX 4 1 5 2 9 3 6 4 8 5 7 6 2 7 1 8 3 9
REMARK H PARENT
REMARK Flexibility Score: inf
ROOT
ATOM      1  C   UNL     1      -5.478  -9.172 -15.615  1.00  0.00     0.016 A 
ATOM      2  C   UNL     1      -6.220  -9.097 -14.425  1.00  0.00     0.013 A 
ATOM      3  C   UNL     1      -5.544 -10.356 -16.370  1.00  0.00     0.120 A 
ATOM      4  C   UNL     1      -7.000 -10.180 -14.015  1.00  0.00     0.021 A 
ATOM      5  N   UNL     1      -6.312 -11.396 -15.948  1.00  0.00    -0.264 NA
ATOM      6  C   UNL     1      -7.034 -11.334 -14.798  1.00  0.00     0.111 A 
ENDROOT
BRANCH   1   7
ATOM      7  C   UNL     1      -4.645  -8.037 -16.067  1.00  0.00     0.073 C 
ATOM      8  O   UNL     1      -5.165  -7.061 -16.669  1.00  0.00    -0.545 OA
ATOM      9  O   UNL     1      -3.274  -8.032 -15.833  1.00  0.00    -0.545 OA
ENDBRANCH   1   7
TORSDOF 1
ENDMDL
MODEL 2
REMARK VINA RESULT:    -3.696     16.807     17.184
REMARK INTER + INTRA:          -3.928
REMARK INTER:                  -3.912
REMARK INTRA:                  -0.016
REMARK UNBOUND:                -0.016
REMARK SMILES O=C([O-])c1cccnc1
REMARK SMILES IDX 4 1 5 2 9 3 6 4 8 5 7 6 2 7 1 8 3 9
REMARK H PARENT
REMARK Flexibility Score: inf
ROOT
ATOM      1  C   UNL     1     -18.869  -1.146 -22.887  1.00  0.00     0.016 A 
ATOM      2  C   UNL     1     -19.658  -1.497 -21.780  1.00  0.00     0.013 A 
ATOM      3  C   UNL     1     -17.471  -1.148 -22.739  1.00  0.00     0.120 A 
ATOM      4  C   UNL     1     -19.054  -1.837 -20.568  1.00  0.00     0.021 A 
ATOM      5  N   UNL     1     -16.908  -1.485 -21.547  1.00  0.00    -0.264 NA
ATOM      6  C   UNL     1     -17.663  -1.826 -20.470  1.00  0.00     0.111 A 
ENDROOT
BRANCH   1   7
ATOM      7  C   UNL     1     -19.488  -0.781 -24.179  1.00  0.00     0.073 C 
ATOM      8  O   UNL     1     -19.888   0.394 -24.389  1.00  0.00    -0.545 OA
ATOM      9  O   UNL     1     -19.640  -1.733 -25.182  1.00  0.00    -0.545 OA
ENDBRANCH   1   7
TORSDOF 1
ENDMDL
MODEL 3
REMARK VINA RESULT:    -3.683      2.816      4.117
REMARK INTER + INTRA:          -3.915
REMARK INTER:                  -3.894
REMARK INTRA:                  -0.020
REMARK UNBOUND:                -0.016
REMARK SMILES O=C([O-])c1cccnc1
REMARK SMILES IDX 4 1 5 2 9 3 6 4 8 5 7 6 2 7 1 8 3 9
REMARK H PARENT
REMARK Flexibility Score: inf
ROOT
ATOM      1  C   UNL     1      -4.377  -8.370 -15.556  1.00  0.00     0.016 A 
ATOM      2  C   UNL     1      -4.962  -7.524 -16.513  1.00  0.00     0.013 A 
ATOM      3  C   UNL     1      -2.975  -8.411 -15.467  1.00  0.00     0.120 A 
ATOM      4  C   UNL     1      -4.156  -6.749 -17.349  1.00  0.00     0.021 A 
ATOM      5  N   UNL     1      -2.213  -7.644 -16.293  1.00  0.00    -0.264 NA
ATOM      6  C   UNL     1      -2.768  -6.823 -17.223  1.00  0.00     0.111 A 
ENDROOT
BRANCH   1   7
ATOM      7  C   UNL     1      -5.213  -9.200 -14.662  1.00  0.00     0.073 C 
ATOM      8  O   UNL     1      -6.273  -8.738 -14.164  1.00  0.00    -0.545 OA
ATOM      9  O   UNL     1      -4.838 -10.504 -14.357  1.00  0.00    -0.545 OA
ENDBRANCH   1   7
TORSDOF 1
ENDMDL
MODEL 4
REMARK VINA RESULT:    -3.672     18.253     18.674
REMARK INTER + INTRA:          -3.903
REMARK INTER:                  -3.880
REMARK INTRA:                  -0.023
REMARK UNBOUND:                -0.016
REMARK SMILES O=C([O-])c1cccnc1
REMARK SMILES IDX 4 1 5 2 9 3 6 4 8 5 7 6 2 7 1 8 3 9
REMARK H PARENT
REMARK Flexibility Score: inf
ROOT
ATOM      1  C   UNL     1     -18.720   1.205 -23.866  1.00  0.00     0.016 A 
ATOM      2  C   UNL     1     -17.542   0.588 -23.412  1.00  0.00     0.013 A 
ATOM      3  C   UNL     1     -19.892   0.433 -23.942  1.00  0.00     0.120 A 
ATOM      4  C   UNL     1     -17.552  -0.760 -23.048  1.00  0.00     0.021 A 
ATOM      5  N   UNL     1     -19.874  -0.878 -23.580  1.00  0.00    -0.264 NA
ATOM      6  C   UNL     1     -18.741  -1.485 -23.140  1.00  0.00     0.111 A 
ENDROOT
BRANCH   1   7
ATOM      7  C   UNL     1     -18.730   2.631 -24.257  1.00  0.00     0.073 C 
ATOM      8  O   UNL     1     -19.815   3.264 -24.339  1.00  0.00    -0.545 OA
ATOM      9  O   UNL     1     -17.540   3.293 -24.541  1.00  0.00    -0.545 OA
ENDBRANCH   1   7
TORSDOF 1
ENDMDL
MODEL 5
REMARK VINA RESULT:    -3.658      2.885      3.636
REMARK INTER + INTRA:          -3.888
REMARK INTER:                  -3.866
REMARK INTRA:                  -0.022
REMARK UNBOUND:                -0.016
REMARK SMILES O=C([O-])c1cccnc1
REMARK SMILES IDX 4 1 5 2 9 3 6 4 8 5 7 6 2 7 1 8 3 9
REMARK H PARENT
REMARK Flexibility Score: inf
ROOT
ATOM      1  C   UNL     1      -6.311 -10.082 -14.971  1.00  0.00     0.016 A 
ATOM      2  C   UNL     1      -5.935  -8.776 -14.616  1.00  0.00     0.013 A 
ATOM      3  C   UNL     1      -5.898 -10.581 -16.218  1.00  0.00     0.120 A 
ATOM      4  C   UNL     1      -5.171  -8.004 -15.492  1.00  0.00     0.021 A 
ATOM      5  N   UNL     1      -5.153  -9.808 -17.053  1.00  0.00    -0.264 NA
ATOM      6  C   UNL     1      -4.784  -8.543 -16.720  1.00  0.00     0.111 A 
ENDROOT
BRANCH   1   7
ATOM      7  C   UNL     1      -7.122 -10.916 -14.057  1.00  0.00     0.073 C 
ATOM      8  O   UNL     1      -7.856 -11.834 -14.509  1.00  0.00    -0.545 OA
ATOM      9  O   UNL     1      -7.086 -10.697 -12.684  1.00  0.00    -0.545 OA
ENDBRANCH   1   7
TORSDOF 1
ENDMDL
MODEL 6
REMARK VINA RESULT:    -3.624      0.918      1.495
REMARK INTER + INTRA:          -3.853
REMARK INTER:                  -3.836
REMARK INTRA:                  -0.016
REMARK UNBOUND:                -0.016
REMARK SMILES O=C([O-])c1cccnc1
REMARK SMILES IDX 4 1 5 2 9 3 6 4 8 5 7 6 2 7 1 8 3 9
REMARK H PARENT
REMARK Flexibility Score: inf
ROOT
ATOM      1  C   UNL     1      -4.863  -8.605 -16.139  1.00  0.00     0.016 A 
ATOM      2  C   UNL     1      -5.488  -8.300 -14.919  1.00  0.00     0.013 A 
ATOM      3  C   UNL     1      -5.136  -9.848 -16.737  1.00  0.00     0.120 A 
ATOM      4  C   UNL     1      -6.355  -9.219 -14.326  1.00  0.00     0.021 A 
ATOM      5  N   UNL     1      -5.986 -10.725 -16.139  1.00  0.00    -0.264 NA
ATOM      6  C   UNL     1      -6.596 -10.439 -14.957  1.00  0.00     0.111 A 
ENDROOT
BRANCH   1   7
ATOM      7  C   UNL     1      -3.940  -7.646 -16.783  1.00  0.00     0.073 C 
ATOM      8  O   UNL     1      -2.696  -7.739 -16.609  1.00  0.00    -0.545 OA
ATOM      9  O   UNL     1      -4.434  -6.626 -17.590  1.00  0.00    -0.545 OA
ENDBRANCH   1   7
TORSDOF 1
ENDMDL
MODEL 7
REMARK VINA RESULT:    -3.621     16.686     17.109
REMARK INTER + INTRA:          -3.849
REMARK INTER:                  -3.833
REMARK INTRA:                  -0.016
REMARK UNBOUND:                -0.016
REMARK SMILES O=C([O-])c1cccnc1
REMARK SMILES IDX 4 1 5 2 9 3 6 4 8 5 7 6 2 7 1 8 3 9
REMARK H PARENT
REMARK Flexibility Score: inf
ROOT
ATOM      1  C   UNL     1     -18.811  -1.229 -22.743  1.00  0.00     0.016 A 
ATOM      2  C   UNL     1     -17.423  -1.207 -22.531  1.00  0.00     0.013 A 
ATOM      3  C   UNL     1     -19.646  -1.589 -21.670  1.00  0.00     0.120 A 
ATOM      4  C   UNL     1     -16.899  -1.538 -21.280  1.00  0.00     0.021 A 
ATOM      5  N   UNL     1     -19.109  -1.906 -20.461  1.00  0.00    -0.264 NA
ATOM      6  C   UNL     1     -17.767  -1.888 -20.246  1.00  0.00     0.111 A 
ENDROOT
BRANCH   1   7
ATOM      7  C   UNL     1     -19.386  -0.882 -24.061  1.00  0.00     0.073 C 
ATOM      8  O   UNL     1     -19.482  -1.752 -24.966  1.00  0.00    -0.545 OA
ATOM      9  O   UNL     1     -19.829   0.411 -24.319  1.00  0.00    -0.545 OA
ENDBRANCH   1   7
TORSDOF 1
ENDMDL
MODEL 8
REMARK VINA RESULT:    -3.506     15.738     16.149
REMARK INTER + INTRA:          -3.727
REMARK INTER:                  -3.706
REMARK INTRA:                  -0.021
REMARK UNBOUND:                -0.016
REMARK SMILES O=C([O-])c1cccnc1
REMARK SMILES IDX 4 1 5 2 9 3 6 4 8 5 7 6 2 7 1 8 3 9
REMARK H PARENT
REMARK Flexibility Score: inf
ROOT
ATOM      1  C   UNL     1     -18.059  -1.295 -21.876  1.00  0.00     0.016 A 
ATOM      2  C   UNL     1     -16.861  -1.529 -21.180  1.00  0.00     0.013 A 
ATOM      3  C   UNL     1     -19.270  -1.654 -21.261  1.00  0.00     0.120 A 
ATOM      4  C   UNL     1     -16.890  -2.106 -19.910  1.00  0.00     0.021 A 
ATOM      5  N   UNL     1     -19.270  -2.215 -20.022  1.00  0.00    -0.264 NA
ATOM      6  C   UNL     1     -18.117  -2.446 -19.340  1.00  0.00     0.111 A 
ENDROOT
BRANCH   1   7
ATOM      7  C   UNL     1     -18.050  -0.685 -23.223  1.00  0.00     0.073 C 
ATOM      8  O   UNL     1     -17.181   0.173 -23.533  1.00  0.00    -0.545 OA
ATOM      9  O   UNL     1     -19.003  -1.050 -24.168  1.00  0.00    -0.545 OA
ENDBRANCH   1   7
TORSDOF 1
ENDMDL
MODEL 9
REMARK VINA RESULT:    -3.462      1.765      2.179
REMARK INTER + INTRA:          -3.681
REMARK INTER:                  -3.664
REMARK INTRA:                  -0.017
REMARK UNBOUND:                -0.016
REMARK SMILES O=C([O-])c1cccnc1
REMARK SMILES IDX 4 1 5 2 9 3 6 4 8 5 7 6 2 7 1 8 3 9
REMARK H PARENT
REMARK Flexibility Score: inf
ROOT
ATOM      1  C   UNL     1      -3.737  -8.953 -14.920  1.00  0.00     0.016 A 
ATOM      2  C   UNL     1      -4.940  -8.231 -14.861  1.00  0.00     0.013 A 
ATOM      3  C   UNL     1      -3.759 -10.319 -14.590  1.00  0.00     0.120 A 
ATOM      4  C   UNL     1      -6.122  -8.869 -14.480  1.00  0.00     0.021 A 
ATOM      5  N   UNL     1      -4.925 -10.916 -14.223  1.00  0.00    -0.264 NA
ATOM      6  C   UNL     1      -6.095 -10.227 -14.162  1.00  0.00     0.111 A 
ENDROOT
BRANCH   1   7
ATOM      7  C   UNL     1      -2.473  -8.295 -15.319  1.00  0.00     0.073 C 
ATOM      8  O   UNL     1      -2.267  -7.981 -16.521  1.00  0.00    -0.545 OA
ATOM      9  O   UNL     1      -1.494  -8.015 -14.372  1.00  0.00    -0.545 OA
ENDBRANCH   1   7
TORSDOF 1
ENDMDL
