MODEL 1
REMARK VINA RESULT:    -5.360      0.000      0.000
REMARK INTER + INTRA:          -5.360
REMARK INTER:                  -5.360
REMARK INTRA:                   0.000
REMARK UNBOUND:                 0.000
REMARK SMILES CC(C)=C1CC[C@@H](C)CC1=O
REMARK SMILES IDX 8 1 7 2 6 3 5 4 4 5 2 6 1 7 3 8 10 9 11 10 9 11
REMARK H PARENT
REMARK Flexibility Score: inf
ROOT
ATOM      1  C   UNL     1     -12.558 -20.013  31.558  1.00  0.00     0.008 C 
ATOM      2  C   UNL     1     -12.342 -18.745  30.726  1.00  0.00    -0.006 C 
ATOM      3  C   UNL     1     -13.247 -17.607  31.227  1.00  0.00     0.008 C 
ATOM      4  C   UNL     1     -12.969 -16.300  30.472  1.00  0.00     0.039 C 
ATOM      5  C   UNL     1     -13.032 -16.474  28.961  1.00  0.00    -0.006 C 
ATOM      6  C   UNL     1     -13.450 -15.461  28.146  1.00  0.00    -0.070 C 
ATOM      7  C   UNL     1     -13.570 -15.641  26.650  1.00  0.00     0.039 C 
ATOM      8  C   UNL     1     -13.851 -14.118  28.709  1.00  0.00     0.039 C 
ATOM      9  C   UNL     1     -12.503 -17.765  28.427  1.00  0.00     0.159 C 
ATOM     10  O   UNL     1     -11.947 -17.829  27.298  1.00  0.00    -0.295 OA
ATOM     11  C   UNL     1     -12.620 -19.021  29.240  1.00  0.00     0.084 C 
ENDROOT
TORSDOF 0
ENDMDL
MODEL 2
REMARK VINA RESULT:    -5.310      1.544      2.394
REMARK INTER + INTRA:          -5.310
REMARK INTER:                  -5.310
REMARK INTRA:                   0.000
REMARK UNBOUND:                 0.000
REMARK SMILES CC(C)=C1CC[C@@H](C)CC1=O
REMARK SMILES IDX 8 1 7 2 6 3 5 4 4 5 2 6 1 7 3 8 10 9 11 10 9 11
REMARK H PARENT
REMARK Flexibility Score: inf
ROOT
ATOM      1  C   UNL     1     -12.500 -20.406  31.536  1.00  0.00     0.008 C 
ATOM      2  C   UNL     1     -13.178 -19.279  30.749  1.00  0.00    -0.006 C 
ATOM      3  C   UNL     1     -12.902 -19.428  29.244  1.00  0.00     0.008 C 
ATOM      4  C   UNL     1     -13.657 -18.368  28.431  1.00  0.00     0.039 C 
ATOM      5  C   UNL     1     -13.400 -16.954  28.935  1.00  0.00    -0.006 C 
ATOM      6  C   UNL     1     -13.399 -15.886  28.083  1.00  0.00    -0.070 C 
ATOM      7  C   UNL     1     -13.090 -14.486  28.562  1.00  0.00     0.039 C 
ATOM      8  C   UNL     1     -13.670 -16.061  26.607  1.00  0.00     0.039 C 
ATOM      9  C   UNL     1     -13.269 -16.799  30.415  1.00  0.00     0.159 C 
ATOM     10  O   UNL     1     -13.647 -15.748  30.999  1.00  0.00    -0.295 OA
ATOM     11  C   UNL     1     -12.685 -17.909  31.239  1.00  0.00     0.084 C 
ENDROOT
TORSDOF 0
ENDMDL
MODEL 3
REMARK VINA RESULT:    -5.105      2.290      4.344
REMARK INTER + INTRA:          -5.105
REMARK INTER:                  -5.105
REMARK INTRA:                   0.000
REMARK UNBOUND:                 0.000
REMARK SMILES CC(C)=C1CC[C@@H](C)CC1=O
REMARK SMILES IDX 8 1 7 2 6 3 5 4 4 5 2 6 1 7 3 8 10 9 11 10 9 11
REMARK H PARENT
REMARK Flexibility Score: inf
ROOT
ATOM      1  C   UNL     1      -9.875 -14.375  29.573  1.00  0.00     0.008 C 
ATOM      2  C   UNL     1     -10.319 -15.831  29.391  1.00  0.00    -0.006 C 
ATOM      3  C   UNL     1     -11.687 -15.896  28.691  1.00  0.00     0.008 C 
ATOM      4  C   UNL     1     -12.100 -17.347  28.408  1.00  0.00     0.039 C 
ATOM      5  C   UNL     1     -12.036 -18.224  29.651  1.00  0.00    -0.006 C 
ATOM      6  C   UNL     1     -12.897 -19.270  29.826  1.00  0.00    -0.070 C 
ATOM      7  C   UNL     1     -12.880 -20.113  31.080  1.00  0.00     0.039 C 
ATOM      8  C   UNL     1     -13.937 -19.612  28.784  1.00  0.00     0.039 C 
ATOM      9  C   UNL     1     -10.913 -17.944  30.595  1.00  0.00     0.159 C 
ATOM     10  O   UNL     1     -10.381 -18.865  31.272  1.00  0.00    -0.295 OA
ATOM     11  C   UNL     1     -10.390 -16.546  30.749  1.00  0.00     0.084 C 
ENDROOT
TORSDOF 0
ENDMDL
MODEL 4
REMARK VINA RESULT:    -5.094      2.027      4.904
REMARK INTER + INTRA:          -5.094
REMARK INTER:                  -5.094
REMARK INTRA:                   0.000
REMARK UNBOUND:                 0.000
REMARK SMILES CC(C)=C1CC[C@@H](C)CC1=O
REMARK SMILES IDX 8 1 7 2 6 3 5 4 4 5 2 6 1 7 3 8 10 9 11 10 9 11
REMARK H PARENT
REMARK Flexibility Score: inf
ROOT
ATOM      1  C   UNL     1     -15.505 -12.138  28.993  1.00  0.00     0.008 C 
ATOM      2  C   UNL     1     -14.433 -13.211  29.207  1.00  0.00    -0.006 C 
ATOM      3  C   UNL     1     -14.363 -14.156  27.996  1.00  0.00     0.008 C 
ATOM      4  C   UNL     1     -13.225 -15.174  28.147  1.00  0.00     0.039 C 
ATOM      5  C   UNL     1     -13.286 -15.925  29.470  1.00  0.00    -0.006 C 
ATOM      6  C   UNL     1     -12.853 -17.216  29.575  1.00  0.00    -0.070 C 
ATOM      7  C   UNL     1     -12.961 -17.989  30.869  1.00  0.00     0.039 C 
ATOM      8  C   UNL     1     -12.278 -17.948  28.384  1.00  0.00     0.039 C 
ATOM      9  C   UNL     1     -13.733 -15.132  30.654  1.00  0.00     0.159 C 
ATOM     10  O   UNL     1     -13.291 -15.373  31.810  1.00  0.00    -0.295 OA
ATOM     11  C   UNL     1     -14.723 -14.017  30.483  1.00  0.00     0.084 C 
ENDROOT
TORSDOF 0
ENDMDL
MODEL 5
REMARK VINA RESULT:    -4.943      1.776      4.365
REMARK INTER + INTRA:          -4.943
REMARK INTER:                  -4.943
REMARK INTRA:                   0.000
REMARK UNBOUND:                 0.000
REMARK SMILES CC(C)=C1CC[C@@H](C)CC1=O
REMARK SMILES IDX 8 1 7 2 6 3 5 4 4 5 2 6 1 7 3 8 10 9 11 10 9 11
REMARK H PARENT
REMARK Flexibility Score: inf
ROOT
ATOM      1  C   UNL     1     -13.902 -15.865  26.437  1.00  0.00     0.008 C 
ATOM      2  C   UNL     1     -13.102 -16.911  27.220  1.00  0.00    -0.006 C 
ATOM      3  C   UNL     1     -13.995 -17.611  28.257  1.00  0.00     0.008 C 
ATOM      4  C   UNL     1     -13.237 -18.733  28.979  1.00  0.00     0.039 C 
ATOM      5  C   UNL     1     -11.917 -18.259  29.571  1.00  0.00    -0.006 C 
ATOM      6  C   UNL     1     -11.415 -18.807  30.717  1.00  0.00    -0.070 C 
ATOM      7  C   UNL     1     -10.135 -18.306  31.344  1.00  0.00     0.039 C 
ATOM      8  C   UNL     1     -12.140 -19.921  31.436  1.00  0.00     0.039 C 
ATOM      9  C   UNL     1     -11.162 -17.253  28.766  1.00  0.00     0.159 C 
ATOM     10  O   UNL     1      -9.901 -17.221  28.773  1.00  0.00    -0.295 OA
ATOM     11  C   UNL     1     -11.900 -16.257  27.920  1.00  0.00     0.084 C 
ENDROOT
TORSDOF 0
ENDMDL
MODEL 6
REMARK VINA RESULT:    -4.887      2.289      3.713
REMARK INTER + INTRA:          -4.887
REMARK INTER:                  -4.887
REMARK INTRA:                   0.000
REMARK UNBOUND:                 0.000
REMARK SMILES CC(C)=C1CC[C@@H](C)CC1=O
REMARK SMILES IDX 8 1 7 2 6 3 5 4 4 5 2 6 1 7 3 8 10 9 11 10 9 11
REMARK H PARENT
REMARK Flexibility Score: inf
ROOT
ATOM      1  C   UNL     1     -11.376 -17.353  27.295  1.00  0.00     0.008 C 
ATOM      2  C   UNL     1     -11.815 -16.307  28.325  1.00  0.00    -0.006 C 
ATOM      3  C   UNL     1     -12.034 -16.960  29.700  1.00  0.00     0.008 C 
ATOM      4  C   UNL     1     -12.374 -15.912  30.768  1.00  0.00     0.039 C 
ATOM      5  C   UNL     1     -13.533 -15.014  30.356  1.00  0.00    -0.006 C 
ATOM      6  C   UNL     1     -14.393 -14.496  31.282  1.00  0.00    -0.070 C 
ATOM      7  C   UNL     1     -15.579 -13.650  30.880  1.00  0.00     0.039 C 
ATOM      8  C   UNL     1     -14.221 -14.780  32.756  1.00  0.00     0.039 C 
ATOM      9  C   UNL     1     -13.595 -14.646  28.910  1.00  0.00     0.159 C 
ATOM     10  O   UNL     1     -14.051 -13.531  28.536  1.00  0.00    -0.295 OA
ATOM     11  C   UNL     1     -13.102 -15.605  27.867  1.00  0.00     0.084 C 
ENDROOT
TORSDOF 0
ENDMDL
MODEL 7
REMARK VINA RESULT:    -4.810      2.334      3.516
REMARK INTER + INTRA:          -4.810
REMARK INTER:                  -4.810
REMARK INTRA:                   0.000
REMARK UNBOUND:                 0.000
REMARK SMILES CC(C)=C1CC[C@@H](C)CC1=O
REMARK SMILES IDX 8 1 7 2 6 3 5 4 4 5 2 6 1 7 3 8 10 9 11 10 9 11
REMARK H PARENT
REMARK Flexibility Score: inf
ROOT
ATOM      1  C   UNL     1     -10.049 -17.347  28.920  1.00  0.00     0.008 C 
ATOM      2  C   UNL     1     -11.477 -16.835  29.133  1.00  0.00    -0.006 C 
ATOM      3  C   UNL     1     -11.619 -15.394  28.615  1.00  0.00     0.008 C 
ATOM      4  C   UNL     1     -13.068 -14.901  28.726  1.00  0.00     0.039 C 
ATOM      5  C   UNL     1     -13.638 -15.077  30.127  1.00  0.00    -0.006 C 
ATOM      6  C   UNL     1     -14.562 -14.207  30.632  1.00  0.00    -0.070 C 
ATOM      7  C   UNL     1     -15.093 -14.339  32.040  1.00  0.00     0.039 C 
ATOM      8  C   UNL     1     -15.070 -13.042  29.814  1.00  0.00     0.039 C 
ATOM      9  C   UNL     1     -13.217 -16.311  30.856  1.00  0.00     0.159 C 
ATOM     10  O   UNL     1     -13.988 -16.886  31.671  1.00  0.00    -0.295 OA
ATOM     11  C   UNL     1     -11.856 -16.896  30.621  1.00  0.00     0.084 C 
ENDROOT
TORSDOF 0
ENDMDL
MODEL 8
REMARK VINA RESULT:    -4.799      1.992      2.944
REMARK INTER + INTRA:          -4.799
REMARK INTER:                  -4.799
REMARK INTRA:                   0.000
REMARK UNBOUND:                 0.000
REMARK SMILES CC(C)=C1CC[C@@H](C)CC1=O
REMARK SMILES IDX 8 1 7 2 6 3 5 4 4 5 2 6 1 7 3 8 10 9 11 10 9 11
REMARK H PARENT
REMARK Flexibility Score: inf
ROOT
ATOM      1  C   UNL     1     -14.375 -20.339  28.809  1.00  0.00     0.008 C 
ATOM      2  C   UNL     1     -13.071 -19.557  29.000  1.00  0.00    -0.006 C 
ATOM      3  C   UNL     1     -12.816 -19.285  30.491  1.00  0.00     0.008 C 
ATOM      4  C   UNL     1     -11.464 -18.593  30.709  1.00  0.00     0.039 C 
ATOM      5  C   UNL     1     -11.301 -17.345  29.851  1.00  0.00    -0.006 C 
ATOM      6  C   UNL     1     -10.570 -16.276  30.284  1.00  0.00    -0.070 C 
ATOM      7  C   UNL     1     -10.448 -15.012  29.465  1.00  0.00     0.039 C 
ATOM      8  C   UNL     1      -9.875 -16.294  31.626  1.00  0.00     0.039 C 
ATOM      9  C   UNL     1     -11.887 -17.413  28.479  1.00  0.00     0.159 C 
ATOM     10  O   UNL     1     -11.363 -16.797  27.511  1.00  0.00    -0.295 OA
ATOM     11  C   UNL     1     -13.119 -18.231  28.225  1.00  0.00     0.084 C 
ENDROOT
TORSDOF 0
ENDMDL
MODEL 9
REMARK VINA RESULT:    -4.643      1.844      3.951
REMARK INTER + INTRA:          -4.643
REMARK INTER:                  -4.643
REMARK INTRA:                   0.000
REMARK UNBOUND:                 0.000
REMARK SMILES CC(C)=C1CC[C@@H](C)CC1=O
REMARK SMILES IDX 8 1 7 2 6 3 5 4 4 5 2 6 1 7 3 8 10 9 11 10 9 11
REMARK H PARENT
REMARK Flexibility Score: inf
ROOT
ATOM      1  C   UNL     1      -9.876 -14.649  29.378  1.00  0.00     0.008 C 
ATOM      2  C   UNL     1     -11.004 -15.638  29.689  1.00  0.00    -0.006 C 
ATOM      3  C   UNL     1     -10.506 -16.749  30.628  1.00  0.00     0.008 C 
ATOM      4  C   UNL     1     -11.649 -17.690  31.033  1.00  0.00     0.039 C 
ATOM      5  C   UNL     1     -12.408 -18.237  29.832  1.00  0.00    -0.006 C 
ATOM      6  C   UNL     1     -12.971 -19.482  29.854  1.00  0.00    -0.070 C 
ATOM      7  C   UNL     1     -13.678 -20.057  28.648  1.00  0.00     0.039 C 
ATOM      8  C   UNL     1     -12.879 -20.361  31.079  1.00  0.00     0.039 C 
ATOM      9  C   UNL     1     -12.595 -17.293  28.689  1.00  0.00     0.159 C 
ATOM     10  O   UNL     1     -13.622 -17.343  27.960  1.00  0.00    -0.295 OA
ATOM     11  C   UNL     1     -11.554 -16.254  28.393  1.00  0.00     0.084 C 
ENDROOT
TORSDOF 0
ENDMDL
