MODEL 1
REMARK VINA RESULT:    -2.503      0.000      0.000
REMARK INTER + INTRA:          -3.142
REMARK INTER:                  -3.089
REMARK INTRA:                  -0.053
REMARK UNBOUND:                -0.053
REMARK SMILES CCCCCC(=O)[O-]
REMARK SMILES IDX 4 1 5 2 6 3 7 4 8 5 3 6 2 7 1 8
REMARK H PARENT
REMARK Flexibility Score: inf
ROOT
ATOM      1  C   UNL     1     -28.306  57.781   9.921  1.00  0.00     0.006 C 
ENDROOT
BRANCH   1   2
ATOM      2  C   UNL     1     -26.960  58.482  10.125  1.00  0.00     0.053 C 
BRANCH   2   3
ATOM      3  C   UNL     1     -25.862  57.714   9.459  1.00  0.00     0.041 C 
ATOM      4  O   UNL     1     -25.373  58.121   8.373  1.00  0.00    -0.550 OA
ATOM      5  O   UNL     1     -25.413  56.521  10.012  1.00  0.00    -0.550 OA
ENDBRANCH   2   3
ENDBRANCH   1   2
BRANCH   1   6
ATOM      6  C   UNL     1     -29.465  58.783   9.991  1.00  0.00     0.000 C 
BRANCH   6   7
ATOM      7  C   UNL     1     -30.566  58.419   8.989  1.00  0.00    -0.003 C 
ATOM      8  C   UNL     1     -31.514  57.373   9.568  1.00  0.00     0.004 C 
ENDBRANCH   6   7
ENDBRANCH   1   6
TORSDOF 4
ENDMDL
MODEL 2
REMARK VINA RESULT:    -2.476     23.780     24.348
REMARK INTER + INTRA:          -3.109
REMARK INTER:                  -2.969
REMARK INTRA:                  -0.139
REMARK UNBOUND:                -0.053
REMARK SMILES CCCCCC(=O)[O-]
REMARK SMILES IDX 4 1 5 2 6 3 7 4 8 5 3 6 2 7 1 8
REMARK H PARENT
REMARK Flexibility Score: inf
ROOT
ATOM      1  C   UNL     1     -12.454  61.226  -9.837  1.00  0.00     0.006 C 
ENDROOT
BRANCH   1   2
ATOM      2  C   UNL     1     -13.951  61.508  -9.995  1.00  0.00     0.053 C 
BRANCH   2   3
ATOM      3  C   UNL     1     -14.308  62.816  -9.362  1.00  0.00     0.041 C 
ATOM      4  O   UNL     1     -13.405  63.580  -8.933  1.00  0.00    -0.550 OA
ATOM      5  O   UNL     1     -15.642  63.169  -9.200  1.00  0.00    -0.550 OA
ENDBRANCH   2   3
ENDBRANCH   1   2
BRANCH   1   6
ATOM      6  C   UNL     1     -12.216  59.831  -9.248  1.00  0.00     0.000 C 
BRANCH   6   7
ATOM      7  C   UNL     1     -13.473  58.961  -9.371  1.00  0.00    -0.003 C 
ATOM      8  C   UNL     1     -13.116  57.532  -9.773  1.00  0.00     0.004 C 
ENDBRANCH   6   7
ENDBRANCH   1   6
TORSDOF 4
ENDMDL
MODEL 3
REMARK VINA RESULT:    -2.419     23.301     24.177
REMARK INTER + INTRA:          -3.038
REMARK INTER:                  -2.956
REMARK INTRA:                  -0.082
REMARK UNBOUND:                -0.053
REMARK SMILES CCCCCC(=O)[O-]
REMARK SMILES IDX 4 1 5 2 6 3 7 4 8 5 3 6 2 7 1 8
REMARK H PARENT
REMARK Flexibility Score: inf
ROOT
ATOM      1  C   UNL     1     -13.468  61.401  -9.761  1.00  0.00     0.006 C 
ENDROOT
BRANCH   1   2
ATOM      2  C   UNL     1     -12.334  60.405  -9.505  1.00  0.00     0.053 C 
BRANCH   2   3
ATOM      3  C   UNL     1     -12.887  59.046  -9.208  1.00  0.00     0.041 C 
ATOM      4  O   UNL     1     -14.127  58.838  -9.278  1.00  0.00    -0.550 OA
ATOM      5  O   UNL     1     -12.039  58.022  -8.806  1.00  0.00    -0.550 OA
ENDBRANCH   2   3
ENDBRANCH   1   2
BRANCH   1   6
ATOM      6  C   UNL     1     -13.031  62.831  -9.419  1.00  0.00     0.000 C 
BRANCH   6   7
ATOM      7  C   UNL     1     -14.139  63.838  -9.750  1.00  0.00    -0.003 C 
ATOM      8  C   UNL     1     -15.496  63.345  -9.257  1.00  0.00     0.004 C 
ENDBRANCH   6   7
ENDBRANCH   1   6
TORSDOF 4
ENDMDL
MODEL 4
REMARK VINA RESULT:    -1.989     23.280     24.489
REMARK INTER + INTRA:          -2.507
REMARK INTER:                  -2.346
REMARK INTRA:                  -0.161
REMARK UNBOUND:                -0.053
REMARK SMILES CCCCCC(=O)[O-]
REMARK SMILES IDX 4 1 5 2 6 3 7 4 8 5 3 6 2 7 1 8
REMARK H PARENT
REMARK Flexibility Score: inf
ROOT
ATOM      1  C   UNL     1     -12.889  63.734  -9.247  1.00  0.00     0.006 C 
ENDROOT
BRANCH   1   2
ATOM      2  C   UNL     1     -14.060  63.285 -10.125  1.00  0.00     0.053 C 
BRANCH   2   3
ATOM      3  C   UNL     1     -15.359  63.486  -9.410  1.00  0.00     0.041 C 
ATOM      4  O   UNL     1     -16.404  63.753 -10.059  1.00  0.00    -0.550 OA
ATOM      5  O   UNL     1     -15.406  63.427  -8.023  1.00  0.00    -0.550 OA
ENDBRANCH   2   3
ENDBRANCH   1   2
BRANCH   1   6
ATOM      6  C   UNL     1     -11.953  62.561  -8.934  1.00  0.00     0.000 C 
BRANCH   6   7
ATOM      7  C   UNL     1     -12.095  61.450  -9.982  1.00  0.00    -0.003 C 
ATOM      8  C   UNL     1     -12.044  60.071  -9.332  1.00  0.00     0.004 C 
ENDBRANCH   6   7
ENDBRANCH   1   6
TORSDOF 4
ENDMDL
MODEL 5
REMARK VINA RESULT:    -1.090     14.244     14.889
REMARK INTER + INTRA:          -1.398
REMARK INTER:                  -1.329
REMARK INTRA:                  -0.069
REMARK UNBOUND:                -0.053
REMARK SMILES CCCCCC(=O)[O-]
REMARK SMILES IDX 4 1 5 2 6 3 7 4 8 5 3 6 2 7 1 8
REMARK H PARENT
REMARK Flexibility Score: inf
ROOT
ATOM      1  C   UNL     1     -19.684  62.236  -2.426  1.00  0.00     0.006 C 
ENDROOT
BRANCH   1   2
ATOM      2  C   UNL     1     -20.153  62.550  -1.002  1.00  0.00     0.053 C 
BRANCH   2   3
ATOM      3  C   UNL     1     -19.325  63.645  -0.406  1.00  0.00     0.041 C 
ATOM      4  O   UNL     1     -19.852  64.751  -0.118  1.00  0.00    -0.550 OA
ATOM      5  O   UNL     1     -17.961  63.461  -0.216  1.00  0.00    -0.550 OA
ENDBRANCH   2   3
ENDBRANCH   1   2
BRANCH   1   6
ATOM      6  C   UNL     1     -19.791  60.736  -2.723  1.00  0.00     0.000 C 
BRANCH   6   7
ATOM      7  C   UNL     1     -21.214  60.361  -3.152  1.00  0.00    -0.003 C 
ATOM      8  C   UNL     1     -21.246  59.887  -4.602  1.00  0.00     0.004 C 
ENDBRANCH   6   7
ENDBRANCH   1   6
TORSDOF 4
ENDMDL
MODEL 6
REMARK VINA RESULT:    -1.010     19.917     21.211
REMARK INTER + INTRA:          -1.300
REMARK INTER:                  -1.426
REMARK INTRA:                   0.126
REMARK UNBOUND:                -0.053
REMARK SMILES CCCCCC(=O)[O-]
REMARK SMILES IDX 4 1 5 2 6 3 7 4 8 5 3 6 2 7 1 8
REMARK H PARENT
REMARK Flexibility Score: inf
ROOT
ATOM      1  C   UNL     1     -12.874  69.562  -2.190  1.00  0.00     0.006 C 
ENDROOT
BRANCH   1   2
ATOM      2  C   UNL     1     -11.879  69.290  -1.058  1.00  0.00     0.053 C 
BRANCH   2   3
ATOM      3  C   UNL     1     -11.902  67.843  -0.676  1.00  0.00     0.041 C 
ATOM      4  O   UNL     1     -11.886  67.508   0.537  1.00  0.00    -0.550 OA
ATOM      5  O   UNL     1     -11.889  66.863  -1.661  1.00  0.00    -0.550 OA
ENDBRANCH   2   3
ENDBRANCH   1   2
BRANCH   1   6
ATOM      6  C   UNL     1     -14.313  69.592  -1.661  1.00  0.00     0.000 C 
BRANCH   6   7
ATOM      7  C   UNL     1     -15.182  68.549  -2.375  1.00  0.00    -0.003 C 
ATOM      8  C   UNL     1     -14.979  67.160  -1.777  1.00  0.00     0.004 C 
ENDBRANCH   6   7
ENDBRANCH   1   6
TORSDOF 4
ENDMDL
MODEL 7
REMARK VINA RESULT:    -0.995     14.147     14.876
REMARK INTER + INTRA:          -1.281
REMARK INTER:                  -1.108
REMARK INTRA:                  -0.173
REMARK UNBOUND:                -0.053
REMARK SMILES CCCCCC(=O)[O-]
REMARK SMILES IDX 4 1 5 2 6 3 7 4 8 5 3 6 2 7 1 8
REMARK H PARENT
REMARK Flexibility Score: inf
ROOT
ATOM      1  C   UNL     1     -20.133  62.160  -0.525  1.00  0.00     0.006 C 
ENDROOT
BRANCH   1   2
ATOM      2  C   UNL     1     -20.947  61.428  -1.595  1.00  0.00     0.053 C 
BRANCH   2   3
ATOM      3  C   UNL     1     -20.093  61.119  -2.784  1.00  0.00     0.041 C 
ATOM      4  O   UNL     1     -18.938  61.608  -2.878  1.00  0.00    -0.550 OA
ATOM      5  O   UNL     1     -20.593  60.330  -3.813  1.00  0.00    -0.550 OA
ENDBRANCH   2   3
ENDBRANCH   1   2
BRANCH   1   6
ATOM      6  C   UNL     1     -20.478  63.654  -0.497  1.00  0.00     0.000 C 
BRANCH   6   7
ATOM      7  C   UNL     1     -19.211  64.508  -0.379  1.00  0.00    -0.003 C 
ATOM      8  C   UNL     1     -17.960  63.635  -0.334  1.00  0.00     0.004 C 
ENDBRANCH   6   7
ENDBRANCH   1   6
TORSDOF 4
ENDMDL
MODEL 8
REMARK VINA RESULT:    -0.408     23.828     24.569
REMARK INTER + INTRA:          -0.556
REMARK INTER:                  -0.642
REMARK INTRA:                   0.086
REMARK UNBOUND:                -0.053
REMARK SMILES CCCCCC(=O)[O-]
REMARK SMILES IDX 4 1 5 2 6 3 7 4 8 5 3 6 2 7 1 8
REMARK H PARENT
REMARK Flexibility Score: inf
ROOT
ATOM      1  C   UNL     1     -14.771  62.739  -9.188  1.00  0.00     0.006 C 
ENDROOT
BRANCH   1   2
ATOM      2  C   UNL     1     -14.023  63.690 -10.125  1.00  0.00     0.053 C 
BRANCH   2   3
ATOM      3  C   UNL     1     -12.610  63.873  -9.668  1.00  0.00     0.041 C 
ATOM      4  O   UNL     1     -11.944  64.869 -10.053  1.00  0.00    -0.550 OA
ATOM      5  O   UNL     1     -12.012  62.918  -8.855  1.00  0.00    -0.550 OA
ENDBRANCH   2   3
ENDBRANCH   1   2
BRANCH   1   6
ATOM      6  C   UNL     1     -15.067  61.403  -9.881  1.00  0.00     0.000 C 
BRANCH   6   7
ATOM      7  C   UNL     1     -13.790  60.569 -10.035  1.00  0.00    -0.003 C 
ATOM      8  C   UNL     1     -13.979  59.163  -9.473  1.00  0.00     0.004 C 
ENDBRANCH   6   7
ENDBRANCH   1   6
TORSDOF 4
ENDMDL
