MODEL 1
REMARK VINA RESULT:    -1.548      0.000      0.000
REMARK INTER + INTRA:          -4.046
REMARK INTER:                  -2.362
REMARK INTRA:                  -1.684
REMARK UNBOUND:                -1.684
REMARK SMILES OC[C@@H]1O[C@@](CO)(O[C@@H]2O[C@H](CO)[C@@H](O)[C@H](O)[C@@H]2O)[C@H](O)[C@H]1O
REMARK SMILES IDX 8 1 9 2 11 3 14 4 10 5 16 6 18 7 12 8 13 9 15 11 17 13 19 15
REMARK SMILES IDX 5 17 20 18 4 19 22 20 3 21 6 22 7 23 21 25 23 27 2 29 1 30
REMARK H PARENT 13 10 15 12 17 14 19 16 7 24 21 26 23 28 1 31
REMARK Flexibility Score: inf
ROOT
ATOM      1  O   UNL     1     152.541 137.271  97.142  1.00  0.00    -0.313 OA
ENDROOT
BRANCH   1   2
ATOM      2  C   UNL     1     152.803 136.128  97.959  1.00  0.00     0.285 C 
ATOM      3  C   UNL     1     152.842 135.404 100.220  1.00  0.00     0.178 C 
ATOM      4  C   UNL     1     154.261 135.937 100.544  1.00  0.00     0.177 C 
ATOM      5  O   UNL     1     152.229 136.248  99.265  1.00  0.00    -0.341 OA
ATOM      6  C   UNL     1     154.963 136.516  99.278  1.00  0.00     0.179 C 
ATOM      7  C   UNL     1     154.348 135.893  98.008  1.00  0.00     0.202 C 
BRANCH   3   8
ATOM      8  C   UNL     1     151.943 135.368 101.463  1.00  0.00     0.191 C 
BRANCH   8   9
ATOM      9  O   UNL     1     152.504 136.100 102.523  1.00  0.00    -0.394 OA
ATOM     10  H   UNL     1     151.763 136.677 102.846  1.00  0.00     0.210 HD
ENDBRANCH   8   9
ENDBRANCH   3   8
BRANCH   4  11
ATOM     11  O   UNL     1     155.050 134.924 101.127  1.00  0.00    -0.387 OA
ATOM     12  H   UNL     1     155.868 135.359 101.493  1.00  0.00     0.211 HD
ENDBRANCH   4  11
BRANCH   6  13
ATOM     13  O   UNL     1     154.803 137.915  99.245  1.00  0.00    -0.387 OA
ATOM     14  H   UNL     1     155.597 138.298  99.705  1.00  0.00     0.211 HD
ENDBRANCH   6  13
BRANCH   7  15
ATOM     15  O   UNL     1     154.996 136.336  96.834  1.00  0.00    -0.385 OA
ATOM     16  H   UNL     1     155.468 135.564  96.435  1.00  0.00     0.211 HD
ENDBRANCH   7  15
ENDBRANCH   1   2
BRANCH   1  17
ATOM     17  C   UNL     1     151.700 137.130  95.986  1.00  0.00     0.224 C 
ATOM     18  C   UNL     1     151.093 135.689  95.864  1.00  0.00     0.208 C 
ATOM     19  O   UNL     1     150.602 137.999  96.210  1.00  0.00    -0.337 OA
ATOM     20  C   UNL     1     149.589 135.886  96.002  1.00  0.00     0.180 C 
ATOM     21  C   UNL     1     149.531 137.231  96.697  1.00  0.00     0.179 C 
BRANCH  17  22
ATOM     22  C   UNL     1     152.373 137.661  94.679  1.00  0.00     0.225 C 
BRANCH  22  23
ATOM     23  O   UNL     1     153.572 137.006  94.362  1.00  0.00    -0.391 OA
ATOM     24  H   UNL     1     153.415 136.493  93.523  1.00  0.00     0.210 HD
ENDBRANCH  22  23
ENDBRANCH  17  22
BRANCH  18  25
ATOM     25  O   UNL     1     151.444 135.010  94.675  1.00  0.00    -0.385 OA
ATOM     26  H   UNL     1     151.054 134.100  94.664  1.00  0.00     0.211 HD
ENDBRANCH  18  25
BRANCH  20  27
ATOM     27  O   UNL     1     148.997 134.892  96.801  1.00  0.00    -0.387 OA
ATOM     28  H   UNL     1     148.611 134.223  96.177  1.00  0.00     0.211 HD
ENDBRANCH  20  27
BRANCH  21  29
ATOM     29  C   UNL     1     148.205 137.961  96.442  1.00  0.00     0.191 C 
BRANCH  29  30
ATOM     30  O   UNL     1     147.184 137.029  96.214  1.00  0.00    -0.394 OA
ATOM     31  H   UNL     1     146.594 137.435  95.528  1.00  0.00     0.210 HD
ENDBRANCH  29  30
ENDBRANCH  21  29
ENDBRANCH   1  17
TORSDOF 13
ENDMDL
MODEL 2
REMARK VINA RESULT:    -1.480      2.709      4.161
REMARK INTER + INTRA:          -3.943
REMARK INTER:                  -2.221
REMARK INTRA:                  -1.722
REMARK UNBOUND:                -1.684
REMARK SMILES OC[C@@H]1O[C@@](CO)(O[C@@H]2O[C@H](CO)[C@@H](O)[C@H](O)[C@@H]2O)[C@H](O)[C@H]1O
REMARK SMILES IDX 8 1 9 2 11 3 14 4 10 5 16 6 18 7 12 8 13 9 15 11 17 13 19 15
REMARK SMILES IDX 5 17 20 18 4 19 22 20 3 21 6 22 7 23 21 25 23 27 2 29 1 30
REMARK H PARENT 13 10 15 12 17 14 19 16 7 24 21 26 23 28 1 31
REMARK Flexibility Score: inf
ROOT
ATOM      1  O   UNL     1     151.975 138.749  99.044  1.00  0.00    -0.313 OA
ENDROOT
BRANCH   1   2
ATOM      2  C   UNL     1     153.213 138.805  99.754  1.00  0.00     0.285 C 
ATOM      3  C   UNL     1     154.418 137.762 101.515  1.00  0.00     0.178 C 
ATOM      4  C   UNL     1     153.744 138.545 102.669  1.00  0.00     0.177 C 
ATOM      5  O   UNL     1     153.493 137.590 100.458  1.00  0.00    -0.341 OA
ATOM      6  C   UNL     1     152.781 139.648 102.132  1.00  0.00     0.179 C 
ATOM      7  C   UNL     1     153.190 140.049 100.700  1.00  0.00     0.202 C 
BRANCH   3   8
ATOM      8  C   UNL     1     154.888 136.371 101.961  1.00  0.00     0.191 C 
BRANCH   8   9
ATOM      9  O   UNL     1     154.715 136.190 103.343  1.00  0.00    -0.394 OA
ATOM     10  H   UNL     1     154.283 137.030 103.650  1.00  0.00     0.210 HD
ENDBRANCH   8   9
ENDBRANCH   3   8
BRANCH   4  11
ATOM     11  O   UNL     1     154.716 139.110 103.520  1.00  0.00    -0.387 OA
ATOM     12  H   UNL     1     155.395 138.406 103.703  1.00  0.00     0.211 HD
ENDBRANCH   4  11
BRANCH   6  13
ATOM     13  O   UNL     1     151.458 139.163 102.129  1.00  0.00    -0.387 OA
ATOM     14  H   UNL     1     150.902 139.873 101.711  1.00  0.00     0.211 HD
ENDBRANCH   6  13
BRANCH   7  15
ATOM     15  O   UNL     1     152.389 141.095 100.192  1.00  0.00    -0.385 OA
ATOM     16  H   UNL     1     152.308 140.972  99.215  1.00  0.00     0.211 HD
ENDBRANCH   7  15
ENDBRANCH   1   2
BRANCH   1  17
ATOM     17  C   UNL     1     151.989 138.695  97.609  1.00  0.00     0.224 C 
ATOM     18  C   UNL     1     153.443 138.565  97.033  1.00  0.00     0.208 C 
ATOM     19  O   UNL     1     151.325 137.490  97.269  1.00  0.00    -0.337 OA
ATOM     20  C   UNL     1     153.466 137.212  96.333  1.00  0.00     0.180 C 
ATOM     21  C   UNL     1     152.300 136.514  97.004  1.00  0.00     0.179 C 
BRANCH  17  22
ATOM     22  C   UNL     1     151.133 139.825  96.951  1.00  0.00     0.225 C 
BRANCH  22  23
ATOM     23  O   UNL     1     151.520 141.116  97.338  1.00  0.00    -0.391 OA
ATOM     24  H   UNL     1     150.704 141.583  97.667  1.00  0.00     0.210 HD
ENDBRANCH  22  23
ENDBRANCH  17  22
BRANCH  18  25
ATOM     25  O   UNL     1     153.826 139.623  96.179  1.00  0.00    -0.385 OA
ATOM     26  H   UNL     1     153.137 140.334  96.173  1.00  0.00     0.211 HD
ENDBRANCH  18  25
BRANCH  20  27
ATOM     27  O   UNL     1     154.662 136.514  96.571  1.00  0.00    -0.387 OA
ATOM     28  H   UNL     1     154.642 135.714  95.982  1.00  0.00     0.211 HD
ENDBRANCH  20  27
BRANCH  21  29
ATOM     29  C   UNL     1     151.706 135.402  96.129  1.00  0.00     0.191 C 
BRANCH  29  30
ATOM     30  O   UNL     1     152.619 135.042  95.129  1.00  0.00    -0.394 OA
ATOM     31  H   UNL     1     153.517 135.100  95.547  1.00  0.00     0.210 HD
ENDBRANCH  29  30
ENDBRANCH  21  29
ENDBRANCH   1  17
TORSDOF 13
ENDMDL
MODEL 3
REMARK VINA RESULT:    -1.406      3.179      4.687
REMARK INTER + INTRA:          -3.829
REMARK INTER:                  -2.428
REMARK INTRA:                  -1.401
REMARK UNBOUND:                -1.684
REMARK SMILES OC[C@@H]1O[C@@](CO)(O[C@@H]2O[C@H](CO)[C@@H](O)[C@H](O)[C@@H]2O)[C@H](O)[C@H]1O
REMARK SMILES IDX 8 1 9 2 11 3 14 4 10 5 16 6 18 7 12 8 13 9 15 11 17 13 19 15
REMARK SMILES IDX 5 17 20 18 4 19 22 20 3 21 6 22 7 23 21 25 23 27 2 29 1 30
REMARK H PARENT 13 10 15 12 17 14 19 16 7 24 21 26 23 28 1 31
REMARK Flexibility Score: inf
ROOT
ATOM      1  O   UNL     1     153.417 138.307  99.125  1.00  0.00    -0.313 OA
ENDROOT
BRANCH   1   2
ATOM      2  C   UNL     1     154.428 139.010  99.850  1.00  0.00     0.285 C 
ATOM      3  C   UNL     1     154.851 140.075 101.930  1.00  0.00     0.178 C 
ATOM      4  C   UNL     1     154.200 141.432 101.561  1.00  0.00     0.177 C 
ATOM      5  O   UNL     1     154.174 139.029 101.258  1.00  0.00    -0.341 OA
ATOM      6  C   UNL     1     153.749 141.469 100.069  1.00  0.00     0.179 C 
ATOM      7  C   UNL     1     154.564 140.447  99.249  1.00  0.00     0.202 C 
BRANCH   3   8
ATOM      8  C   UNL     1     154.779 139.792 103.436  1.00  0.00     0.191 C 
BRANCH   8   9
ATOM      9  O   UNL     1     154.604 140.976 104.172  1.00  0.00    -0.394 OA
ATOM     10  H   UNL     1     153.692 141.286 103.928  1.00  0.00     0.210 HD
ENDBRANCH   8   9
ENDBRANCH   3   8
BRANCH   4  11
ATOM     11  O   UNL     1     155.082 142.497 101.837  1.00  0.00    -0.387 OA
ATOM     12  H   UNL     1     155.492 142.774 100.973  1.00  0.00     0.211 HD
ENDBRANCH   4  11
BRANCH   6  13
ATOM     13  O   UNL     1     152.377 141.161  99.980  1.00  0.00    -0.387 OA
ATOM     14  H   UNL     1     151.888 141.988 100.234  1.00  0.00     0.211 HD
ENDBRANCH   6  13
BRANCH   7  15
ATOM     15  O   UNL     1     154.240 140.489  97.876  1.00  0.00    -0.385 OA
ATOM     16  H   UNL     1     154.294 141.429  97.577  1.00  0.00     0.211 HD
ENDBRANCH   7  15
ENDBRANCH   1   2
BRANCH   1  17
ATOM     17  C   UNL     1     153.784 137.170  98.329  1.00  0.00     0.224 C 
ATOM     18  C   UNL     1     152.585 136.181  98.114  1.00  0.00     0.208 C 
ATOM     19  O   UNL     1     154.095 137.690  97.047  1.00  0.00    -0.337 OA
ATOM     20  C   UNL     1     152.327 136.201  96.614  1.00  0.00     0.180 C 
ATOM     21  C   UNL     1     152.974 137.513  96.221  1.00  0.00     0.179 C 
BRANCH  17  22
ATOM     22  C   UNL     1     155.103 136.489  98.818  1.00  0.00     0.225 C 
BRANCH  22  23
ATOM     23  O   UNL     1     154.955 135.782 100.020  1.00  0.00    -0.391 OA
ATOM     24  H   UNL     1     153.989 135.558 100.113  1.00  0.00     0.210 HD
ENDBRANCH  22  23
ENDBRANCH  17  22
BRANCH  18  25
ATOM     25  O   UNL     1     152.813 134.876  98.608  1.00  0.00    -0.385 OA
ATOM     26  H   UNL     1     153.774 134.740  98.805  1.00  0.00     0.211 HD
ENDBRANCH  18  25
BRANCH  20  27
ATOM     27  O   UNL     1     150.954 136.218  96.314  1.00  0.00    -0.387 OA
ATOM     28  H   UNL     1     150.718 135.299  96.020  1.00  0.00     0.211 HD
ENDBRANCH  20  27
BRANCH  21  29
ATOM     29  C   UNL     1     153.400 137.533  94.747  1.00  0.00     0.191 C 
BRANCH  29  30
ATOM     30  O   UNL     1     153.058 136.320  94.134  1.00  0.00    -0.394 OA
ATOM     31  H   UNL     1     153.759 136.154  93.451  1.00  0.00     0.210 HD
ENDBRANCH  29  30
ENDBRANCH  21  29
ENDBRANCH   1  17
TORSDOF 13
ENDMDL
MODEL 4
REMARK VINA RESULT:    -1.392      2.672      5.984
REMARK INTER + INTRA:          -3.808
REMARK INTER:                  -2.116
REMARK INTRA:                  -1.692
REMARK UNBOUND:                -1.684
REMARK SMILES OC[C@@H]1O[C@@](CO)(O[C@@H]2O[C@H](CO)[C@@H](O)[C@H](O)[C@@H]2O)[C@H](O)[C@H]1O
REMARK SMILES IDX 8 1 9 2 11 3 14 4 10 5 16 6 18 7 12 8 13 9 15 11 17 13 19 15
REMARK SMILES IDX 5 17 20 18 4 19 22 20 3 21 6 22 7 23 21 25 23 27 2 29 1 30
REMARK H PARENT 13 10 15 12 17 14 19 16 7 24 21 26 23 28 1 31
REMARK Flexibility Score: inf
ROOT
ATOM      1  O   UNL     1     151.368 138.071  97.023  1.00  0.00    -0.313 OA
ENDROOT
BRANCH   1   2
ATOM      2  C   UNL     1     152.206 138.720  96.064  1.00  0.00     0.285 C 
ATOM      3  C   UNL     1     153.561 140.645  95.752  1.00  0.00     0.178 C 
ATOM      4  C   UNL     1     152.407 141.603  95.362  1.00  0.00     0.177 C 
ATOM      5  O   UNL     1     153.082 139.679  96.667  1.00  0.00    -0.341 OA
ATOM      6  C   UNL     1     151.048 140.850  95.240  1.00  0.00     0.179 C 
ATOM      7  C   UNL     1     151.301 139.354  94.958  1.00  0.00     0.202 C 
BRANCH   3   8
ATOM      8  C   UNL     1     154.726 141.389  96.419  1.00  0.00     0.191 C 
BRANCH   8   9
ATOM      9  O   UNL     1     155.101 142.523  95.679  1.00  0.00    -0.394 OA
ATOM     10  H   UNL     1     154.515 143.247  96.022  1.00  0.00     0.210 HD
ENDBRANCH   8   9
ENDBRANCH   3   8
BRANCH   4  11
ATOM     11  O   UNL     1     152.707 142.279  94.161  1.00  0.00    -0.387 OA
ATOM     12  H   UNL     1     152.334 143.199  94.237  1.00  0.00     0.211 HD
ENDBRANCH   4  11
BRANCH   6  13
ATOM     13  O   UNL     1     150.319 140.989  96.438  1.00  0.00    -0.387 OA
ATOM     14  H   UNL     1     150.263 140.080  96.837  1.00  0.00     0.211 HD
ENDBRANCH   6  13
BRANCH   7  15
ATOM     15  O   UNL     1     150.099 138.639  94.772  1.00  0.00    -0.385 OA
ATOM     16  H   UNL     1     149.863 138.679  93.814  1.00  0.00     0.211 HD
ENDBRANCH   7  15
ENDBRANCH   1   2
BRANCH   1  17
ATOM     17  C   UNL     1     151.580 136.682  97.315  1.00  0.00     0.224 C 
ATOM     18  C   UNL     1     152.821 136.096  96.554  1.00  0.00     0.208 C 
ATOM     19  O   UNL     1     151.907 136.631  98.693  1.00  0.00    -0.337 OA
ATOM     20  C   UNL     1     153.801 135.702  97.651  1.00  0.00     0.180 C 
ATOM     21  C   UNL     1     153.305 136.547  98.806  1.00  0.00     0.179 C 
BRANCH  17  22
ATOM     22  C   UNL     1     150.278 135.828  97.179  1.00  0.00     0.225 C 
BRANCH  22  23
ATOM     23  O   UNL     1     149.666 135.937  95.922  1.00  0.00    -0.391 OA
ATOM     24  H   UNL     1     149.000 136.676  95.981  1.00  0.00     0.210 HD
ENDBRANCH  22  23
ENDBRANCH  17  22
BRANCH  18  25
ATOM     25  O   UNL     1     152.517 135.022  95.687  1.00  0.00    -0.385 OA
ATOM     26  H   UNL     1     151.537 134.906  95.606  1.00  0.00     0.211 HD
ENDBRANCH  18  25
BRANCH  20  27
ATOM     27  O   UNL     1     155.125 136.041  97.324  1.00  0.00    -0.387 OA
ATOM     28  H   UNL     1     155.438 136.665  98.030  1.00  0.00     0.211 HD
ENDBRANCH  20  27
BRANCH  21  29
ATOM     29  C   UNL     1     153.686 135.951 100.168  1.00  0.00     0.191 C 
BRANCH  29  30
ATOM     30  O   UNL     1     155.068 135.726 100.222  1.00  0.00    -0.394 OA
ATOM     31  H   UNL     1     155.371 135.675  99.278  1.00  0.00     0.210 HD
ENDBRANCH  29  30
ENDBRANCH  21  29
ENDBRANCH   1  17
TORSDOF 13
ENDMDL
MODEL 5
REMARK VINA RESULT:    -1.362      2.150      6.398
REMARK INTER + INTRA:          -3.762
REMARK INTER:                  -2.424
REMARK INTRA:                  -1.338
REMARK UNBOUND:                -1.684
REMARK SMILES OC[C@@H]1O[C@@](CO)(O[C@@H]2O[C@H](CO)[C@@H](O)[C@H](O)[C@@H]2O)[C@H](O)[C@H]1O
REMARK SMILES IDX 8 1 9 2 11 3 14 4 10 5 16 6 18 7 12 8 13 9 15 11 17 13 19 15
REMARK SMILES IDX 5 17 20 18 4 19 22 20 3 21 6 22 7 23 21 25 23 27 2 29 1 30
REMARK H PARENT 13 10 15 12 17 14 19 16 7 24 21 26 23 28 1 31
REMARK Flexibility Score: inf
ROOT
ATOM      1  O   UNL     1     153.186 137.768  98.906  1.00  0.00    -0.313 OA
ENDROOT
BRANCH   1   2
ATOM      2  C   UNL     1     153.784 137.429  97.654  1.00  0.00     0.285 C 
ATOM      3  C   UNL     1     153.639 137.863  95.323  1.00  0.00     0.178 C 
ATOM      4  C   UNL     1     152.503 136.850  95.033  1.00  0.00     0.177 C 
ATOM      5  O   UNL     1     153.484 138.383  96.630  1.00  0.00    -0.341 OA
ATOM      6  C   UNL     1     152.143 136.009  96.296  1.00  0.00     0.179 C 
ATOM      7  C   UNL     1     153.342 135.980  97.266  1.00  0.00     0.202 C 
BRANCH   3   8
ATOM      8  C   UNL     1     153.624 139.042  94.341  1.00  0.00     0.191 C 
BRANCH   8   9
ATOM      9  O   UNL     1     153.933 140.250  94.987  1.00  0.00    -0.394 OA
ATOM     10  H   UNL     1     154.866 140.130  95.304  1.00  0.00     0.210 HD
ENDBRANCH   8   9
ENDBRANCH   3   8
BRANCH   4  11
ATOM     11  O   UNL     1     152.854 136.004  93.960  1.00  0.00    -0.387 OA
ATOM     12  H   UNL     1     152.488 135.100  94.163  1.00  0.00     0.211 HD
ENDBRANCH   4  11
BRANCH   6  13
ATOM     13  O   UNL     1     151.025 136.576  96.940  1.00  0.00    -0.387 OA
ATOM     14  H   UNL     1     150.528 135.820  97.352  1.00  0.00     0.211 HD
ENDBRANCH   6  13
BRANCH   7  15
ATOM     15  O   UNL     1     153.090 135.175  98.397  1.00  0.00    -0.385 OA
ATOM     16  H   UNL     1     153.474 135.627  99.187  1.00  0.00     0.211 HD
ENDBRANCH   7  15
ENDBRANCH   1   2
BRANCH   1  17
ATOM     17  C   UNL     1     154.024 138.174  99.999  1.00  0.00     0.224 C 
ATOM     18  C   UNL     1     153.194 138.574 101.269  1.00  0.00     0.208 C 
ATOM     19  O   UNL     1     154.759 137.017 100.361  1.00  0.00    -0.337 OA
ATOM     20  C   UNL     1     153.589 137.555 102.330  1.00  0.00     0.180 C 
ATOM     21  C   UNL     1     154.129 136.429 101.471  1.00  0.00     0.179 C 
BRANCH  17  22
ATOM     22  C   UNL     1     155.105 139.221  99.578  1.00  0.00     0.225 C 
BRANCH  22  23
ATOM     23  O   UNL     1     154.568 140.365  98.969  1.00  0.00    -0.391 OA
ATOM     24  H   UNL     1     155.232 141.099  99.084  1.00  0.00     0.210 HD
ENDBRANCH  22  23
ENDBRANCH  17  22
BRANCH  18  25
ATOM     25  O   UNL     1     153.394 139.906 101.697  1.00  0.00    -0.385 OA
ATOM     26  H   UNL     1     153.894 139.927 102.552  1.00  0.00     0.211 HD
ENDBRANCH  18  25
BRANCH  20  27
ATOM     27  O   UNL     1     152.484 137.116 103.079  1.00  0.00    -0.387 OA
ATOM     28  H   UNL     1     152.848 136.568 103.823  1.00  0.00     0.211 HD
ENDBRANCH  20  27
BRANCH  21  29
ATOM     29  C   UNL     1     155.125 135.543 102.231  1.00  0.00     0.191 C 
BRANCH  29  30
ATOM     30  O   UNL     1     154.985 135.742 103.611  1.00  0.00    -0.394 OA
ATOM     31  H   UNL     1     155.814 135.386 104.022  1.00  0.00     0.210 HD
ENDBRANCH  29  30
ENDBRANCH  21  29
ENDBRANCH   1  17
TORSDOF 13
ENDMDL
MODEL 6
REMARK VINA RESULT:    -1.345      1.920      2.329
REMARK INTER + INTRA:          -3.737
REMARK INTER:                  -2.078
REMARK INTRA:                  -1.659
REMARK UNBOUND:                -1.684
REMARK SMILES OC[C@@H]1O[C@@](CO)(O[C@@H]2O[C@H](CO)[C@@H](O)[C@H](O)[C@@H]2O)[C@H](O)[C@H]1O
REMARK SMILES IDX 8 1 9 2 11 3 14 4 10 5 16 6 18 7 12 8 13 9 15 11 17 13 19 15
REMARK SMILES IDX 5 17 20 18 4 19 22 20 3 21 6 22 7 23 21 25 23 27 2 29 1 30
REMARK H PARENT 13 10 15 12 17 14 19 16 7 24 21 26 23 28 1 31
REMARK Flexibility Score: inf
ROOT
ATOM      1  O   UNL     1     153.138 138.272  97.055  1.00  0.00    -0.313 OA
ENDROOT
BRANCH   1   2
ATOM      2  C   UNL     1     152.724 137.134  97.814  1.00  0.00     0.285 C 
ATOM      3  C   UNL     1     152.108 136.462 100.007  1.00  0.00     0.178 C 
ATOM      4  C   UNL     1     153.552 136.265 100.535  1.00  0.00     0.177 C 
ATOM      5  O   UNL     1     152.096 137.502  99.047  1.00  0.00    -0.341 OA
ATOM      6  C   UNL     1     154.611 136.455  99.406  1.00  0.00     0.179 C 
ATOM      7  C   UNL     1     153.960 136.202  98.030  1.00  0.00     0.202 C 
BRANCH   3   8
ATOM      8  C   UNL     1     151.133 136.845 101.128  1.00  0.00     0.191 C 
BRANCH   8   9
ATOM      9  O   UNL     1     151.183 135.924 102.187  1.00  0.00    -0.394 OA
ATOM     10  H   UNL     1     151.129 135.036 101.747  1.00  0.00     0.210 HD
ENDBRANCH   8   9
ENDBRANCH   3   8
BRANCH   4  11
ATOM     11  O   UNL     1     153.692 134.996 101.135  1.00  0.00    -0.387 OA
ATOM     12  H   UNL     1     153.683 135.132 102.121  1.00  0.00     0.211 HD
ENDBRANCH   4  11
BRANCH   6  13
ATOM     13  O   UNL     1     155.125 137.766  99.453  1.00  0.00    -0.387 OA
ATOM     14  H   UNL     1     154.479 138.337  98.957  1.00  0.00     0.211 HD
ENDBRANCH   6  13
BRANCH   7  15
ATOM     15  O   UNL     1     154.895 136.297  96.977  1.00  0.00    -0.385 OA
ATOM     16  H   UNL     1     154.580 136.993  96.350  1.00  0.00     0.211 HD
ENDBRANCH   7  15
ENDBRANCH   1   2
BRANCH   1  17
ATOM     17  C   UNL     1     152.432 138.608  95.851  1.00  0.00     0.224 C 
ATOM     18  C   UNL     1     150.972 138.032  95.837  1.00  0.00     0.208 C 
ATOM     19  O   UNL     1     152.294 140.019  95.874  1.00  0.00    -0.337 OA
ATOM     20  C   UNL     1     150.069 139.258  95.814  1.00  0.00     0.180 C 
ATOM     21  C   UNL     1     151.006 140.324  96.344  1.00  0.00     0.179 C 
BRANCH  17  22
ATOM     22  C   UNL     1     153.257 138.305  94.559  1.00  0.00     0.225 C 
BRANCH  22  23
ATOM     23  O   UNL     1     153.538 136.943  94.381  1.00  0.00    -0.391 OA
ATOM     24  H   UNL     1     154.449 136.879  93.983  1.00  0.00     0.210 HD
ENDBRANCH  22  23
ENDBRANCH  17  22
BRANCH  18  25
ATOM     25  O   UNL     1     150.708 137.144  94.768  1.00  0.00    -0.385 OA
ATOM     26  H   UNL     1     150.366 137.638  93.981  1.00  0.00     0.211 HD
ENDBRANCH  18  25
BRANCH  20  27
ATOM     27  O   UNL     1     148.958 139.112  96.663  1.00  0.00    -0.387 OA
ATOM     28  H   UNL     1     149.290 138.665  97.485  1.00  0.00     0.211 HD
ENDBRANCH  20  27
BRANCH  21  29
ATOM     29  C   UNL     1     150.602 141.732  95.889  1.00  0.00     0.191 C 
BRANCH  29  30
ATOM     30  O   UNL     1     149.450 141.665  95.093  1.00  0.00    -0.394 OA
ATOM     31  H   UNL     1     149.688 142.100  94.234  1.00  0.00     0.210 HD
ENDBRANCH  29  30
ENDBRANCH  21  29
ENDBRANCH   1  17
TORSDOF 13
ENDMDL
MODEL 7
REMARK VINA RESULT:    -1.328      3.157      4.391
REMARK INTER + INTRA:          -3.711
REMARK INTER:                  -1.993
REMARK INTRA:                  -1.718
REMARK UNBOUND:                -1.684
REMARK SMILES OC[C@@H]1O[C@@](CO)(O[C@@H]2O[C@H](CO)[C@@H](O)[C@H](O)[C@@H]2O)[C@H](O)[C@H]1O
REMARK SMILES IDX 8 1 9 2 11 3 14 4 10 5 16 6 18 7 12 8 13 9 15 11 17 13 19 15
REMARK SMILES IDX 5 17 20 18 4 19 22 20 3 21 6 22 7 23 21 25 23 27 2 29 1 30
REMARK H PARENT 13 10 15 12 17 14 19 16 7 24 21 26 23 28 1 31
REMARK Flexibility Score: inf
ROOT
ATOM      1  O   UNL     1     151.496 139.332  97.943  1.00  0.00    -0.313 OA
ENDROOT
BRANCH   1   2
ATOM      2  C   UNL     1     152.687 139.706  98.638  1.00  0.00     0.285 C 
ATOM      3  C   UNL     1     153.909 139.287 100.631  1.00  0.00     0.178 C 
ATOM      4  C   UNL     1     153.102 140.257 101.531  1.00  0.00     0.177 C 
ATOM      5  O   UNL     1     153.058 138.750  99.637  1.00  0.00    -0.341 OA
ATOM      6  C   UNL     1     152.057 141.072 100.711  1.00  0.00     0.179 C 
ATOM      7  C   UNL     1     152.490 141.139  99.231  1.00  0.00     0.202 C 
BRANCH   3   8
ATOM      8  C   UNL     1     154.499 138.117 101.430  1.00  0.00     0.191 C 
BRANCH   8   9
ATOM      9  O   UNL     1     154.472 138.374 102.811  1.00  0.00    -0.394 OA
ATOM     10  H   UNL     1     153.876 139.162 102.904  1.00  0.00     0.210 HD
ENDBRANCH   8   9
ENDBRANCH   3   8
BRANCH   4  11
ATOM     11  O   UNL     1     153.968 141.125 102.228  1.00  0.00    -0.387 OA
ATOM     12  H   UNL     1     153.502 142.000 102.318  1.00  0.00     0.211 HD
ENDBRANCH   4  11
BRANCH   6  13
ATOM     13  O   UNL     1     150.793 140.455 100.806  1.00  0.00    -0.387 OA
ATOM     14  H   UNL     1     150.964 139.477 100.864  1.00  0.00     0.211 HD
ENDBRANCH   6  13
BRANCH   7  15
ATOM     15  O   UNL     1     151.609 141.924  98.456  1.00  0.00    -0.385 OA
ATOM     16  H   UNL     1     151.496 141.482  97.580  1.00  0.00     0.211 HD
ENDBRANCH   7  15
ENDBRANCH   1   2
BRANCH   1  17
ATOM     17  C   UNL     1     151.582 138.931  96.567  1.00  0.00     0.224 C 
ATOM     18  C   UNL     1     153.067 138.743  96.094  1.00  0.00     0.208 C 
ATOM     19  O   UNL     1     150.989 137.645  96.510  1.00  0.00    -0.337 OA
ATOM     20  C   UNL     1     153.182 137.264  95.750  1.00  0.00     0.180 C 
ATOM     21  C   UNL     1     152.017 136.689  96.529  1.00  0.00     0.179 C 
BRANCH  17  22
ATOM     22  C   UNL     1     150.711 139.819  95.621  1.00  0.00     0.225 C 
BRANCH  22  23
ATOM     23  O   UNL     1     151.086 141.170  95.620  1.00  0.00    -0.391 OA
ATOM     24  H   UNL     1     150.252 141.708  95.701  1.00  0.00     0.210 HD
ENDBRANCH  22  23
ENDBRANCH  17  22
BRANCH  18  25
ATOM     25  O   UNL     1     153.445 139.581  95.020  1.00  0.00    -0.385 OA
ATOM     26  H   UNL     1     152.824 139.471  94.257  1.00  0.00     0.211 HD
ENDBRANCH  18  25
BRANCH  20  27
ATOM     27  O   UNL     1     154.395 136.711  96.195  1.00  0.00    -0.387 OA
ATOM     28  H   UNL     1     154.414 136.832  97.181  1.00  0.00     0.211 HD
ENDBRANCH  20  27
BRANCH  21  29
ATOM     29  C   UNL     1     151.515 135.367  95.933  1.00  0.00     0.191 C 
BRANCH  29  30
ATOM     30  O   UNL     1     152.447 134.875  95.009  1.00  0.00    -0.394 OA
ATOM     31  H   UNL     1     151.976 134.165  94.500  1.00  0.00     0.210 HD
ENDBRANCH  29  30
ENDBRANCH  21  29
ENDBRANCH   1  17
TORSDOF 13
ENDMDL
