MODEL 1
REMARK VINA RESULT:    -2.999      0.000      0.000
REMARK INTER + INTRA:          -2.999
REMARK INTER:                  -2.999
REMARK INTRA:                   0.000
REMARK UNBOUND:                 0.000
REMARK SMILES CC(=O)[O-]
REMARK SMILES IDX 1 1 2 2 3 3 4 4
REMARK H PARENT
REMARK Flexibility Score: inf
ROOT
ATOM      1  C   UNL     1       7.965   1.374 -17.195  1.00  0.00     0.063 C 
ATOM      2  C   UNL     1       9.241   0.871 -16.611  1.00  0.00     0.038 C 
ATOM      3  O   UNL     1      10.331   1.435 -16.891  1.00  0.00    -0.550 OA
ATOM      4  O   UNL     1       9.237  -0.258 -15.800  1.00  0.00    -0.550 OA
ENDROOT
TORSDOF 0
ENDMDL
MODEL 2
REMARK VINA RESULT:    -2.985      1.723      2.007
REMARK INTER + INTRA:          -2.985
REMARK INTER:                  -2.985
REMARK INTRA:                   0.000
REMARK UNBOUND:                 0.000
REMARK SMILES CC(=O)[O-]
REMARK SMILES IDX 1 1 2 2 3 3 4 4
REMARK H PARENT
REMARK Flexibility Score: inf
ROOT
ATOM      1  C   UNL     1       9.257   2.824 -16.900  1.00  0.00     0.063 C 
ATOM      2  C   UNL     1       9.671   1.588 -17.624  1.00  0.00     0.038 C 
ATOM      3  O   UNL     1      10.770   1.036 -17.355  1.00  0.00    -0.550 OA
ATOM      4  O   UNL     1       8.871   1.075 -18.638  1.00  0.00    -0.550 OA
ENDROOT
TORSDOF 0
ENDMDL
MODEL 3
REMARK VINA RESULT:    -2.979      1.681      2.042
REMARK INTER + INTRA:          -2.979
REMARK INTER:                  -2.979
REMARK INTRA:                   0.000
REMARK UNBOUND:                 0.000
REMARK SMILES CC(=O)[O-]
REMARK SMILES IDX 1 1 2 2 3 3 4 4
REMARK H PARENT
REMARK Flexibility Score: inf
ROOT
ATOM      1  C   UNL     1       9.186   2.878 -16.849  1.00  0.00     0.063 C 
ATOM      2  C   UNL     1       9.586   1.662 -17.614  1.00  0.00     0.038 C 
ATOM      3  O   UNL     1       8.836   1.207 -18.516  1.00  0.00    -0.550 OA
ATOM      4  O   UNL     1      10.762   0.995 -17.293  1.00  0.00    -0.550 OA
ENDROOT
TORSDOF 0
ENDMDL
MODEL 4
REMARK VINA RESULT:    -2.965      1.605      1.797
REMARK INTER + INTRA:          -2.965
REMARK INTER:                  -2.965
REMARK INTRA:                   0.000
REMARK UNBOUND:                 0.000
REMARK SMILES CC(=O)[O-]
REMARK SMILES IDX 1 1 2 2 3 3 4 4
REMARK H PARENT
REMARK Flexibility Score: inf
ROOT
ATOM      1  C   UNL     1       8.448   1.038 -18.346  1.00  0.00     0.063 C 
ATOM      2  C   UNL     1       9.509   1.711 -17.544  1.00  0.00     0.038 C 
ATOM      3  O   UNL     1       9.315   2.865 -17.079  1.00  0.00    -0.550 OA
ATOM      4  O   UNL     1      10.738   1.090 -17.354  1.00  0.00    -0.550 OA
ENDROOT
TORSDOF 0
ENDMDL
MODEL 5
REMARK VINA RESULT:    -2.866      1.649      1.785
REMARK INTER + INTRA:          -2.866
REMARK INTER:                  -2.866
REMARK INTRA:                   0.000
REMARK UNBOUND:                 0.000
REMARK SMILES CC(=O)[O-]
REMARK SMILES IDX 1 1 2 2 3 3 4 4
REMARK H PARENT
REMARK Flexibility Score: inf
ROOT
ATOM      1  C   UNL     1       9.249   2.520 -17.092  1.00  0.00     0.063 C 
ATOM      2  C   UNL     1       8.586   1.207 -16.850  1.00  0.00     0.038 C 
ATOM      3  O   UNL     1       7.409   1.009 -17.252  1.00  0.00    -0.550 OA
ATOM      4  O   UNL     1       9.244   0.217 -16.131  1.00  0.00    -0.550 OA
ENDROOT
TORSDOF 0
ENDMDL
MODEL 6
REMARK VINA RESULT:    -2.864      2.150      2.296
REMARK INTER + INTRA:          -2.864
REMARK INTER:                  -2.864
REMARK INTRA:                   0.000
REMARK UNBOUND:                 0.000
REMARK SMILES CC(=O)[O-]
REMARK SMILES IDX 1 1 2 2 3 3 4 4
REMARK H PARENT
REMARK Flexibility Score: inf
ROOT
ATOM      1  C   UNL     1       9.463   2.196 -17.201  1.00  0.00     0.063 C 
ATOM      2  C   UNL     1       8.309   1.356 -17.631  1.00  0.00     0.038 C 
ATOM      3  O   UNL     1       8.395   0.645 -18.666  1.00  0.00    -0.550 OA
ATOM      4  O   UNL     1       7.115   1.398 -16.921  1.00  0.00    -0.550 OA
ENDROOT
TORSDOF 0
ENDMDL
MODEL 7
REMARK VINA RESULT:    -2.780      9.319      9.772
REMARK INTER + INTRA:          -2.780
REMARK INTER:                  -2.780
REMARK INTRA:                   0.000
REMARK UNBOUND:                 0.000
REMARK SMILES CC(=O)[O-]
REMARK SMILES IDX 1 1 2 2 3 3 4 4
REMARK H PARENT
REMARK Flexibility Score: inf
ROOT
ATOM      1  C   UNL     1      16.765  -6.087 -18.620  1.00  0.00     0.063 C 
ATOM      2  C   UNL     1      16.687  -4.601 -18.700  1.00  0.00     0.038 C 
ATOM      3  O   UNL     1      15.619  -4.007 -18.399  1.00  0.00    -0.550 OA
ATOM      4  O   UNL     1      17.775  -3.871 -19.162  1.00  0.00    -0.550 OA
ENDROOT
TORSDOF 0
ENDMDL
MODEL 8
REMARK VINA RESULT:    -2.706      8.460      8.810
REMARK INTER + INTRA:          -2.706
REMARK INTER:                  -2.706
REMARK INTRA:                   0.000
REMARK UNBOUND:                 0.000
REMARK SMILES CC(=O)[O-]
REMARK SMILES IDX 1 1 2 2 3 3 4 4
REMARK H PARENT
REMARK Flexibility Score: inf
ROOT
ATOM      1  C   UNL     1       5.127  -6.919 -19.140  1.00  0.00     0.063 C 
ATOM      2  C   UNL     1       5.152  -5.862 -20.192  1.00  0.00     0.038 C 
ATOM      3  O   UNL     1       6.220  -5.245 -20.441  1.00  0.00    -0.550 OA
ATOM      4  O   UNL     1       3.984  -5.518 -20.860  1.00  0.00    -0.550 OA
ENDROOT
TORSDOF 0
ENDMDL
MODEL 9
REMARK VINA RESULT:    -2.535     10.186     10.303
REMARK INTER + INTRA:          -2.535
REMARK INTER:                  -2.535
REMARK INTRA:                   0.000
REMARK UNBOUND:                 0.000
REMARK SMILES CC(=O)[O-]
REMARK SMILES IDX 1 1 2 2 3 3 4 4
REMARK H PARENT
REMARK Flexibility Score: inf
ROOT
ATOM      1  C   UNL     1       2.848   8.638 -19.888  1.00  0.00     0.063 C 
ATOM      2  C   UNL     1       2.096   7.351 -19.893  1.00  0.00     0.038 C 
ATOM      3  O   UNL     1       2.128   6.603 -20.904  1.00  0.00    -0.550 OA
ATOM      4  O   UNL     1       1.310   7.001 -18.801  1.00  0.00    -0.550 OA
ENDROOT
TORSDOF 0
ENDMDL
