MODEL 1
REMARK VINA RESULT:    -4.157      0.000      0.000
REMARK INTER + INTRA:          -4.157
REMARK INTER:                  -4.157
REMARK INTRA:                   0.000
REMARK UNBOUND:                 0.000
REMARK SMILES O=c1ccc2ccccc2o1
REMARK SMILES IDX 7 1 8 2 9 3 10 4 5 5 6 6 4 7 3 8 2 9 1 10 11 11
REMARK H PARENT
REMARK Flexibility Score: inf
ROOT
ATOM      1  C   UNL     1      63.801  40.076  17.635  1.00  0.00     0.001 A 
ATOM      2  C   UNL     1      63.600  40.845  18.785  1.00  0.00     0.004 A 
ATOM      3  C   UNL     1      63.553  42.241  18.700  1.00  0.00     0.048 A 
ATOM      4  C   UNL     1      63.709  42.872  17.461  1.00  0.00     0.138 A 
ATOM      5  C   UNL     1      63.912  42.095  16.298  1.00  0.00     0.018 A 
ATOM      6  C   UNL     1      63.957  40.697  16.391  1.00  0.00     0.012 A 
ATOM      7  C   UNL     1      64.063  42.754  15.074  1.00  0.00     0.019 A 
ATOM      8  C   UNL     1      64.010  44.147  15.036  1.00  0.00     0.094 A 
ATOM      9  C   UNL     1      63.805  44.851  16.228  1.00  0.00     0.336 A 
ATOM     10  O   UNL     1      63.754  46.109  16.213  1.00  0.00    -0.246 OA
ATOM     11  O   UNL     1      63.664  44.200  17.380  1.00  0.00    -0.423 OA
ENDROOT
TORSDOF 0
ENDMDL
MODEL 2
REMARK VINA RESULT:    -4.152     13.942     14.925
REMARK INTER + INTRA:          -4.152
REMARK INTER:                  -4.152
REMARK INTRA:                   0.000
REMARK UNBOUND:                 0.000
REMARK SMILES O=c1ccc2ccccc2o1
REMARK SMILES IDX 7 1 8 2 9 3 10 4 5 5 6 6 4 7 3 8 2 9 1 10 11 11
REMARK H PARENT
REMARK Flexibility Score: inf
ROOT
ATOM      1  C   UNL     1      50.172  47.563  14.456  1.00  0.00     0.001 A 
ATOM      2  C   UNL     1      51.303  46.890  13.982  1.00  0.00     0.004 A 
ATOM      3  C   UNL     1      52.034  47.412  12.908  1.00  0.00     0.048 A 
ATOM      4  C   UNL     1      51.633  48.609  12.304  1.00  0.00     0.138 A 
ATOM      5  C   UNL     1      50.490  49.288  12.782  1.00  0.00     0.018 A 
ATOM      6  C   UNL     1      49.763  48.761  13.859  1.00  0.00     0.012 A 
ATOM      7  C   UNL     1      50.115  50.482  12.159  1.00  0.00     0.019 A 
ATOM      8  C   UNL     1      50.872  50.964  11.092  1.00  0.00     0.094 A 
ATOM      9  C   UNL     1      51.992  50.238  10.672  1.00  0.00     0.336 A 
ATOM     10  O   UNL     1      52.688  50.658   9.710  1.00  0.00    -0.246 OA
ATOM     11  O   UNL     1      52.327  49.104  11.282  1.00  0.00    -0.423 OA
ENDROOT
TORSDOF 0
ENDMDL
MODEL 3
REMARK VINA RESULT:    -4.125      1.598      3.830
REMARK INTER + INTRA:          -4.125
REMARK INTER:                  -4.125
REMARK INTRA:                   0.000
REMARK UNBOUND:                 0.000
REMARK SMILES O=c1ccc2ccccc2o1
REMARK SMILES IDX 7 1 8 2 9 3 10 4 5 5 6 6 4 7 3 8 2 9 1 10 11 11
REMARK H PARENT
REMARK Flexibility Score: inf
ROOT
ATOM      1  C   UNL     1      63.961  44.002  14.947  1.00  0.00     0.001 A 
ATOM      2  C   UNL     1      63.658  44.802  16.054  1.00  0.00     0.004 A 
ATOM      3  C   UNL     1      63.473  44.220  17.313  1.00  0.00     0.048 A 
ATOM      4  C   UNL     1      63.591  42.835  17.469  1.00  0.00     0.138 A 
ATOM      5  C   UNL     1      63.897  42.026  16.351  1.00  0.00     0.018 A 
ATOM      6  C   UNL     1      64.081  42.615  15.092  1.00  0.00     0.012 A 
ATOM      7  C   UNL     1      64.009  40.645  16.538  1.00  0.00     0.019 A 
ATOM      8  C   UNL     1      63.816  40.109  17.810  1.00  0.00     0.094 A 
ATOM      9  C   UNL     1      63.516  40.971  18.871  1.00  0.00     0.336 A 
ATOM     10  O   UNL     1      63.339  40.505  20.028  1.00  0.00    -0.246 OA
ATOM     11  O   UNL     1      63.415  42.282  18.667  1.00  0.00    -0.423 OA
ENDROOT
TORSDOF 0
ENDMDL
MODEL 4
REMARK VINA RESULT:    -3.902     14.041     15.251
REMARK INTER + INTRA:          -3.902
REMARK INTER:                  -3.902
REMARK INTRA:                   0.000
REMARK UNBOUND:                 0.000
REMARK SMILES O=c1ccc2ccccc2o1
REMARK SMILES IDX 7 1 8 2 9 3 10 4 5 5 6 6 4 7 3 8 2 9 1 10 11 11
REMARK H PARENT
REMARK Flexibility Score: inf
ROOT
ATOM      1  C   UNL     1      51.791  50.518  11.065  1.00  0.00     0.001 A 
ATOM      2  C   UNL     1      50.625  51.061  11.614  1.00  0.00     0.004 A 
ATOM      3  C   UNL     1      49.919  50.363  12.600  1.00  0.00     0.048 A 
ATOM      4  C   UNL     1      50.378  49.116  13.039  1.00  0.00     0.138 A 
ATOM      5  C   UNL     1      51.557  48.567  12.485  1.00  0.00     0.018 A 
ATOM      6  C   UNL     1      52.259  49.272  11.498  1.00  0.00     0.012 A 
ATOM      7  C   UNL     1      51.991  47.320  12.945  1.00  0.00     0.019 A 
ATOM      8  C   UNL     1      51.256  46.660  13.929  1.00  0.00     0.094 A 
ATOM      9  C   UNL     1      50.099  47.265  14.432  1.00  0.00     0.336 A 
ATOM     10  O   UNL     1      49.422  46.683  15.321  1.00  0.00    -0.246 OA
ATOM     11  O   UNL     1      49.707  48.452  13.977  1.00  0.00    -0.423 OA
ENDROOT
TORSDOF 0
ENDMDL
MODEL 5
REMARK VINA RESULT:    -3.864     14.166     15.062
REMARK INTER + INTRA:          -3.864
REMARK INTER:                  -3.864
REMARK INTRA:                   0.000
REMARK UNBOUND:                 0.000
REMARK SMILES O=c1ccc2ccccc2o1
REMARK SMILES IDX 7 1 8 2 9 3 10 4 5 5 6 6 4 7 3 8 2 9 1 10 11 11
REMARK H PARENT
REMARK Flexibility Score: inf
ROOT
ATOM      1  C   UNL     1      52.105  48.410  12.664  1.00  0.00     0.001 A 
ATOM      2  C   UNL     1      51.095  49.349  12.892  1.00  0.00     0.004 A 
ATOM      3  C   UNL     1      49.970  49.003  13.649  1.00  0.00     0.048 A 
ATOM      4  C   UNL     1      49.852  47.714  14.179  1.00  0.00     0.138 A 
ATOM      5  C   UNL     1      50.872  46.764  13.949  1.00  0.00     0.018 A 
ATOM      6  C   UNL     1      51.997  47.117  13.190  1.00  0.00     0.012 A 
ATOM      7  C   UNL     1      50.727  45.484  14.492  1.00  0.00     0.019 A 
ATOM      8  C   UNL     1      49.588  45.183  15.239  1.00  0.00     0.094 A 
ATOM      9  C   UNL     1      48.619  46.174  15.426  1.00  0.00     0.336 A 
ATOM     10  O   UNL     1      47.584  45.921  16.099  1.00  0.00    -0.246 OA
ATOM     11  O   UNL     1      48.781  47.385  14.899  1.00  0.00    -0.423 OA
ENDROOT
TORSDOF 0
ENDMDL
MODEL 6
REMARK VINA RESULT:    -3.748     10.763     11.148
REMARK INTER + INTRA:          -3.748
REMARK INTER:                  -3.748
REMARK INTRA:                   0.000
REMARK UNBOUND:                 0.000
REMARK SMILES O=c1ccc2ccccc2o1
REMARK SMILES IDX 7 1 8 2 9 3 10 4 5 5 6 6 4 7 3 8 2 9 1 10 11 11
REMARK H PARENT
REMARK Flexibility Score: inf
ROOT
ATOM      1  C   UNL     1      58.367  33.943  12.959  1.00  0.00     0.001 A 
ATOM      2  C   UNL     1      58.352  33.928  14.358  1.00  0.00     0.004 A 
ATOM      3  C   UNL     1      57.375  34.642  15.060  1.00  0.00     0.048 A 
ATOM      4  C   UNL     1      56.408  35.376  14.362  1.00  0.00     0.138 A 
ATOM      5  C   UNL     1      56.423  35.392  12.950  1.00  0.00     0.018 A 
ATOM      6  C   UNL     1      57.405  34.674  12.253  1.00  0.00     0.012 A 
ATOM      7  C   UNL     1      55.444  36.133  12.281  1.00  0.00     0.019 A 
ATOM      8  C   UNL     1      54.490  36.830  13.021  1.00  0.00     0.094 A 
ATOM      9  C   UNL     1      54.537  36.768  14.418  1.00  0.00     0.336 A 
ATOM     10  O   UNL     1      53.682  37.391  15.103  1.00  0.00    -0.246 OA
ATOM     11  O   UNL     1      55.479  36.055  15.030  1.00  0.00    -0.423 OA
ENDROOT
TORSDOF 0
ENDMDL
MODEL 7
REMARK VINA RESULT:    -3.743     14.038     15.399
REMARK INTER + INTRA:          -3.743
REMARK INTER:                  -3.743
REMARK INTRA:                   0.000
REMARK UNBOUND:                 0.000
REMARK SMILES O=c1ccc2ccccc2o1
REMARK SMILES IDX 7 1 8 2 9 3 10 4 5 5 6 6 4 7 3 8 2 9 1 10 11 11
REMARK H PARENT
REMARK Flexibility Score: inf
ROOT
ATOM      1  C   UNL     1      50.964  51.125  10.407  1.00  0.00     0.001 A 
ATOM      2  C   UNL     1      52.085  50.356  10.078  1.00  0.00     0.004 A 
ATOM      3  C   UNL     1      52.421  49.236  10.848  1.00  0.00     0.048 A 
ATOM      4  C   UNL     1      51.636  48.884  11.951  1.00  0.00     0.138 A 
ATOM      5  C   UNL     1      50.504  49.662  12.284  1.00  0.00     0.018 A 
ATOM      6  C   UNL     1      50.173  50.782  11.508  1.00  0.00     0.012 A 
ATOM      7  C   UNL     1      49.739  49.285  13.392  1.00  0.00     0.019 A 
ATOM      8  C   UNL     1      50.111  48.163  14.131  1.00  0.00     0.094 A 
ATOM      9  C   UNL     1      51.245  47.440  13.742  1.00  0.00     0.336 A 
ATOM     10  O   UNL     1      51.596  46.423  14.397  1.00  0.00    -0.246 OA
ATOM     11  O   UNL     1      51.956  47.820  12.684  1.00  0.00    -0.423 OA
ENDROOT
TORSDOF 0
ENDMDL
MODEL 8
REMARK VINA RESULT:    -3.729     14.919     15.740
REMARK INTER + INTRA:          -3.729
REMARK INTER:                  -3.729
REMARK INTRA:                   0.000
REMARK UNBOUND:                 0.000
REMARK SMILES O=c1ccc2ccccc2o1
REMARK SMILES IDX 7 1 8 2 9 3 10 4 5 5 6 6 4 7 3 8 2 9 1 10 11 11
REMARK H PARENT
REMARK Flexibility Score: inf
ROOT
ATOM      1  C   UNL     1      52.012  50.997  14.503  1.00  0.00     0.001 A 
ATOM      2  C   UNL     1      50.693  50.533  14.523  1.00  0.00     0.004 A 
ATOM      3  C   UNL     1      50.055  50.176  13.330  1.00  0.00     0.048 A 
ATOM      4  C   UNL     1      50.735  50.283  12.112  1.00  0.00     0.138 A 
ATOM      5  C   UNL     1      52.068  50.753  12.091  1.00  0.00     0.018 A 
ATOM      6  C   UNL     1      52.702  51.108  13.290  1.00  0.00     0.012 A 
ATOM      7  C   UNL     1      52.722  50.848  10.860  1.00  0.00     0.019 A 
ATOM      8  C   UNL     1      52.046  50.482   9.696  1.00  0.00     0.094 A 
ATOM      9  C   UNL     1      50.727  50.025   9.793  1.00  0.00     0.336 A 
ATOM     10  O   UNL     1      50.101  49.689   8.753  1.00  0.00    -0.246 OA
ATOM     11  O   UNL     1      50.127  49.944  10.978  1.00  0.00    -0.423 OA
ENDROOT
TORSDOF 0
ENDMDL
MODEL 9
REMARK VINA RESULT:    -3.686     10.740     11.308
REMARK INTER + INTRA:          -3.686
REMARK INTER:                  -3.686
REMARK INTRA:                   0.000
REMARK UNBOUND:                 0.000
REMARK SMILES O=c1ccc2ccccc2o1
REMARK SMILES IDX 7 1 8 2 9 3 10 4 5 5 6 6 4 7 3 8 2 9 1 10 11 11
REMARK H PARENT
REMARK Flexibility Score: inf
ROOT
ATOM      1  C   UNL     1      54.561  36.884  13.032  1.00  0.00     0.001 A 
ATOM      2  C   UNL     1      54.644  36.866  14.428  1.00  0.00     0.004 A 
ATOM      3  C   UNL     1      55.652  36.130  15.063  1.00  0.00     0.048 A 
ATOM      4  C   UNL     1      56.578  35.409  14.302  1.00  0.00     0.138 A 
ATOM      5  C   UNL     1      56.493  35.427  12.892  1.00  0.00     0.018 A 
ATOM      6  C   UNL     1      55.482  36.166  12.262  1.00  0.00     0.012 A 
ATOM      7  C   UNL     1      57.434  34.697  12.158  1.00  0.00     0.019 A 
ATOM      8  C   UNL     1      58.419  33.978  12.833  1.00  0.00     0.094 A 
ATOM      9  C   UNL     1      58.442  34.007  14.232  1.00  0.00     0.336 A 
ATOM     10  O   UNL     1      59.325  33.364  14.859  1.00  0.00    -0.246 OA
ATOM     11  O   UNL     1      57.535  34.709  14.906  1.00  0.00    -0.423 OA
ENDROOT
TORSDOF 0
ENDMDL
