MODEL 1
REMARK VINA RESULT:    -5.550      0.000      0.000
REMARK INTER + INTRA:          -8.058
REMARK INTER:                  -7.821
REMARK INTRA:                  -0.237
REMARK UNBOUND:                -0.237
REMARK SMILES CCCCCCCCC(=O)[O-]
REMARK SMILES IDX 6 1 7 2 8 3 9 4 10 5 11 6 5 7 4 8 3 9 2 10 1 11
REMARK H PARENT
REMARK Flexibility Score: inf
ROOT
ATOM      1  C   UNL     1      -1.025   8.636 -38.395  1.00  0.00     0.000 C 
ENDROOT
BRANCH   1   2
ATOM      2  C   UNL     1      -1.031  10.171 -38.291  1.00  0.00     0.006 C 
BRANCH   2   3
ATOM      3  C   UNL     1       0.385  10.760 -38.345  1.00  0.00     0.053 C 
BRANCH   3   4
ATOM      4  C   UNL     1       0.415  12.188 -37.894  1.00  0.00     0.041 C 
ATOM      5  O   UNL     1       1.291  12.975 -38.341  1.00  0.00    -0.550 OA
ATOM      6  O   UNL     1      -0.542  12.659 -37.005  1.00  0.00    -0.550 OA
ENDBRANCH   3   4
ENDBRANCH   2   3
ENDBRANCH   1   2
BRANCH   1   7
ATOM      7  C   UNL     1      -1.505   8.136 -39.768  1.00  0.00     0.000 C 
BRANCH   7   8
ATOM      8  C   UNL     1      -0.598   7.034 -40.343  1.00  0.00    -0.000 C 
BRANCH   8   9
ATOM      9  C   UNL     1       0.214   7.505 -41.564  1.00  0.00    -0.000 C 
BRANCH   9  10
ATOM     10  C   UNL     1       0.822   6.375 -42.415  1.00  0.00    -0.003 C 
ATOM     11  C   UNL     1       2.020   5.702 -41.747  1.00  0.00     0.004 C 
ENDBRANCH   9  10
ENDBRANCH   8   9
ENDBRANCH   7   8
ENDBRANCH   1   7
TORSDOF 7
ENDMDL
MODEL 2
REMARK VINA RESULT:    -5.474      1.028      1.339
REMARK INTER + INTRA:          -7.950
REMARK INTER:                  -7.787
REMARK INTRA:                  -0.163
REMARK UNBOUND:                -0.237
REMARK SMILES CCCCCCCCC(=O)[O-]
REMARK SMILES IDX 6 1 7 2 8 3 9 4 10 5 11 6 5 7 4 8 3 9 2 10 1 11
REMARK H PARENT
REMARK Flexibility Score: inf
ROOT
ATOM      1  C   UNL     1      -0.572   9.174 -38.633  1.00  0.00     0.000 C 
ENDROOT
BRANCH   1   2
ATOM      2  C   UNL     1      -1.264  10.496 -38.257  1.00  0.00     0.006 C 
BRANCH   2   3
ATOM      3  C   UNL     1      -0.257  11.581 -37.854  1.00  0.00     0.053 C 
BRANCH   3   4
ATOM      4  C   UNL     1      -0.931  12.769 -37.238  1.00  0.00     0.041 C 
ATOM      5  O   UNL     1      -1.260  12.750 -36.022  1.00  0.00    -0.550 OA
ATOM      6  O   UNL     1      -1.167  13.908 -37.996  1.00  0.00    -0.550 OA
ENDBRANCH   3   4
ENDBRANCH   2   3
ENDBRANCH   1   2
BRANCH   1   7
ATOM      7  C   UNL     1      -1.453   8.277 -39.517  1.00  0.00     0.000 C 
BRANCH   7   8
ATOM      8  C   UNL     1      -0.665   7.121 -40.157  1.00  0.00    -0.000 C 
BRANCH   8   9
ATOM      9  C   UNL     1       0.105   7.548 -41.420  1.00  0.00    -0.000 C 
BRANCH   9  10
ATOM     10  C   UNL     1       0.650   6.388 -42.272  1.00  0.00    -0.003 C 
ATOM     11  C   UNL     1       1.909   5.754 -41.683  1.00  0.00     0.004 C 
ENDBRANCH   9  10
ENDBRANCH   8   9
ENDBRANCH   7   8
ENDBRANCH   1   7
TORSDOF 7
ENDMDL
MODEL 3
REMARK VINA RESULT:    -5.308      2.940      4.677
REMARK INTER + INTRA:          -7.717
REMARK INTER:                  -7.505
REMARK INTRA:                  -0.213
REMARK UNBOUND:                -0.237
REMARK SMILES CCCCCCCCC(=O)[O-]
REMARK SMILES IDX 6 1 7 2 8 3 9 4 10 5 11 6 5 7 4 8 3 9 2 10 1 11
REMARK H PARENT
REMARK Flexibility Score: inf
ROOT
ATOM      1  C   UNL     1      -1.674   8.506 -39.131  1.00  0.00     0.000 C 
ENDROOT
BRANCH   1   2
ATOM      2  C   UNL     1      -0.670   9.398 -38.380  1.00  0.00     0.006 C 
BRANCH   2   3
ATOM      3  C   UNL     1      -1.128  10.861 -38.321  1.00  0.00     0.053 C 
BRANCH   3   4
ATOM      4  C   UNL     1      -0.102  11.743 -37.678  1.00  0.00     0.041 C 
ATOM      5  O   UNL     1      -0.447  12.583 -36.805  1.00  0.00    -0.550 OA
ATOM      6  O   UNL     1       1.238  11.616 -38.018  1.00  0.00    -0.550 OA
ENDBRANCH   3   4
ENDBRANCH   2   3
ENDBRANCH   1   2
BRANCH   1   7
ATOM      7  C   UNL     1      -2.916   9.281 -39.601  1.00  0.00     0.000 C 
BRANCH   7   8
ATOM      8  C   UNL     1      -4.191   8.867 -38.845  1.00  0.00    -0.000 C 
BRANCH   8   9
ATOM      9  C   UNL     1      -5.478   9.168 -39.634  1.00  0.00    -0.000 C 
BRANCH   9  10
ATOM     10  C   UNL     1      -6.737   8.444 -39.123  1.00  0.00    -0.003 C 
ATOM     11  C   UNL     1      -7.289   7.427 -40.120  1.00  0.00     0.004 C 
ENDBRANCH   9  10
ENDBRANCH   8   9
ENDBRANCH   7   8
ENDBRANCH   1   7
TORSDOF 7
ENDMDL
MODEL 4
REMARK VINA RESULT:    -5.275      4.438      6.437
REMARK INTER + INTRA:          -7.670
REMARK INTER:                  -7.406
REMARK INTRA:                  -0.264
REMARK UNBOUND:                -0.237
REMARK SMILES CCCCCCCCC(=O)[O-]
REMARK SMILES IDX 6 1 7 2 8 3 9 4 10 5 11 6 5 7 4 8 3 9 2 10 1 11
REMARK H PARENT
REMARK Flexibility Score: inf
ROOT
ATOM      1  C   UNL     1      -2.415   8.874 -39.333  1.00  0.00     0.000 C 
ENDROOT
BRANCH   1   2
ATOM      2  C   UNL     1      -3.812   9.374 -39.741  1.00  0.00     0.006 C 
BRANCH   2   3
ATOM      3  C   UNL     1      -4.920   8.772 -38.867  1.00  0.00     0.053 C 
BRANCH   3   4
ATOM      4  C   UNL     1      -6.270   8.913 -39.500  1.00  0.00     0.041 C 
ATOM      5  O   UNL     1      -6.949   7.888 -39.778  1.00  0.00    -0.550 OA
ATOM      6  O   UNL     1      -6.794  10.173 -39.755  1.00  0.00    -0.550 OA
ENDBRANCH   3   4
ENDBRANCH   2   3
ENDBRANCH   1   2
BRANCH   1   7
ATOM      7  C   UNL     1      -1.767   9.751 -38.249  1.00  0.00     0.000 C 
BRANCH   7   8
ATOM      8  C   UNL     1      -0.350  10.212 -38.633  1.00  0.00    -0.000 C 
BRANCH   8   9
ATOM      9  C   UNL     1       0.096  11.474 -37.872  1.00  0.00    -0.000 C 
BRANCH   9  10
ATOM     10  C   UNL     1      -0.972  12.577 -37.762  1.00  0.00    -0.003 C 
ATOM     11  C   UNL     1      -1.358  12.894 -36.319  1.00  0.00     0.004 C 
ENDBRANCH   9  10
ENDBRANCH   8   9
ENDBRANCH   7   8
ENDBRANCH   1   7
TORSDOF 7
ENDMDL
MODEL 5
REMARK VINA RESULT:    -5.244      4.493      6.449
REMARK INTER + INTRA:          -7.626
REMARK INTER:                  -7.404
REMARK INTRA:                  -0.223
REMARK UNBOUND:                -0.237
REMARK SMILES CCCCCCCCC(=O)[O-]
REMARK SMILES IDX 6 1 7 2 8 3 9 4 10 5 11 6 5 7 4 8 3 9 2 10 1 11
REMARK H PARENT
REMARK Flexibility Score: inf
ROOT
ATOM      1  C   UNL     1      -3.030   9.170 -39.764  1.00  0.00     0.000 C 
ENDROOT
BRANCH   1   2
ATOM      2  C   UNL     1      -4.322   8.851 -38.991  1.00  0.00     0.006 C 
BRANCH   2   3
ATOM      3  C   UNL     1      -5.573   9.358 -39.721  1.00  0.00     0.053 C 
BRANCH   3   4
ATOM      4  C   UNL     1      -6.806   8.623 -39.293  1.00  0.00     0.041 C 
ATOM      5  O   UNL     1      -7.540   9.093 -38.383  1.00  0.00    -0.550 OA
ATOM      6  O   UNL     1      -7.164   7.436 -39.919  1.00  0.00    -0.550 OA
ENDBRANCH   3   4
ENDBRANCH   2   3
ENDBRANCH   1   2
BRANCH   1   7
ATOM      7  C   UNL     1      -1.838   8.317 -39.300  1.00  0.00     0.000 C 
BRANCH   7   8
ATOM      8  C   UNL     1      -0.769   9.145 -38.568  1.00  0.00    -0.000 C 
BRANCH   8   9
ATOM      9  C   UNL     1      -1.264  10.549 -38.176  1.00  0.00    -0.000 C 
BRANCH   9  10
ATOM     10  C   UNL     1      -0.155  11.546 -37.794  1.00  0.00    -0.003 C 
ATOM     11  C   UNL     1      -0.676  12.750 -37.011  1.00  0.00     0.004 C 
ENDBRANCH   9  10
ENDBRANCH   8   9
ENDBRANCH   7   8
ENDBRANCH   1   7
TORSDOF 7
ENDMDL
MODEL 6
REMARK VINA RESULT:    -5.159      3.655      6.151
REMARK INTER + INTRA:          -7.507
REMARK INTER:                  -7.241
REMARK INTRA:                  -0.266
REMARK UNBOUND:                -0.237
REMARK SMILES CCCCCCCCC(=O)[O-]
REMARK SMILES IDX 6 1 7 2 8 3 9 4 10 5 11 6 5 7 4 8 3 9 2 10 1 11
REMARK H PARENT
REMARK Flexibility Score: inf
ROOT
ATOM      1  C   UNL     1      -0.899   8.298 -38.993  1.00  0.00     0.000 C 
ENDROOT
BRANCH   1   2
ATOM      2  C   UNL     1      -1.033   7.288 -40.147  1.00  0.00     0.006 C 
BRANCH   2   3
ATOM      3  C   UNL     1       0.066   7.466 -41.203  1.00  0.00     0.053 C 
BRANCH   3   4
ATOM      4  C   UNL     1       0.639   6.154 -41.641  1.00  0.00     0.041 C 
ATOM      5  O   UNL     1       1.606   6.123 -42.448  1.00  0.00    -0.550 OA
ATOM      6  O   UNL     1       0.129   4.966 -41.135  1.00  0.00    -0.550 OA
ENDBRANCH   3   4
ENDBRANCH   2   3
ENDBRANCH   1   2
BRANCH   1   7
ATOM      7  C   UNL     1      -2.042   9.325 -38.971  1.00  0.00     0.000 C 
BRANCH   7   8
ATOM      8  C   UNL     1      -1.749  10.514 -38.040  1.00  0.00    -0.000 C 
BRANCH   8   9
ATOM      9  C   UNL     1      -0.287  10.992 -38.123  1.00  0.00    -0.000 C 
BRANCH   9  10
ATOM     10  C   UNL     1      -0.031  12.399 -37.554  1.00  0.00    -0.003 C 
ATOM     11  C   UNL     1      -1.079  12.831 -36.530  1.00  0.00     0.004 C 
ENDBRANCH   9  10
ENDBRANCH   8   9
ENDBRANCH   7   8
ENDBRANCH   1   7
TORSDOF 7
ENDMDL
MODEL 7
REMARK VINA RESULT:    -5.143      2.594      3.962
REMARK INTER + INTRA:          -7.484
REMARK INTER:                  -7.316
REMARK INTRA:                  -0.168
REMARK UNBOUND:                -0.237
REMARK SMILES CCCCCCCCC(=O)[O-]
REMARK SMILES IDX 6 1 7 2 8 3 9 4 10 5 11 6 5 7 4 8 3 9 2 10 1 11
REMARK H PARENT
REMARK Flexibility Score: inf
ROOT
ATOM      1  C   UNL     1      -1.110  10.460 -38.322  1.00  0.00     0.000 C 
ENDROOT
BRANCH   1   2
ATOM      2  C   UNL     1       0.247  11.186 -38.345  1.00  0.00     0.006 C 
BRANCH   2   3
ATOM      3  C   UNL     1       0.346  12.262 -37.255  1.00  0.00     0.053 C 
BRANCH   3   4
ATOM      4  C   UNL     1      -0.959  12.967 -37.044  1.00  0.00     0.041 C 
ATOM      5  O   UNL     1      -1.312  13.891 -37.825  1.00  0.00    -0.550 OA
ATOM      6  O   UNL     1      -1.799  12.586 -36.007  1.00  0.00    -0.550 OA
ENDBRANCH   3   4
ENDBRANCH   2   3
ENDBRANCH   1   2
BRANCH   1   7
ATOM      7  C   UNL     1      -0.968   8.938 -38.482  1.00  0.00     0.000 C 
BRANCH   7   8
ATOM      8  C   UNL     1      -1.970   8.355 -39.493  1.00  0.00    -0.000 C 
BRANCH   8   9
ATOM      9  C   UNL     1      -3.225   9.231 -39.665  1.00  0.00    -0.000 C 
BRANCH   9  10
ATOM     10  C   UNL     1      -4.414   8.844 -38.767  1.00  0.00    -0.003 C 
ATOM     11  C   UNL     1      -5.768   9.072 -39.437  1.00  0.00     0.004 C 
ENDBRANCH   9  10
ENDBRANCH   8   9
ENDBRANCH   7   8
ENDBRANCH   1   7
TORSDOF 7
ENDMDL
MODEL 8
REMARK VINA RESULT:    -5.056      4.400      5.426
REMARK INTER + INTRA:          -7.362
REMARK INTER:                  -7.104
REMARK INTRA:                  -0.258
REMARK UNBOUND:                -0.237
REMARK SMILES CCCCCCCCC(=O)[O-]
REMARK SMILES IDX 6 1 7 2 8 3 9 4 10 5 11 6 5 7 4 8 3 9 2 10 1 11
REMARK H PARENT
REMARK Flexibility Score: inf
ROOT
ATOM      1  C   UNL     1      -3.134   9.191 -39.622  1.00  0.00     0.000 C 
ENDROOT
BRANCH   1   2
ATOM      2  C   UNL     1      -4.468   8.992 -38.881  1.00  0.00     0.006 C 
BRANCH   2   3
ATOM      3  C   UNL     1      -5.677   9.277 -39.781  1.00  0.00     0.053 C 
BRANCH   3   4
ATOM      4  C   UNL     1      -6.899   8.540 -39.325  1.00  0.00     0.041 C 
ATOM      5  O   UNL     1      -7.603   9.000 -38.387  1.00  0.00    -0.550 OA
ATOM      6  O   UNL     1      -7.280   7.364 -39.956  1.00  0.00    -0.550 OA
ENDBRANCH   3   4
ENDBRANCH   2   3
ENDBRANCH   1   2
BRANCH   1   7
ATOM      7  C   UNL     1      -1.958   9.445 -38.664  1.00  0.00     0.000 C 
BRANCH   7   8
ATOM      8  C   UNL     1      -0.754   8.532 -38.952  1.00  0.00    -0.000 C 
BRANCH   8   9
ATOM      9  C   UNL     1      -1.030   7.515 -40.074  1.00  0.00    -0.000 C 
BRANCH   9  10
ATOM     10  C   UNL     1      -0.014   7.532 -41.231  1.00  0.00    -0.003 C 
ATOM     11  C   UNL     1       0.495   6.140 -41.601  1.00  0.00     0.004 C 
ENDBRANCH   9  10
ENDBRANCH   8   9
ENDBRANCH   7   8
ENDBRANCH   1   7
TORSDOF 7
ENDMDL
MODEL 9
REMARK VINA RESULT:    -4.853      6.753      8.320
REMARK INTER + INTRA:          -7.076
REMARK INTER:                  -6.902
REMARK INTRA:                  -0.174
REMARK UNBOUND:                -0.237
REMARK SMILES CCCCCCCCC(=O)[O-]
REMARK SMILES IDX 6 1 7 2 8 3 9 4 10 5 11 6 5 7 4 8 3 9 2 10 1 11
REMARK H PARENT
REMARK Flexibility Score: inf
ROOT
ATOM      1  C   UNL     1      -7.058   8.177 -39.279  1.00  0.00     0.000 C 
ENDROOT
BRANCH   1   2
ATOM      2  C   UNL     1      -7.360   7.273 -40.487  1.00  0.00     0.006 C 
BRANCH   2   3
ATOM      3  C   UNL     1      -7.785   5.861 -40.061  1.00  0.00     0.053 C 
BRANCH   3   4
ATOM      4  C   UNL     1      -8.108   4.995 -41.240  1.00  0.00     0.041 C 
ATOM      5  O   UNL     1      -7.706   5.315 -42.390  1.00  0.00    -0.550 OA
ATOM      6  O   UNL     1      -8.823   3.818 -41.066  1.00  0.00    -0.550 OA
ENDBRANCH   3   4
ENDBRANCH   2   3
ENDBRANCH   1   2
BRANCH   1   7
ATOM      7  C   UNL     1      -5.889   9.141 -39.541  1.00  0.00     0.000 C 
BRANCH   7   8
ATOM      8  C   UNL     1      -4.576   8.665 -38.898  1.00  0.00    -0.000 C 
BRANCH   8   9
ATOM      9  C   UNL     1      -3.327   9.223 -39.605  1.00  0.00    -0.000 C 
BRANCH   9  10
ATOM     10  C   UNL     1      -2.200   9.685 -38.663  1.00  0.00    -0.003 C 
ATOM     11  C   UNL     1      -0.989   8.755 -38.678  1.00  0.00     0.004 C 
ENDBRANCH   9  10
ENDBRANCH   8   9
ENDBRANCH   7   8
ENDBRANCH   1   7
TORSDOF 7
ENDMDL
