MODEL 1
REMARK VINA RESULT:    -3.850      0.000      0.000
REMARK INTER + INTRA:          -5.903
REMARK INTER:                  -5.876
REMARK INTRA:                  -0.027
REMARK UNBOUND:                -0.027
REMARK SMILES CC1=CCC[C@H](C)C(=O)C[C@H](C(C)C)C(=O)C1
REMARK SMILES IDX 8 1 9 2 6 3 7 4 5 5 4 6 3 7 2 8 1 9 10 11 11 12 15 13 16 14
REMARK SMILES IDX 17 15 12 17 13 18 14 19
REMARK H PARENT
REMARK Flexibility Score: 70.00
ROOT
ATOM      1  C   UNL     1      20.678  22.327   9.106  1.00  0.00     0.136 C 
ATOM      2  O   UNL     1      21.473  22.138  10.016  1.00  0.00    -0.299 OA
ENDROOT
BRANCH   1   3
ATOM      3  C   UNL     1      20.420  23.755   8.657  1.00  0.00     0.053 C 
ATOM      4  C   UNL     1      21.048  24.019   7.280  1.00  0.00     0.016 C 
BRANCH   3   5
ATOM      5  C   UNL     1      18.899  24.040   8.644  1.00  0.00     0.015 C 
BRANCH   5   6
ATOM      6  C   UNL     1      18.184  23.536   9.919  1.00  0.00     0.028 C 
BRANCH   6   7
ATOM      7  C   UNL     1      16.793  23.027   9.624  1.00  0.00    -0.028 C 
ATOM      8  C   UNL     1      16.358  21.765   9.858  1.00  0.00    -0.070 CG0
ATOM      9  C   UNL     1      14.941  21.421   9.476  1.00  0.00     0.039 C 
ATOM     10  G   UNL     1      17.229  20.684  10.475  1.00  0.00     0.000 G0
ENDBRANCH   6   7
ENDBRANCH   5   6
ENDBRANCH   3   5
ENDBRANCH   1   3
BRANCH   1  11
ATOM     11  C   UNL     1      20.031  21.104   8.475  1.00  0.00     0.087 C 
BRANCH  11  12
ATOM     12  C   UNL     1      19.538  19.987   9.439  1.00  0.00     0.066 C 
BRANCH  12  13
ATOM     13  C   UNL     1      18.019  19.896   9.467  1.00  0.00     0.140 C 
ATOM     14  O   UNL     1      17.443  19.138   8.698  1.00  0.00    -0.299 OA
BRANCH  13  15
ATOM     15  C   UNL     1      17.224  20.668  10.495  1.00  0.00     0.106 CG0
ATOM     16  G   UNL     1      16.358  21.751   9.873  1.00  0.00     0.000 G0
ENDBRANCH  13  15
ENDBRANCH  12  13
BRANCH  12  17
ATOM     17  C   UNL     1      20.163  18.587   9.140  1.00  0.00    -0.006 C 
ATOM     18  C   UNL     1      21.011  18.532   7.857  1.00  0.00     0.008 C 
ATOM     19  C   UNL     1      20.982  18.060  10.330  1.00  0.00     0.008 C 
ENDBRANCH  12  17
ENDBRANCH  11  12
ENDBRANCH   1  11
TORSDOF 1
ENDMDL
MODEL 2
REMARK VINA RESULT:    -3.809      2.103      4.571
REMARK INTER + INTRA:          -5.840
REMARK INTER:                  -5.823
REMARK INTRA:                  -0.016
REMARK UNBOUND:                -0.027
REMARK SMILES CC1=CCC[C@H](C)C(=O)C[C@H](C(C)C)C(=O)C1
REMARK SMILES IDX 8 1 9 2 6 3 7 4 5 5 4 6 3 7 2 8 1 9 10 11 11 12 15 13 16 14
REMARK SMILES IDX 17 15 12 17 13 18 14 19
REMARK H PARENT
REMARK Flexibility Score: 70.00
ROOT
ATOM      1  C   UNL     1      18.615  21.722   9.297  1.00  0.00     0.136 C 
ATOM      2  O   UNL     1      18.083  22.823   9.322  1.00  0.00    -0.299 OA
ENDROOT
BRANCH   1   3
ATOM      3  C   UNL     1      19.872  21.546   8.463  1.00  0.00     0.053 C 
ATOM      4  C   UNL     1      20.649  22.865   8.355  1.00  0.00     0.016 C 
BRANCH   3   5
ATOM      5  C   UNL     1      20.753  20.423   9.062  1.00  0.00     0.015 C 
BRANCH   5   6
ATOM      6  C   UNL     1      20.836  19.177   8.151  1.00  0.00     0.028 C 
BRANCH   6   7
ATOM      7  C   UNL     1      20.636  17.896   8.925  1.00  0.00    -0.028 C 
ATOM      8  C   UNL     1      19.454  17.248   9.070  1.00  0.00    -0.070 CG0
ATOM      9  C   UNL     1      19.430  15.992   9.902  1.00  0.00     0.039 C 
ATOM     10  G   UNL     1      18.157  17.731   8.444  1.00  0.00     0.000 G0
ENDBRANCH   6   7
ENDBRANCH   5   6
ENDBRANCH   3   5
ENDBRANCH   1   3
BRANCH   1  11
ATOM     11  C   UNL     1      17.986  20.620  10.135  1.00  0.00     0.087 C 
BRANCH  11  12
ATOM     12  C   UNL     1      16.848  19.791   9.474  1.00  0.00     0.066 C 
BRANCH  12  13
ATOM     13  C   UNL     1      17.165  18.303   9.466  1.00  0.00     0.140 C 
ATOM     14  O   UNL     1      16.580  17.554  10.236  1.00  0.00    -0.299 OA
BRANCH  13  15
ATOM     15  C   UNL     1      18.133  17.731   8.455  1.00  0.00     0.106 CG0
ATOM     16  G   UNL     1      19.433  17.265   9.087  1.00  0.00     0.000 G0
ENDBRANCH  13  15
ENDBRANCH  12  13
BRANCH  12  17
ATOM     17  C   UNL     1      15.444  20.045  10.110  1.00  0.00    -0.006 C 
ATOM     18  C   UNL     1      15.465  20.240  11.637  1.00  0.00     0.008 C 
ATOM     19  C   UNL     1      14.719  21.227   9.444  1.00  0.00     0.008 C 
ENDBRANCH  12  17
ENDBRANCH  11  12
ENDBRANCH   1  11
TORSDOF 1
ENDMDL
MODEL 3
REMARK VINA RESULT:    -3.638      4.261      6.765
REMARK INTER + INTRA:          -5.578
REMARK INTER:                  -5.321
REMARK INTRA:                  -0.257
REMARK UNBOUND:                -0.027
REMARK SMILES CC1=CCC[C@H](C)C(=O)C[C@H](C(C)C)C(=O)C1
REMARK SMILES IDX 8 1 9 2 6 3 7 4 5 5 4 6 3 7 2 8 1 9 10 11 11 12 15 13 16 14
REMARK SMILES IDX 17 15 12 17 13 18 14 19
REMARK H PARENT
REMARK Flexibility Score: 70.00
ROOT
ATOM      1  C   UNL     1      16.850  17.955  11.024  1.00  0.00     0.136 C 
ATOM      2  O   UNL     1      15.839  18.624  10.870  1.00  0.00    -0.299 OA
ENDROOT
BRANCH   1   3
ATOM      3  C   UNL     1      17.395  17.784  12.432  1.00  0.00     0.053 C 
ATOM      4  C   UNL     1      16.661  18.701  13.420  1.00  0.00     0.016 C 
BRANCH   3   5
ATOM      5  C   UNL     1      17.295  16.301  12.863  1.00  0.00     0.015 C 
BRANCH   5   6
ATOM      6  C   UNL     1      18.678  15.653  13.106  1.00  0.00     0.028 C 
BRANCH   6   7
ATOM      7  C   UNL     1      18.787  14.293  12.460  1.00  0.00    -0.028 C 
ATOM      8  C   UNL     1      19.487  14.018  11.332  1.00  0.00    -0.070 CG0
ATOM      9  C   UNL     1      19.465  12.604  10.810  1.00  0.00     0.039 C 
ATOM     10  G   UNL     1      20.282  15.065  10.570  1.00  0.00     0.000 G0
ENDBRANCH   6   7
ENDBRANCH   5   6
ENDBRANCH   3   5
ENDBRANCH   1   3
BRANCH   1  11
ATOM     11  C   UNL     1      17.467  17.319   9.788  1.00  0.00     0.087 C 
BRANCH  11  12
ATOM     12  C   UNL     1      19.019  17.215   9.746  1.00  0.00     0.066 C 
BRANCH  12  13
ATOM     13  C   UNL     1      19.482  15.785   9.509  1.00  0.00     0.140 C 
ATOM     14  O   UNL     1      19.259  15.246   8.434  1.00  0.00    -0.299 OA
BRANCH  13  15
ATOM     15  C   UNL     1      20.291  15.058  10.559  1.00  0.00     0.106 CG0
ATOM     16  G   UNL     1      19.469  14.039  11.330  1.00  0.00     0.000 G0
ENDBRANCH  13  15
ENDBRANCH  12  13
BRANCH  12  17
ATOM     17  C   UNL     1      19.679  18.180   8.710  1.00  0.00    -0.006 C 
ATOM     18  C   UNL     1      18.685  18.852   7.746  1.00  0.00     0.008 C 
ATOM     19  C   UNL     1      20.544  19.251   9.396  1.00  0.00     0.008 C 
ENDBRANCH  12  17
ENDBRANCH  11  12
ENDBRANCH   1  11
TORSDOF 1
ENDMDL
MODEL 4
REMARK VINA RESULT:    -3.589      2.172      4.720
REMARK INTER + INTRA:          -5.504
REMARK INTER:                  -5.267
REMARK INTRA:                  -0.237
REMARK UNBOUND:                -0.027
REMARK SMILES CC1=CCC[C@H](C)C(=O)C[C@H](C(C)C)C(=O)C1
REMARK SMILES IDX 8 1 9 2 6 3 7 4 5 5 4 6 3 7 2 8 1 9 10 11 11 12 15 13 16 14
REMARK SMILES IDX 17 15 12 17 13 18 14 19
REMARK H PARENT
REMARK Flexibility Score: 70.00
ROOT
ATOM      1  C   UNL     1      17.226  21.411  10.710  1.00  0.00     0.136 C 
ATOM      2  O   UNL     1      17.551  22.196  11.589  1.00  0.00    -0.299 OA
ENDROOT
BRANCH   1   3
ATOM      3  C   UNL     1      16.062  20.471  10.975  1.00  0.00     0.053 C 
ATOM      4  C   UNL     1      15.233  20.251   9.701  1.00  0.00     0.016 C 
BRANCH   3   5
ATOM      5  C   UNL     1      16.583  19.130  11.544  1.00  0.00     0.015 C 
BRANCH   5   6
ATOM      6  C   UNL     1      16.541  17.982  10.508  1.00  0.00     0.028 C 
BRANCH   6   7
ATOM      7  C   UNL     1      17.880  17.299  10.366  1.00  0.00    -0.028 C 
ATOM      8  C   UNL     1      18.822  17.612   9.443  1.00  0.00    -0.070 CG0
ATOM      9  C   UNL     1      20.096  16.805   9.427  1.00  0.00     0.039 C 
ATOM     10  G   UNL     1      18.652  18.725   8.424  1.00  0.00     0.000 G0
ENDBRANCH   6   7
ENDBRANCH   5   6
ENDBRANCH   3   5
ENDBRANCH   1   3
BRANCH   1  11
ATOM     11  C   UNL     1      18.000  21.461   9.403  1.00  0.00     0.087 C 
BRANCH  11  12
ATOM     12  C   UNL     1      19.482  20.986   9.440  1.00  0.00     0.066 C 
BRANCH  12  13
ATOM     13  C   UNL     1      19.713  19.791   8.526  1.00  0.00     0.140 C 
ATOM     14  O   UNL     1      20.786  19.663   7.954  1.00  0.00    -0.299 OA
BRANCH  13  15
ATOM     15  C   UNL     1      18.658  18.716   8.390  1.00  0.00     0.106 CG0
ATOM     16  G   UNL     1      18.805  17.616   9.428  1.00  0.00     0.000 G0
ENDBRANCH  13  15
ENDBRANCH  12  13
BRANCH  12  17
ATOM     17  C   UNL     1      20.507  22.120   9.121  1.00  0.00    -0.006 C 
ATOM     18  C   UNL     1      19.930  23.282   8.293  1.00  0.00     0.008 C 
ATOM     19  C   UNL     1      21.168  22.668  10.397  1.00  0.00     0.008 C 
ENDBRANCH  12  17
ENDBRANCH  11  12
ENDBRANCH   1  11
TORSDOF 1
ENDMDL
MODEL 5
REMARK VINA RESULT:    -3.577      5.654      7.494
REMARK INTER + INTRA:          -5.486
REMARK INTER:                  -5.450
REMARK INTRA:                  -0.035
REMARK UNBOUND:                -0.027
REMARK SMILES CC1=CCC[C@H](C)C(=O)C[C@H](C(C)C)C(=O)C1
REMARK SMILES IDX 8 1 9 2 6 3 7 4 5 5 4 6 3 7 2 8 1 9 10 11 11 12 15 13 16 14
REMARK SMILES IDX 17 15 12 17 13 18 14 19
REMARK H PARENT
REMARK Flexibility Score: 70.00
ROOT
ATOM      1  C   UNL     1      17.776  15.747  14.576  1.00  0.00     0.136 C 
ATOM      2  O   UNL     1      17.373  14.609  14.381  1.00  0.00    -0.299 OA
ENDROOT
BRANCH   1   3
ATOM      3  C   UNL     1      18.633  16.403  13.508  1.00  0.00     0.053 C 
ATOM      4  C   UNL     1      19.777  15.475  13.074  1.00  0.00     0.016 C 
BRANCH   3   5
ATOM      5  C   UNL     1      17.754  16.811  12.301  1.00  0.00     0.015 C 
BRANCH   5   6
ATOM      6  C   UNL     1      17.395  18.315  12.303  1.00  0.00     0.028 C 
BRANCH   6   7
ATOM      7  C   UNL     1      15.936  18.550  11.991  1.00  0.00    -0.028 C 
ATOM      8  C   UNL     1      15.013  19.006  12.872  1.00  0.00    -0.070 CG0
ATOM      9  C   UNL     1      13.591  19.155  12.397  1.00  0.00     0.039 C 
ATOM     10  G   UNL     1      15.341  19.363  14.312  1.00  0.00     0.000 G0
ENDBRANCH   6   7
ENDBRANCH   5   6
ENDBRANCH   3   5
ENDBRANCH   1   3
BRANCH   1  11
ATOM     11  C   UNL     1      17.358  16.427  15.870  1.00  0.00     0.087 C 
BRANCH  11  12
ATOM     12  C   UNL     1      16.990  17.937  15.788  1.00  0.00     0.066 C 
BRANCH  12  13
ATOM     13  C   UNL     1      15.606  18.148  15.191  1.00  0.00     0.140 C 
ATOM     14  O   UNL     1      14.701  17.373  15.467  1.00  0.00    -0.299 OA
BRANCH  13  15
ATOM     15  C   UNL     1      15.321  19.356  14.328  1.00  0.00     0.106 CG0
ATOM     16  G   UNL     1      15.001  18.987  12.890  1.00  0.00     0.000 G0
ENDBRANCH  13  15
ENDBRANCH  12  13
BRANCH  12  17
ATOM     17  C   UNL     1      17.111  18.682  17.156  1.00  0.00    -0.006 C 
ATOM     18  C   UNL     1      17.764  17.851  18.275  1.00  0.00     0.008 C 
ATOM     19  C   UNL     1      17.842  20.027  17.012  1.00  0.00     0.008 C 
ENDBRANCH  12  17
ENDBRANCH  11  12
ENDBRANCH   1  11
TORSDOF 1
ENDMDL
MODEL 6
REMARK VINA RESULT:    -3.491      4.535      6.893
REMARK INTER + INTRA:          -5.355
REMARK INTER:                  -5.075
REMARK INTRA:                  -0.280
REMARK UNBOUND:                -0.027
REMARK SMILES CC1=CCC[C@H](C)C(=O)C[C@H](C(C)C)C(=O)C1
REMARK SMILES IDX 8 1 9 2 6 3 7 4 5 5 4 6 3 7 2 8 1 9 10 11 11 12 15 13 16 14
REMARK SMILES IDX 17 15 12 17 13 18 14 19
REMARK H PARENT
REMARK Flexibility Score: 70.00
ROOT
ATOM      1  C   UNL     1      19.624  17.858  11.211  1.00  0.00     0.136 C 
ATOM      2  O   UNL     1      20.831  17.894  11.023  1.00  0.00    -0.299 OA
ENDROOT
BRANCH   1   3
ATOM      3  C   UNL     1      18.703  18.243  10.066  1.00  0.00     0.053 C 
ATOM      4  C   UNL     1      18.787  19.748   9.775  1.00  0.00     0.016 C 
BRANCH   3   5
ATOM      5  C   UNL     1      19.045  17.409   8.808  1.00  0.00     0.015 C 
BRANCH   5   6
ATOM      6  C   UNL     1      18.577  15.939   8.918  1.00  0.00     0.028 C 
BRANCH   6   7
ATOM      7  C   UNL     1      19.717  15.006   9.253  1.00  0.00    -0.028 C 
ATOM      8  C   UNL     1      19.747  14.157  10.309  1.00  0.00    -0.070 CG0
ATOM      9  C   UNL     1      20.981  13.315  10.508  1.00  0.00     0.039 C 
ATOM     10  G   UNL     1      18.604  14.022  11.301  1.00  0.00     0.000 G0
ENDBRANCH   6   7
ENDBRANCH   5   6
ENDBRANCH   3   5
ENDBRANCH   1   3
BRANCH   1  11
ATOM     11  C   UNL     1      19.139  17.399  12.577  1.00  0.00     0.087 C 
BRANCH  11  12
ATOM     12  C   UNL     1      18.103  16.238  12.607  1.00  0.00     0.066 C 
BRANCH  12  13
ATOM     13  C   UNL     1      18.780  14.877  12.527  1.00  0.00     0.140 C 
ATOM     14  O   UNL     1      19.406  14.454  13.489  1.00  0.00    -0.299 OA
BRANCH  13  15
ATOM     15  C   UNL     1      18.610  14.008  11.302  1.00  0.00     0.106 CG0
ATOM     16  G   UNL     1      19.756  14.158  10.315  1.00  0.00     0.000 G0
ENDBRANCH  13  15
ENDBRANCH  12  13
BRANCH  12  17
ATOM     17  C   UNL     1      17.139  16.296  13.834  1.00  0.00    -0.006 C 
ATOM     18  C   UNL     1      17.325  17.535  14.729  1.00  0.00     0.008 C 
ATOM     19  C   UNL     1      15.665  16.176  13.411  1.00  0.00     0.008 C 
ENDBRANCH  12  17
ENDBRANCH  11  12
ENDBRANCH   1  11
TORSDOF 1
ENDMDL
MODEL 7
REMARK VINA RESULT:    -3.473      5.945      8.451
REMARK INTER + INTRA:          -5.328
REMARK INTER:                  -5.184
REMARK INTRA:                  -0.144
REMARK UNBOUND:                -0.027
REMARK SMILES CC1=CCC[C@H](C)C(=O)C[C@H](C(C)C)C(=O)C1
REMARK SMILES IDX 8 1 9 2 6 3 7 4 5 5 4 6 3 7 2 8 1 9 10 11 11 12 15 13 16 14
REMARK SMILES IDX 17 15 12 17 13 18 14 19
REMARK H PARENT
REMARK Flexibility Score: 70.00
ROOT
ATOM      1  C   UNL     1      17.150  16.678  13.351  1.00  0.00     0.136 C 
ATOM      2  O   UNL     1      17.371  17.877  13.453  1.00  0.00    -0.299 OA
ENDROOT
BRANCH   1   3
ATOM      3  C   UNL     1      16.890  15.881  14.617  1.00  0.00     0.053 C 
ATOM      4  C   UNL     1      15.914  16.622  15.542  1.00  0.00     0.016 C 
BRANCH   3   5
ATOM      5  C   UNL     1      16.361  14.472  14.257  1.00  0.00     0.015 C 
BRANCH   5   6
ATOM      6  C   UNL     1      17.428  13.367  14.438  1.00  0.00     0.028 C 
BRANCH   6   7
ATOM      7  C   UNL     1      17.252  12.243  13.445  1.00  0.00    -0.028 C 
ATOM      8  C   UNL     1      17.938  12.111  12.284  1.00  0.00    -0.070 CG0
ATOM      9  C   UNL     1      17.614  10.937  11.396  1.00  0.00     0.039 C 
ATOM     10  G   UNL     1      19.007  13.092  11.833  1.00  0.00     0.000 G0
ENDBRANCH   6   7
ENDBRANCH   5   6
ENDBRANCH   3   5
ENDBRANCH   1   3
BRANCH   1  11
ATOM     11  C   UNL     1      17.125  16.086  11.950  1.00  0.00     0.087 C 
BRANCH  11  12
ATOM     12  C   UNL     1      18.488  15.639  11.347  1.00  0.00     0.066 C 
BRANCH  12  13
ATOM     13  C   UNL     1      18.459  14.180  10.913  1.00  0.00     0.140 C 
ATOM     14  O   UNL     1      18.054  13.888   9.796  1.00  0.00    -0.299 OA
BRANCH  13  15
ATOM     15  C   UNL     1      19.010  13.101  11.817  1.00  0.00     0.106 CG0
ATOM     16  G   UNL     1      17.947  12.111  12.261  1.00  0.00     0.000 G0
ENDBRANCH  13  15
ENDBRANCH  12  13
BRANCH  12  17
ATOM     17  C   UNL     1      18.977  16.547  10.174  1.00  0.00    -0.006 C 
ATOM     18  C   UNL     1      17.879  17.433   9.558  1.00  0.00     0.008 C 
ATOM     19  C   UNL     1      20.178  17.415  10.585  1.00  0.00     0.008 C 
ENDBRANCH  12  17
ENDBRANCH  11  12
ENDBRANCH   1  11
TORSDOF 1
ENDMDL
MODEL 8
REMARK VINA RESULT:    -3.455      6.419      8.472
REMARK INTER + INTRA:          -5.299
REMARK INTER:                  -5.015
REMARK INTRA:                  -0.284
REMARK UNBOUND:                -0.027
REMARK SMILES CC1=CCC[C@H](C)C(=O)C[C@H](C(C)C)C(=O)C1
REMARK SMILES IDX 8 1 9 2 6 3 7 4 5 5 4 6 3 7 2 8 1 9 10 11 11 12 15 13 16 14
REMARK SMILES IDX 17 15 12 17 13 18 14 19
REMARK H PARENT
REMARK Flexibility Score: 70.00
ROOT
ATOM      1  C   UNL     1      18.066  16.267  11.648  1.00  0.00     0.136 C 
ATOM      2  O   UNL     1      17.787  17.313  12.216  1.00  0.00    -0.299 OA
ENDROOT
BRANCH   1   3
ATOM      3  C   UNL     1      18.122  16.262  10.130  1.00  0.00     0.053 C 
ATOM      4  C   UNL     1      19.431  15.635   9.631  1.00  0.00     0.016 C 
BRANCH   3   5
ATOM      5  C   UNL     1      16.891  15.522   9.556  1.00  0.00     0.015 C 
BRANCH   5   6
ATOM      6  C   UNL     1      17.253  14.158   8.923  1.00  0.00     0.028 C 
BRANCH   6   7
ATOM      7  C   UNL     1      16.285  13.071   9.328  1.00  0.00    -0.028 C 
ATOM      8  C   UNL     1      16.435  12.253  10.398  1.00  0.00    -0.070 CG0
ATOM      9  C   UNL     1      15.382  11.201  10.639  1.00  0.00     0.039 C 
ATOM     10  G   UNL     1      17.612  12.338  11.354  1.00  0.00     0.000 G0
ENDBRANCH   6   7
ENDBRANCH   5   6
ENDBRANCH   3   5
ENDBRANCH   1   3
BRANCH   1  11
ATOM     11  C   UNL     1      18.365  15.055  12.516  1.00  0.00     0.087 C 
BRANCH  11  12
ATOM     12  C   UNL     1      17.145  14.259  13.063  1.00  0.00     0.066 C 
BRANCH  12  13
ATOM     13  C   UNL     1      17.247  12.776  12.735  1.00  0.00     0.140 C 
ATOM     14  O   UNL     1      16.943  11.946  13.580  1.00  0.00    -0.299 OA
BRANCH  13  15
ATOM     15  C   UNL     1      17.636  12.324  11.346  1.00  0.00     0.106 CG0
ATOM     16  G   UNL     1      16.450  12.258  10.398  1.00  0.00     0.000 G0
ENDBRANCH  13  15
ENDBRANCH  12  13
BRANCH  12  17
ATOM     17  C   UNL     1      16.905  14.463  14.593  1.00  0.00    -0.006 C 
ATOM     18  C   UNL     1      18.179  14.778  15.398  1.00  0.00     0.008 C 
ATOM     19  C   UNL     1      15.837  15.535  14.867  1.00  0.00     0.008 C 
ENDBRANCH  12  17
ENDBRANCH  11  12
ENDBRANCH   1  11
TORSDOF 1
ENDMDL
MODEL 9
REMARK VINA RESULT:    -3.363      5.202      6.954
REMARK INTER + INTRA:          -5.159
REMARK INTER:                  -5.460
REMARK INTRA:                   0.302
REMARK UNBOUND:                -0.027
REMARK SMILES CC1=CCC[C@H](C)C(=O)C[C@H](C(C)C)C(=O)C1
REMARK SMILES IDX 8 1 9 2 6 3 7 4 5 5 4 6 3 7 2 8 1 9 10 11 11 12 15 13 16 14
REMARK SMILES IDX 17 15 12 17 13 18 14 19
REMARK H PARENT
REMARK Flexibility Score: 70.00
ROOT
ATOM      1  C   UNL     1      16.415  17.853  16.342  1.00  0.00     0.136 C 
ATOM      2  O   UNL     1      15.448  17.187  16.683  1.00  0.00    -0.299 OA
ENDROOT
BRANCH   1   3
ATOM      3  C   UNL     1      16.486  19.303  16.787  1.00  0.00     0.053 C 
ATOM      4  C   UNL     1      17.459  19.470  17.963  1.00  0.00     0.016 C 
BRANCH   3   5
ATOM      5  C   UNL     1      16.888  20.205  15.595  1.00  0.00     0.015 C 
BRANCH   5   6
ATOM      6  C   UNL     1      15.818  20.234  14.479  1.00  0.00     0.028 C 
BRANCH   6   7
ATOM      7  C   UNL     1      16.415  20.565  13.132  1.00  0.00    -0.028 C 
ATOM      8  C   UNL     1      16.654  19.670  12.142  1.00  0.00    -0.070 CG0
ATOM      9  C   UNL     1      17.282  20.172  10.867  1.00  0.00     0.039 C 
ATOM     10  G   UNL     1      16.329  18.191  12.261  1.00  0.00     0.000 G0
ENDBRANCH   6   7
ENDBRANCH   5   6
ENDBRANCH   3   5
ENDBRANCH   1   3
BRANCH   1  11
ATOM     11  C   UNL     1      17.490  17.160  15.519  1.00  0.00     0.087 C 
BRANCH  11  12
ATOM     12  C   UNL     1      17.046  16.516  14.174  1.00  0.00     0.066 C 
BRANCH  12  13
ATOM     13  C   UNL     1      17.402  17.394  12.984  1.00  0.00     0.140 C 
ATOM     14  O   UNL     1      18.552  17.412  12.566  1.00  0.00    -0.299 OA
BRANCH  13  15
ATOM     15  C   UNL     1      16.330  18.176  12.260  1.00  0.00     0.106 CG0
ATOM     16  G   UNL     1      16.661  19.654  12.142  1.00  0.00     0.000 G0
ENDBRANCH  13  15
ENDBRANCH  12  13
BRANCH  12  17
ATOM     17  C   UNL     1      17.595  15.068  13.967  1.00  0.00    -0.006 C 
ATOM     18  C   UNL     1      19.117  14.935  14.151  1.00  0.00     0.008 C 
ATOM     19  C   UNL     1      16.871  14.048  14.862  1.00  0.00     0.008 C 
ENDBRANCH  12  17
ENDBRANCH  11  12
ENDBRANCH   1  11
TORSDOF 1
ENDMDL
