MODEL 1
REMARK VINA RESULT:    17.481      0.000      0.000
REMARK INTER + INTRA:          20.635
REMARK INTER:                  21.058
REMARK INTRA:                  -0.423
REMARK UNBOUND:                -0.423
REMARK SMILES O=c1c(O)c(-c2ccc(O)cc2O)oc2cc(O)cc(O)c12
REMARK SMILES IDX 5 1 3 2 2 3 1 4 22 5 20 6 19 7 17 8 16 9 15 10 14 11 6 12
REMARK SMILES IDX 8 13 7 14 9 15 11 16 12 17 10 18 13 20 4 22 21 24 18 26
REMARK H PARENT 10 19 13 21 4 23 21 25 18 27
REMARK Flexibility Score: inf
ROOT
ATOM      1  C   UNL     1      26.969  29.237   1.024  1.00  0.00     0.184 A 
ATOM      2  C   UNL     1      28.236  29.841   1.031  1.00  0.00     0.208 A 
ATOM      3  C   UNL     1      28.338  31.212   0.747  1.00  0.00     0.238 A 
ATOM      4  O   UNL     1      29.469  31.759   0.809  1.00  0.00    -0.285 OA
ATOM      5  C   UNL     1      27.172  31.956   0.443  1.00  0.00     0.111 A 
ATOM      6  C   UNL     1      27.162  33.342   0.100  1.00  0.00     0.134 A 
ATOM      7  C   UNL     1      25.939  34.005  -0.055  1.00  0.00     0.093 A 
ATOM      8  C   UNL     1      24.728  33.321   0.056  1.00  0.00     0.123 A 
ATOM      9  C   UNL     1      24.728  31.953   0.332  1.00  0.00     0.094 A 
ATOM     10  C   UNL     1      25.931  31.271   0.528  1.00  0.00     0.146 A 
ATOM     11  O   UNL     1      25.886  29.972   0.799  1.00  0.00    -0.451 OA
ENDROOT
BRANCH   1  12
ATOM     12  C   UNL     1      26.794  27.795   1.297  1.00  0.00     0.063 A 
ATOM     13  C   UNL     1      26.993  25.497   0.530  1.00  0.00     0.047 A 
ATOM     14  C   UNL     1      27.141  26.867   0.302  1.00  0.00     0.020 A 
ATOM     15  C   UNL     1      26.509  25.036   1.760  1.00  0.00     0.119 A 
ATOM     16  C   UNL     1      26.183  25.952   2.765  1.00  0.00     0.093 A 
ATOM     17  C   UNL     1      26.335  27.329   2.547  1.00  0.00     0.130 A 
BRANCH  15  18
ATOM     18  O   UNL     1      26.354  23.672   1.996  1.00  0.00    -0.508 OA
ATOM     19  H   UNL     1      26.516  23.271   2.912  1.00  0.00     0.293 HD
ENDBRANCH  15  18
BRANCH  17  20
ATOM     20  O   UNL     1      26.051  28.229   3.574  1.00  0.00    -0.507 OA
ATOM     21  H   UNL     1      25.538  29.086   3.405  1.00  0.00     0.293 HD
ENDBRANCH  17  20
ENDBRANCH   1  12
BRANCH   2  22
ATOM     22  O   UNL     1      29.368  29.086   1.353  1.00  0.00    -0.502 OA
ATOM     23  H   UNL     1      30.274  29.509   1.513  1.00  0.00     0.293 HD
ENDBRANCH   2  22
BRANCH   6  24
ATOM     24  O   UNL     1      28.315  34.099  -0.125  1.00  0.00    -0.507 OA
ATOM     25  H   UNL     1      29.228  33.713  -0.313  1.00  0.00     0.293 HD
ENDBRANCH   6  24
BRANCH   8  26
ATOM     26  O   UNL     1      23.531  34.011  -0.121  1.00  0.00    -0.508 OA
ATOM     27  H   UNL     1      23.486  34.865  -0.664  1.00  0.00     0.293 HD
ENDBRANCH   8  26
TORSDOF 6
ENDMDL
MODEL 2
REMARK VINA RESULT:    19.813      1.691      6.150
REMARK INTER + INTRA:          23.444
REMARK INTER:                  23.569
REMARK INTRA:                  -0.125
REMARK UNBOUND:                -0.423
REMARK SMILES O=c1c(O)c(-c2ccc(O)cc2O)oc2cc(O)cc(O)c12
REMARK SMILES IDX 5 1 3 2 2 3 1 4 22 5 20 6 19 7 17 8 16 9 15 10 14 11 6 12
REMARK SMILES IDX 8 13 7 14 9 15 11 16 12 17 10 18 13 20 4 22 21 24 18 26
REMARK H PARENT 10 19 13 21 4 23 21 25 18 27
REMARK Flexibility Score: inf
ROOT
ATOM      1  C   UNL     1      25.846  30.488   1.257  1.00  0.00     0.184 A 
ATOM      2  C   UNL     1      27.164  30.884   0.983  1.00  0.00     0.208 A 
ATOM      3  C   UNL     1      28.199  29.946   1.117  1.00  0.00     0.238 A 
ATOM      4  O   UNL     1      29.371  30.293   0.818  1.00  0.00    -0.285 OA
ATOM      5  C   UNL     1      27.903  28.627   1.540  1.00  0.00     0.111 A 
ATOM      6  C   UNL     1      28.878  27.606   1.749  1.00  0.00     0.134 A 
ATOM      7  C   UNL     1      28.458  26.303   2.043  1.00  0.00     0.093 A 
ATOM      8  C   UNL     1      27.106  25.998   2.199  1.00  0.00     0.123 A 
ATOM      9  C   UNL     1      26.148  27.002   2.055  1.00  0.00     0.094 A 
ATOM     10  C   UNL     1      26.533  28.304   1.727  1.00  0.00     0.146 A 
ATOM     11  O   UNL     1      25.589  29.228   1.589  1.00  0.00    -0.451 OA
ENDROOT
BRANCH   1  12
ATOM     12  C   UNL     1      24.713  31.431   1.152  1.00  0.00     0.063 A 
ATOM     13  C   UNL     1      23.543  33.137  -0.125  1.00  0.00     0.047 A 
ATOM     14  C   UNL     1      24.604  32.239   0.009  1.00  0.00     0.020 A 
ATOM     15  C   UNL     1      22.569  33.229   0.876  1.00  0.00     0.119 A 
ATOM     16  C   UNL     1      22.655  32.411   2.006  1.00  0.00     0.093 A 
ATOM     17  C   UNL     1      23.715  31.502   2.146  1.00  0.00     0.130 A 
BRANCH  15  18
ATOM     18  O   UNL     1      21.508  34.124   0.754  1.00  0.00    -0.508 OA
ATOM     19  H   UNL     1      21.611  35.004   0.263  1.00  0.00     0.293 HD
ENDBRANCH  15  18
BRANCH  17  20
ATOM     20  O   UNL     1      23.763  30.659   3.255  1.00  0.00    -0.507 OA
ATOM     21  H   UNL     1      24.211  29.751   3.215  1.00  0.00     0.293 HD
ENDBRANCH  17  20
ENDBRANCH   1  12
BRANCH   2  22
ATOM     22  O   UNL     1      27.425  32.188   0.549  1.00  0.00    -0.502 OA
ATOM     23  H   UNL     1      28.350  32.490   0.265  1.00  0.00     0.293 HD
ENDBRANCH   2  22
BRANCH   6  24
ATOM     24  O   UNL     1      30.258  27.823   1.708  1.00  0.00    -0.507 OA
ATOM     25  H   UNL     1      30.902  27.561   2.438  1.00  0.00     0.293 HD
ENDBRANCH   6  24
BRANCH   8  26
ATOM     26  O   UNL     1      26.727  24.693   2.507  1.00  0.00    -0.508 OA
ATOM     27  H   UNL     1      26.167  24.483   3.325  1.00  0.00     0.293 HD
ENDBRANCH   8  26
TORSDOF 6
ENDMDL
MODEL 3
REMARK VINA RESULT:    20.315      2.378      6.180
REMARK INTER + INTRA:          24.048
REMARK INTER:                  24.471
REMARK INTRA:                  -0.423
REMARK UNBOUND:                -0.423
REMARK SMILES O=c1c(O)c(-c2ccc(O)cc2O)oc2cc(O)cc(O)c12
REMARK SMILES IDX 5 1 3 2 2 3 1 4 22 5 20 6 19 7 17 8 16 9 15 10 14 11 6 12
REMARK SMILES IDX 8 13 7 14 9 15 11 16 12 17 10 18 13 20 4 22 21 24 18 26
REMARK H PARENT 10 19 13 21 4 23 21 25 18 27
REMARK Flexibility Score: inf
ROOT
ATOM      1  C   UNL     1      26.675  30.019   1.528  1.00  0.00     0.184 A 
ATOM      2  C   UNL     1      26.817  28.821   0.811  1.00  0.00     0.208 A 
ATOM      3  C   UNL     1      27.922  27.997   1.074  1.00  0.00     0.238 A 
ATOM      4  O   UNL     1      28.014  26.899   0.467  1.00  0.00    -0.285 OA
ATOM      5  C   UNL     1      28.880  28.391   2.039  1.00  0.00     0.111 A 
ATOM      6  C   UNL     1      30.060  27.654   2.358  1.00  0.00     0.134 A 
ATOM      7  C   UNL     1      30.869  28.074   3.421  1.00  0.00     0.093 A 
ATOM      8  C   UNL     1      30.578  29.236   4.134  1.00  0.00     0.123 A 
ATOM      9  C   UNL     1      29.459  29.997   3.792  1.00  0.00     0.094 A 
ATOM     10  C   UNL     1      28.612  29.585   2.760  1.00  0.00     0.146 A 
ATOM     11  O   UNL     1      27.553  30.332   2.474  1.00  0.00    -0.451 OA
ENDROOT
BRANCH   1  12
ATOM     12  C   UNL     1      25.543  30.940   1.288  1.00  0.00     0.063 A 
ATOM     13  C   UNL     1      24.497  32.620  -0.125  1.00  0.00     0.047 A 
ATOM     14  C   UNL     1      25.553  31.743   0.135  1.00  0.00     0.020 A 
ATOM     15  C   UNL     1      23.412  32.695   0.756  1.00  0.00     0.119 A 
ATOM     16  C   UNL     1      23.383  31.883   1.893  1.00  0.00     0.093 A 
ATOM     17  C   UNL     1      24.436  30.994   2.159  1.00  0.00     0.130 A 
BRANCH  15  18
ATOM     18  O   UNL     1      22.356  33.570   0.508  1.00  0.00    -0.508 OA
ATOM     19  H   UNL     1      21.733  33.438  -0.280  1.00  0.00     0.293 HD
ENDBRANCH  15  18
BRANCH  17  20
ATOM     20  O   UNL     1      24.371  30.155   3.271  1.00  0.00    -0.507 OA
ATOM     21  H   UNL     1      23.553  29.589   3.463  1.00  0.00     0.293 HD
ENDBRANCH  17  20
ENDBRANCH   1  12
BRANCH   2  22
ATOM     22  O   UNL     1      25.846  28.447  -0.124  1.00  0.00    -0.502 OA
ATOM     23  H   UNL     1      25.640  29.005  -0.945  1.00  0.00     0.293 HD
ENDBRANCH   2  22
BRANCH   6  24
ATOM     24  O   UNL     1      30.493  26.530   1.650  1.00  0.00    -0.507 OA
ATOM     25  H   UNL     1      29.888  25.797   1.310  1.00  0.00     0.293 HD
ENDBRANCH   6  24
BRANCH   8  26
ATOM     26  O   UNL     1      31.415  29.632   5.175  1.00  0.00    -0.508 OA
ATOM     27  H   UNL     1      31.173  29.461   6.144  1.00  0.00     0.293 HD
ENDBRANCH   8  26
TORSDOF 6
ENDMDL
