MODEL 1
REMARK VINA RESULT:    -4.309      0.000      0.000
REMARK INTER + INTRA:         -13.019
REMARK INTER:                  -9.348
REMARK INTRA:                  -3.671
REMARK UNBOUND:                -3.671
REMARK SMILES CCCCCCCCCCCCCCCCCCCCCC(=O)[O-]
REMARK SMILES IDX 12 1 11 2 10 3 9 4 8 5 7 6 6 7 5 8 4 9 3 10 2 11 1 12 13 13
REMARK SMILES IDX 14 14 15 15 16 16 17 17 18 18 19 19 20 20 21 21 22 22 23 23
REMARK SMILES IDX 24 24
REMARK H PARENT
REMARK Flexibility Score: inf
ROOT
ATOM      1  C   UNL     1      15.390   2.997   0.874  1.00  0.00     0.000 C 
ENDROOT
BRANCH   1   2
ATOM      2  C   UNL     1      14.407   3.384   1.999  1.00  0.00     0.000 C 
BRANCH   2   3
ATOM      3  C   UNL     1      13.861   2.222   2.847  1.00  0.00     0.000 C 
BRANCH   3   4
ATOM      4  C   UNL     1      14.686   0.933   2.714  1.00  0.00    -0.000 C 
BRANCH   4   5
ATOM      5  C   UNL     1      13.954  -0.249   3.370  1.00  0.00    -0.000 C 
BRANCH   5   6
ATOM      6  C   UNL     1      12.951   0.202   4.451  1.00  0.00    -0.000 C 
BRANCH   6   7
ATOM      7  C   UNL     1      13.140  -0.503   5.808  1.00  0.00    -0.000 C 
BRANCH   7   8
ATOM      8  C   UNL     1      14.068   0.228   6.791  1.00  0.00    -0.000 C 
BRANCH   8   9
ATOM      9  C   UNL     1      14.206   1.726   6.475  1.00  0.00    -0.000 C 
BRANCH   9  10
ATOM     10  C   UNL     1      15.659   2.141   6.193  1.00  0.00    -0.000 C 
BRANCH  10  11
ATOM     11  C   UNL     1      16.619   0.943   6.198  1.00  0.00    -0.003 C 
ATOM     12  C   UNL     1      17.718   1.123   7.243  1.00  0.00     0.004 C 
ENDBRANCH  10  11
ENDBRANCH   9  10
ENDBRANCH   8   9
ENDBRANCH   7   8
ENDBRANCH   6   7
ENDBRANCH   5   6
ENDBRANCH   4   5
ENDBRANCH   3   4
ENDBRANCH   2   3
ENDBRANCH   1   2
BRANCH   1  13
ATOM     13  C   UNL     1      15.359   3.878  -0.393  1.00  0.00     0.000 C 
BRANCH  13  14
ATOM     14  C   UNL     1      15.426   3.107  -1.724  1.00  0.00     0.000 C 
BRANCH  14  15
ATOM     15  C   UNL     1      16.241   1.805  -1.648  1.00  0.00     0.000 C 
BRANCH  15  16
ATOM     16  C   UNL     1      15.409   0.564  -2.017  1.00  0.00     0.000 C 
BRANCH  16  17
ATOM     17  C   UNL     1      13.897   0.850  -1.977  1.00  0.00     0.000 C 
BRANCH  17  18
ATOM     18  C   UNL     1      13.207   0.239  -0.746  1.00  0.00     0.000 C 
BRANCH  18  19
ATOM     19  C   UNL     1      12.060   1.106  -0.185  1.00  0.00     0.000 C 
BRANCH  19  20
ATOM     20  C   UNL     1      11.977   2.509  -0.827  1.00  0.00     0.006 C 
BRANCH  20  21
ATOM     21  C   UNL     1      11.298   3.558   0.069  1.00  0.00     0.053 C 
BRANCH  21  22
ATOM     22  C   UNL     1      10.018   4.061  -0.522  1.00  0.00     0.041 C 
ATOM     23  O   UNL     1       9.682   5.262  -0.362  1.00  0.00    -0.550 OA
ATOM     24  O   UNL     1       9.166   3.182  -1.182  1.00  0.00    -0.550 OA
ENDBRANCH  21  22
ENDBRANCH  20  21
ENDBRANCH  19  20
ENDBRANCH  18  19
ENDBRANCH  17  18
ENDBRANCH  16  17
ENDBRANCH  15  16
ENDBRANCH  14  15
ENDBRANCH  13  14
ENDBRANCH   1  13
TORSDOF 20
ENDMDL
MODEL 2
REMARK VINA RESULT:    -4.236      1.554      3.597
REMARK INTER + INTRA:         -12.860
REMARK INTER:                  -9.979
REMARK INTRA:                  -2.881
REMARK UNBOUND:                -3.671
REMARK SMILES CCCCCCCCCCCCCCCCCCCCCC(=O)[O-]
REMARK SMILES IDX 12 1 11 2 10 3 9 4 8 5 7 6 6 7 5 8 4 9 3 10 2 11 1 12 13 13
REMARK SMILES IDX 14 14 15 15 16 16 17 17 18 18 19 19 20 20 21 21 22 22 23 23
REMARK SMILES IDX 24 24
REMARK H PARENT
REMARK Flexibility Score: inf
ROOT
ATOM      1  C   UNL     1      14.728   3.755  -1.757  1.00  0.00     0.000 C 
ENDROOT
BRANCH   1   2
ATOM      2  C   UNL     1      13.619   2.684  -1.695  1.00  0.00     0.000 C 
BRANCH   2   3
ATOM      3  C   UNL     1      14.065   1.235  -1.958  1.00  0.00     0.000 C 
BRANCH   3   4
ATOM      4  C   UNL     1      13.603   0.250  -0.873  1.00  0.00    -0.000 C 
BRANCH   4   5
ATOM      5  C   UNL     1      12.386   0.809  -0.118  1.00  0.00    -0.000 C 
BRANCH   5   6
ATOM      6  C   UNL     1      12.349   0.363   1.358  1.00  0.00    -0.000 C 
BRANCH   6   7
ATOM      7  C   UNL     1      13.658   0.635   2.123  1.00  0.00    -0.000 C 
BRANCH   7   8
ATOM      8  C   UNL     1      13.497   0.787   3.644  1.00  0.00    -0.000 C 
BRANCH   8   9
ATOM      9  C   UNL     1      14.683   1.518   4.295  1.00  0.00    -0.000 C 
BRANCH   9  10
ATOM     10  C   UNL     1      14.496   1.719   5.807  1.00  0.00    -0.000 C 
BRANCH  10  11
ATOM     11  C   UNL     1      15.834   1.831   6.551  1.00  0.00    -0.003 C 
ATOM     12  C   UNL     1      16.852   2.627   5.737  1.00  0.00     0.004 C 
ENDBRANCH  10  11
ENDBRANCH   9  10
ENDBRANCH   8   9
ENDBRANCH   7   8
ENDBRANCH   6   7
ENDBRANCH   5   6
ENDBRANCH   4   5
ENDBRANCH   3   4
ENDBRANCH   2   3
ENDBRANCH   1   2
BRANCH   1  13
ATOM     13  C   UNL     1      15.644   3.862  -0.519  1.00  0.00     0.000 C 
BRANCH  13  14
ATOM     14  C   UNL     1      14.964   3.540   0.824  1.00  0.00     0.000 C 
BRANCH  14  15
ATOM     15  C   UNL     1      14.133   4.702   1.394  1.00  0.00     0.000 C 
BRANCH  15  16
ATOM     16  C   UNL     1      12.898   4.219   2.174  1.00  0.00     0.000 C 
BRANCH  16  17
ATOM     17  C   UNL     1      11.599   4.855   1.649  1.00  0.00     0.000 C 
BRANCH  17  18
ATOM     18  C   UNL     1      10.926   4.019   0.548  1.00  0.00     0.000 C 
BRANCH  18  19
ATOM     19  C   UNL     1       9.502   3.546   0.912  1.00  0.00     0.000 C 
BRANCH  19  20
ATOM     20  C   UNL     1       8.433   3.955  -0.126  1.00  0.00     0.006 C 
BRANCH  20  21
ATOM     21  C   UNL     1       9.013   4.671  -1.357  1.00  0.00     0.053 C 
BRANCH  21  22
ATOM     22  C   UNL     1       8.706   6.136  -1.353  1.00  0.00     0.041 C 
ATOM     23  O   UNL     1       8.876   6.811  -0.305  1.00  0.00    -0.550 OA
ATOM     24  O   UNL     1       8.163   6.734  -2.486  1.00  0.00    -0.550 OA
ENDBRANCH  21  22
ENDBRANCH  20  21
ENDBRANCH  19  20
ENDBRANCH  18  19
ENDBRANCH  17  18
ENDBRANCH  16  17
ENDBRANCH  15  16
ENDBRANCH  14  15
ENDBRANCH  13  14
ENDBRANCH   1  13
TORSDOF 20
ENDMDL
MODEL 3
REMARK VINA RESULT:    -4.227      4.223      7.788
REMARK INTER + INTRA:         -12.841
REMARK INTER:                  -9.715
REMARK INTRA:                  -3.125
REMARK UNBOUND:                -3.671
REMARK SMILES CCCCCCCCCCCCCCCCCCCCCC(=O)[O-]
REMARK SMILES IDX 12 1 11 2 10 3 9 4 8 5 7 6 6 7 5 8 4 9 3 10 2 11 1 12 13 13
REMARK SMILES IDX 14 14 15 15 16 16 17 17 18 18 19 19 20 20 21 21 22 22 23 23
REMARK SMILES IDX 24 24
REMARK H PARENT
REMARK Flexibility Score: inf
ROOT
ATOM      1  C   UNL     1      15.480   3.641  -0.373  1.00  0.00     0.000 C 
ENDROOT
BRANCH   1   2
ATOM      2  C   UNL     1      15.407   2.904  -1.726  1.00  0.00     0.000 C 
BRANCH   2   3
ATOM      3  C   UNL     1      16.093   1.526  -1.781  1.00  0.00     0.000 C 
BRANCH   3   4
ATOM      4  C   UNL     1      15.139   0.388  -2.175  1.00  0.00    -0.000 C 
BRANCH   4   5
ATOM      5  C   UNL     1      14.547  -0.279  -0.923  1.00  0.00    -0.000 C 
BRANCH   5   6
ATOM      6  C   UNL     1      13.014  -0.428  -1.001  1.00  0.00    -0.000 C 
BRANCH   6   7
ATOM      7  C   UNL     1      12.292  -0.135   0.328  1.00  0.00    -0.000 C 
BRANCH   7   8
ATOM      8  C   UNL     1      11.509   1.187   0.359  1.00  0.00    -0.000 C 
BRANCH   8   9
ATOM      9  C   UNL     1      11.941   2.158  -0.752  1.00  0.00    -0.000 C 
BRANCH   9  10
ATOM     10  C   UNL     1      11.638   3.625  -0.408  1.00  0.00    -0.000 C 
BRANCH  10  11
ATOM     11  C   UNL     1      10.749   3.761   0.836  1.00  0.00    -0.003 C 
ATOM     12  C   UNL     1      11.300   4.815   1.794  1.00  0.00     0.004 C 
ENDBRANCH  10  11
ENDBRANCH   9  10
ENDBRANCH   8   9
ENDBRANCH   7   8
ENDBRANCH   6   7
ENDBRANCH   5   6
ENDBRANCH   4   5
ENDBRANCH   3   4
ENDBRANCH   2   3
ENDBRANCH   1   2
BRANCH   1  13
ATOM     13  C   UNL     1      15.320   2.768   0.890  1.00  0.00     0.000 C 
BRANCH  13  14
ATOM     14  C   UNL     1      14.524   3.419   2.035  1.00  0.00     0.000 C 
BRANCH  14  15
ATOM     15  C   UNL     1      13.901   2.408   3.012  1.00  0.00     0.000 C 
BRANCH  15  16
ATOM     16  C   UNL     1      14.575   1.026   2.943  1.00  0.00     0.000 C 
BRANCH  16  17
ATOM     17  C   UNL     1      15.293   0.668   4.256  1.00  0.00     0.000 C 
BRANCH  17  18
ATOM     18  C   UNL     1      15.781   1.905   5.027  1.00  0.00     0.000 C 
BRANCH  18  19
ATOM     19  C   UNL     1      15.991   1.653   6.535  1.00  0.00     0.000 C 
BRANCH  19  20
ATOM     20  C   UNL     1      16.991   0.513   6.835  1.00  0.00     0.006 C 
BRANCH  20  21
ATOM     21  C   UNL     1      18.460   0.909   6.614  1.00  0.00     0.053 C 
BRANCH  21  22
ATOM     22  C   UNL     1      19.294   0.687   7.838  1.00  0.00     0.041 C 
ATOM     23  O   UNL     1      20.157  -0.227   7.853  1.00  0.00    -0.550 OA
ATOM     24  O   UNL     1      19.061   1.443   8.982  1.00  0.00    -0.550 OA
ENDBRANCH  21  22
ENDBRANCH  20  21
ENDBRANCH  19  20
ENDBRANCH  18  19
ENDBRANCH  17  18
ENDBRANCH  16  17
ENDBRANCH  15  16
ENDBRANCH  14  15
ENDBRANCH  13  14
ENDBRANCH   1  13
TORSDOF 20
ENDMDL
MODEL 4
REMARK VINA RESULT:    -4.221      1.452      2.531
REMARK INTER + INTRA:         -12.828
REMARK INTER:                 -10.566
REMARK INTRA:                  -2.262
REMARK UNBOUND:                -3.671
REMARK SMILES CCCCCCCCCCCCCCCCCCCCCC(=O)[O-]
REMARK SMILES IDX 12 1 11 2 10 3 9 4 8 5 7 6 6 7 5 8 4 9 3 10 2 11 1 12 13 13
REMARK SMILES IDX 14 14 15 15 16 16 17 17 18 18 19 19 20 20 21 21 22 22 23 23
REMARK SMILES IDX 24 24
REMARK H PARENT
REMARK Flexibility Score: inf
ROOT
ATOM      1  C   UNL     1      16.478   2.679  -0.911  1.00  0.00     0.000 C 
ENDROOT
BRANCH   1   2
ATOM      2  C   UNL     1      15.376   3.758  -0.859  1.00  0.00     0.000 C 
BRANCH   2   3
ATOM      3  C   UNL     1      14.827   4.094   0.540  1.00  0.00     0.000 C 
BRANCH   3   4
ATOM      4  C   UNL     1      13.451   3.470   0.819  1.00  0.00    -0.000 C 
BRANCH   4   5
ATOM      5  C   UNL     1      13.469   2.687   2.142  1.00  0.00    -0.000 C 
BRANCH   5   6
ATOM      6  C   UNL     1      14.888   2.561   2.735  1.00  0.00    -0.000 C 
BRANCH   6   7
ATOM      7  C   UNL     1      15.019   1.459   3.804  1.00  0.00    -0.000 C 
BRANCH   7   8
ATOM      8  C   UNL     1      14.249   1.730   5.106  1.00  0.00    -0.000 C 
BRANCH   8   9
ATOM      9  C   UNL     1      15.179   1.904   6.319  1.00  0.00    -0.000 C 
BRANCH   9  10
ATOM     10  C   UNL     1      16.606   2.310   5.918  1.00  0.00    -0.000 C 
BRANCH  10  11
ATOM     11  C   UNL     1      17.675   1.495   6.659  1.00  0.00    -0.003 C 
ATOM     12  C   UNL     1      17.287   0.019   6.735  1.00  0.00     0.004 C 
ENDBRANCH  10  11
ENDBRANCH   9  10
ENDBRANCH   8   9
ENDBRANCH   7   8
ENDBRANCH   6   7
ENDBRANCH   5   6
ENDBRANCH   4   5
ENDBRANCH   3   4
ENDBRANCH   2   3
ENDBRANCH   1   2
BRANCH   1  13
ATOM     13  C   UNL     1      16.202   1.465  -1.822  1.00  0.00     0.000 C 
BRANCH  13  14
ATOM     14  C   UNL     1      15.072   0.535  -1.343  1.00  0.00     0.000 C 
BRANCH  14  15
ATOM     15  C   UNL     1      13.953   0.332  -2.378  1.00  0.00     0.000 C 
BRANCH  15  16
ATOM     16  C   UNL     1      12.677   1.120  -2.031  1.00  0.00     0.000 C 
BRANCH  16  17
ATOM     17  C   UNL     1      12.015   0.607  -0.740  1.00  0.00     0.000 C 
BRANCH  17  18
ATOM     18  C   UNL     1      10.514   0.322  -0.912  1.00  0.00     0.000 C 
BRANCH  18  19
ATOM     19  C   UNL     1       9.716   1.518  -1.474  1.00  0.00     0.000 C 
BRANCH  19  20
ATOM     20  C   UNL     1       9.800   2.784  -0.592  1.00  0.00     0.006 C 
BRANCH  20  21
ATOM     21  C   UNL     1       8.760   3.856  -0.953  1.00  0.00     0.053 C 
BRANCH  21  22
ATOM     22  C   UNL     1       9.366   5.222  -1.042  1.00  0.00     0.041 C 
ATOM     23  O   UNL     1       9.695   5.833   0.007  1.00  0.00    -0.550 OA
ATOM     24  O   UNL     1       9.496   5.845  -2.279  1.00  0.00    -0.550 OA
ENDBRANCH  21  22
ENDBRANCH  20  21
ENDBRANCH  19  20
ENDBRANCH  18  19
ENDBRANCH  17  18
ENDBRANCH  16  17
ENDBRANCH  15  16
ENDBRANCH  14  15
ENDBRANCH  13  14
ENDBRANCH   1  13
TORSDOF 20
ENDMDL
MODEL 5
REMARK VINA RESULT:    -4.189      3.461      6.764
REMARK INTER + INTRA:         -12.757
REMARK INTER:                  -9.445
REMARK INTRA:                  -3.312
REMARK UNBOUND:                -3.671
REMARK SMILES CCCCCCCCCCCCCCCCCCCCCC(=O)[O-]
REMARK SMILES IDX 12 1 11 2 10 3 9 4 8 5 7 6 6 7 5 8 4 9 3 10 2 11 1 12 13 13
REMARK SMILES IDX 14 14 15 15 16 16 17 17 18 18 19 19 20 20 21 21 22 22 23 23
REMARK SMILES IDX 24 24
REMARK H PARENT
REMARK Flexibility Score: inf
ROOT
ATOM      1  C   UNL     1      13.439   3.258  -2.125  1.00  0.00     0.000 C 
ENDROOT
BRANCH   1   2
ATOM      2  C   UNL     1      13.123   1.818  -2.581  1.00  0.00     0.000 C 
BRANCH   2   3
ATOM      3  C   UNL     1      14.132   0.738  -2.152  1.00  0.00     0.000 C 
BRANCH   3   4
ATOM      4  C   UNL     1      13.487  -0.423  -1.379  1.00  0.00    -0.000 C 
BRANCH   4   5
ATOM      5  C   UNL     1      13.590  -0.187   0.137  1.00  0.00    -0.000 C 
BRANCH   5   6
ATOM      6  C   UNL     1      12.218   0.086   0.787  1.00  0.00    -0.000 C 
BRANCH   6   7
ATOM      7  C   UNL     1      11.898   1.583   0.961  1.00  0.00    -0.000 C 
BRANCH   7   8
ATOM      8  C   UNL     1      10.615   2.054   0.258  1.00  0.00    -0.000 C 
BRANCH   8   9
ATOM      9  C   UNL     1      10.658   3.545  -0.117  1.00  0.00    -0.000 C 
BRANCH   9  10
ATOM     10  C   UNL     1       9.703   4.397   0.733  1.00  0.00    -0.000 C 
BRANCH  10  11
ATOM     11  C   UNL     1      10.356   4.882   2.035  1.00  0.00    -0.003 C 
ATOM     12  C   UNL     1      11.863   5.057   1.863  1.00  0.00     0.004 C 
ENDBRANCH  10  11
ENDBRANCH   9  10
ENDBRANCH   8   9
ENDBRANCH   7   8
ENDBRANCH   6   7
ENDBRANCH   5   6
ENDBRANCH   4   5
ENDBRANCH   3   4
ENDBRANCH   2   3
ENDBRANCH   1   2
BRANCH   1  13
ATOM     13  C   UNL     1      14.895   3.533  -1.692  1.00  0.00     0.000 C 
BRANCH  13  14
ATOM     14  C   UNL     1      15.067   3.974  -0.227  1.00  0.00     0.000 C 
BRANCH  14  15
ATOM     15  C   UNL     1      15.417   2.824   0.731  1.00  0.00     0.000 C 
BRANCH  15  16
ATOM     16  C   UNL     1      15.012   3.123   2.186  1.00  0.00     0.000 C 
BRANCH  16  17
ATOM     17  C   UNL     1      15.038   1.859   3.064  1.00  0.00     0.000 C 
BRANCH  17  18
ATOM     18  C   UNL     1      13.844   1.778   4.029  1.00  0.00     0.000 C 
BRANCH  18  19
ATOM     19  C   UNL     1      14.092   0.862   5.246  1.00  0.00     0.000 C 
BRANCH  19  20
ATOM     20  C   UNL     1      15.510   0.248   5.276  1.00  0.00     0.006 C 
BRANCH  20  21
ATOM     21  C   UNL     1      16.284   0.548   6.570  1.00  0.00     0.053 C 
BRANCH  21  22
ATOM     22  C   UNL     1      17.397   1.523   6.348  1.00  0.00     0.041 C 
ATOM     23  O   UNL     1      17.153   2.651   5.846  1.00  0.00    -0.550 OA
ATOM     24  O   UNL     1      18.708   1.155   6.627  1.00  0.00    -0.550 OA
ENDBRANCH  21  22
ENDBRANCH  20  21
ENDBRANCH  19  20
ENDBRANCH  18  19
ENDBRANCH  17  18
ENDBRANCH  16  17
ENDBRANCH  15  16
ENDBRANCH  14  15
ENDBRANCH  13  14
ENDBRANCH   1  13
TORSDOF 20
ENDMDL
MODEL 6
REMARK VINA RESULT:    -4.103      1.516      3.269
REMARK INTER + INTRA:         -12.572
REMARK INTER:                  -9.360
REMARK INTRA:                  -3.212
REMARK UNBOUND:                -3.671
REMARK SMILES CCCCCCCCCCCCCCCCCCCCCC(=O)[O-]
REMARK SMILES IDX 12 1 11 2 10 3 9 4 8 5 7 6 6 7 5 8 4 9 3 10 2 11 1 12 13 13
REMARK SMILES IDX 14 14 15 15 16 16 17 17 18 18 19 19 20 20 21 21 22 22 23 23
REMARK SMILES IDX 24 24
REMARK H PARENT
REMARK Flexibility Score: inf
ROOT
ATOM      1  C   UNL     1      12.834   1.527  -2.412  1.00  0.00     0.000 C 
ENDROOT
BRANCH   1   2
ATOM      2  C   UNL     1      12.275   1.839  -1.008  1.00  0.00     0.000 C 
BRANCH   2   3
ATOM      3  C   UNL     1      11.036   1.031  -0.580  1.00  0.00     0.000 C 
BRANCH   3   4
ATOM      4  C   UNL     1      11.155   0.439   0.833  1.00  0.00    -0.000 C 
BRANCH   4   5
ATOM      5  C   UNL     1      12.290  -0.596   0.893  1.00  0.00    -0.000 C 
BRANCH   5   6
ATOM      6  C   UNL     1      13.016  -0.599   2.254  1.00  0.00    -0.000 C 
BRANCH   6   7
ATOM      7  C   UNL     1      14.004   0.569   2.435  1.00  0.00    -0.000 C 
BRANCH   7   8
ATOM      8  C   UNL     1      14.990   0.404   3.602  1.00  0.00    -0.000 C 
BRANCH   8   9
ATOM      9  C   UNL     1      15.225   1.715   4.370  1.00  0.00    -0.000 C 
BRANCH   9  10
ATOM     10  C   UNL     1      15.065   1.548   5.889  1.00  0.00    -0.000 C 
BRANCH  10  11
ATOM     11  C   UNL     1      13.610   1.725   6.346  1.00  0.00    -0.003 C 
ATOM     12  C   UNL     1      13.143   0.528   7.171  1.00  0.00     0.004 C 
ENDBRANCH  10  11
ENDBRANCH   9  10
ENDBRANCH   8   9
ENDBRANCH   7   8
ENDBRANCH   6   7
ENDBRANCH   5   6
ENDBRANCH   4   5
ENDBRANCH   3   4
ENDBRANCH   2   3
ENDBRANCH   1   2
BRANCH   1  13
ATOM     13  C   UNL     1      13.935   0.449  -2.485  1.00  0.00     0.000 C 
BRANCH  13  14
ATOM     14  C   UNL     1      14.976   0.503  -1.353  1.00  0.00     0.000 C 
BRANCH  14  15
ATOM     15  C   UNL     1      16.297   1.181  -1.755  1.00  0.00     0.000 C 
BRANCH  15  16
ATOM     16  C   UNL     1      16.456   2.580  -1.134  1.00  0.00     0.000 C 
BRANCH  16  17
ATOM     17  C   UNL     1      15.686   2.715   0.192  1.00  0.00     0.000 C 
BRANCH  17  18
ATOM     18  C   UNL     1      14.813   3.980   0.249  1.00  0.00     0.000 C 
BRANCH  18  19
ATOM     19  C   UNL     1      14.229   4.266   1.649  1.00  0.00     0.000 C 
BRANCH  19  20
ATOM     20  C   UNL     1      12.756   3.825   1.804  1.00  0.00     0.006 C 
BRANCH  20  21
ATOM     21  C   UNL     1      11.782   4.995   2.014  1.00  0.00     0.053 C 
BRANCH  21  22
ATOM     22  C   UNL     1      10.467   4.764   1.336  1.00  0.00     0.041 C 
ATOM     23  O   UNL     1       9.991   5.644   0.573  1.00  0.00    -0.550 OA
ATOM     24  O   UNL     1       9.740   3.611   1.608  1.00  0.00    -0.550 OA
ENDBRANCH  21  22
ENDBRANCH  20  21
ENDBRANCH  19  20
ENDBRANCH  18  19
ENDBRANCH  17  18
ENDBRANCH  16  17
ENDBRANCH  15  16
ENDBRANCH  14  15
ENDBRANCH  13  14
ENDBRANCH   1  13
TORSDOF 20
ENDMDL
MODEL 7
REMARK VINA RESULT:    -4.074      3.260      6.843
REMARK INTER + INTRA:         -12.509
REMARK INTER:                  -9.586
REMARK INTRA:                  -2.922
REMARK UNBOUND:                -3.671
REMARK SMILES CCCCCCCCCCCCCCCCCCCCCC(=O)[O-]
REMARK SMILES IDX 12 1 11 2 10 3 9 4 8 5 7 6 6 7 5 8 4 9 3 10 2 11 1 12 13 13
REMARK SMILES IDX 14 14 15 15 16 16 17 17 18 18 19 19 20 20 21 21 22 22 23 23
REMARK SMILES IDX 24 24
REMARK H PARENT
REMARK Flexibility Score: inf
ROOT
ATOM      1  C   UNL     1      15.102   0.573  -2.321  1.00  0.00     0.000 C 
ENDROOT
BRANCH   1   2
ATOM      2  C   UNL     1      14.418  -0.287  -1.238  1.00  0.00     0.000 C 
BRANCH   2   3
ATOM      3  C   UNL     1      13.112   0.279  -0.651  1.00  0.00     0.000 C 
BRANCH   3   4
ATOM      4  C   UNL     1      12.482   1.377  -1.522  1.00  0.00    -0.000 C 
BRANCH   4   5
ATOM      5  C   UNL     1      10.950   1.363  -1.387  1.00  0.00    -0.000 C 
BRANCH   5   6
ATOM      6  C   UNL     1      10.485   0.945   0.023  1.00  0.00    -0.000 C 
BRANCH   6   7
ATOM      7  C   UNL     1       9.224   1.686   0.507  1.00  0.00    -0.000 C 
BRANCH   7   8
ATOM      8  C   UNL     1       8.399   2.351  -0.606  1.00  0.00    -0.000 C 
BRANCH   8   9
ATOM      9  C   UNL     1       8.120   3.838  -0.329  1.00  0.00    -0.000 C 
BRANCH   9  10
ATOM     10  C   UNL     1       9.270   4.751  -0.782  1.00  0.00    -0.000 C 
BRANCH  10  11
ATOM     11  C   UNL     1       9.728   5.707   0.328  1.00  0.00    -0.003 C 
ATOM     12  C   UNL     1      10.495   4.960   1.416  1.00  0.00     0.004 C 
ENDBRANCH  10  11
ENDBRANCH   9  10
ENDBRANCH   8   9
ENDBRANCH   7   8
ENDBRANCH   6   7
ENDBRANCH   5   6
ENDBRANCH   4   5
ENDBRANCH   3   4
ENDBRANCH   2   3
ENDBRANCH   1   2
BRANCH   1  13
ATOM     13  C   UNL     1      16.493   1.137  -1.967  1.00  0.00     0.000 C 
BRANCH  13  14
ATOM     14  C   UNL     1      16.484   2.330  -0.994  1.00  0.00     0.000 C 
BRANCH  14  15
ATOM     15  C   UNL     1      15.411   3.384  -1.313  1.00  0.00     0.000 C 
BRANCH  15  16
ATOM     16  C   UNL     1      14.782   3.991  -0.046  1.00  0.00     0.000 C 
BRANCH  16  17
ATOM     17  C   UNL     1      15.000   3.100   1.190  1.00  0.00     0.000 C 
BRANCH  17  18
ATOM     18  C   UNL     1      13.720   2.907   2.020  1.00  0.00     0.000 C 
BRANCH  18  19
ATOM     19  C   UNL     1      13.736   1.637   2.897  1.00  0.00     0.000 C 
BRANCH  19  20
ATOM     20  C   UNL     1      15.053   1.448   3.684  1.00  0.00     0.006 C 
BRANCH  20  21
ATOM     21  C   UNL     1      14.880   1.553   5.208  1.00  0.00     0.053 C 
BRANCH  21  22
ATOM     22  C   UNL     1      16.179   1.806   5.907  1.00  0.00     0.041 C 
ATOM     23  O   UNL     1      16.887   2.793   5.580  1.00  0.00    -0.550 OA
ATOM     24  O   UNL     1      16.637   0.908   6.865  1.00  0.00    -0.550 OA
ENDBRANCH  21  22
ENDBRANCH  20  21
ENDBRANCH  19  20
ENDBRANCH  18  19
ENDBRANCH  17  18
ENDBRANCH  16  17
ENDBRANCH  15  16
ENDBRANCH  14  15
ENDBRANCH  13  14
ENDBRANCH   1  13
TORSDOF 20
ENDMDL
MODEL 8
REMARK VINA RESULT:    -4.057      2.503      4.131
REMARK INTER + INTRA:         -12.472
REMARK INTER:                  -9.189
REMARK INTRA:                  -3.283
REMARK UNBOUND:                -3.671
REMARK SMILES CCCCCCCCCCCCCCCCCCCCCC(=O)[O-]
REMARK SMILES IDX 12 1 11 2 10 3 9 4 8 5 7 6 6 7 5 8 4 9 3 10 2 11 1 12 13 13
REMARK SMILES IDX 14 14 15 15 16 16 17 17 18 18 19 19 20 20 21 21 22 22 23 23
REMARK SMILES IDX 24 24
REMARK H PARENT
REMARK Flexibility Score: inf
ROOT
ATOM      1  C   UNL     1      11.963   4.866   2.315  1.00  0.00     0.000 C 
ENDROOT
BRANCH   1   2
ATOM      2  C   UNL     1      13.345   4.653   1.663  1.00  0.00     0.000 C 
BRANCH   2   3
ATOM      3  C   UNL     1      14.062   3.337   2.015  1.00  0.00     0.000 C 
BRANCH   3   4
ATOM      4  C   UNL     1      13.103   2.148   2.178  1.00  0.00    -0.000 C 
BRANCH   4   5
ATOM      5  C   UNL     1      13.754   0.852   1.667  1.00  0.00    -0.000 C 
BRANCH   5   6
ATOM      6  C   UNL     1      13.611  -0.315   2.665  1.00  0.00    -0.000 C 
BRANCH   6   7
ATOM      7  C   UNL     1      12.922   0.076   3.986  1.00  0.00    -0.000 C 
BRANCH   7   8
ATOM      8  C   UNL     1      13.547  -0.542   5.247  1.00  0.00    -0.000 C 
BRANCH   8   9
ATOM      9  C   UNL     1      13.894   0.511   6.313  1.00  0.00    -0.000 C 
BRANCH   9  10
ATOM     10  C   UNL     1      14.392   1.830   5.702  1.00  0.00    -0.000 C 
BRANCH  10  11
ATOM     11  C   UNL     1      15.813   1.711   5.135  1.00  0.00    -0.003 C 
ATOM     12  C   UNL     1      16.809   2.511   5.972  1.00  0.00     0.004 C 
ENDBRANCH  10  11
ENDBRANCH   9  10
ENDBRANCH   8   9
ENDBRANCH   7   8
ENDBRANCH   6   7
ENDBRANCH   5   6
ENDBRANCH   4   5
ENDBRANCH   3   4
ENDBRANCH   2   3
ENDBRANCH   1   2
BRANCH   1  13
ATOM     13  C   UNL     1      10.762   4.972   1.351  1.00  0.00     0.000 C 
BRANCH  13  14
ATOM     14  C   UNL     1       9.853   3.730   1.305  1.00  0.00     0.000 C 
BRANCH  14  15
ATOM     15  C   UNL     1       9.953   2.935  -0.008  1.00  0.00     0.000 C 
BRANCH  15  16
ATOM     16  C   UNL     1      10.963   3.547  -0.994  1.00  0.00     0.000 C 
BRANCH  16  17
ATOM     17  C   UNL     1      12.100   2.568  -1.339  1.00  0.00     0.000 C 
BRANCH  17  18
ATOM     18  C   UNL     1      11.642   1.101  -1.346  1.00  0.00     0.000 C 
BRANCH  18  19
ATOM     19  C   UNL     1      12.765   0.103  -1.702  1.00  0.00     0.000 C 
BRANCH  19  20
ATOM     20  C   UNL     1      13.973   0.761  -2.405  1.00  0.00     0.006 C 
BRANCH  20  21
ATOM     21  C   UNL     1      15.325   0.414  -1.759  1.00  0.00     0.053 C 
BRANCH  21  22
ATOM     22  C   UNL     1      16.236   1.599  -1.686  1.00  0.00     0.041 C 
ATOM     23  O   UNL     1      15.756   2.761  -1.671  1.00  0.00    -0.550 OA
ATOM     24  O   UNL     1      17.615   1.416  -1.710  1.00  0.00    -0.550 OA
ENDBRANCH  21  22
ENDBRANCH  20  21
ENDBRANCH  19  20
ENDBRANCH  18  19
ENDBRANCH  17  18
ENDBRANCH  16  17
ENDBRANCH  15  16
ENDBRANCH  14  15
ENDBRANCH  13  14
ENDBRANCH   1  13
TORSDOF 20
ENDMDL
MODEL 9
REMARK VINA RESULT:    -4.047      3.105      6.999
REMARK INTER + INTRA:         -12.449
REMARK INTER:                  -9.199
REMARK INTRA:                  -3.250
REMARK UNBOUND:                -3.671
REMARK SMILES CCCCCCCCCCCCCCCCCCCCCC(=O)[O-]
REMARK SMILES IDX 12 1 11 2 10 3 9 4 8 5 7 6 6 7 5 8 4 9 3 10 2 11 1 12 13 13
REMARK SMILES IDX 14 14 15 15 16 16 17 17 18 18 19 19 20 20 21 21 22 22 23 23
REMARK SMILES IDX 24 24
REMARK H PARENT
REMARK Flexibility Score: inf
ROOT
ATOM      1  C   UNL     1      15.352   3.945  -0.031  1.00  0.00     0.000 C 
ENDROOT
BRANCH   1   2
ATOM      2  C   UNL     1      14.707   3.773  -1.423  1.00  0.00     0.000 C 
BRANCH   2   3
ATOM      3  C   UNL     1      14.041   2.412  -1.694  1.00  0.00     0.000 C 
BRANCH   3   4
ATOM      4  C   UNL     1      12.518   2.431  -1.497  1.00  0.00    -0.000 C 
BRANCH   4   5
ATOM      5  C   UNL     1      12.096   1.401  -0.436  1.00  0.00    -0.000 C 
BRANCH   5   6
ATOM      6  C   UNL     1      10.650   1.616   0.056  1.00  0.00    -0.000 C 
BRANCH   6   7
ATOM      7  C   UNL     1       9.706   2.191  -1.018  1.00  0.00    -0.000 C 
BRANCH   7   8
ATOM      8  C   UNL     1       8.915   3.434  -0.583  1.00  0.00    -0.000 C 
BRANCH   8   9
ATOM      9  C   UNL     1       9.678   4.744  -0.841  1.00  0.00    -0.000 C 
BRANCH   9  10
ATOM     10  C   UNL     1       9.690   5.673   0.384  1.00  0.00    -0.000 C 
BRANCH  10  11
ATOM     11  C   UNL     1      10.209   4.970   1.645  1.00  0.00    -0.003 C 
ATOM     12  C   UNL     1      11.734   4.898   1.647  1.00  0.00     0.004 C 
ENDBRANCH  10  11
ENDBRANCH   9  10
ENDBRANCH   8   9
ENDBRANCH   7   8
ENDBRANCH   6   7
ENDBRANCH   5   6
ENDBRANCH   4   5
ENDBRANCH   3   4
ENDBRANCH   2   3
ENDBRANCH   1   2
BRANCH   1  13
ATOM     13  C   UNL     1      15.393   2.687   0.862  1.00  0.00     0.000 C 
BRANCH  13  14
ATOM     14  C   UNL     1      15.033   2.926   2.340  1.00  0.00     0.000 C 
BRANCH  14  15
ATOM     15  C   UNL     1      13.798   2.142   2.813  1.00  0.00     0.000 C 
BRANCH  15  16
ATOM     16  C   UNL     1      14.044   0.624   2.863  1.00  0.00     0.000 C 
BRANCH  16  17
ATOM     17  C   UNL     1      12.823  -0.142   3.402  1.00  0.00     0.000 C 
BRANCH  17  18
ATOM     18  C   UNL     1      13.065  -0.745   4.796  1.00  0.00     0.000 C 
BRANCH  18  19
ATOM     19  C   UNL     1      12.702   0.207   5.955  1.00  0.00     0.000 C 
BRANCH  19  20
ATOM     20  C   UNL     1      13.905   0.567   6.856  1.00  0.00     0.006 C 
BRANCH  20  21
ATOM     21  C   UNL     1      14.625   1.858   6.434  1.00  0.00     0.053 C 
BRANCH  21  22
ATOM     22  C   UNL     1      15.994   1.590   5.892  1.00  0.00     0.041 C 
ATOM     23  O   UNL     1      16.435   0.412   5.856  1.00  0.00    -0.550 OA
ATOM     24  O   UNL     1      16.804   2.649   5.498  1.00  0.00    -0.550 OA
ENDBRANCH  21  22
ENDBRANCH  20  21
ENDBRANCH  19  20
ENDBRANCH  18  19
ENDBRANCH  17  18
ENDBRANCH  16  17
ENDBRANCH  15  16
ENDBRANCH  14  15
ENDBRANCH  13  14
ENDBRANCH   1  13
TORSDOF 20
ENDMDL
