MODEL 1
REMARK VINA RESULT:    -3.400      0.000      0.000
REMARK INTER + INTRA:         -14.569
REMARK INTER:                  -8.964
REMARK INTRA:                  -5.605
REMARK UNBOUND:                -5.605
REMARK SMILES CCCCCCCCCCCCCCCCCCCCCCCCCCCCCC(=O)[O-]
REMARK SMILES IDX 16 1 17 2 18 3 19 4 20 5 21 6 22 7 23 8 24 9 25 10 26 11
REMARK SMILES IDX 27 12 28 13 29 14 30 15 31 16 32 17 15 18 14 19 13 20 12 21
REMARK SMILES IDX 11 22 10 23 9 24 8 25 7 26 6 27 5 28 4 29 3 30 2 31 1 32
REMARK H PARENT
REMARK Flexibility Score: inf
ROOT
ATOM      1  C   UNL     1     -99.327 151.061 235.502  1.00  0.00     0.000 C 
ENDROOT
BRANCH   1   2
ATOM      2  C   UNL     1     -99.728 150.676 234.066  1.00  0.00     0.000 C 
BRANCH   2   3
ATOM      3  C   UNL     1     -99.260 149.269 233.674  1.00  0.00     0.000 C 
BRANCH   3   4
ATOM      4  C   UNL     1     -98.285 149.272 232.481  1.00  0.00     0.000 C 
BRANCH   4   5
ATOM      5  C   UNL     1     -96.833 148.955 232.899  1.00  0.00     0.000 C 
BRANCH   5   6
ATOM      6  C   UNL     1     -95.863 150.148 232.767  1.00  0.00     0.000 C 
BRANCH   6   7
ATOM      7  C   UNL     1     -95.588 150.926 234.066  1.00  0.00     0.000 C 
BRANCH   7   8
ATOM      8  C   UNL     1     -96.090 152.386 234.074  1.00  0.00     0.000 C 
BRANCH   8   9
ATOM      9  C   UNL     1     -96.926 152.767 232.835  1.00  0.00     0.000 C 
BRANCH   9  10
ATOM     10  C   UNL     1     -97.888 153.935 233.101  1.00  0.00     0.000 C 
BRANCH  10  11
ATOM     11  C   UNL     1     -97.670 154.520 234.502  1.00  0.00     0.000 C 
BRANCH  11  12
ATOM     12  C   UNL     1     -98.402 155.857 234.664  1.00  0.00     0.000 C 
BRANCH  12  13
ATOM     13  C   UNL     1     -99.868 155.734 234.222  1.00  0.00     0.006 C 
BRANCH  13  14
ATOM     14  C   UNL     1    -100.841 155.728 235.409  1.00  0.00     0.053 C 
BRANCH  14  15
ATOM     15  C   UNL     1    -101.223 154.338 235.820  1.00  0.00     0.041 C 
ATOM     16  O   UNL     1    -100.728 153.823 236.859  1.00  0.00    -0.550 OA
ATOM     17  O   UNL     1    -102.096 153.595 235.035  1.00  0.00    -0.550 OA
ENDBRANCH  14  15
ENDBRANCH  13  14
ENDBRANCH  12  13
ENDBRANCH  11  12
ENDBRANCH  10  11
ENDBRANCH   9  10
ENDBRANCH   8   9
ENDBRANCH   7   8
ENDBRANCH   6   7
ENDBRANCH   5   6
ENDBRANCH   4   5
ENDBRANCH   3   4
ENDBRANCH   2   3
ENDBRANCH   1   2
BRANCH   1  18
ATOM     18  C   UNL     1     -99.114 149.839 236.408  1.00  0.00     0.000 C 
BRANCH  18  19
ATOM     19  C   UNL     1     -97.658 149.702 236.883  1.00  0.00     0.000 C 
BRANCH  19  20
ATOM     20  C   UNL     1     -97.161 148.247 236.868  1.00  0.00     0.000 C 
BRANCH  20  21
ATOM     21  C   UNL     1     -95.671 148.113 236.485  1.00  0.00     0.000 C 
BRANCH  21  22
ATOM     22  C   UNL     1     -94.813 149.226 237.114  1.00  0.00     0.000 C 
BRANCH  22  23
ATOM     23  C   UNL     1     -93.978 148.721 238.301  1.00  0.00     0.000 C 
BRANCH  23  24
ATOM     24  C   UNL     1     -94.495 149.258 239.645  1.00  0.00    -0.000 C 
BRANCH  24  25
ATOM     25  C   UNL     1     -95.444 148.278 240.354  1.00  0.00    -0.000 C 
BRANCH  25  26
ATOM     26  C   UNL     1     -96.817 148.896 240.667  1.00  0.00    -0.000 C 
BRANCH  26  27
ATOM     27  C   UNL     1     -96.817 150.426 240.446  1.00  0.00    -0.000 C 
BRANCH  27  28
ATOM     28  C   UNL     1     -98.228 150.982 240.185  1.00  0.00    -0.000 C 
BRANCH  28  29
ATOM     29  C   UNL     1     -99.330 149.905 240.311  1.00  0.00    -0.000 C 
BRANCH  29  30
ATOM     30  C   UNL     1    -100.270 150.128 241.508  1.00  0.00    -0.000 C 
BRANCH  30  31
ATOM     31  C   UNL     1     -99.877 149.355 242.779  1.00  0.00    -0.003 C 
ATOM     32  C   UNL     1     -98.993 150.173 243.722  1.00  0.00     0.004 C 
ENDBRANCH  30  31
ENDBRANCH  29  30
ENDBRANCH  28  29
ENDBRANCH  27  28
ENDBRANCH  26  27
ENDBRANCH  25  26
ENDBRANCH  24  25
ENDBRANCH  23  24
ENDBRANCH  22  23
ENDBRANCH  21  22
ENDBRANCH  20  21
ENDBRANCH  19  20
ENDBRANCH  18  19
ENDBRANCH   1  18
TORSDOF 28
ENDMDL
MODEL 2
REMARK VINA RESULT:    -3.352      1.948      4.641
REMARK INTER + INTRA:         -14.444
REMARK INTER:                  -8.885
REMARK INTRA:                  -5.558
REMARK UNBOUND:                -5.605
REMARK SMILES CCCCCCCCCCCCCCCCCCCCCCCCCCCCCC(=O)[O-]
REMARK SMILES IDX 16 1 17 2 18 3 19 4 20 5 21 6 22 7 23 8 24 9 25 10 26 11
REMARK SMILES IDX 27 12 28 13 29 14 30 15 31 16 32 17 15 18 14 19 13 20 12 21
REMARK SMILES IDX 11 22 10 23 9 24 8 25 7 26 6 27 5 28 4 29 3 30 2 31 1 32
REMARK H PARENT
REMARK Flexibility Score: inf
ROOT
ATOM      1  C   UNL     1     -95.463 148.318 240.281  1.00  0.00     0.000 C 
ENDROOT
BRANCH   1   2
ATOM      2  C   UNL     1     -94.669 149.439 239.583  1.00  0.00     0.000 C 
BRANCH   2   3
ATOM      3  C   UNL     1     -94.358 149.122 238.115  1.00  0.00     0.000 C 
BRANCH   3   4
ATOM      4  C   UNL     1     -94.382 147.611 237.810  1.00  0.00     0.000 C 
BRANCH   4   5
ATOM      5  C   UNL     1     -94.068 147.299 236.331  1.00  0.00     0.000 C 
BRANCH   5   6
ATOM      6  C   UNL     1     -95.207 147.661 235.353  1.00  0.00     0.000 C 
BRANCH   6   7
ATOM      7  C   UNL     1     -94.998 148.951 234.540  1.00  0.00     0.000 C 
BRANCH   7   8
ATOM      8  C   UNL     1     -95.923 149.111 233.315  1.00  0.00     0.000 C 
BRANCH   8   9
ATOM      9  C   UNL     1     -96.179 150.578 232.912  1.00  0.00     0.000 C 
BRANCH   9  10
ATOM     10  C   UNL     1     -95.567 151.583 233.900  1.00  0.00     0.000 C 
BRANCH  10  11
ATOM     11  C   UNL     1     -96.515 152.764 234.143  1.00  0.00     0.000 C 
BRANCH  11  12
ATOM     12  C   UNL     1     -97.590 152.845 233.053  1.00  0.00     0.000 C 
BRANCH  12  13
ATOM     13  C   UNL     1     -98.237 154.238 233.027  1.00  0.00     0.006 C 
BRANCH  13  14
ATOM     14  C   UNL     1     -97.842 155.092 234.238  1.00  0.00     0.053 C 
BRANCH  14  15
ATOM     15  C   UNL     1     -98.219 156.533 234.061  1.00  0.00     0.041 C 
ATOM     16  O   UNL     1     -97.339 157.432 234.121  1.00  0.00    -0.550 OA
ATOM     17  O   UNL     1     -99.549 156.885 233.868  1.00  0.00    -0.550 OA
ENDBRANCH  14  15
ENDBRANCH  13  14
ENDBRANCH  12  13
ENDBRANCH  11  12
ENDBRANCH  10  11
ENDBRANCH   9  10
ENDBRANCH   8   9
ENDBRANCH   7   8
ENDBRANCH   6   7
ENDBRANCH   5   6
ENDBRANCH   4   5
ENDBRANCH   3   4
ENDBRANCH   2   3
ENDBRANCH   1   2
BRANCH   1  18
ATOM     18  C   UNL     1     -96.856 148.772 240.739  1.00  0.00     0.000 C 
BRANCH  18  19
ATOM     19  C   UNL     1     -97.134 150.249 240.412  1.00  0.00     0.000 C 
BRANCH  19  20
ATOM     20  C   UNL     1     -98.188 150.426 239.307  1.00  0.00     0.000 C 
BRANCH  20  21
ATOM     21  C   UNL     1     -98.655 149.092 238.686  1.00  0.00     0.000 C 
BRANCH  21  22
ATOM     22  C   UNL     1     -97.973 148.818 237.334  1.00  0.00     0.000 C 
BRANCH  22  23
ATOM     23  C   UNL     1     -97.968 150.053 236.419  1.00  0.00     0.000 C 
BRANCH  23  24
ATOM     24  C   UNL     1     -99.056 149.977 235.335  1.00  0.00    -0.000 C 
BRANCH  24  25
ATOM     25  C   UNL     1    -100.080 151.121 235.435  1.00  0.00    -0.000 C 
BRANCH  25  26
ATOM     26  C   UNL     1     -99.520 152.362 236.148  1.00  0.00    -0.000 C 
BRANCH  26  27
ATOM     27  C   UNL     1    -100.451 152.832 237.290  1.00  0.00    -0.000 C 
BRANCH  27  28
ATOM     28  C   UNL     1    -101.443 151.740 237.727  1.00  0.00    -0.000 C 
BRANCH  28  29
ATOM     29  C   UNL     1    -102.562 152.280 238.647  1.00  0.00    -0.000 C 
BRANCH  29  30
ATOM     30  C   UNL     1    -102.743 151.459 239.936  1.00  0.00    -0.000 C 
BRANCH  30  31
ATOM     31  C   UNL     1    -101.806 150.244 240.055  1.00  0.00    -0.003 C 
ATOM     32  C   UNL     1    -101.244 150.063 241.466  1.00  0.00     0.004 C 
ENDBRANCH  30  31
ENDBRANCH  29  30
ENDBRANCH  28  29
ENDBRANCH  27  28
ENDBRANCH  26  27
ENDBRANCH  25  26
ENDBRANCH  24  25
ENDBRANCH  23  24
ENDBRANCH  22  23
ENDBRANCH  21  22
ENDBRANCH  20  21
ENDBRANCH  19  20
ENDBRANCH  18  19
ENDBRANCH   1  18
TORSDOF 28
ENDMDL
MODEL 3
REMARK VINA RESULT:    -3.322      1.545      3.212
REMARK INTER + INTRA:         -14.364
REMARK INTER:                  -8.501
REMARK INTRA:                  -5.863
REMARK UNBOUND:                -5.605
REMARK SMILES CCCCCCCCCCCCCCCCCCCCCCCCCCCCCC(=O)[O-]
REMARK SMILES IDX 16 1 17 2 18 3 19 4 20 5 21 6 22 7 23 8 24 9 25 10 26 11
REMARK SMILES IDX 27 12 28 13 29 14 30 15 31 16 32 17 15 18 14 19 13 20 12 21
REMARK SMILES IDX 11 22 10 23 9 24 8 25 7 26 6 27 5 28 4 29 3 30 2 31 1 32
REMARK H PARENT
REMARK Flexibility Score: inf
ROOT
ATOM      1  C   UNL     1     -97.738 148.121 236.616  1.00  0.00     0.000 C 
ENDROOT
BRANCH   1   2
ATOM      2  C   UNL     1     -97.361 149.614 236.560  1.00  0.00     0.000 C 
BRANCH   2   3
ATOM      3  C   UNL     1     -98.426 150.470 235.862  1.00  0.00     0.000 C 
BRANCH   3   4
ATOM      4  C   UNL     1     -99.264 149.672 234.844  1.00  0.00     0.000 C 
BRANCH   4   5
ATOM      5  C   UNL     1     -99.090 150.184 233.399  1.00  0.00     0.000 C 
BRANCH   5   6
ATOM      6  C   UNL     1     -98.367 149.195 232.460  1.00  0.00     0.000 C 
BRANCH   6   7
ATOM      7  C   UNL     1     -96.958 148.767 232.906  1.00  0.00     0.000 C 
BRANCH   7   8
ATOM      8  C   UNL     1     -95.818 149.715 232.475  1.00  0.00     0.000 C 
BRANCH   8   9
ATOM      9  C   UNL     1     -95.493 150.813 233.509  1.00  0.00     0.000 C 
BRANCH   9  10
ATOM     10  C   UNL     1     -95.995 152.201 233.083  1.00  0.00     0.000 C 
BRANCH  10  11
ATOM     11  C   UNL     1     -96.364 153.052 234.304  1.00  0.00     0.000 C 
BRANCH  11  12
ATOM     12  C   UNL     1     -97.804 153.570 234.202  1.00  0.00     0.000 C 
BRANCH  12  13
ATOM     13  C   UNL     1     -97.845 155.099 234.353  1.00  0.00     0.006 C 
BRANCH  13  14
ATOM     14  C   UNL     1     -98.598 155.782 233.205  1.00  0.00     0.053 C 
BRANCH  14  15
ATOM     15  C   UNL     1     -99.818 156.511 233.684  1.00  0.00     0.041 C 
ATOM     16  O   UNL     1     -99.895 157.765 233.571  1.00  0.00    -0.550 OA
ATOM     17  O   UNL     1    -100.854 155.812 234.289  1.00  0.00    -0.550 OA
ENDBRANCH  14  15
ENDBRANCH  13  14
ENDBRANCH  12  13
ENDBRANCH  11  12
ENDBRANCH  10  11
ENDBRANCH   9  10
ENDBRANCH   8   9
ENDBRANCH   7   8
ENDBRANCH   6   7
ENDBRANCH   5   6
ENDBRANCH   4   5
ENDBRANCH   3   4
ENDBRANCH   2   3
ENDBRANCH   1   2
BRANCH   1  18
ATOM     18  C   UNL     1     -96.575 147.199 236.224  1.00  0.00     0.000 C 
BRANCH  18  19
ATOM     19  C   UNL     1     -95.235 147.947 236.123  1.00  0.00     0.000 C 
BRANCH  19  20
ATOM     20  C   UNL     1     -94.063 147.154 236.722  1.00  0.00     0.000 C 
BRANCH  20  21
ATOM     21  C   UNL     1     -93.486 147.790 238.006  1.00  0.00     0.000 C 
BRANCH  21  22
ATOM     22  C   UNL     1     -94.255 149.058 238.415  1.00  0.00     0.000 C 
BRANCH  22  23
ATOM     23  C   UNL     1     -94.808 148.971 239.847  1.00  0.00     0.000 C 
BRANCH  23  24
ATOM     24  C   UNL     1     -96.206 148.333 239.891  1.00  0.00    -0.000 C 
BRANCH  24  25
ATOM     25  C   UNL     1     -97.191 149.115 240.777  1.00  0.00    -0.000 C 
BRANCH  25  26
ATOM     26  C   UNL     1     -97.214 150.619 240.460  1.00  0.00    -0.000 C 
BRANCH  26  27
ATOM     27  C   UNL     1     -98.481 151.016 239.669  1.00  0.00    -0.000 C 
BRANCH  27  28
ATOM     28  C   UNL     1     -99.655 150.053 239.918  1.00  0.00    -0.000 C 
BRANCH  28  29
ATOM     29  C   UNL     1    -100.653 150.005 238.738  1.00  0.00    -0.000 C 
BRANCH  29  30
ATOM     30  C   UNL     1    -101.472 151.298 238.575  1.00  0.00    -0.000 C 
BRANCH  30  31
ATOM     31  C   UNL     1    -101.505 151.856 237.141  1.00  0.00    -0.003 C 
ATOM     32  C   UNL     1    -100.633 153.100 236.967  1.00  0.00     0.004 C 
ENDBRANCH  30  31
ENDBRANCH  29  30
ENDBRANCH  28  29
ENDBRANCH  27  28
ENDBRANCH  26  27
ENDBRANCH  25  26
ENDBRANCH  24  25
ENDBRANCH  23  24
ENDBRANCH  22  23
ENDBRANCH  21  22
ENDBRANCH  20  21
ENDBRANCH  19  20
ENDBRANCH  18  19
ENDBRANCH   1  18
TORSDOF 28
ENDMDL
MODEL 4
REMARK VINA RESULT:    -3.246      1.578      4.243
REMARK INTER + INTRA:         -14.165
REMARK INTER:                  -8.317
REMARK INTRA:                  -5.848
REMARK UNBOUND:                -5.605
REMARK SMILES CCCCCCCCCCCCCCCCCCCCCCCCCCCCCC(=O)[O-]
REMARK SMILES IDX 16 1 17 2 18 3 19 4 20 5 21 6 22 7 23 8 24 9 25 10 26 11
REMARK SMILES IDX 27 12 28 13 29 14 30 15 31 16 32 17 15 18 14 19 13 20 12 21
REMARK SMILES IDX 11 22 10 23 9 24 8 25 7 26 6 27 5 28 4 29 3 30 2 31 1 32
REMARK H PARENT
REMARK Flexibility Score: inf
ROOT
ATOM      1  C   UNL     1     -96.355 147.569 235.985  1.00  0.00     0.000 C 
ENDROOT
BRANCH   1   2
ATOM      2  C   UNL     1     -97.242 147.827 237.216  1.00  0.00     0.000 C 
BRANCH   2   3
ATOM      3  C   UNL     1     -98.472 148.686 236.894  1.00  0.00     0.000 C 
BRANCH   3   4
ATOM      4  C   UNL     1     -98.104 150.084 236.360  1.00  0.00     0.000 C 
BRANCH   4   5
ATOM      5  C   UNL     1     -99.330 150.859 235.832  1.00  0.00     0.000 C 
BRANCH   5   6
ATOM      6  C   UNL     1     -99.490 150.819 234.297  1.00  0.00     0.000 C 
BRANCH   6   7
ATOM      7  C   UNL     1     -99.598 149.413 233.679  1.00  0.00     0.000 C 
BRANCH   7   8
ATOM      8  C   UNL     1     -98.339 148.928 232.930  1.00  0.00     0.000 C 
BRANCH   8   9
ATOM      9  C   UNL     1     -97.367 150.061 232.540  1.00  0.00     0.000 C 
BRANCH   9  10
ATOM     10  C   UNL     1     -95.990 149.920 233.205  1.00  0.00     0.000 C 
BRANCH  10  11
ATOM     11  C   UNL     1     -95.610 151.198 233.963  1.00  0.00     0.000 C 
BRANCH  11  12
ATOM     12  C   UNL     1     -96.105 152.447 233.225  1.00  0.00     0.000 C 
BRANCH  12  13
ATOM     13  C   UNL     1     -96.857 153.384 234.182  1.00  0.00     0.006 C 
BRANCH  13  14
ATOM     14  C   UNL     1     -97.954 154.190 233.474  1.00  0.00     0.053 C 
BRANCH  14  15
ATOM     15  C   UNL     1     -98.507 155.279 234.345  1.00  0.00     0.041 C 
ATOM     16  O   UNL     1     -97.914 156.387 234.430  1.00  0.00    -0.550 OA
ATOM     17  O   UNL     1     -99.657 155.056 235.092  1.00  0.00    -0.550 OA
ENDBRANCH  14  15
ENDBRANCH  13  14
ENDBRANCH  12  13
ENDBRANCH  11  12
ENDBRANCH  10  11
ENDBRANCH   9  10
ENDBRANCH   8   9
ENDBRANCH   7   8
ENDBRANCH   6   7
ENDBRANCH   5   6
ENDBRANCH   4   5
ENDBRANCH   3   4
ENDBRANCH   2   3
ENDBRANCH   1   2
BRANCH   1  18
ATOM     18  C   UNL     1     -94.902 148.017 236.194  1.00  0.00     0.000 C 
BRANCH  18  19
ATOM     19  C   UNL     1     -94.773 149.141 237.235  1.00  0.00     0.000 C 
BRANCH  19  20
ATOM     20  C   UNL     1     -93.942 148.726 238.460  1.00  0.00     0.000 C 
BRANCH  20  21
ATOM     21  C   UNL     1     -94.533 149.221 239.798  1.00  0.00     0.000 C 
BRANCH  21  22
ATOM     22  C   UNL     1     -95.562 148.233 240.373  1.00  0.00     0.000 C 
BRANCH  22  23
ATOM     23  C   UNL     1     -96.895 148.913 240.725  1.00  0.00     0.000 C 
BRANCH  23  24
ATOM     24  C   UNL     1     -96.947 150.372 240.242  1.00  0.00    -0.000 C 
BRANCH  24  25
ATOM     25  C   UNL     1     -98.383 150.880 240.032  1.00  0.00    -0.000 C 
BRANCH  25  26
ATOM     26  C   UNL     1     -99.447 149.830 240.391  1.00  0.00    -0.000 C 
BRANCH  26  27
ATOM     27  C   UNL     1    -100.875 150.338 240.086  1.00  0.00    -0.000 C 
BRANCH  27  28
ATOM     28  C   UNL     1    -101.414 149.806 238.747  1.00  0.00    -0.000 C 
BRANCH  28  29
ATOM     29  C   UNL     1    -102.449 150.753 238.098  1.00  0.00    -0.000 C 
BRANCH  29  30
ATOM     30  C   UNL     1    -102.238 152.233 238.465  1.00  0.00    -0.000 C 
BRANCH  30  31
ATOM     31  C   UNL     1    -101.633 153.089 237.338  1.00  0.00    -0.003 C 
ATOM     32  C   UNL     1    -102.688 153.865 236.549  1.00  0.00     0.004 C 
ENDBRANCH  30  31
ENDBRANCH  29  30
ENDBRANCH  28  29
ENDBRANCH  27  28
ENDBRANCH  26  27
ENDBRANCH  25  26
ENDBRANCH  24  25
ENDBRANCH  23  24
ENDBRANCH  22  23
ENDBRANCH  21  22
ENDBRANCH  20  21
ENDBRANCH  19  20
ENDBRANCH  18  19
ENDBRANCH   1  18
TORSDOF 28
ENDMDL
MODEL 5
REMARK VINA RESULT:    -3.232      1.793      2.599
REMARK INTER + INTRA:         -14.128
REMARK INTER:                  -9.000
REMARK INTRA:                  -5.128
REMARK UNBOUND:                -5.605
REMARK SMILES CCCCCCCCCCCCCCCCCCCCCCCCCCCCCC(=O)[O-]
REMARK SMILES IDX 16 1 17 2 18 3 19 4 20 5 21 6 22 7 23 8 24 9 25 10 26 11
REMARK SMILES IDX 27 12 28 13 29 14 30 15 31 16 32 17 15 18 14 19 13 20 12 21
REMARK SMILES IDX 11 22 10 23 9 24 8 25 7 26 6 27 5 28 4 29 3 30 2 31 1 32
REMARK H PARENT
REMARK Flexibility Score: inf
ROOT
ATOM      1  C   UNL     1     -99.499 151.348 238.416  1.00  0.00     0.000 C 
ENDROOT
BRANCH   1   2
ATOM      2  C   UNL     1    -100.274 152.208 237.400  1.00  0.00     0.000 C 
BRANCH   2   3
ATOM      3  C   UNL     1     -99.472 152.485 236.122  1.00  0.00     0.000 C 
BRANCH   3   4
ATOM      4  C   UNL     1     -99.941 151.634 234.925  1.00  0.00     0.000 C 
BRANCH   4   5
ATOM      5  C   UNL     1     -98.788 151.279 233.961  1.00  0.00     0.000 C 
BRANCH   5   6
ATOM      6  C   UNL     1     -97.417 151.855 234.375  1.00  0.00     0.000 C 
BRANCH   6   7
ATOM      7  C   UNL     1     -96.902 153.022 233.514  1.00  0.00     0.000 C 
BRANCH   7   8
ATOM      8  C   UNL     1     -97.836 153.447 232.360  1.00  0.00     0.000 C 
BRANCH   8   9
ATOM      9  C   UNL     1     -98.552 154.793 232.599  1.00  0.00     0.000 C 
BRANCH   9  10
ATOM     10  C   UNL     1     -98.127 155.471 233.910  1.00  0.00     0.000 C 
BRANCH  10  11
ATOM     11  C   UNL     1     -99.348 155.944 234.708  1.00  0.00     0.000 C 
BRANCH  11  12
ATOM     12  C   UNL     1    -100.645 155.364 234.131  1.00  0.00     0.000 C 
BRANCH  12  13
ATOM     13  C   UNL     1    -101.748 155.326 235.199  1.00  0.00     0.006 C 
BRANCH  13  14
ATOM     14  C   UNL     1    -102.861 156.348 234.931  1.00  0.00     0.053 C 
BRANCH  14  15
ATOM     15  C   UNL     1    -102.632 157.637 235.661  1.00  0.00     0.041 C 
ATOM     16  O   UNL     1    -102.200 158.649 235.044  1.00  0.00    -0.550 OA
ATOM     17  O   UNL     1    -102.858 157.713 237.029  1.00  0.00    -0.550 OA
ENDBRANCH  14  15
ENDBRANCH  13  14
ENDBRANCH  12  13
ENDBRANCH  11  12
ENDBRANCH  10  11
ENDBRANCH   9  10
ENDBRANCH   8   9
ENDBRANCH   7   8
ENDBRANCH   6   7
ENDBRANCH   5   6
ENDBRANCH   4   5
ENDBRANCH   3   4
ENDBRANCH   2   3
ENDBRANCH   1   2
BRANCH   1  18
ATOM     18  C   UNL     1     -99.994 149.895 238.466  1.00  0.00     0.000 C 
BRANCH  18  19
ATOM     19  C   UNL     1     -99.069 148.929 237.707  1.00  0.00     0.000 C 
BRANCH  19  20
ATOM     20  C   UNL     1     -97.757 149.591 237.256  1.00  0.00     0.000 C 
BRANCH  20  21
ATOM     21  C   UNL     1     -96.892 148.685 236.352  1.00  0.00     0.000 C 
BRANCH  21  22
ATOM     22  C   UNL     1     -95.411 149.104 236.366  1.00  0.00     0.000 C 
BRANCH  22  23
ATOM     23  C   UNL     1     -94.533 148.122 237.158  1.00  0.00     0.000 C 
BRANCH  23  24
ATOM     24  C   UNL     1     -93.954 148.759 238.433  1.00  0.00    -0.000 C 
BRANCH  24  25
ATOM     25  C   UNL     1     -94.950 148.758 239.605  1.00  0.00    -0.000 C 
BRANCH  25  26
ATOM     26  C   UNL     1     -95.349 150.174 240.050  1.00  0.00    -0.000 C 
BRANCH  26  27
ATOM     27  C   UNL     1     -96.787 150.210 240.616  1.00  0.00    -0.000 C 
BRANCH  27  28
ATOM     28  C   UNL     1     -97.264 148.828 241.097  1.00  0.00    -0.000 C 
BRANCH  28  29
ATOM     29  C   UNL     1     -98.583 148.895 241.901  1.00  0.00    -0.000 C 
BRANCH  29  30
ATOM     30  C   UNL     1     -99.132 150.324 242.058  1.00  0.00    -0.000 C 
BRANCH  30  31
ATOM     31  C   UNL     1     -99.775 150.612 243.426  1.00  0.00    -0.003 C 
ATOM     32  C   UNL     1     -98.823 151.315 244.394  1.00  0.00     0.004 C 
ENDBRANCH  30  31
ENDBRANCH  29  30
ENDBRANCH  28  29
ENDBRANCH  27  28
ENDBRANCH  26  27
ENDBRANCH  25  26
ENDBRANCH  24  25
ENDBRANCH  23  24
ENDBRANCH  22  23
ENDBRANCH  21  22
ENDBRANCH  20  21
ENDBRANCH  19  20
ENDBRANCH  18  19
ENDBRANCH   1  18
TORSDOF 28
ENDMDL
MODEL 6
REMARK VINA RESULT:    -3.230      2.085      4.254
REMARK INTER + INTRA:         -14.121
REMARK INTER:                  -8.118
REMARK INTRA:                  -6.003
REMARK UNBOUND:                -5.605
REMARK SMILES CCCCCCCCCCCCCCCCCCCCCCCCCCCCCC(=O)[O-]
REMARK SMILES IDX 16 1 17 2 18 3 19 4 20 5 21 6 22 7 23 8 24 9 25 10 26 11
REMARK SMILES IDX 27 12 28 13 29 14 30 15 31 16 32 17 15 18 14 19 13 20 12 21
REMARK SMILES IDX 11 22 10 23 9 24 8 25 7 26 6 27 5 28 4 29 3 30 2 31 1 32
REMARK H PARENT
REMARK Flexibility Score: inf
ROOT
ATOM      1  C   UNL     1     -95.758 149.916 235.712  1.00  0.00     0.000 C 
ENDROOT
BRANCH   1   2
ATOM      2  C   UNL     1     -95.624 149.723 234.190  1.00  0.00     0.000 C 
BRANCH   2   3
ATOM      3  C   UNL     1     -95.638 151.050 233.419  1.00  0.00     0.000 C 
BRANCH   3   4
ATOM      4  C   UNL     1     -95.993 152.257 234.309  1.00  0.00     0.000 C 
BRANCH   4   5
ATOM      5  C   UNL     1     -97.081 153.156 233.685  1.00  0.00     0.000 C 
BRANCH   5   6
ATOM      6  C   UNL     1     -97.318 154.480 234.442  1.00  0.00     0.000 C 
BRANCH   6   7
ATOM      7  C   UNL     1     -98.791 154.842 234.700  1.00  0.00     0.000 C 
BRANCH   7   8
ATOM      8  C   UNL     1     -99.822 153.872 234.083  1.00  0.00     0.000 C 
BRANCH   8   9
ATOM      9  C   UNL     1    -100.655 153.098 235.126  1.00  0.00     0.000 C 
BRANCH   9  10
ATOM     10  C   UNL     1     -99.843 152.715 236.373  1.00  0.00     0.000 C 
BRANCH  10  11
ATOM     11  C   UNL     1     -99.142 151.365 236.181  1.00  0.00     0.000 C 
BRANCH  11  12
ATOM     12  C   UNL     1    -100.043 150.375 235.433  1.00  0.00     0.000 C 
BRANCH  12  13
ATOM     13  C   UNL     1     -99.244 149.606 234.370  1.00  0.00     0.006 C 
BRANCH  13  14
ATOM     14  C   UNL     1     -99.329 150.259 232.985  1.00  0.00     0.053 C 
BRANCH  14  15
ATOM     15  C   UNL     1     -99.058 149.281 231.881  1.00  0.00     0.041 C 
ATOM     16  O   UNL     1     -97.880 149.089 231.476  1.00  0.00    -0.550 OA
ATOM     17  O   UNL     1    -100.111 148.609 231.273  1.00  0.00    -0.550 OA
ENDBRANCH  14  15
ENDBRANCH  13  14
ENDBRANCH  12  13
ENDBRANCH  11  12
ENDBRANCH  10  11
ENDBRANCH   9  10
ENDBRANCH   8   9
ENDBRANCH   7   8
ENDBRANCH   6   7
ENDBRANCH   5   6
ENDBRANCH   4   5
ENDBRANCH   3   4
ENDBRANCH   2   3
ENDBRANCH   1   2
BRANCH   1  18
ATOM     18  C   UNL     1     -96.287 148.664 236.427  1.00  0.00     0.000 C 
BRANCH  18  19
ATOM     19  C   UNL     1     -95.231 148.012 237.335  1.00  0.00     0.000 C 
BRANCH  19  20
ATOM     20  C   UNL     1     -94.222 149.025 237.899  1.00  0.00     0.000 C 
BRANCH  20  21
ATOM     21  C   UNL     1     -94.409 149.301 239.406  1.00  0.00     0.000 C 
BRANCH  21  22
ATOM     22  C   UNL     1     -95.292 148.237 240.081  1.00  0.00     0.000 C 
BRANCH  22  23
ATOM     23  C   UNL     1     -96.524 148.848 240.768  1.00  0.00     0.000 C 
BRANCH  23  24
ATOM     24  C   UNL     1     -96.747 150.314 240.362  1.00  0.00    -0.000 C 
BRANCH  24  25
ATOM     25  C   UNL     1     -98.118 150.551 239.707  1.00  0.00    -0.000 C 
BRANCH  25  26
ATOM     26  C   UNL     1     -98.710 149.276 239.084  1.00  0.00    -0.000 C 
BRANCH  26  27
ATOM     27  C   UNL     1    -100.245 149.215 239.259  1.00  0.00    -0.000 C 
BRANCH  27  28
ATOM     28  C   UNL     1    -100.860 150.598 239.534  1.00  0.00    -0.000 C 
BRANCH  28  29
ATOM     29  C   UNL     1    -101.846 150.591 240.724  1.00  0.00    -0.000 C 
BRANCH  29  30
ATOM     30  C   UNL     1    -101.382 149.711 241.899  1.00  0.00    -0.000 C 
BRANCH  30  31
ATOM     31  C   UNL     1    -100.651 150.476 243.017  1.00  0.00    -0.003 C 
ATOM     32  C   UNL     1     -99.195 150.039 243.182  1.00  0.00     0.004 C 
ENDBRANCH  30  31
ENDBRANCH  29  30
ENDBRANCH  28  29
ENDBRANCH  27  28
ENDBRANCH  26  27
ENDBRANCH  25  26
ENDBRANCH  24  25
ENDBRANCH  23  24
ENDBRANCH  22  23
ENDBRANCH  21  22
ENDBRANCH  20  21
ENDBRANCH  19  20
ENDBRANCH  18  19
ENDBRANCH   1  18
TORSDOF 28
ENDMDL
MODEL 7
REMARK VINA RESULT:    -3.217      1.939      7.219
REMARK INTER + INTRA:         -14.087
REMARK INTER:                  -8.715
REMARK INTRA:                  -5.372
REMARK UNBOUND:                -5.605
REMARK SMILES CCCCCCCCCCCCCCCCCCCCCCCCCCCCCC(=O)[O-]
REMARK SMILES IDX 16 1 17 2 18 3 19 4 20 5 21 6 22 7 23 8 24 9 25 10 26 11
REMARK SMILES IDX 27 12 28 13 29 14 30 15 31 16 32 17 15 18 14 19 13 20 12 21
REMARK SMILES IDX 11 22 10 23 9 24 8 25 7 26 6 27 5 28 4 29 3 30 2 31 1 32
REMARK H PARENT
REMARK Flexibility Score: inf
ROOT
ATOM      1  C   UNL     1     -94.645 149.084 237.025  1.00  0.00     0.000 C 
ENDROOT
BRANCH   1   2
ATOM      2  C   UNL     1     -94.086 148.411 238.292  1.00  0.00     0.000 C 
BRANCH   2   3
ATOM      3  C   UNL     1     -94.635 149.027 239.585  1.00  0.00     0.000 C 
BRANCH   3   4
ATOM      4  C   UNL     1     -95.696 148.141 240.268  1.00  0.00     0.000 C 
BRANCH   4   5
ATOM      5  C   UNL     1     -96.827 148.964 240.920  1.00  0.00     0.000 C 
BRANCH   5   6
ATOM      6  C   UNL     1     -96.836 150.455 240.519  1.00  0.00     0.000 C 
BRANCH   6   7
ATOM      7  C   UNL     1     -98.220 151.044 240.190  1.00  0.00     0.000 C 
BRANCH   7   8
ATOM      8  C   UNL     1     -99.106 150.166 239.281  1.00  0.00     0.000 C 
BRANCH   8   9
ATOM      9  C   UNL     1    -100.445 150.824 238.889  1.00  0.00     0.000 C 
BRANCH   9  10
ATOM     10  C   UNL     1    -100.597 151.008 237.371  1.00  0.00     0.000 C 
BRANCH  10  11
ATOM     11  C   UNL     1     -99.932 152.308 236.904  1.00  0.00     0.000 C 
BRANCH  11  12
ATOM     12  C   UNL     1    -100.456 152.734 235.527  1.00  0.00     0.000 C 
BRANCH  12  13
ATOM     13  C   UNL     1    -100.197 154.229 235.283  1.00  0.00     0.006 C 
BRANCH  13  14
ATOM     14  C   UNL     1     -99.375 154.483 234.013  1.00  0.00     0.053 C 
BRANCH  14  15
ATOM     15  C   UNL     1     -98.169 155.333 234.281  1.00  0.00     0.041 C 
ATOM     16  O   UNL     1     -98.164 156.550 233.952  1.00  0.00    -0.550 OA
ATOM     17  O   UNL     1     -97.036 154.774 234.859  1.00  0.00    -0.550 OA
ENDBRANCH  14  15
ENDBRANCH  13  14
ENDBRANCH  12  13
ENDBRANCH  11  12
ENDBRANCH  10  11
ENDBRANCH   9  10
ENDBRANCH   8   9
ENDBRANCH   7   8
ENDBRANCH   6   7
ENDBRANCH   5   6
ENDBRANCH   4   5
ENDBRANCH   3   4
ENDBRANCH   2   3
ENDBRANCH   1   2
BRANCH   1  18
ATOM     18  C   UNL     1     -96.053 148.593 236.662  1.00  0.00     0.000 C 
BRANCH  18  19
ATOM     19  C   UNL     1     -97.062 149.745 236.515  1.00  0.00     0.000 C 
BRANCH  19  20
ATOM     20  C   UNL     1     -97.815 149.710 235.175  1.00  0.00     0.000 C 
BRANCH  20  21
ATOM     21  C   UNL     1     -97.539 150.941 234.285  1.00  0.00     0.000 C 
BRANCH  21  22
ATOM     22  C   UNL     1     -96.062 151.368 234.335  1.00  0.00     0.000 C 
BRANCH  22  23
ATOM     23  C   UNL     1     -95.617 152.091 233.053  1.00  0.00     0.000 C 
BRANCH  23  24
ATOM     24  C   UNL     1     -96.812 152.511 232.180  1.00  0.00    -0.000 C 
BRANCH  24  25
ATOM     25  C   UNL     1     -96.447 152.638 230.691  1.00  0.00    -0.000 C 
BRANCH  25  26
ATOM     26  C   UNL     1     -96.342 151.277 229.984  1.00  0.00    -0.000 C 
BRANCH  26  27
ATOM     27  C   UNL     1     -97.624 150.434 230.176  1.00  0.00    -0.000 C 
BRANCH  27  28
ATOM     28  C   UNL     1     -97.318 148.946 230.416  1.00  0.00    -0.000 C 
BRANCH  28  29
ATOM     29  C   UNL     1     -95.999 148.721 231.191  1.00  0.00    -0.000 C 
BRANCH  29  30
ATOM     30  C   UNL     1     -96.189 147.966 232.518  1.00  0.00    -0.000 C 
BRANCH  30  31
ATOM     31  C   UNL     1     -94.898 147.778 233.334  1.00  0.00    -0.003 C 
ATOM     32  C   UNL     1     -93.798 148.766 232.943  1.00  0.00     0.004 C 
ENDBRANCH  30  31
ENDBRANCH  29  30
ENDBRANCH  28  29
ENDBRANCH  27  28
ENDBRANCH  26  27
ENDBRANCH  25  26
ENDBRANCH  24  25
ENDBRANCH  23  24
ENDBRANCH  22  23
ENDBRANCH  21  22
ENDBRANCH  20  21
ENDBRANCH  19  20
ENDBRANCH  18  19
ENDBRANCH   1  18
TORSDOF 28
ENDMDL
MODEL 8
REMARK VINA RESULT:    -3.172      1.762      3.515
REMARK INTER + INTRA:         -13.969
REMARK INTER:                  -8.048
REMARK INTRA:                  -5.920
REMARK UNBOUND:                -5.605
REMARK SMILES CCCCCCCCCCCCCCCCCCCCCCCCCCCCCC(=O)[O-]
REMARK SMILES IDX 16 1 17 2 18 3 19 4 20 5 21 6 22 7 23 8 24 9 25 10 26 11
REMARK SMILES IDX 27 12 28 13 29 14 30 15 31 16 32 17 15 18 14 19 13 20 12 21
REMARK SMILES IDX 11 22 10 23 9 24 8 25 7 26 6 27 5 28 4 29 3 30 2 31 1 32
REMARK H PARENT
REMARK Flexibility Score: inf
ROOT
ATOM      1  C   UNL     1    -100.711 151.796 234.402  1.00  0.00     0.000 C 
ENDROOT
BRANCH   1   2
ATOM      2  C   UNL     1     -99.747 150.614 234.192  1.00  0.00     0.000 C 
BRANCH   2   3
ATOM      3  C   UNL     1     -98.756 150.851 233.045  1.00  0.00     0.000 C 
BRANCH   3   4
ATOM      4  C   UNL     1     -97.304 150.499 233.424  1.00  0.00     0.000 C 
BRANCH   4   5
ATOM      5  C   UNL     1     -96.676 151.528 234.388  1.00  0.00     0.000 C 
BRANCH   5   6
ATOM      6  C   UNL     1     -96.552 152.951 233.801  1.00  0.00     0.000 C 
BRANCH   6   7
ATOM      7  C   UNL     1     -97.230 154.066 234.617  1.00  0.00     0.000 C 
BRANCH   7   8
ATOM      8  C   UNL     1     -98.201 154.963 233.820  1.00  0.00     0.000 C 
BRANCH   8   9
ATOM      9  C   UNL     1     -98.508 154.446 232.400  1.00  0.00     0.000 C 
BRANCH   9  10
ATOM     10  C   UNL     1     -99.989 154.594 232.019  1.00  0.00     0.000 C 
BRANCH  10  11
ATOM     11  C   UNL     1    -100.794 155.216 233.167  1.00  0.00     0.000 C 
BRANCH  11  12
ATOM     12  C   UNL     1    -101.434 156.542 232.739  1.00  0.00     0.000 C 
BRANCH  12  13
ATOM     13  C   UNL     1    -100.882 157.709 233.571  1.00  0.00     0.006 C 
BRANCH  13  14
ATOM     14  C   UNL     1    -101.981 158.456 234.337  1.00  0.00     0.053 C 
BRANCH  14  15
ATOM     15  C   UNL     1    -102.740 157.552 235.262  1.00  0.00     0.041 C 
ATOM     16  O   UNL     1    -103.987 157.415 235.137  1.00  0.00    -0.550 OA
ATOM     17  O   UNL     1    -102.077 156.890 236.288  1.00  0.00    -0.550 OA
ENDBRANCH  14  15
ENDBRANCH  13  14
ENDBRANCH  12  13
ENDBRANCH  11  12
ENDBRANCH  10  11
ENDBRANCH   9  10
ENDBRANCH   8   9
ENDBRANCH   7   8
ENDBRANCH   6   7
ENDBRANCH   5   6
ENDBRANCH   4   5
ENDBRANCH   3   4
ENDBRANCH   2   3
ENDBRANCH   1   2
BRANCH   1  18
ATOM     18  C   UNL     1    -101.047 152.034 235.881  1.00  0.00     0.000 C 
BRANCH  18  19
ATOM     19  C   UNL     1     -99.873 152.646 236.663  1.00  0.00     0.000 C 
BRANCH  19  20
ATOM     20  C   UNL     1     -99.334 151.712 237.758  1.00  0.00     0.000 C 
BRANCH  20  21
ATOM     21  C   UNL     1    -100.181 150.434 237.944  1.00  0.00     0.000 C 
BRANCH  21  22
ATOM     22  C   UNL     1     -99.341 149.157 237.762  1.00  0.00     0.000 C 
BRANCH  22  23
ATOM     23  C   UNL     1     -97.928 149.454 237.236  1.00  0.00     0.000 C 
BRANCH  23  24
ATOM     24  C   UNL     1     -97.320 148.253 236.493  1.00  0.00    -0.000 C 
BRANCH  24  25
ATOM     25  C   UNL     1     -95.808 148.400 236.257  1.00  0.00    -0.000 C 
BRANCH  25  26
ATOM     26  C   UNL     1     -95.176 149.511 237.111  1.00  0.00    -0.000 C 
BRANCH  26  27
ATOM     27  C   UNL     1     -94.216 148.935 238.178  1.00  0.00    -0.000 C 
BRANCH  27  28
ATOM     28  C   UNL     1     -94.653 149.282 239.611  1.00  0.00    -0.000 C 
BRANCH  28  29
ATOM     29  C   UNL     1     -95.480 148.157 240.275  1.00  0.00    -0.000 C 
BRANCH  29  30
ATOM     30  C   UNL     1     -96.898 148.598 240.682  1.00  0.00    -0.000 C 
BRANCH  30  31
ATOM     31  C   UNL     1     -97.083 150.121 240.795  1.00  0.00    -0.003 C 
ATOM     32  C   UNL     1     -98.485 150.516 241.262  1.00  0.00     0.004 C 
ENDBRANCH  30  31
ENDBRANCH  29  30
ENDBRANCH  28  29
ENDBRANCH  27  28
ENDBRANCH  26  27
ENDBRANCH  25  26
ENDBRANCH  24  25
ENDBRANCH  23  24
ENDBRANCH  22  23
ENDBRANCH  21  22
ENDBRANCH  20  21
ENDBRANCH  19  20
ENDBRANCH  18  19
ENDBRANCH   1  18
TORSDOF 28
ENDMDL
MODEL 9
REMARK VINA RESULT:    -3.106      1.828      4.637
REMARK INTER + INTRA:         -13.794
REMARK INTER:                  -7.891
REMARK INTRA:                  -5.903
REMARK UNBOUND:                -5.605
REMARK SMILES CCCCCCCCCCCCCCCCCCCCCCCCCCCCCC(=O)[O-]
REMARK SMILES IDX 16 1 17 2 18 3 19 4 20 5 21 6 22 7 23 8 24 9 25 10 26 11
REMARK SMILES IDX 27 12 28 13 29 14 30 15 31 16 32 17 15 18 14 19 13 20 12 21
REMARK SMILES IDX 11 22 10 23 9 24 8 25 7 26 6 27 5 28 4 29 3 30 2 31 1 32
REMARK H PARENT
REMARK Flexibility Score: inf
ROOT
ATOM      1  C   UNL     1     -97.241 148.261 240.955  1.00  0.00     0.000 C 
ENDROOT
BRANCH   1   2
ATOM      2  C   UNL     1     -97.127 149.780 240.733  1.00  0.00     0.000 C 
BRANCH   2   3
ATOM      3  C   UNL     1     -95.871 150.173 239.943  1.00  0.00     0.000 C 
BRANCH   3   4
ATOM      4  C   UNL     1     -94.785 149.080 239.961  1.00  0.00     0.000 C 
BRANCH   4   5
ATOM      5  C   UNL     1     -94.255 148.746 238.551  1.00  0.00     0.000 C 
BRANCH   5   6
ATOM      6  C   UNL     1     -95.022 149.441 237.406  1.00  0.00     0.000 C 
BRANCH   6   7
ATOM      7  C   UNL     1     -95.050 148.679 236.069  1.00  0.00     0.000 C 
BRANCH   7   8
ATOM      8  C   UNL     1     -96.019 149.248 235.011  1.00  0.00     0.000 C 
BRANCH   8   9
ATOM      9  C   UNL     1     -95.318 149.999 233.860  1.00  0.00     0.000 C 
BRANCH   9  10
ATOM     10  C   UNL     1     -96.146 151.177 233.325  1.00  0.00     0.000 C 
BRANCH  10  11
ATOM     11  C   UNL     1     -97.194 151.625 234.351  1.00  0.00     0.000 C 
BRANCH  11  12
ATOM     12  C   UNL     1     -98.610 151.545 233.768  1.00  0.00     0.000 C 
BRANCH  12  13
ATOM     13  C   UNL     1     -99.549 152.532 234.476  1.00  0.00     0.006 C 
BRANCH  13  14
ATOM     14  C   UNL     1     -98.789 153.663 235.182  1.00  0.00     0.053 C 
BRANCH  14  15
ATOM     15  C   UNL     1     -98.827 154.943 234.402  1.00  0.00     0.041 C 
ATOM     16  O   UNL     1     -98.037 155.883 234.685  1.00  0.00    -0.550 OA
ATOM     17  O   UNL     1     -99.760 155.112 233.387  1.00  0.00    -0.550 OA
ENDBRANCH  14  15
ENDBRANCH  13  14
ENDBRANCH  12  13
ENDBRANCH  11  12
ENDBRANCH  10  11
ENDBRANCH   9  10
ENDBRANCH   8   9
ENDBRANCH   7   8
ENDBRANCH   6   7
ENDBRANCH   5   6
ENDBRANCH   4   5
ENDBRANCH   3   4
ENDBRANCH   2   3
ENDBRANCH   1   2
BRANCH   1  18
ATOM     18  C   UNL     1     -98.281 147.603 240.037  1.00  0.00     0.000 C 
BRANCH  18  19
ATOM     19  C   UNL     1     -97.662 147.047 238.744  1.00  0.00     0.000 C 
BRANCH  19  20
ATOM     20  C   UNL     1     -98.305 147.632 237.476  1.00  0.00     0.000 C 
BRANCH  20  21
ATOM     21  C   UNL     1     -99.283 148.793 237.765  1.00  0.00     0.000 C 
BRANCH  21  22
ATOM     22  C   UNL     1     -98.667 150.161 237.425  1.00  0.00     0.000 C 
BRANCH  22  23
ATOM     23  C   UNL     1     -99.422 151.324 238.088  1.00  0.00     0.000 C 
BRANCH  23  24
ATOM     24  C   UNL     1    -100.939 151.245 237.846  1.00  0.00    -0.000 C 
BRANCH  24  25
ATOM     25  C   UNL     1    -101.756 151.324 239.146  1.00  0.00    -0.000 C 
BRANCH  25  26
ATOM     26  C   UNL     1    -102.393 149.980 239.534  1.00  0.00    -0.000 C 
BRANCH  26  27
ATOM     27  C   UNL     1    -101.551 149.234 240.594  1.00  0.00    -0.000 C 
BRANCH  27  28
ATOM     28  C   UNL     1    -100.733 150.193 241.476  1.00  0.00    -0.000 C 
BRANCH  28  29
ATOM     29  C   UNL     1    -101.428 150.516 242.818  1.00  0.00    -0.000 C 
BRANCH  29  30
ATOM     30  C   UNL     1    -100.568 150.183 244.050  1.00  0.00    -0.000 C 
BRANCH  30  31
ATOM     31  C   UNL     1     -99.344 149.298 243.751  1.00  0.00    -0.003 C 
ATOM     32  C   UNL     1     -99.592 147.820 244.054  1.00  0.00     0.004 C 
ENDBRANCH  30  31
ENDBRANCH  29  30
ENDBRANCH  28  29
ENDBRANCH  27  28
ENDBRANCH  26  27
ENDBRANCH  25  26
ENDBRANCH  24  25
ENDBRANCH  23  24
ENDBRANCH  22  23
ENDBRANCH  21  22
ENDBRANCH  20  21
ENDBRANCH  19  20
ENDBRANCH  18  19
ENDBRANCH   1  18
TORSDOF 28
ENDMDL
