MODEL 1
REMARK VINA RESULT:    -4.242      0.000      0.000
REMARK INTER + INTRA:          -6.385
REMARK INTER:                  -5.730
REMARK INTRA:                  -0.655
REMARK UNBOUND:                -0.655
REMARK SMILES CC(=O)CCC=C(C)CCC=C(C)C
REMARK SMILES IDX 7 1 6 2 8 3 9 4 10 5 11 6 13 7 12 8 14 9 5 10 4 11 2 12 3 13
REMARK SMILES IDX 1 14
REMARK H PARENT
REMARK Flexibility Score: inf
ROOT
ATOM      1  C   UNL     1       9.806  16.982  14.591  1.00  0.00    -0.077 C 
ATOM      2  C   UNL     1       8.492  17.086  14.893  1.00  0.00    -0.028 C 
ATOM      3  C   UNL     1      10.581  18.133  13.994  1.00  0.00     0.039 C 
ENDROOT
BRANCH   1   4
ATOM      4  C   UNL     1      10.524  15.682  14.884  1.00  0.00     0.034 C 
BRANCH   4   5
ATOM      5  C   UNL     1      12.038  15.907  14.981  1.00  0.00     0.032 C 
BRANCH   5   6
ATOM      6  C   UNL     1      12.675  14.874  15.876  1.00  0.00    -0.028 C 
ATOM      7  C   UNL     1      14.256  13.985  17.534  1.00  0.00     0.039 C 
ATOM      8  C   UNL     1      13.694  15.126  16.727  1.00  0.00    -0.080 C 
ATOM      9  C   UNL     1      14.265  16.514  16.901  1.00  0.00     0.039 C 
ENDBRANCH   5   6
ENDBRANCH   4   5
ENDBRANCH   1   4
BRANCH   2  10
ATOM     10  C   UNL     1       7.646  18.303  14.613  1.00  0.00     0.035 C 
BRANCH  10  11
ATOM     11  C   UNL     1       7.456  19.133  15.886  1.00  0.00     0.079 C 
BRANCH  11  12
ATOM     12  C   UNL     1       8.077  20.497  15.730  1.00  0.00     0.130 C 
ATOM     13  O   UNL     1       7.475  21.365  15.116  1.00  0.00    -0.300 OA
ATOM     14  C   UNL     1       9.417  20.819  16.324  1.00  0.00     0.087 C 
ENDBRANCH  11  12
ENDBRANCH  10  11
ENDBRANCH   2  10
TORSDOF 6
ENDMDL
MODEL 2
REMARK VINA RESULT:    -4.180      3.783      6.714
REMARK INTER + INTRA:          -6.302
REMARK INTER:                  -4.931
REMARK INTRA:                  -1.371
REMARK UNBOUND:                -0.655
REMARK SMILES CC(=O)CCC=C(C)CCC=C(C)C
REMARK SMILES IDX 7 1 6 2 8 3 9 4 10 5 11 6 13 7 12 8 14 9 5 10 4 11 2 12 3 13
REMARK SMILES IDX 1 14
REMARK H PARENT
REMARK Flexibility Score: inf
ROOT
ATOM      1  C   UNL     1       6.561  16.580  13.764  1.00  0.00    -0.077 C 
ATOM      2  C   UNL     1       7.157  16.672  14.974  1.00  0.00    -0.028 C 
ATOM      3  C   UNL     1       7.068  17.345  12.565  1.00  0.00     0.039 C 
ENDROOT
BRANCH   1   4
ATOM      4  C   UNL     1       5.367  15.664  13.604  1.00  0.00     0.034 C 
BRANCH   4   5
ATOM      5  C   UNL     1       4.216  16.105  14.518  1.00  0.00     0.032 C 
BRANCH   5   6
ATOM      6  C   UNL     1       3.504  17.302  13.940  1.00  0.00    -0.028 C 
ATOM      7  C   UNL     1       2.714  19.626  13.827  1.00  0.00     0.039 C 
ATOM      8  C   UNL     1       3.502  18.532  14.499  1.00  0.00    -0.080 C 
ATOM      9  C   UNL     1       4.278  18.839  15.759  1.00  0.00     0.039 C 
ENDBRANCH   5   6
ENDBRANCH   4   5
ENDBRANCH   1   4
BRANCH   2  10
ATOM     10  C   UNL     1       8.323  17.577  15.284  1.00  0.00     0.035 C 
BRANCH  10  11
ATOM     11  C   UNL     1       7.914  18.660  16.288  1.00  0.00     0.079 C 
BRANCH  11  12
ATOM     12  C   UNL     1       8.170  20.033  15.723  1.00  0.00     0.130 C 
ATOM     13  O   UNL     1       9.017  20.747  16.239  1.00  0.00    -0.300 OA
ATOM     14  C   UNL     1       7.415  20.542  14.530  1.00  0.00     0.087 C 
ENDBRANCH  11  12
ENDBRANCH  10  11
ENDBRANCH   2  10
TORSDOF 6
ENDMDL
MODEL 3
REMARK VINA RESULT:    -4.177     11.627     15.580
REMARK INTER + INTRA:          -6.298
REMARK INTER:                  -5.508
REMARK INTRA:                  -0.789
REMARK UNBOUND:                -0.655
REMARK SMILES CC(=O)CCC=C(C)CCC=C(C)C
REMARK SMILES IDX 7 1 6 2 8 3 9 4 10 5 11 6 13 7 12 8 14 9 5 10 4 11 2 12 3 13
REMARK SMILES IDX 1 14
REMARK H PARENT
REMARK Flexibility Score: inf
ROOT
ATOM      1  C   UNL     1       8.258  31.406  14.694  1.00  0.00    -0.077 C 
ATOM      2  C   UNL     1       9.422  31.793  14.124  1.00  0.00    -0.028 C 
ATOM      3  C   UNL     1       7.537  30.152  14.261  1.00  0.00     0.039 C 
ENDROOT
BRANCH   1   4
ATOM      4  C   UNL     1       7.678  32.242  15.814  1.00  0.00     0.034 C 
BRANCH   4   5
ATOM      5  C   UNL     1       6.175  31.977  15.968  1.00  0.00     0.032 C 
BRANCH   5   6
ATOM      6  C   UNL     1       5.370  33.056  15.291  1.00  0.00    -0.028 C 
ATOM      7  C   UNL     1       3.527  34.017  13.980  1.00  0.00     0.039 C 
ATOM      8  C   UNL     1       4.204  32.846  14.642  1.00  0.00    -0.080 C 
ATOM      9  C   UNL     1       3.558  31.481  14.582  1.00  0.00     0.039 C 
ENDBRANCH   5   6
ENDBRANCH   4   5
ENDBRANCH   1   4
BRANCH   2  10
ATOM     10  C   UNL     1      10.087  31.081  12.973  1.00  0.00     0.035 C 
BRANCH  10  11
ATOM     11  C   UNL     1      11.538  30.731  13.318  1.00  0.00     0.079 C 
BRANCH  11  12
ATOM     12  C   UNL     1      11.635  29.323  13.846  1.00  0.00     0.130 C 
ATOM     13  O   UNL     1      12.533  29.032  14.620  1.00  0.00    -0.300 OA
ATOM     14  C   UNL     1      10.642  28.270  13.450  1.00  0.00     0.087 C 
ENDBRANCH  11  12
ENDBRANCH  10  11
ENDBRANCH   2  10
TORSDOF 6
ENDMDL
MODEL 4
REMARK VINA RESULT:    -4.167      1.235      1.816
REMARK INTER + INTRA:          -6.284
REMARK INTER:                  -5.502
REMARK INTRA:                  -0.782
REMARK UNBOUND:                -0.655
REMARK SMILES CC(=O)CCC=C(C)CCC=C(C)C
REMARK SMILES IDX 7 1 6 2 8 3 9 4 10 5 11 6 13 7 12 8 14 9 5 10 4 11 2 12 3 13
REMARK SMILES IDX 1 14
REMARK H PARENT
REMARK Flexibility Score: inf
ROOT
ATOM      1  C   UNL     1      11.401  16.190  14.487  1.00  0.00    -0.077 C 
ATOM      2  C   UNL     1      10.089  16.266  14.805  1.00  0.00    -0.028 C 
ATOM      3  C   UNL     1      12.124  17.329  13.808  1.00  0.00     0.039 C 
ENDROOT
BRANCH   1   4
ATOM      4  C   UNL     1      12.170  14.936  14.844  1.00  0.00     0.034 C 
BRANCH   4   5
ATOM      5  C   UNL     1      12.548  14.936  16.330  1.00  0.00     0.032 C 
BRANCH   5   6
ATOM      6  C   UNL     1      14.044  14.852  16.501  1.00  0.00    -0.028 C 
ATOM      7  C   UNL     1      16.333  15.683  16.827  1.00  0.00     0.039 C 
ATOM      8  C   UNL     1      14.849  15.916  16.712  1.00  0.00    -0.080 C 
ATOM      9  C   UNL     1      14.301  17.317  16.855  1.00  0.00     0.039 C 
ENDBRANCH   5   6
ENDBRANCH   4   5
ENDBRANCH   1   4
BRANCH   2  10
ATOM     10  C   UNL     1       9.195  17.433  14.468  1.00  0.00     0.035 C 
BRANCH  10  11
ATOM     11  C   UNL     1       7.966  17.454  15.382  1.00  0.00     0.079 C 
BRANCH  11  12
ATOM     12  C   UNL     1       7.680  18.854  15.858  1.00  0.00     0.130 C 
ATOM     13  O   UNL     1       6.552  19.146  16.226  1.00  0.00    -0.300 OA
ATOM     14  C   UNL     1       8.755  19.900  15.903  1.00  0.00     0.087 C 
ENDBRANCH  11  12
ENDBRANCH  10  11
ENDBRANCH   2  10
TORSDOF 6
ENDMDL
MODEL 5
REMARK VINA RESULT:    -4.164     11.406     12.432
REMARK INTER + INTRA:          -6.280
REMARK INTER:                  -5.482
REMARK INTRA:                  -0.798
REMARK UNBOUND:                -0.655
REMARK SMILES CC(=O)CCC=C(C)CCC=C(C)C
REMARK SMILES IDX 7 1 6 2 8 3 9 4 10 5 11 6 13 7 12 8 14 9 5 10 4 11 2 12 3 13
REMARK SMILES IDX 1 14
REMARK H PARENT
REMARK Flexibility Score: inf
ROOT
ATOM      1  C   UNL     1      12.015  29.108  13.662  1.00  0.00    -0.077 C 
ATOM      2  C   UNL     1      10.678  28.967  13.518  1.00  0.00    -0.028 C 
ATOM      3  C   UNL     1      12.732  30.373  13.252  1.00  0.00     0.039 C 
ENDROOT
BRANCH   1   4
ATOM      4  C   UNL     1      12.809  27.976  14.275  1.00  0.00     0.034 C 
BRANCH   4   5
ATOM      5  C   UNL     1      13.765  28.502  15.353  1.00  0.00     0.032 C 
BRANCH   5   6
ATOM      6  C   UNL     1      15.066  27.741  15.332  1.00  0.00    -0.028 C 
ATOM      7  C   UNL     1      17.430  27.317  14.814  1.00  0.00     0.039 C 
ATOM      8  C   UNL     1      16.215  28.206  14.794  1.00  0.00    -0.080 C 
ATOM      9  C   UNL     1      16.314  29.591  14.198  1.00  0.00     0.039 C 
ENDBRANCH   5   6
ENDBRANCH   4   5
ENDBRANCH   1   4
BRANCH   2  10
ATOM     10  C   UNL     1       9.775  29.994  12.883  1.00  0.00     0.035 C 
BRANCH  10  11
ATOM     11  C   UNL     1       8.609  30.339  13.815  1.00  0.00     0.079 C 
BRANCH  11  12
ATOM     12  C   UNL     1       8.851  31.656  14.506  1.00  0.00     0.130 C 
ATOM     13  O   UNL     1       8.182  31.953  15.484  1.00  0.00    -0.300 OA
ATOM     14  C   UNL     1       9.907  32.608  14.026  1.00  0.00     0.087 C 
ENDBRANCH  11  12
ENDBRANCH  10  11
ENDBRANCH   2  10
TORSDOF 6
ENDMDL
MODEL 6
REMARK VINA RESULT:    -4.151      2.329      6.477
REMARK INTER + INTRA:          -6.262
REMARK INTER:                  -5.602
REMARK INTRA:                  -0.660
REMARK UNBOUND:                -0.655
REMARK SMILES CC(=O)CCC=C(C)CCC=C(C)C
REMARK SMILES IDX 7 1 6 2 8 3 9 4 10 5 11 6 13 7 12 8 14 9 5 10 4 11 2 12 3 13
REMARK SMILES IDX 1 14
REMARK H PARENT
REMARK Flexibility Score: inf
ROOT
ATOM      1  C   UNL     1       9.907  17.017  14.542  1.00  0.00    -0.077 C 
ATOM      2  C   UNL     1      10.476  15.846  14.908  1.00  0.00    -0.028 C 
ATOM      3  C   UNL     1      10.731  18.188  14.061  1.00  0.00     0.039 C 
ENDROOT
BRANCH   1   4
ATOM      4  C   UNL     1       8.400  17.147  14.593  1.00  0.00     0.034 C 
BRANCH   4   5
ATOM      5  C   UNL     1       7.969  18.033  15.768  1.00  0.00     0.032 C 
BRANCH   5   6
ATOM      6  C   UNL     1       7.277  19.278  15.273  1.00  0.00    -0.028 C 
ATOM      7  C   UNL     1       6.935  21.685  14.917  1.00  0.00     0.039 C 
ATOM      8  C   UNL     1       7.755  20.531  15.432  1.00  0.00    -0.080 C 
ATOM      9  C   UNL     1       9.088  20.801  16.091  1.00  0.00     0.039 C 
ENDBRANCH   5   6
ENDBRANCH   4   5
ENDBRANCH   1   4
BRANCH   2  10
ATOM     10  C   UNL     1      11.962  15.596  14.949  1.00  0.00     0.035 C 
BRANCH  10  11
ATOM     11  C   UNL     1      12.325  14.688  16.128  1.00  0.00     0.079 C 
BRANCH  11  12
ATOM     12  C   UNL     1      13.626  15.120  16.752  1.00  0.00     0.130 C 
ATOM     13  O   UNL     1      13.868  16.310  16.876  1.00  0.00    -0.300 OA
ATOM     14  C   UNL     1      14.632  14.116  17.237  1.00  0.00     0.087 C 
ENDBRANCH  11  12
ENDBRANCH  10  11
ENDBRANCH   2  10
TORSDOF 6
ENDMDL
MODEL 7
REMARK VINA RESULT:    -4.125     11.326     13.857
REMARK INTER + INTRA:          -6.228
REMARK INTER:                  -5.414
REMARK INTRA:                  -0.813
REMARK UNBOUND:                -0.655
REMARK SMILES CC(=O)CCC=C(C)CCC=C(C)C
REMARK SMILES IDX 7 1 6 2 8 3 9 4 10 5 11 6 13 7 12 8 14 9 5 10 4 11 2 12 3 13
REMARK SMILES IDX 1 14
REMARK H PARENT
REMARK Flexibility Score: inf
ROOT
ATOM      1  C   UNL     1       8.857  31.297  14.139  1.00  0.00    -0.077 C 
ATOM      2  C   UNL     1       8.264  31.854  15.219  1.00  0.00    -0.028 C 
ATOM      3  C   UNL     1       8.210  30.172  13.366  1.00  0.00     0.039 C 
ENDROOT
BRANCH   1   4
ATOM      4  C   UNL     1      10.193  31.836  13.677  1.00  0.00     0.034 C 
BRANCH   4   5
ATOM      5  C   UNL     1      10.979  30.762  12.916  1.00  0.00     0.032 C 
BRANCH   5   6
ATOM      6  C   UNL     1      12.097  30.213  13.766  1.00  0.00    -0.028 C 
ATOM      7  C   UNL     1      13.340  28.531  15.056  1.00  0.00     0.039 C 
ATOM      8  C   UNL     1      12.183  28.929  14.177  1.00  0.00    -0.080 C 
ATOM      9  C   UNL     1      11.169  27.888  13.764  1.00  0.00     0.039 C 
ENDBRANCH   5   6
ENDBRANCH   4   5
ENDBRANCH   1   4
BRANCH   2  10
ATOM     10  C   UNL     1       6.959  31.386  15.812  1.00  0.00     0.035 C 
BRANCH  10  11
ATOM     11  C   UNL     1       5.964  32.547  15.911  1.00  0.00     0.079 C 
BRANCH  11  12
ATOM     12  C   UNL     1       4.986  32.509  14.765  1.00  0.00     0.130 C 
ATOM     13  O   UNL     1       4.818  31.466  14.153  1.00  0.00    -0.300 OA
ATOM     14  C   UNL     1       4.203  33.725  14.365  1.00  0.00     0.087 C 
ENDBRANCH  11  12
ENDBRANCH  10  11
ENDBRANCH   2  10
TORSDOF 6
ENDMDL
MODEL 8
REMARK VINA RESULT:    -4.077      2.905      6.692
REMARK INTER + INTRA:          -6.163
REMARK INTER:                  -5.529
REMARK INTRA:                  -0.633
REMARK UNBOUND:                -0.655
REMARK SMILES CC(=O)CCC=C(C)CCC=C(C)C
REMARK SMILES IDX 7 1 6 2 8 3 9 4 10 5 11 6 13 7 12 8 14 9 5 10 4 11 2 12 3 13
REMARK SMILES IDX 1 14
REMARK H PARENT
REMARK Flexibility Score: inf
ROOT
ATOM      1  C   UNL     1      10.231  17.978  14.488  1.00  0.00    -0.077 C 
ATOM      2  C   UNL     1      10.328  16.630  14.453  1.00  0.00    -0.028 C 
ATOM      3  C   UNL     1      11.453  18.866  14.481  1.00  0.00     0.039 C 
ENDROOT
BRANCH   1   4
ATOM      4  C   UNL     1       8.857  18.613  14.509  1.00  0.00     0.034 C 
BRANCH   4   5
ATOM      5  C   UNL     1       8.012  18.045  15.655  1.00  0.00     0.032 C 
BRANCH   5   6
ATOM      6  C   UNL     1       6.813  18.921  15.920  1.00  0.00    -0.028 C 
ATOM      7  C   UNL     1       4.455  19.606  15.853  1.00  0.00     0.039 C 
ATOM      8  C   UNL     1       5.549  18.615  15.553  1.00  0.00    -0.080 C 
ATOM      9  C   UNL     1       5.207  17.309  14.874  1.00  0.00     0.039 C 
ENDBRANCH   5   6
ENDBRANCH   4   5
ENDBRANCH   1   4
BRANCH   2  10
ATOM     10  C   UNL     1      11.628  15.867  14.475  1.00  0.00     0.035 C 
BRANCH  10  11
ATOM     11  C   UNL     1      11.694  14.946  15.698  1.00  0.00     0.079 C 
BRANCH  11  12
ATOM     12  C   UNL     1      12.994  15.133  16.436  1.00  0.00     0.130 C 
ATOM     13  O   UNL     1      13.381  14.263  17.201  1.00  0.00    -0.300 OA
ATOM     14  C   UNL     1      13.832  16.363  16.244  1.00  0.00     0.087 C 
ENDBRANCH  11  12
ENDBRANCH  10  11
ENDBRANCH   2  10
TORSDOF 6
ENDMDL
MODEL 9
REMARK VINA RESULT:    -4.075     10.373     14.090
REMARK INTER + INTRA:          -6.159
REMARK INTER:                  -5.376
REMARK INTRA:                  -0.784
REMARK UNBOUND:                -0.655
REMARK SMILES CC(=O)CCC=C(C)CCC=C(C)C
REMARK SMILES IDX 7 1 6 2 8 3 9 4 10 5 11 6 13 7 12 8 14 9 5 10 4 11 2 12 3 13
REMARK SMILES IDX 1 14
REMARK H PARENT
REMARK Flexibility Score: inf
ROOT
ATOM      1  C   UNL     1       9.565  30.528  13.515  1.00  0.00    -0.077 C 
ATOM      2  C   UNL     1      10.892  30.481  13.767  1.00  0.00    -0.028 C 
ATOM      3  C   UNL     1       8.807  29.323  13.009  1.00  0.00     0.039 C 
ENDROOT
BRANCH   1   4
ATOM      4  C   UNL     1       8.814  31.816  13.771  1.00  0.00     0.034 C 
BRANCH   4   5
ATOM      5  C   UNL     1       8.328  31.883  15.224  1.00  0.00     0.032 C 
BRANCH   5   6
ATOM      6  C   UNL     1       6.823  31.956  15.281  1.00  0.00    -0.028 C 
ATOM      7  C   UNL     1       4.529  31.126  15.573  1.00  0.00     0.039 C 
ATOM      8  C   UNL     1       6.020  30.914  15.590  1.00  0.00    -0.080 C 
ATOM      9  C   UNL     1       6.576  29.561  15.969  1.00  0.00     0.039 C 
ENDBRANCH   5   6
ENDBRANCH   4   5
ENDBRANCH   1   4
BRANCH   2  10
ATOM     10  C   UNL     1      11.768  29.280  13.515  1.00  0.00     0.035 C 
BRANCH  10  11
ATOM     11  C   UNL     1      12.973  29.281  14.461  1.00  0.00     0.079 C 
BRANCH  11  12
ATOM     12  C   UNL     1      13.189  27.912  15.049  1.00  0.00     0.130 C 
ATOM     13  O   UNL     1      14.321  27.553  15.336  1.00  0.00    -0.300 OA
ATOM     14  C   UNL     1      12.041  26.979  15.303  1.00  0.00     0.087 C 
ENDBRANCH  11  12
ENDBRANCH  10  11
ENDBRANCH   2  10
TORSDOF 6
ENDMDL
