MODEL 1
REMARK VINA RESULT:    -5.886      0.000      0.000
REMARK INTER + INTRA:          -9.045
REMARK INTER:                  -7.950
REMARK INTRA:                  -1.095
REMARK UNBOUND:                -1.095
REMARK SMILES CC(=O)CCC=C(C)CCC=C(C)C
REMARK SMILES IDX 7 1 6 2 8 3 9 4 10 5 11 6 13 7 12 8 14 9 5 10 4 11 2 12 3 13
REMARK SMILES IDX 1 14
REMARK H PARENT
REMARK Flexibility Score: inf
ROOT
ATOM      1  C   UNL     1     -11.028  72.862  28.419  1.00  0.00    -0.077 C 
ATOM      2  C   UNL     1      -9.728  72.763  28.061  1.00  0.00    -0.028 C 
ATOM      3  C   UNL     1     -11.962  73.855  27.766  1.00  0.00     0.039 C 
ENDROOT
BRANCH   1   4
ATOM      4  C   UNL     1     -11.567  71.939  29.490  1.00  0.00     0.034 C 
BRANCH   4   5
ATOM      5  C   UNL     1     -10.831  72.159  30.815  1.00  0.00     0.032 C 
BRANCH   5   6
ATOM      6  C   UNL     1     -11.283  73.439  31.473  1.00  0.00    -0.028 C 
ATOM      7  C   UNL     1     -11.127  75.774  32.221  1.00  0.00     0.039 C 
ATOM      8  C   UNL     1     -10.526  74.554  31.574  1.00  0.00    -0.080 C 
ATOM      9  C   UNL     1      -9.101  74.603  31.072  1.00  0.00     0.039 C 
ENDBRANCH   5   6
ENDBRANCH   4   5
ENDBRANCH   1   4
BRANCH   2  10
ATOM     10  C   UNL     1      -9.046  73.659  27.055  1.00  0.00     0.035 C 
BRANCH  10  11
ATOM     11  C   UNL     1      -8.952  72.996  25.675  1.00  0.00     0.079 C 
BRANCH  11  12
ATOM     12  C   UNL     1      -9.951  73.579  24.709  1.00  0.00     0.130 C 
ATOM     13  O   UNL     1     -10.259  74.758  24.798  1.00  0.00    -0.300 OA
ATOM     14  C   UNL     1     -10.545  72.746  23.614  1.00  0.00     0.087 C 
ENDBRANCH  11  12
ENDBRANCH  10  11
ENDBRANCH   2  10
TORSDOF 6
ENDMDL
MODEL 2
REMARK VINA RESULT:    -5.807      3.995      7.118
REMARK INTER + INTRA:          -8.939
REMARK INTER:                  -7.929
REMARK INTRA:                  -1.009
REMARK UNBOUND:                -1.095
REMARK SMILES CC(=O)CCC=C(C)CCC=C(C)C
REMARK SMILES IDX 7 1 6 2 8 3 9 4 10 5 11 6 13 7 12 8 14 9 5 10 4 11 2 12 3 13
REMARK SMILES IDX 1 14
REMARK H PARENT
REMARK Flexibility Score: inf
ROOT
ATOM      1  C   UNL     1     -10.085  74.271  31.822  1.00  0.00    -0.077 C 
ATOM      2  C   UNL     1     -10.124  73.025  32.346  1.00  0.00    -0.028 C 
ATOM      3  C   UNL     1     -10.990  75.374  32.317  1.00  0.00     0.039 C 
ENDROOT
BRANCH   1   4
ATOM      4  C   UNL     1      -9.091  74.572  30.721  1.00  0.00     0.034 C 
BRANCH   4   5
ATOM      5  C   UNL     1      -9.299  73.630  29.530  1.00  0.00     0.032 C 
BRANCH   5   6
ATOM      6  C   UNL     1     -10.548  73.998  28.769  1.00  0.00    -0.028 C 
ATOM      7  C   UNL     1     -12.829  73.723  27.897  1.00  0.00     0.039 C 
ATOM      8  C   UNL     1     -11.636  73.204  28.657  1.00  0.00    -0.080 C 
ATOM      9  C   UNL     1     -11.680  71.816  29.254  1.00  0.00     0.039 C 
ENDBRANCH   5   6
ENDBRANCH   4   5
ENDBRANCH   1   4
BRANCH   2  10
ATOM     10  C   UNL     1     -11.105  72.571  33.402  1.00  0.00     0.035 C 
BRANCH  10  11
ATOM     11  C   UNL     1     -10.434  71.675  34.451  1.00  0.00     0.079 C 
BRANCH  11  12
ATOM     12  C   UNL     1     -10.760  72.122  35.853  1.00  0.00     0.130 C 
ATOM     13  O   UNL     1     -11.222  71.321  36.651  1.00  0.00    -0.300 OA
ATOM     14  C   UNL     1     -10.488  73.528  36.298  1.00  0.00     0.087 C 
ENDBRANCH  11  12
ENDBRANCH  10  11
ENDBRANCH   2  10
TORSDOF 6
ENDMDL
MODEL 3
REMARK VINA RESULT:    -5.761      3.634      6.995
REMARK INTER + INTRA:          -8.877
REMARK INTER:                  -8.412
REMARK INTRA:                  -0.466
REMARK UNBOUND:                -1.095
REMARK SMILES CC(=O)CCC=C(C)CCC=C(C)C
REMARK SMILES IDX 7 1 6 2 8 3 9 4 10 5 11 6 13 7 12 8 14 9 5 10 4 11 2 12 3 13
REMARK SMILES IDX 1 14
REMARK H PARENT
REMARK Flexibility Score: inf
ROOT
ATOM      1  C   UNL     1     -11.163  73.810  30.784  1.00  0.00    -0.077 C 
ATOM      2  C   UNL     1     -11.625  72.761  31.502  1.00  0.00    -0.028 C 
ATOM      3  C   UNL     1     -10.519  75.006  31.445  1.00  0.00     0.039 C 
ENDROOT
BRANCH   1   4
ATOM      4  C   UNL     1     -11.278  73.775  29.276  1.00  0.00     0.034 C 
BRANCH   4   5
ATOM      5  C   UNL     1     -10.022  74.362  28.624  1.00  0.00     0.032 C 
BRANCH   5   6
ATOM      6  C   UNL     1     -10.253  74.624  27.157  1.00  0.00    -0.028 C 
ATOM      7  C   UNL     1     -10.061  74.252  24.735  1.00  0.00     0.039 C 
ATOM      8  C   UNL     1      -9.705  73.899  26.156  1.00  0.00    -0.080 C 
ATOM      9  C   UNL     1      -8.742  72.765  26.423  1.00  0.00     0.039 C 
ENDBRANCH   5   6
ENDBRANCH   4   5
ENDBRANCH   1   4
BRANCH   2  10
ATOM     10  C   UNL     1     -11.631  72.690  33.010  1.00  0.00     0.035 C 
BRANCH  10  11
ATOM     11  C   UNL     1     -10.492  71.812  33.543  1.00  0.00     0.079 C 
BRANCH  11  12
ATOM     12  C   UNL     1     -10.315  71.973  35.030  1.00  0.00     0.130 C 
ATOM     13  O   UNL     1      -9.376  71.427  35.589  1.00  0.00    -0.300 OA
ATOM     14  C   UNL     1     -11.250  72.828  35.831  1.00  0.00     0.087 C 
ENDBRANCH  11  12
ENDBRANCH  10  11
ENDBRANCH   2  10
TORSDOF 6
ENDMDL
MODEL 4
REMARK VINA RESULT:    -5.721      2.443      3.747
REMARK INTER + INTRA:          -8.822
REMARK INTER:                  -8.056
REMARK INTRA:                  -0.766
REMARK UNBOUND:                -1.095
REMARK SMILES CC(=O)CCC=C(C)CCC=C(C)C
REMARK SMILES IDX 7 1 6 2 8 3 9 4 10 5 11 6 13 7 12 8 14 9 5 10 4 11 2 12 3 13
REMARK SMILES IDX 1 14
REMARK H PARENT
REMARK Flexibility Score: inf
ROOT
ATOM      1  C   UNL     1     -10.660  73.957  31.153  1.00  0.00    -0.077 C 
ATOM      2  C   UNL     1     -11.464  73.295  30.291  1.00  0.00    -0.028 C 
ATOM      3  C   UNL     1      -9.261  74.383  30.773  1.00  0.00     0.039 C 
ENDROOT
BRANCH   1   4
ATOM      4  C   UNL     1     -11.185  74.300  32.530  1.00  0.00     0.034 C 
BRANCH   4   5
ATOM      5  C   UNL     1     -11.815  73.069  33.191  1.00  0.00     0.032 C 
BRANCH   5   6
ATOM      6  C   UNL     1     -10.755  72.191  33.807  1.00  0.00    -0.028 C 
ATOM      7  C   UNL     1      -9.486  71.103  35.608  1.00  0.00     0.039 C 
ATOM      8  C   UNL     1     -10.558  72.050  35.136  1.00  0.00    -0.080 C 
ATOM      9  C   UNL     1     -11.368  72.823  36.153  1.00  0.00     0.039 C 
ENDBRANCH   5   6
ENDBRANCH   4   5
ENDBRANCH   1   4
BRANCH   2  10
ATOM     10  C   UNL     1     -11.049  72.837  28.912  1.00  0.00     0.035 C 
BRANCH  10  11
ATOM     11  C   UNL     1     -11.532  73.803  27.824  1.00  0.00     0.079 C 
BRANCH  11  12
ATOM     12  C   UNL     1     -10.384  74.340  27.009  1.00  0.00     0.130 C 
ATOM     13  O   UNL     1     -10.555  75.318  26.296  1.00  0.00    -0.300 OA
ATOM     14  C   UNL     1      -9.023  73.718  27.088  1.00  0.00     0.087 C 
ENDBRANCH  11  12
ENDBRANCH  10  11
ENDBRANCH   2  10
TORSDOF 6
ENDMDL
MODEL 5
REMARK VINA RESULT:    -5.632      5.763      8.967
REMARK INTER + INTRA:          -8.703
REMARK INTER:                  -8.052
REMARK INTRA:                  -0.650
REMARK UNBOUND:                -1.095
REMARK SMILES CC(=O)CCC=C(C)CCC=C(C)C
REMARK SMILES IDX 7 1 6 2 8 3 9 4 10 5 11 6 13 7 12 8 14 9 5 10 4 11 2 12 3 13
REMARK SMILES IDX 1 14
REMARK H PARENT
REMARK Flexibility Score: inf
ROOT
ATOM      1  C   UNL     1     -10.147  71.790  34.655  1.00  0.00    -0.077 C 
ATOM      2  C   UNL     1     -10.710  72.802  35.355  1.00  0.00    -0.028 C 
ATOM      3  C   UNL     1      -9.314  70.724  35.326  1.00  0.00     0.039 C 
ENDROOT
BRANCH   1   4
ATOM      4  C   UNL     1     -10.377  71.714  33.162  1.00  0.00     0.034 C 
BRANCH   4   5
ATOM      5  C   UNL     1     -11.595  72.552  32.757  1.00  0.00     0.032 C 
BRANCH   5   6
ATOM      6  C   UNL     1     -11.579  72.840  31.277  1.00  0.00    -0.028 C 
ATOM      7  C   UNL     1     -11.129  74.117  29.227  1.00  0.00     0.039 C 
ATOM      8  C   UNL     1     -11.121  73.986  30.728  1.00  0.00    -0.080 C 
ATOM      9  C   UNL     1     -10.621  75.136  31.573  1.00  0.00     0.039 C 
ENDBRANCH   5   6
ENDBRANCH   4   5
ENDBRANCH   1   4
BRANCH   2  10
ATOM     10  C   UNL     1     -10.513  73.034  36.834  1.00  0.00     0.035 C 
BRANCH  10  11
ATOM     11  C   UNL     1     -11.791  72.740  37.630  1.00  0.00     0.079 C 
BRANCH  11  12
ATOM     12  C   UNL     1     -11.588  71.617  38.613  1.00  0.00     0.130 C 
ATOM     13  O   UNL     1     -11.002  70.605  38.260  1.00  0.00    -0.300 OA
ATOM     14  C   UNL     1     -12.057  71.737  40.032  1.00  0.00     0.087 C 
ENDBRANCH  11  12
ENDBRANCH  10  11
ENDBRANCH   2  10
TORSDOF 6
ENDMDL
MODEL 6
REMARK VINA RESULT:    -5.628      2.736      3.626
REMARK INTER + INTRA:          -8.697
REMARK INTER:                  -8.236
REMARK INTRA:                  -0.461
REMARK UNBOUND:                -1.095
REMARK SMILES CC(=O)CCC=C(C)CCC=C(C)C
REMARK SMILES IDX 7 1 6 2 8 3 9 4 10 5 11 6 13 7 12 8 14 9 5 10 4 11 2 12 3 13
REMARK SMILES IDX 1 14
REMARK H PARENT
REMARK Flexibility Score: inf
ROOT
ATOM      1  C   UNL     1     -11.232  73.701  31.095  1.00  0.00    -0.077 C 
ATOM      2  C   UNL     1     -11.273  73.367  29.785  1.00  0.00    -0.028 C 
ATOM      3  C   UNL     1     -10.633  75.005  31.567  1.00  0.00     0.039 C 
ENDROOT
BRANCH   1   4
ATOM      4  C   UNL     1     -11.821  72.750  32.113  1.00  0.00     0.034 C 
BRANCH   4   5
ATOM      5  C   UNL     1     -11.388  73.138  33.531  1.00  0.00     0.032 C 
BRANCH   5   6
ATOM      6  C   UNL     1     -10.501  72.075  34.130  1.00  0.00    -0.028 C 
ATOM      7  C   UNL     1      -9.230  70.916  35.884  1.00  0.00     0.039 C 
ATOM      8  C   UNL     1     -10.080  72.067  35.414  1.00  0.00    -0.080 C 
ATOM      9  C   UNL     1     -10.424  73.181  36.377  1.00  0.00     0.039 C 
ENDBRANCH   5   6
ENDBRANCH   4   5
ENDBRANCH   1   4
BRANCH   2  10
ATOM     10  C   UNL     1     -10.670  74.190  28.672  1.00  0.00     0.035 C 
BRANCH  10  11
ATOM     11  C   UNL     1      -9.341  73.600  28.185  1.00  0.00     0.079 C 
BRANCH  11  12
ATOM     12  C   UNL     1      -9.290  73.511  26.682  1.00  0.00     0.130 C 
ATOM     13  O   UNL     1      -8.572  72.677  26.150  1.00  0.00    -0.300 OA
ATOM     14  C   UNL     1     -10.138  74.403  25.826  1.00  0.00     0.087 C 
ENDBRANCH  11  12
ENDBRANCH  10  11
ENDBRANCH   2  10
TORSDOF 6
ENDMDL
MODEL 7
REMARK VINA RESULT:    -5.593      2.654      6.312
REMARK INTER + INTRA:          -8.649
REMARK INTER:                  -7.920
REMARK INTRA:                  -0.729
REMARK UNBOUND:                -1.095
REMARK SMILES CC(=O)CCC=C(C)CCC=C(C)C
REMARK SMILES IDX 7 1 6 2 8 3 9 4 10 5 11 6 13 7 12 8 14 9 5 10 4 11 2 12 3 13
REMARK SMILES IDX 1 14
REMARK H PARENT
REMARK Flexibility Score: inf
ROOT
ATOM      1  C   UNL     1     -10.986  73.471  28.800  1.00  0.00    -0.077 C 
ATOM      2  C   UNL     1     -10.312  74.335  29.592  1.00  0.00    -0.028 C 
ATOM      3  C   UNL     1     -11.369  72.088  29.274  1.00  0.00     0.039 C 
ENDROOT
BRANCH   1   4
ATOM      4  C   UNL     1     -11.385  73.909  27.408  1.00  0.00     0.034 C 
BRANCH   4   5
ATOM      5  C   UNL     1     -10.276  74.748  26.765  1.00  0.00     0.032 C 
BRANCH   5   6
ATOM      6  C   UNL     1     -10.284  74.590  25.266  1.00  0.00    -0.028 C 
ATOM      7  C   UNL     1      -9.727  73.581  23.095  1.00  0.00     0.039 C 
ATOM      8  C   UNL     1      -9.588  73.646  24.594  1.00  0.00    -0.080 C 
ATOM      9  C   UNL     1      -8.670  72.674  25.299  1.00  0.00     0.039 C 
ENDBRANCH   5   6
ENDBRANCH   4   5
ENDBRANCH   1   4
BRANCH   2  10
ATOM     10  C   UNL     1      -9.799  74.009  30.974  1.00  0.00     0.035 C 
BRANCH  10  11
ATOM     11  C   UNL     1     -10.803  74.413  32.062  1.00  0.00     0.079 C 
BRANCH  11  12
ATOM     12  C   UNL     1     -11.325  73.213  32.808  1.00  0.00     0.130 C 
ATOM     13  O   UNL     1     -12.415  73.271  33.357  1.00  0.00    -0.300 OA
ATOM     14  C   UNL     1     -10.547  71.933  32.854  1.00  0.00     0.087 C 
ENDBRANCH  11  12
ENDBRANCH  10  11
ENDBRANCH   2  10
TORSDOF 6
ENDMDL
MODEL 8
REMARK VINA RESULT:    -5.534      4.690      7.795
REMARK INTER + INTRA:          -8.570
REMARK INTER:                  -7.768
REMARK INTRA:                  -0.802
REMARK UNBOUND:                -1.095
REMARK SMILES CC(=O)CCC=C(C)CCC=C(C)C
REMARK SMILES IDX 7 1 6 2 8 3 9 4 10 5 11 6 13 7 12 8 14 9 5 10 4 11 2 12 3 13
REMARK SMILES IDX 1 14
REMARK H PARENT
REMARK Flexibility Score: inf
ROOT
ATOM      1  C   UNL     1     -10.980  73.529  32.643  1.00  0.00    -0.077 C 
ATOM      2  C   UNL     1     -10.408  73.191  33.821  1.00  0.00    -0.028 C 
ATOM      3  C   UNL     1     -11.987  72.634  31.960  1.00  0.00     0.039 C 
ENDROOT
BRANCH   1   4
ATOM      4  C   UNL     1     -10.615  74.850  32.002  1.00  0.00     0.034 C 
BRANCH   4   5
ATOM      5  C   UNL     1      -9.380  74.696  31.109  1.00  0.00     0.032 C 
BRANCH   5   6
ATOM      6  C   UNL     1      -9.783  74.429  29.680  1.00  0.00    -0.028 C 
ATOM      7  C   UNL     1     -10.151  73.101  27.645  1.00  0.00     0.039 C 
ATOM      8  C   UNL     1      -9.668  73.230  29.066  1.00  0.00    -0.080 C 
ATOM      9  C   UNL     1      -9.059  72.031  29.757  1.00  0.00     0.039 C 
ENDBRANCH   5   6
ENDBRANCH   4   5
ENDBRANCH   1   4
BRANCH   2  10
ATOM     10  C   UNL     1     -10.632  71.881  34.538  1.00  0.00     0.035 C 
BRANCH  10  11
ATOM     11  C   UNL     1      -9.850  71.814  35.856  1.00  0.00     0.079 C 
BRANCH  11  12
ATOM     12  C   UNL     1     -10.756  71.524  37.025  1.00  0.00     0.130 C 
ATOM     13  O   UNL     1     -10.790  70.398  37.498  1.00  0.00    -0.300 OA
ATOM     14  C   UNL     1     -11.587  72.607  37.645  1.00  0.00     0.087 C 
ENDBRANCH  11  12
ENDBRANCH  10  11
ENDBRANCH   2  10
TORSDOF 6
ENDMDL
MODEL 9
REMARK VINA RESULT:    -5.462      1.597      2.221
REMARK INTER + INTRA:          -8.473
REMARK INTER:                  -7.864
REMARK INTRA:                  -0.609
REMARK UNBOUND:                -1.095
REMARK SMILES CC(=O)CCC=C(C)CCC=C(C)C
REMARK SMILES IDX 7 1 6 2 8 3 9 4 10 5 11 6 13 7 12 8 14 9 5 10 4 11 2 12 3 13
REMARK SMILES IDX 1 14
REMARK H PARENT
REMARK Flexibility Score: inf
ROOT
ATOM      1  C   UNL     1     -10.907  73.701  29.050  1.00  0.00    -0.077 C 
ATOM      2  C   UNL     1     -10.108  74.260  28.113  1.00  0.00    -0.028 C 
ATOM      3  C   UNL     1     -11.449  72.299  28.903  1.00  0.00     0.039 C 
ENDROOT
BRANCH   1   4
ATOM      4  C   UNL     1     -11.250  74.497  30.290  1.00  0.00     0.034 C 
BRANCH   4   5
ATOM      5  C   UNL     1     -10.108  74.431  31.309  1.00  0.00     0.032 C 
BRANCH   5   6
ATOM      6  C   UNL     1     -10.642  74.177  32.696  1.00  0.00    -0.028 C 
ATOM      7  C   UNL     1     -11.260  72.857  34.675  1.00  0.00     0.039 C 
ATOM      8  C   UNL     1     -10.746  72.954  33.262  1.00  0.00    -0.080 C 
ATOM      9  C   UNL     1     -10.378  71.692  32.515  1.00  0.00     0.039 C 
ENDBRANCH   5   6
ENDBRANCH   4   5
ENDBRANCH   1   4
BRANCH   2  10
ATOM     10  C   UNL     1      -9.736  73.606  26.803  1.00  0.00     0.035 C 
BRANCH  10  11
ATOM     11  C   UNL     1     -10.170  74.454  25.601  1.00  0.00     0.079 C 
BRANCH  11  12
ATOM     12  C   UNL     1      -9.967  73.721  24.301  1.00  0.00     0.130 C 
ATOM     13  O   UNL     1     -10.731  72.819  23.990  1.00  0.00    -0.300 OA
ATOM     14  C   UNL     1      -8.865  74.106  23.361  1.00  0.00     0.087 C 
ENDBRANCH  11  12
ENDBRANCH  10  11
ENDBRANCH   2  10
TORSDOF 6
ENDMDL
