MODEL 1
REMARK VINA RESULT:    -5.795      0.000      0.000
REMARK INTER + INTRA:          -6.303
REMARK INTER:                  -6.303
REMARK INTRA:                   0.000
REMARK UNBOUND:                 0.000
REMARK SMILES Cc1cc(O)c2c(c1)C(=O)c1cc(O)cc(O)c1C2=O
REMARK SMILES IDX 1 1 2 2 8 3 7 4 6 5 4 6 3 7 19 8 20 9 18 10 11 11 9 12 10 13
REMARK SMILES IDX 12 14 13 15 15 16 16 17 5 18 17 20 14 22
REMARK H PARENT 5 19 17 21 14 23
REMARK Flexibility Score: inf
ROOT
ATOM      1  C   UNL     1      22.413   3.905  30.078  1.00  0.00     0.044 C 
ATOM      2  C   UNL     1      22.526   2.969  31.245  1.00  0.00    -0.047 A 
ATOM      3  C   UNL     1      23.777   2.487  31.642  1.00  0.00     0.016 A 
ATOM      4  C   UNL     1      23.889   1.575  32.706  1.00  0.00     0.038 A 
ATOM      5  C   UNL     1      22.726   1.118  33.366  1.00  0.00     0.076 A 
ATOM      6  C   UNL     1      21.464   1.645  32.989  1.00  0.00     0.127 A 
ATOM      7  C   UNL     1      21.376   2.536  31.914  1.00  0.00     0.050 A 
ATOM      8  C   UNL     1      22.873   0.046  34.384  1.00  0.00     0.201 C 
ATOM      9  O   UNL     1      21.933  -0.772  34.573  1.00  0.00    -0.288 OA
ATOM     10  C   UNL     1      24.188  -0.177  35.037  1.00  0.00     0.076 A 
ATOM     11  C   UNL     1      25.349   0.282  34.374  1.00  0.00     0.041 A 
ATOM     12  C   UNL     1      25.222   1.094  33.141  1.00  0.00     0.194 C 
ATOM     13  O   UNL     1      26.251   1.397  32.476  1.00  0.00    -0.289 OA
ATOM     14  C   UNL     1      26.618  -0.029  34.890  1.00  0.00     0.059 A 
ATOM     15  C   UNL     1      26.743  -0.775  36.062  1.00  0.00     0.120 A 
ATOM     16  C   UNL     1      25.600  -1.197  36.743  1.00  0.00     0.093 A 
ATOM     17  C   UNL     1      24.325  -0.883  36.261  1.00  0.00     0.131 A 
ENDROOT
BRANCH   6  18
ATOM     18  O   UNL     1      20.283   1.339  33.669  1.00  0.00    -0.507 OA
ATOM     19  H   UNL     1      20.054   0.412  34.000  1.00  0.00     0.293 HD
ENDBRANCH   6  18
BRANCH  17  20
ATOM     20  O   UNL     1      23.229  -1.258  37.043  1.00  0.00    -0.507 OA
ATOM     21  H   UNL     1      22.344  -1.555  36.657  1.00  0.00     0.293 HD
ENDBRANCH  17  20
BRANCH  15  22
ATOM     22  O   UNL     1      28.013  -1.083  36.548  1.00  0.00    -0.508 OA
ATOM     23  H   UNL     1      28.840  -0.605  36.210  1.00  0.00     0.293 HD
ENDBRANCH  15  22
TORSDOF 3
ENDMDL
MODEL 2
REMARK VINA RESULT:    -5.756      3.291      4.671
REMARK INTER + INTRA:          -6.260
REMARK INTER:                  -6.260
REMARK INTRA:                   0.000
REMARK UNBOUND:                 0.000
REMARK SMILES Cc1cc(O)c2c(c1)C(=O)c1cc(O)cc(O)c1C2=O
REMARK SMILES IDX 1 1 2 2 8 3 7 4 6 5 4 6 3 7 19 8 20 9 18 10 11 11 9 12 10 13
REMARK SMILES IDX 12 14 13 15 15 16 16 17 5 18 17 20 14 22
REMARK H PARENT 5 19 17 21 14 23
REMARK Flexibility Score: inf
ROOT
ATOM      1  C   UNL     1      25.011   4.210  40.003  1.00  0.00     0.044 C 
ATOM      2  C   UNL     1      24.462   3.188  39.051  1.00  0.00    -0.047 A 
ATOM      3  C   UNL     1      25.325   2.464  38.222  1.00  0.00     0.016 A 
ATOM      4  C   UNL     1      24.817   1.535  37.297  1.00  0.00     0.038 A 
ATOM      5  C   UNL     1      23.421   1.349  37.181  1.00  0.00     0.076 A 
ATOM      6  C   UNL     1      22.554   2.053  38.056  1.00  0.00     0.127 A 
ATOM      7  C   UNL     1      23.081   2.986  38.954  1.00  0.00     0.050 A 
ATOM      8  C   UNL     1      22.918   0.471  36.092  1.00  0.00     0.201 C 
ATOM      9  O   UNL     1      21.792   0.695  35.575  1.00  0.00    -0.288 OA
ATOM     10  C   UNL     1      23.819  -0.545  35.489  1.00  0.00     0.076 A 
ATOM     11  C   UNL     1      25.214  -0.355  35.607  1.00  0.00     0.041 A 
ATOM     12  C   UNL     1      25.741   0.749  36.445  1.00  0.00     0.194 C 
ATOM     13  O   UNL     1      26.977   1.002  36.452  1.00  0.00    -0.289 OA
ATOM     14  C   UNL     1      26.097  -1.217  34.935  1.00  0.00     0.059 A 
ATOM     15  C   UNL     1      25.608  -2.269  34.161  1.00  0.00     0.120 A 
ATOM     16  C   UNL     1      24.231  -2.487  34.073  1.00  0.00     0.093 A 
ATOM     17  C   UNL     1      23.333  -1.655  34.750  1.00  0.00     0.131 A 
ENDROOT
BRANCH   6  18
ATOM     18  O   UNL     1      21.174   1.836  38.089  1.00  0.00    -0.507 OA
ATOM     19  H   UNL     1      20.755   0.944  38.314  1.00  0.00     0.293 HD
ENDBRANCH   6  18
BRANCH  17  20
ATOM     20  O   UNL     1      21.977  -1.987  34.690  1.00  0.00    -0.507 OA
ATOM     21  H   UNL     1      21.561  -2.501  33.926  1.00  0.00     0.293 HD
ENDBRANCH  17  20
BRANCH  15  22
ATOM     22  O   UNL     1      26.502  -3.104  33.493  1.00  0.00    -0.508 OA
ATOM     23  H   UNL     1      27.388  -3.372  33.905  1.00  0.00     0.293 HD
ENDBRANCH  15  22
TORSDOF 3
ENDMDL
MODEL 3
REMARK VINA RESULT:    -5.748      3.532      5.874
REMARK INTER + INTRA:          -6.252
REMARK INTER:                  -6.252
REMARK INTRA:                   0.000
REMARK UNBOUND:                 0.000
REMARK SMILES Cc1cc(O)c2c(c1)C(=O)c1cc(O)cc(O)c1C2=O
REMARK SMILES IDX 1 1 2 2 8 3 7 4 6 5 4 6 3 7 19 8 20 9 18 10 11 11 9 12 10 13
REMARK SMILES IDX 12 14 13 15 15 16 16 17 5 18 17 20 14 22
REMARK H PARENT 5 19 17 21 14 23
REMARK Flexibility Score: inf
ROOT
ATOM      1  C   UNL     1      27.294   4.590  38.638  1.00  0.00     0.044 C 
ATOM      2  C   UNL     1      27.156   3.366  37.781  1.00  0.00    -0.047 A 
ATOM      3  C   UNL     1      25.943   2.671  37.737  1.00  0.00     0.016 A 
ATOM      4  C   UNL     1      25.816   1.499  36.971  1.00  0.00     0.038 A 
ATOM      5  C   UNL     1      26.931   0.999  36.260  1.00  0.00     0.076 A 
ATOM      6  C   UNL     1      28.145   1.733  36.273  1.00  0.00     0.127 A 
ATOM      7  C   UNL     1      28.253   2.885  37.057  1.00  0.00     0.050 A 
ATOM      8  C   UNL     1      26.799  -0.318  35.585  1.00  0.00     0.201 C 
ATOM      9  O   UNL     1      27.809  -1.058  35.451  1.00  0.00    -0.288 OA
ATOM     10  C   UNL     1      25.451  -0.840  35.242  1.00  0.00     0.076 A 
ATOM     11  C   UNL     1      24.339  -0.337  35.955  1.00  0.00     0.041 A 
ATOM     12  C   UNL     1      24.518   0.787  36.904  1.00  0.00     0.194 C 
ATOM     13  O   UNL     1      23.558   1.154  37.636  1.00  0.00    -0.289 OA
ATOM     14  C   UNL     1      23.068  -0.902  35.757  1.00  0.00     0.059 A 
ATOM     15  C   UNL     1      22.890  -1.947  34.850  1.00  0.00     0.120 A 
ATOM     16  C   UNL     1      23.978  -2.420  34.113  1.00  0.00     0.093 A 
ATOM     17  C   UNL     1      25.249  -1.861  34.277  1.00  0.00     0.131 A 
ENDROOT
BRANCH   6  18
ATOM     18  O   UNL     1      29.253   1.374  35.502  1.00  0.00    -0.507 OA
ATOM     19  H   UNL     1      30.170   1.198  35.890  1.00  0.00     0.293 HD
ENDBRANCH   6  18
BRANCH  17  20
ATOM     20  O   UNL     1      26.269  -2.323  33.441  1.00  0.00    -0.507 OA
ATOM     21  H   UNL     1      27.016  -1.737  33.095  1.00  0.00     0.293 HD
ENDBRANCH  17  20
BRANCH  15  22
ATOM     22  O   UNL     1      21.623  -2.500  34.679  1.00  0.00    -0.508 OA
ATOM     23  H   UNL     1      20.782  -1.982  34.907  1.00  0.00     0.293 HD
ENDBRANCH  15  22
TORSDOF 3
ENDMDL
MODEL 4
REMARK VINA RESULT:    -5.621      2.964      6.005
REMARK INTER + INTRA:          -6.114
REMARK INTER:                  -6.114
REMARK INTRA:                   0.000
REMARK UNBOUND:                 0.000
REMARK SMILES Cc1cc(O)c2c(c1)C(=O)c1cc(O)cc(O)c1C2=O
REMARK SMILES IDX 1 1 2 2 8 3 7 4 6 5 4 6 3 7 19 8 20 9 18 10 11 11 9 12 10 13
REMARK SMILES IDX 12 14 13 15 15 16 16 17 5 18 17 20 14 22
REMARK H PARENT 5 19 17 21 14 23
REMARK Flexibility Score: inf
ROOT
ATOM      1  C   UNL     1      29.957  -3.667  35.814  1.00  0.00     0.044 C 
ATOM      2  C   UNL     1      28.610  -3.068  35.538  1.00  0.00    -0.047 A 
ATOM      3  C   UNL     1      28.107  -2.057  36.364  1.00  0.00     0.016 A 
ATOM      4  C   UNL     1      26.828  -1.519  36.140  1.00  0.00     0.038 A 
ATOM      5  C   UNL     1      26.028  -2.021  35.089  1.00  0.00     0.076 A 
ATOM      6  C   UNL     1      26.561  -3.014  34.227  1.00  0.00     0.127 A 
ATOM      7  C   UNL     1      27.828  -3.547  34.482  1.00  0.00     0.050 A 
ATOM      8  C   UNL     1      24.629  -1.532  34.977  1.00  0.00     0.201 C 
ATOM      9  O   UNL     1      23.738  -2.284  34.501  1.00  0.00    -0.288 OA
ATOM     10  C   UNL     1      24.248  -0.237  35.599  1.00  0.00     0.076 A 
ATOM     11  C   UNL     1      25.051   0.261  36.650  1.00  0.00     0.041 A 
ATOM     12  C   UNL     1      26.316  -0.426  37.001  1.00  0.00     0.194 C 
ATOM     13  O   UNL     1      26.970  -0.064  38.017  1.00  0.00    -0.289 OA
ATOM     14  C   UNL     1      24.648   1.408  37.353  1.00  0.00     0.059 A 
ATOM     15  C   UNL     1      23.469   2.071  37.014  1.00  0.00     0.120 A 
ATOM     16  C   UNL     1      22.693   1.607  35.950  1.00  0.00     0.093 A 
ATOM     17  C   UNL     1      23.082   0.479  35.221  1.00  0.00     0.131 A 
ENDROOT
BRANCH   6  18
ATOM     18  O   UNL     1      25.884  -3.474  33.095  1.00  0.00    -0.507 OA
ATOM     19  H   UNL     1      25.152  -2.953  32.632  1.00  0.00     0.293 HD
ENDBRANCH   6  18
BRANCH  17  20
ATOM     20  O   UNL     1      22.305   0.127  34.114  1.00  0.00    -0.507 OA
ATOM     21  H   UNL     1      22.177  -0.825  33.802  1.00  0.00     0.293 HD
ENDBRANCH  17  20
BRANCH  15  22
ATOM     22  O   UNL     1      23.083   3.200  37.734  1.00  0.00    -0.508 OA
ATOM     23  H   UNL     1      22.112   3.382  37.955  1.00  0.00     0.293 HD
ENDBRANCH  15  22
TORSDOF 3
ENDMDL
MODEL 5
REMARK VINA RESULT:    -5.602      1.941      2.083
REMARK INTER + INTRA:          -6.093
REMARK INTER:                  -6.093
REMARK INTRA:                   0.000
REMARK UNBOUND:                 0.000
REMARK SMILES Cc1cc(O)c2c(c1)C(=O)c1cc(O)cc(O)c1C2=O
REMARK SMILES IDX 1 1 2 2 8 3 7 4 6 5 4 6 3 7 19 8 20 9 18 10 11 11 9 12 10 13
REMARK SMILES IDX 12 14 13 15 15 16 16 17 5 18 17 20 14 22
REMARK H PARENT 5 19 17 21 14 23
REMARK Flexibility Score: inf
ROOT
ATOM      1  C   UNL     1      23.368   6.172  31.903  1.00  0.00     0.044 C 
ATOM      2  C   UNL     1      23.156   4.818  32.514  1.00  0.00    -0.047 A 
ATOM      3  C   UNL     1      24.024   3.765  32.210  1.00  0.00     0.016 A 
ATOM      4  C   UNL     1      23.808   2.482  32.744  1.00  0.00     0.038 A 
ATOM      5  C   UNL     1      22.689   2.244  33.573  1.00  0.00     0.076 A 
ATOM      6  C   UNL     1      21.838   3.327  33.914  1.00  0.00     0.127 A 
ATOM      7  C   UNL     1      22.061   4.589  33.355  1.00  0.00     0.050 A 
ATOM      8  C   UNL     1      22.413   0.846  33.995  1.00  0.00     0.201 C 
ATOM      9  O   UNL     1      21.228   0.477  34.207  1.00  0.00    -0.288 OA
ATOM     10  C   UNL     1      23.508  -0.159  33.981  1.00  0.00     0.076 A 
ATOM     11  C   UNL     1      24.625   0.084  33.151  1.00  0.00     0.041 A 
ATOM     12  C   UNL     1      24.752   1.379  32.442  1.00  0.00     0.194 C 
ATOM     13  O   UNL     1      25.678   1.552  31.603  1.00  0.00    -0.289 OA
ATOM     14  C   UNL     1      25.614  -0.903  33.004  1.00  0.00     0.059 A 
ATOM     15  C   UNL     1      25.511  -2.117  33.684  1.00  0.00     0.120 A 
ATOM     16  C   UNL     1      24.430  -2.345  34.538  1.00  0.00     0.093 A 
ATOM     17  C   UNL     1      23.442  -1.371  34.716  1.00  0.00     0.131 A 
ENDROOT
BRANCH   6  18
ATOM     18  O   UNL     1      20.784   3.202  34.822  1.00  0.00    -0.507 OA
ATOM     19  H   UNL     1      20.234   2.361  34.927  1.00  0.00     0.293 HD
ENDBRANCH   6  18
BRANCH  17  20
ATOM     20  O   UNL     1      22.440  -1.633  35.653  1.00  0.00    -0.507 OA
ATOM     21  H   UNL     1      22.034  -2.547  35.797  1.00  0.00     0.293 HD
ENDBRANCH  17  20
BRANCH  15  22
ATOM     22  O   UNL     1      26.498  -3.086  33.514  1.00  0.00    -0.508 OA
ATOM     23  H   UNL     1      26.804  -3.376  32.593  1.00  0.00     0.293 HD
ENDBRANCH  15  22
TORSDOF 3
ENDMDL
MODEL 6
REMARK VINA RESULT:    -5.432      2.427      4.875
REMARK INTER + INTRA:          -5.909
REMARK INTER:                  -5.909
REMARK INTRA:                   0.000
REMARK UNBOUND:                 0.000
REMARK SMILES Cc1cc(O)c2c(c1)C(=O)c1cc(O)cc(O)c1C2=O
REMARK SMILES IDX 1 1 2 2 8 3 7 4 6 5 4 6 3 7 19 8 20 9 18 10 11 11 9 12 10 13
REMARK SMILES IDX 12 14 13 15 15 16 16 17 5 18 17 20 14 22
REMARK H PARENT 5 19 17 21 14 23
REMARK Flexibility Score: inf
ROOT
ATOM      1  C   UNL     1      28.693   4.535  31.305  1.00  0.00     0.044 C 
ATOM      2  C   UNL     1      28.295   3.499  32.315  1.00  0.00    -0.047 A 
ATOM      3  C   UNL     1      26.977   3.035  32.365  1.00  0.00     0.016 A 
ATOM      4  C   UNL     1      26.584   2.096  33.335  1.00  0.00     0.038 A 
ATOM      5  C   UNL     1      27.521   1.636  34.288  1.00  0.00     0.076 A 
ATOM      6  C   UNL     1      28.866   2.075  34.204  1.00  0.00     0.127 A 
ATOM      7  C   UNL     1      29.229   3.024  33.242  1.00  0.00     0.050 A 
ATOM      8  C   UNL     1      27.032   0.760  35.385  1.00  0.00     0.201 C 
ATOM      9  O   UNL     1      27.601   0.787  36.509  1.00  0.00    -0.288 OA
ATOM     10  C   UNL     1      25.766   0.002  35.216  1.00  0.00     0.076 A 
ATOM     11  C   UNL     1      24.833   0.466  34.262  1.00  0.00     0.041 A 
ATOM     12  C   UNL     1      25.192   1.586  33.360  1.00  0.00     0.194 C 
ATOM     13  O   UNL     1      24.322   2.087  32.597  1.00  0.00    -0.289 OA
ATOM     14  C   UNL     1      23.568  -0.141  34.168  1.00  0.00     0.059 A 
ATOM     15  C   UNL     1      23.231  -1.208  35.000  1.00  0.00     0.120 A 
ATOM     16  C   UNL     1      24.164  -1.697  35.917  1.00  0.00     0.093 A 
ATOM     17  C   UNL     1      25.436  -1.124  36.015  1.00  0.00     0.131 A 
ENDROOT
BRANCH   6  18
ATOM     18  O   UNL     1      29.878   1.577  35.029  1.00  0.00    -0.507 OA
ATOM     19  H   UNL     1      29.770   1.444  36.025  1.00  0.00     0.293 HD
ENDBRANCH   6  18
BRANCH  17  20
ATOM     20  O   UNL     1      26.347  -1.723  36.889  1.00  0.00    -0.507 OA
ATOM     21  H   UNL     1      26.088  -2.415  37.577  1.00  0.00     0.293 HD
ENDBRANCH  17  20
BRANCH  15  22
ATOM     22  O   UNL     1      21.967  -1.786  34.898  1.00  0.00    -0.508 OA
ATOM     23  H   UNL     1      21.327  -1.805  35.683  1.00  0.00     0.293 HD
ENDBRANCH  15  22
TORSDOF 3
ENDMDL
MODEL 7
REMARK VINA RESULT:    -5.383      2.906      5.836
REMARK INTER + INTRA:          -5.855
REMARK INTER:                  -5.855
REMARK INTRA:                   0.000
REMARK UNBOUND:                 0.000
REMARK SMILES Cc1cc(O)c2c(c1)C(=O)c1cc(O)cc(O)c1C2=O
REMARK SMILES IDX 1 1 2 2 8 3 7 4 6 5 4 6 3 7 19 8 20 9 18 10 11 11 9 12 10 13
REMARK SMILES IDX 12 14 13 15 15 16 16 17 5 18 17 20 14 22
REMARK H PARENT 5 19 17 21 14 23
REMARK Flexibility Score: inf
ROOT
ATOM      1  C   UNL     1      26.121  -3.115  33.508  1.00  0.00     0.044 C 
ATOM      2  C   UNL     1      25.739  -2.081  34.526  1.00  0.00    -0.047 A 
ATOM      3  C   UNL     1      24.594  -1.299  34.340  1.00  0.00     0.016 A 
ATOM      4  C   UNL     1      24.252  -0.299  35.267  1.00  0.00     0.038 A 
ATOM      5  C   UNL     1      25.086  -0.058  36.382  1.00  0.00     0.076 A 
ATOM      6  C   UNL     1      26.220  -0.884  36.589  1.00  0.00     0.127 A 
ATOM      7  C   UNL     1      26.551  -1.860  35.644  1.00  0.00     0.050 A 
ATOM      8  C   UNL     1      24.771   1.103  37.256  1.00  0.00     0.201 C 
ATOM      9  O   UNL     1      25.699   1.704  37.859  1.00  0.00    -0.288 OA
ATOM     10  C   UNL     1      23.397   1.668  37.266  1.00  0.00     0.076 A 
ATOM     11  C   UNL     1      22.567   1.424  36.148  1.00  0.00     0.041 A 
ATOM     12  C   UNL     1      23.019   0.503  35.079  1.00  0.00     0.194 C 
ATOM     13  O   UNL     1      22.342   0.381  34.021  1.00  0.00    -0.289 OA
ATOM     14  C   UNL     1      21.314   2.054  36.057  1.00  0.00     0.059 A 
ATOM     15  C   UNL     1      20.874   2.906  37.070  1.00  0.00     0.120 A 
ATOM     16  C   UNL     1      21.673   3.118  38.196  1.00  0.00     0.093 A 
ATOM     17  C   UNL     1      22.915   2.488  38.319  1.00  0.00     0.131 A 
ENDROOT
BRANCH   6  18
ATOM     18  O   UNL     1      27.024  -0.792  37.728  1.00  0.00    -0.507 OA
ATOM     19  H   UNL     1      27.382   0.082  38.089  1.00  0.00     0.293 HD
ENDBRANCH   6  18
BRANCH  17  20
ATOM     20  O   UNL     1      23.617   2.675  39.512  1.00  0.00    -0.507 OA
ATOM     21  H   UNL     1      24.396   2.098  39.798  1.00  0.00     0.293 HD
ENDBRANCH  17  20
BRANCH  15  22
ATOM     22  O   UNL     1      19.633   3.529  36.952  1.00  0.00    -0.508 OA
ATOM     23  H   UNL     1      18.833   3.048  36.558  1.00  0.00     0.293 HD
ENDBRANCH  15  22
TORSDOF 3
ENDMDL
MODEL 8
REMARK VINA RESULT:    -5.347      1.436      5.512
REMARK INTER + INTRA:          -5.816
REMARK INTER:                  -5.816
REMARK INTRA:                   0.000
REMARK UNBOUND:                 0.000
REMARK SMILES Cc1cc(O)c2c(c1)C(=O)c1cc(O)cc(O)c1C2=O
REMARK SMILES IDX 1 1 2 2 8 3 7 4 6 5 4 6 3 7 19 8 20 9 18 10 11 11 9 12 10 13
REMARK SMILES IDX 12 14 13 15 15 16 16 17 5 18 17 20 14 22
REMARK H PARENT 5 19 17 21 14 23
REMARK Flexibility Score: inf
ROOT
ATOM      1  C   UNL     1      27.410  -1.609  36.402  1.00  0.00     0.044 C 
ATOM      2  C   UNL     1      26.128  -1.030  35.878  1.00  0.00    -0.047 A 
ATOM      3  C   UNL     1      26.124  -0.285  34.695  1.00  0.00     0.016 A 
ATOM      4  C   UNL     1      24.936   0.297  34.219  1.00  0.00     0.038 A 
ATOM      5  C   UNL     1      23.738   0.154  34.955  1.00  0.00     0.076 A 
ATOM      6  C   UNL     1      23.739  -0.640  36.130  1.00  0.00     0.127 A 
ATOM      7  C   UNL     1      24.937  -1.193  36.595  1.00  0.00     0.050 A 
ATOM      8  C   UNL     1      22.540   0.906  34.499  1.00  0.00     0.201 C 
ATOM      9  O   UNL     1      21.682   1.288  35.338  1.00  0.00    -0.288 OA
ATOM     10  C   UNL     1      22.452   1.369  33.090  1.00  0.00     0.076 A 
ATOM     11  C   UNL     1      23.652   1.510  32.357  1.00  0.00     0.041 A 
ATOM     12  C   UNL     1      24.935   1.058  32.946  1.00  0.00     0.194 C 
ATOM     13  O   UNL     1      26.022   1.297  32.353  1.00  0.00    -0.289 OA
ATOM     14  C   UNL     1      23.623   2.075  31.071  1.00  0.00     0.059 A 
ATOM     15  C   UNL     1      22.417   2.483  30.503  1.00  0.00     0.120 A 
ATOM     16  C   UNL     1      21.223   2.309  31.206  1.00  0.00     0.093 A 
ATOM     17  C   UNL     1      21.223   1.731  32.480  1.00  0.00     0.131 A 
ENDROOT
BRANCH   6  18
ATOM     18  O   UNL     1      22.576  -0.931  36.847  1.00  0.00    -0.507 OA
ATOM     19  H   UNL     1      21.960  -1.701  36.623  1.00  0.00     0.293 HD
ENDBRANCH   6  18
BRANCH  17  20
ATOM     20  O   UNL     1      19.983   1.504  33.084  1.00  0.00    -0.507 OA
ATOM     21  H   UNL     1      19.609   0.583  33.263  1.00  0.00     0.293 HD
ENDBRANCH  17  20
BRANCH  15  22
ATOM     22  O   UNL     1      22.414   3.052  29.231  1.00  0.00    -0.508 OA
ATOM     23  H   UNL     1      21.569   3.433  28.822  1.00  0.00     0.293 HD
ENDBRANCH  15  22
TORSDOF 3
ENDMDL
MODEL 9
REMARK VINA RESULT:    -5.318      3.267      4.238
REMARK INTER + INTRA:          -5.784
REMARK INTER:                  -5.784
REMARK INTRA:                   0.000
REMARK UNBOUND:                 0.000
REMARK SMILES Cc1cc(O)c2c(c1)C(=O)c1cc(O)cc(O)c1C2=O
REMARK SMILES IDX 1 1 2 2 8 3 7 4 6 5 4 6 3 7 19 8 20 9 18 10 11 11 9 12 10 13
REMARK SMILES IDX 12 14 13 15 15 16 16 17 5 18 17 20 14 22
REMARK H PARENT 5 19 17 21 14 23
REMARK Flexibility Score: inf
ROOT
ATOM      1  C   UNL     1      20.931   5.975  37.531  1.00  0.00     0.044 C 
ATOM      2  C   UNL     1      21.462   4.577  37.407  1.00  0.00    -0.047 A 
ATOM      3  C   UNL     1      22.024   4.142  36.202  1.00  0.00     0.016 A 
ATOM      4  C   UNL     1      22.485   2.821  36.063  1.00  0.00     0.038 A 
ATOM      5  C   UNL     1      22.354   1.913  37.137  1.00  0.00     0.076 A 
ATOM      6  C   UNL     1      21.825   2.372  38.370  1.00  0.00     0.127 A 
ATOM      7  C   UNL     1      21.356   3.685  38.480  1.00  0.00     0.050 A 
ATOM      8  C   UNL     1      22.716   0.491  36.901  1.00  0.00     0.201 C 
ATOM      9  O   UNL     1      22.125  -0.420  37.540  1.00  0.00    -0.288 OA
ATOM     10  C   UNL     1      23.629   0.137  35.785  1.00  0.00     0.076 A 
ATOM     11  C   UNL     1      23.757   1.048  34.712  1.00  0.00     0.041 A 
ATOM     12  C   UNL     1      23.109   2.379  34.792  1.00  0.00     0.194 C 
ATOM     13  O   UNL     1      23.111   3.144  33.790  1.00  0.00    -0.289 OA
ATOM     14  C   UNL     1      24.502   0.690  33.576  1.00  0.00     0.059 A 
ATOM     15  C   UNL     1      25.130  -0.552  33.502  1.00  0.00     0.120 A 
ATOM     16  C   UNL     1      25.041  -1.441  34.576  1.00  0.00     0.093 A 
ATOM     17  C   UNL     1      24.323  -1.100  35.727  1.00  0.00     0.131 A 
ENDROOT
BRANCH   6  18
ATOM     18  O   UNL     1      21.775   1.574  39.516  1.00  0.00    -0.507 OA
ATOM     19  H   UNL     1      21.204   1.788  40.321  1.00  0.00     0.293 HD
ENDBRANCH   6  18
BRANCH  17  20
ATOM     20  O   UNL     1      24.354  -1.999  36.796  1.00  0.00    -0.507 OA
ATOM     21  H   UNL     1      24.641  -1.746  37.730  1.00  0.00     0.293 HD
ENDBRANCH  17  20
BRANCH  15  22
ATOM     22  O   UNL     1      25.853  -0.891  32.360  1.00  0.00    -0.508 OA
ATOM     23  H   UNL     1      26.428  -0.211  31.876  1.00  0.00     0.293 HD
ENDBRANCH  15  22
TORSDOF 3
ENDMDL
