MODEL 1
REMARK VINA RESULT:    -6.418      0.000      0.000
REMARK INTER + INTRA:         -13.326
REMARK INTER:                 -10.546
REMARK INTRA:                  -2.780
REMARK UNBOUND:                -2.780
REMARK SMILES C[C@H]1O[C@@H](OC[C@H]2O[C@H](Oc3c(-c4ccc(O)c(O)c4)oc4cc(O)cc(O)c4c3=O)[C@@H](O)[C@H](O)[C@H]2O)[C@@H](O)[C@H](O)[C@@H]1O
REMARK SMILES IDX 7 1 36 2 34 3 32 4 9 5 8 6 6 7 5 8 4 9 1 10 2 11 42 12 3 13
REMARK SMILES IDX 40 14 38 15 43 16 41 18 39 20 37 22 35 24 10 26 11 27 12 28
REMARK SMILES IDX 30 29 21 30 29 31 31 32 22 33 27 34 23 35 26 36 24 37 13 38
REMARK SMILES IDX 20 39 14 40 18 41 15 42 16 43 19 44 17 46 28 48 25 50 33 52
REMARK H PARENT 43 17 41 19 39 21 37 23 35 25 19 45 17 47 28 49 25 51 33 53
REMARK Flexibility Score: inf
ROOT
ATOM      1  C   UNL     1      -2.594  37.134  14.129  1.00  0.00     0.180 C 
ATOM      2  C   UNL     1      -2.402  38.187  13.014  1.00  0.00     0.177 C 
ATOM      3  C   UNL     1      -2.609  39.605  13.583  1.00  0.00     0.180 C 
ATOM      4  C   UNL     1      -1.830  39.809  14.899  1.00  0.00     0.214 C 
ATOM      5  C   UNL     1      -1.993  38.604  15.857  1.00  0.00     0.339 C 
ATOM      6  O   UNL     1      -1.711  37.370  15.215  1.00  0.00    -0.332 OA
ENDROOT
BRANCH   1   7
ATOM      7  C   UNL     1      -2.409  35.702  13.611  1.00  0.00     0.198 C 
BRANCH   7   8
ATOM      8  O   UNL     1      -1.326  35.076  14.271  1.00  0.00    -0.347 OA
BRANCH   8   9
ATOM      9  C   UNL     1      -1.718  33.823  14.802  1.00  0.00     0.281 C 
ATOM     10  C   UNL     1      -4.609  31.714  14.029  1.00  0.00     0.041 C 
ATOM     11  C   UNL     1      -3.424  32.236  14.841  1.00  0.00     0.150 C 
ATOM     12  C   UNL     1      -3.801  32.416  16.338  1.00  0.00     0.174 C 
ATOM     13  O   UNL     1      -2.997  33.466  14.286  1.00  0.00    -0.344 OA
ATOM     14  C   UNL     1      -3.156  33.696  16.922  1.00  0.00     0.179 C 
ATOM     15  C   UNL     1      -1.727  33.883  16.364  1.00  0.00     0.202 C 
BRANCH  12  16
ATOM     16  O   UNL     1      -3.377  31.280  17.049  1.00  0.00    -0.388 OA
ATOM     17  H   UNL     1      -3.635  31.415  17.999  1.00  0.00     0.211 HD
ENDBRANCH  12  16
BRANCH  14  18
ATOM     18  O   UNL     1      -3.126  33.626  18.325  1.00  0.00    -0.387 OA
ATOM     19  H   UNL     1      -2.824  32.711  18.564  1.00  0.00     0.211 HD
ENDBRANCH  14  18
BRANCH  15  20
ATOM     20  O   UNL     1      -1.139  35.068  16.849  1.00  0.00    -0.385 OA
ATOM     21  H   UNL     1      -0.158  35.002  16.701  1.00  0.00     0.211 HD
ENDBRANCH  15  20
ENDBRANCH   8   9
ENDBRANCH   7   8
ENDBRANCH   1   7
BRANCH   2  22
ATOM     22  O   UNL     1      -1.152  38.076  12.374  1.00  0.00    -0.387 OA
ATOM     23  H   UNL     1      -0.560  37.515  12.939  1.00  0.00     0.211 HD
ENDBRANCH   2  22
BRANCH   3  24
ATOM     24  O   UNL     1      -3.981  39.811  13.806  1.00  0.00    -0.387 OA
ATOM     25  H   UNL     1      -4.107  39.888  14.789  1.00  0.00     0.211 HD
ENDBRANCH   3  24
BRANCH   5  26
ATOM     26  O   UNL     1      -3.298  38.596  16.450  1.00  0.00    -0.454 OA
BRANCH  26  27
ATOM     27  C   UNL     1      -3.705  39.500  17.448  1.00  0.00     0.214 A 
ATOM     28  C   UNL     1      -3.178  39.396  18.750  1.00  0.00     0.180 A 
ATOM     29  C   UNL     1      -4.637  40.519  17.181  1.00  0.00     0.239 A 
ATOM     30  O   UNL     1      -3.491  40.304  19.670  1.00  0.00    -0.452 OA
ATOM     31  C   UNL     1      -4.950  41.460  18.184  1.00  0.00     0.111 A 
ATOM     32  O   UNL     1      -5.209  40.564  16.058  1.00  0.00    -0.285 OA
ATOM     33  C   UNL     1      -4.326  41.312  19.444  1.00  0.00     0.146 A 
ATOM     34  C   UNL     1      -5.847  42.538  17.982  1.00  0.00     0.134 A 
ATOM     35  C   UNL     1      -4.588  42.223  20.472  1.00  0.00     0.094 A 
ATOM     36  C   UNL     1      -6.102  43.435  19.028  1.00  0.00     0.093 A 
ATOM     37  C   UNL     1      -5.476  43.283  20.267  1.00  0.00     0.123 A 
BRANCH  28  38
ATOM     38  C   UNL     1      -2.252  38.312  19.133  1.00  0.00     0.025 A 
ATOM     39  C   UNL     1      -2.754  37.164  19.766  1.00  0.00     0.062 A 
ATOM     40  C   UNL     1      -0.876  38.403  18.866  1.00  0.00     0.016 A 
ATOM     41  C   UNL     1      -1.892  36.133  20.162  1.00  0.00     0.158 A 
ATOM     42  C   UNL     1      -0.013  37.373  19.254  1.00  0.00     0.051 A 
ATOM     43  C   UNL     1      -0.514  36.240  19.904  1.00  0.00     0.157 A 
BRANCH  41  44
ATOM     44  O   UNL     1      -2.396  35.007  20.810  1.00  0.00    -0.504 OA
ATOM     45  H   UNL     1      -3.352  34.970  21.142  1.00  0.00     0.293 HD
ENDBRANCH  41  44
BRANCH  43  46
ATOM     46  O   UNL     1       0.370  35.228  20.280  1.00  0.00    -0.504 OA
ATOM     47  H   UNL     1       0.345  34.307  19.859  1.00  0.00     0.293 HD
ENDBRANCH  43  46
ENDBRANCH  28  38
BRANCH  34  48
ATOM     48  O   UNL     1      -6.479  42.727  16.751  1.00  0.00    -0.507 OA
ATOM     49  H   UNL     1      -7.156  42.064  16.394  1.00  0.00     0.293 HD
ENDBRANCH  34  48
BRANCH  37  50
ATOM     50  O   UNL     1      -5.742  44.195  21.286  1.00  0.00    -0.508 OA
ATOM     51  H   UNL     1      -5.908  45.178  21.091  1.00  0.00     0.293 HD
ENDBRANCH  37  50
ENDBRANCH  26  27
ENDBRANCH   5  26
BRANCH   4  52
ATOM     52  O   UNL     1      -0.469  40.008  14.610  1.00  0.00    -0.384 OA
ATOM     53  H   UNL     1       0.041  39.334  15.129  1.00  0.00     0.211 HD
ENDBRANCH   4  52
TORSDOF 16
ENDMDL
MODEL 2
REMARK VINA RESULT:    -5.807      2.053      7.990
REMARK INTER + INTRA:         -12.321
REMARK INTER:                 -10.069
REMARK INTRA:                  -2.251
REMARK UNBOUND:                -2.780
REMARK SMILES C[C@H]1O[C@@H](OC[C@H]2O[C@H](Oc3c(-c4ccc(O)c(O)c4)oc4cc(O)cc(O)c4c3=O)[C@@H](O)[C@H](O)[C@H]2O)[C@@H](O)[C@H](O)[C@@H]1O
REMARK SMILES IDX 7 1 36 2 34 3 32 4 9 5 8 6 6 7 5 8 4 9 1 10 2 11 42 12 3 13
REMARK SMILES IDX 40 14 38 15 43 16 41 18 39 20 37 22 35 24 10 26 11 27 12 28
REMARK SMILES IDX 30 29 21 30 29 31 31 32 22 33 27 34 23 35 26 36 24 37 13 38
REMARK SMILES IDX 20 39 14 40 18 41 15 42 16 43 19 44 17 46 28 48 25 50 33 52
REMARK H PARENT 43 17 41 19 39 21 37 23 35 25 19 45 17 47 28 49 25 51 33 53
REMARK Flexibility Score: inf
ROOT
ATOM      1  C   UNL     1      -4.122  39.074  17.855  1.00  0.00     0.180 C 
ATOM      2  C   UNL     1      -4.085  40.490  17.237  1.00  0.00     0.177 C 
ATOM      3  C   UNL     1      -3.885  40.398  15.711  1.00  0.00     0.180 C 
ATOM      4  C   UNL     1      -4.839  39.366  15.074  1.00  0.00     0.214 C 
ATOM      5  C   UNL     1      -4.890  38.051  15.887  1.00  0.00     0.339 C 
ATOM      6  O   UNL     1      -5.143  38.283  17.264  1.00  0.00    -0.332 OA
ENDROOT
BRANCH   1   7
ATOM      7  C   UNL     1      -4.309  39.110  19.377  1.00  0.00     0.198 C 
BRANCH   7   8
ATOM      8  O   UNL     1      -3.425  40.049  19.958  1.00  0.00    -0.347 OA
BRANCH   8   9
ATOM      9  C   UNL     1      -4.005  40.640  21.107  1.00  0.00     0.281 C 
ATOM     10  C   UNL     1      -7.099  39.832  22.890  1.00  0.00     0.041 C 
ATOM     11  C   UNL     1      -5.902  40.680  22.459  1.00  0.00     0.150 C 
ATOM     12  C   UNL     1      -6.336  42.133  22.116  1.00  0.00     0.174 C 
ATOM     13  O   UNL     1      -5.289  40.069  21.340  1.00  0.00    -0.344 OA
ATOM     14  C   UNL     1      -5.563  42.667  20.886  1.00  0.00     0.179 C 
ATOM     15  C   UNL     1      -4.093  42.190  20.923  1.00  0.00     0.202 C 
BRANCH  12  16
ATOM     16  O   UNL     1      -6.103  42.949  23.238  1.00  0.00    -0.388 OA
ATOM     17  H   UNL     1      -5.739  42.365  23.955  1.00  0.00     0.211 HD
ENDBRANCH  12  16
BRANCH  14  18
ATOM     18  O   UNL     1      -5.621  44.070  20.848  1.00  0.00    -0.387 OA
ATOM     19  H   UNL     1      -4.796  44.382  20.393  1.00  0.00     0.211 HD
ENDBRANCH  14  18
BRANCH  15  20
ATOM     20  O   UNL     1      -3.385  42.628  19.788  1.00  0.00    -0.385 OA
ATOM     21  H   UNL     1      -4.041  42.760  19.053  1.00  0.00     0.211 HD
ENDBRANCH  15  20
ENDBRANCH   8   9
ENDBRANCH   7   8
ENDBRANCH   1   7
BRANCH   2  22
ATOM     22  O   UNL     1      -5.230  41.248  17.552  1.00  0.00    -0.387 OA
ATOM     23  H   UNL     1      -5.420  41.858  16.792  1.00  0.00     0.211 HD
ENDBRANCH   2  22
BRANCH   3  24
ATOM     24  O   UNL     1      -2.552  40.039  15.447  1.00  0.00    -0.387 OA
ATOM     25  H   UNL     1      -2.107  40.841  15.065  1.00  0.00     0.211 HD
ENDBRANCH   3  24
BRANCH   5  26
ATOM     26  O   UNL     1      -3.690  37.287  15.699  1.00  0.00    -0.454 OA
BRANCH  26  27
ATOM     27  C   UNL     1      -3.580  35.922  16.015  1.00  0.00     0.214 A 
ATOM     28  C   UNL     1      -2.731  35.506  17.059  1.00  0.00     0.180 A 
ATOM     29  C   UNL     1      -4.301  34.943  15.308  1.00  0.00     0.239 A 
ATOM     30  O   UNL     1      -2.694  34.226  17.419  1.00  0.00    -0.452 OA
ATOM     31  C   UNL     1      -4.232  33.594  15.714  1.00  0.00     0.111 A 
ATOM     32  O   UNL     1      -4.979  35.275  14.298  1.00  0.00    -0.285 OA
ATOM     33  C   UNL     1      -3.399  33.279  16.812  1.00  0.00     0.146 A 
ATOM     34  C   UNL     1      -4.959  32.556  15.081  1.00  0.00     0.134 A 
ATOM     35  C   UNL     1      -3.301  31.960  17.268  1.00  0.00     0.094 A 
ATOM     36  C   UNL     1      -4.840  31.239  15.547  1.00  0.00     0.093 A 
ATOM     37  C   UNL     1      -4.019  30.940  16.636  1.00  0.00     0.123 A 
BRANCH  28  38
ATOM     38  C   UNL     1      -1.883  36.460  17.801  1.00  0.00     0.025 A 
ATOM     39  C   UNL     1      -1.153  37.430  17.098  1.00  0.00     0.062 A 
ATOM     40  C   UNL     1      -1.801  36.421  19.203  1.00  0.00     0.016 A 
ATOM     41  C   UNL     1      -0.321  38.330  17.778  1.00  0.00     0.158 A 
ATOM     42  C   UNL     1      -0.978  37.322  19.886  1.00  0.00     0.051 A 
ATOM     43  C   UNL     1      -0.235  38.274  19.181  1.00  0.00     0.157 A 
BRANCH  41  44
ATOM     44  O   UNL     1       0.418  39.275  17.070  1.00  0.00    -0.504 OA
ATOM     45  H   UNL     1       1.419  39.182  16.946  1.00  0.00     0.293 HD
ENDBRANCH  41  44
BRANCH  43  46
ATOM     46  O   UNL     1       0.579  39.159  19.888  1.00  0.00    -0.504 OA
ATOM     47  H   UNL     1       0.697  40.125  19.605  1.00  0.00     0.293 HD
ENDBRANCH  43  46
ENDBRANCH  28  38
BRANCH  34  48
ATOM     48  O   UNL     1      -5.800  32.823  13.999  1.00  0.00    -0.507 OA
ATOM     49  H   UNL     1      -5.536  33.473  13.268  1.00  0.00     0.293 HD
ENDBRANCH  34  48
BRANCH  37  50
ATOM     50  O   UNL     1      -3.928  29.624  17.084  1.00  0.00    -0.508 OA
ATOM     51  H   UNL     1      -3.103  29.283  17.569  1.00  0.00     0.293 HD
ENDBRANCH  37  50
ENDBRANCH  26  27
ENDBRANCH   5  26
BRANCH   4  52
ATOM     52  O   UNL     1      -6.128  39.919  14.979  1.00  0.00    -0.384 OA
ATOM     53  H   UNL     1      -6.682  39.490  15.682  1.00  0.00     0.211 HD
ENDBRANCH   4  52
TORSDOF 16
ENDMDL
MODEL 3
REMARK VINA RESULT:    -5.700      1.896      5.239
REMARK INTER + INTRA:         -12.146
REMARK INTER:                  -8.979
REMARK INTRA:                  -3.167
REMARK UNBOUND:                -2.780
REMARK SMILES C[C@H]1O[C@@H](OC[C@H]2O[C@H](Oc3c(-c4ccc(O)c(O)c4)oc4cc(O)cc(O)c4c3=O)[C@@H](O)[C@H](O)[C@H]2O)[C@@H](O)[C@H](O)[C@@H]1O
REMARK SMILES IDX 7 1 36 2 34 3 32 4 9 5 8 6 6 7 5 8 4 9 1 10 2 11 42 12 3 13
REMARK SMILES IDX 40 14 38 15 43 16 41 18 39 20 37 22 35 24 10 26 11 27 12 28
REMARK SMILES IDX 30 29 21 30 29 31 31 32 22 33 27 34 23 35 26 36 24 37 13 38
REMARK SMILES IDX 20 39 14 40 18 41 15 42 16 43 19 44 17 46 28 48 25 50 33 52
REMARK H PARENT 43 17 41 19 39 21 37 23 35 25 19 45 17 47 28 49 25 51 33 53
REMARK Flexibility Score: inf
ROOT
ATOM      1  C   UNL     1      -2.084  37.932  13.654  1.00  0.00     0.180 C 
ATOM      2  C   UNL     1      -1.868  36.410  13.817  1.00  0.00     0.177 C 
ATOM      3  C   UNL     1      -2.191  35.981  15.263  1.00  0.00     0.180 C 
ATOM      4  C   UNL     1      -3.536  36.567  15.742  1.00  0.00     0.214 C 
ATOM      5  C   UNL     1      -3.676  38.063  15.374  1.00  0.00     0.339 C 
ATOM      6  O   UNL     1      -3.410  38.302  14.000  1.00  0.00    -0.332 OA
ENDROOT
BRANCH   1   7
ATOM      7  C   UNL     1      -1.764  38.412  12.233  1.00  0.00     0.198 C 
BRANCH   7   8
ATOM      8  O   UNL     1      -2.905  39.010  11.648  1.00  0.00    -0.347 OA
BRANCH   8   9
ATOM      9  C   UNL     1      -2.662  40.374  11.352  1.00  0.00     0.281 C 
ATOM     10  C   UNL     1       0.468  42.271  11.296  1.00  0.00     0.041 C 
ATOM     11  C   UNL     1      -1.043  42.050  11.356  1.00  0.00     0.150 C 
ATOM     12  C   UNL     1      -1.699  42.930  12.455  1.00  0.00     0.174 C 
ATOM     13  O   UNL     1      -1.293  40.679  11.604  1.00  0.00    -0.344 OA
ATOM     14  C   UNL     1      -2.818  42.155  13.192  1.00  0.00     0.179 C 
ATOM     15  C   UNL     1      -3.615  41.281  12.196  1.00  0.00     0.202 C 
BRANCH  12  16
ATOM     16  O   UNL     1      -2.215  44.091  11.854  1.00  0.00    -0.388 OA
ATOM     17  H   UNL     1      -1.904  44.097  10.910  1.00  0.00     0.211 HD
ENDBRANCH  12  16
BRANCH  14  18
ATOM     18  O   UNL     1      -3.677  43.053  13.849  1.00  0.00    -0.387 OA
ATOM     19  H   UNL     1      -3.244  43.946  13.816  1.00  0.00     0.211 HD
ENDBRANCH  14  18
BRANCH  15  20
ATOM     20  O   UNL     1      -4.610  40.533  12.855  1.00  0.00    -0.385 OA
ATOM     21  H   UNL     1      -5.000  39.901  12.195  1.00  0.00     0.211 HD
ENDBRANCH  15  20
ENDBRANCH   8   9
ENDBRANCH   7   8
ENDBRANCH   1   7
BRANCH   2  22
ATOM     22  O   UNL     1      -2.610  35.655  12.888  1.00  0.00    -0.387 OA
ATOM     23  H   UNL     1      -3.171  36.277  12.357  1.00  0.00     0.211 HD
ENDBRANCH   2  22
BRANCH   3  24
ATOM     24  O   UNL     1      -1.156  36.412  16.109  1.00  0.00    -0.387 OA
ATOM     25  H   UNL     1      -0.993  35.683  16.764  1.00  0.00     0.211 HD
ENDBRANCH   3  24
BRANCH   5  26
ATOM     26  O   UNL     1      -2.845  38.876  16.214  1.00  0.00    -0.454 OA
BRANCH  26  27
ATOM     27  C   UNL     1      -3.347  39.739  17.203  1.00  0.00     0.214 A 
ATOM     28  C   UNL     1      -3.036  39.515  18.558  1.00  0.00     0.180 A 
ATOM     29  C   UNL     1      -4.165  40.836  16.875  1.00  0.00     0.239 A 
ATOM     30  O   UNL     1      -3.434  40.381  19.486  1.00  0.00    -0.452 OA
ATOM     31  C   UNL     1      -4.574  41.730  17.887  1.00  0.00     0.111 A 
ATOM     32  O   UNL     1      -4.552  40.993  15.686  1.00  0.00    -0.285 OA
ATOM     33  C   UNL     1      -4.163  41.458  19.212  1.00  0.00     0.146 A 
ATOM     34  C   UNL     1      -5.363  42.879  17.633  1.00  0.00     0.134 A 
ATOM     35  C   UNL     1      -4.527  42.316  20.255  1.00  0.00     0.094 A 
ATOM     36  C   UNL     1      -5.725  43.722  18.693  1.00  0.00     0.093 A 
ATOM     37  C   UNL     1      -5.308  43.447  19.997  1.00  0.00     0.123 A 
BRANCH  28  38
ATOM     38  C   UNL     1      -2.247  38.347  18.994  1.00  0.00     0.025 A 
ATOM     39  C   UNL     1      -2.898  37.133  19.265  1.00  0.00     0.062 A 
ATOM     40  C   UNL     1      -0.851  38.423  19.134  1.00  0.00     0.016 A 
ATOM     41  C   UNL     1      -2.173  36.017  19.706  1.00  0.00     0.158 A 
ATOM     42  C   UNL     1      -0.124  37.310  19.567  1.00  0.00     0.051 A 
ATOM     43  C   UNL     1      -0.778  36.108  19.856  1.00  0.00     0.157 A 
BRANCH  41  44
ATOM     44  O   UNL     1      -2.831  34.823  19.993  1.00  0.00    -0.504 OA
ATOM     45  H   UNL     1      -2.329  34.009  20.329  1.00  0.00     0.293 HD
ENDBRANCH  41  44
BRANCH  43  46
ATOM     46  O   UNL     1      -0.028  35.014  20.287  1.00  0.00    -0.504 OA
ATOM     47  H   UNL     1       0.898  35.118  20.687  1.00  0.00     0.293 HD
ENDBRANCH  43  46
ENDBRANCH  28  38
BRANCH  34  48
ATOM     48  O   UNL     1      -5.784  43.190  16.339  1.00  0.00    -0.507 OA
ATOM     49  H   UNL     1      -6.526  42.674  15.882  1.00  0.00     0.293 HD
ENDBRANCH  34  48
BRANCH  37  50
ATOM     50  O   UNL     1      -5.675  44.307  21.030  1.00  0.00    -0.508 OA
ATOM     51  H   UNL     1      -5.165  45.166  21.213  1.00  0.00     0.293 HD
ENDBRANCH  37  50
ENDBRANCH  26  27
ENDBRANCH   5  26
BRANCH   4  52
ATOM     52  O   UNL     1      -4.593  35.834  15.175  1.00  0.00    -0.384 OA
ATOM     53  H   UNL     1      -5.095  35.419  15.923  1.00  0.00     0.211 HD
ENDBRANCH   4  52
TORSDOF 16
ENDMDL
MODEL 4
REMARK VINA RESULT:    -5.646      1.520      2.158
REMARK INTER + INTRA:         -12.056
REMARK INTER:                  -9.356
REMARK INTRA:                  -2.701
REMARK UNBOUND:                -2.780
REMARK SMILES C[C@H]1O[C@@H](OC[C@H]2O[C@H](Oc3c(-c4ccc(O)c(O)c4)oc4cc(O)cc(O)c4c3=O)[C@@H](O)[C@H](O)[C@H]2O)[C@@H](O)[C@H](O)[C@@H]1O
REMARK SMILES IDX 7 1 36 2 34 3 32 4 9 5 8 6 6 7 5 8 4 9 1 10 2 11 42 12 3 13
REMARK SMILES IDX 40 14 38 15 43 16 41 18 39 20 37 22 35 24 10 26 11 27 12 28
REMARK SMILES IDX 30 29 21 30 29 31 31 32 22 33 27 34 23 35 26 36 24 37 13 38
REMARK SMILES IDX 20 39 14 40 18 41 15 42 16 43 19 44 17 46 28 48 25 50 33 52
REMARK H PARENT 43 17 41 19 39 21 37 23 35 25 19 45 17 47 28 49 25 51 33 53
REMARK Flexibility Score: inf
ROOT
ATOM      1  C   UNL     1      -2.197  37.673  15.816  1.00  0.00     0.180 C 
ATOM      2  C   UNL     1      -2.509  37.983  14.335  1.00  0.00     0.177 C 
ATOM      3  C   UNL     1      -3.557  39.110  14.237  1.00  0.00     0.180 C 
ATOM      4  C   UNL     1      -3.201  40.298  15.155  1.00  0.00     0.214 C 
ATOM      5  C   UNL     1      -2.760  39.827  16.561  1.00  0.00     0.339 C 
ATOM      6  O   UNL     1      -1.747  38.834  16.499  1.00  0.00    -0.332 OA
ENDROOT
BRANCH   1   7
ATOM      7  C   UNL     1      -1.166  36.549  15.968  1.00  0.00     0.198 C 
BRANCH   7   8
ATOM      8  O   UNL     1      -1.772  35.396  16.520  1.00  0.00    -0.347 OA
BRANCH   8   9
ATOM      9  C   UNL     1      -1.542  34.265  15.699  1.00  0.00     0.281 C 
ATOM     10  C   UNL     1      -0.366  34.041  12.239  1.00  0.00     0.041 C 
ATOM     11  C   UNL     1      -1.033  33.574  13.533  1.00  0.00     0.150 C 
ATOM     12  C   UNL     1      -2.390  32.872  13.246  1.00  0.00     0.174 C 
ATOM     13  O   UNL     1      -1.223  34.692  14.378  1.00  0.00    -0.344 OA
ATOM     14  C   UNL     1      -3.447  33.251  14.312  1.00  0.00     0.179 C 
ATOM     15  C   UNL     1      -2.796  33.332  15.712  1.00  0.00     0.202 C 
BRANCH  12  16
ATOM     16  O   UNL     1      -2.184  31.482  13.227  1.00  0.00    -0.388 OA
ATOM     17  H   UNL     1      -2.973  31.073  12.782  1.00  0.00     0.211 HD
ENDBRANCH  12  16
BRANCH  14  18
ATOM     18  O   UNL     1      -4.492  32.312  14.313  1.00  0.00    -0.387 OA
ATOM     19  H   UNL     1      -4.080  31.418  14.180  1.00  0.00     0.211 HD
ENDBRANCH  14  18
BRANCH  15  20
ATOM     20  O   UNL     1      -3.732  33.720  16.689  1.00  0.00    -0.385 OA
ATOM     21  H   UNL     1      -3.239  33.873  17.538  1.00  0.00     0.211 HD
ENDBRANCH  15  20
ENDBRANCH   8   9
ENDBRANCH   7   8
ENDBRANCH   1   7
BRANCH   2  22
ATOM     22  O   UNL     1      -1.355  38.301  13.593  1.00  0.00    -0.387 OA
ATOM     23  H   UNL     1      -0.580  38.318  14.212  1.00  0.00     0.211 HD
ENDBRANCH   2  22
BRANCH   3  24
ATOM     24  O   UNL     1      -4.815  38.595  14.594  1.00  0.00    -0.387 OA
ATOM     25  H   UNL     1      -4.664  37.945  15.330  1.00  0.00     0.211 HD
ENDBRANCH   3  24
BRANCH   5  26
ATOM     26  O   UNL     1      -3.886  39.375  17.325  1.00  0.00    -0.454 OA
BRANCH  26  27
ATOM     27  C   UNL     1      -4.265  39.935  18.558  1.00  0.00     0.214 A 
ATOM     28  C   UNL     1      -3.681  39.471  19.752  1.00  0.00     0.180 A 
ATOM     29  C   UNL     1      -5.227  40.959  18.635  1.00  0.00     0.239 A 
ATOM     30  O   UNL     1      -3.969  40.061  20.909  1.00  0.00    -0.452 OA
ATOM     31  C   UNL     1      -5.512  41.556  19.881  1.00  0.00     0.111 A 
ATOM     32  O   UNL     1      -5.847  41.313  17.597  1.00  0.00    -0.285 OA
ATOM     33  C   UNL     1      -4.832  41.065  21.019  1.00  0.00     0.146 A 
ATOM     34  C   UNL     1      -6.437  42.618  20.037  1.00  0.00     0.134 A 
ATOM     35  C   UNL     1      -5.065  41.627  22.278  1.00  0.00     0.094 A 
ATOM     36  C   UNL     1      -6.663  43.162  21.309  1.00  0.00     0.093 A 
ATOM     37  C   UNL     1      -5.980  42.674  22.425  1.00  0.00     0.123 A 
BRANCH  28  38
ATOM     38  C   UNL     1      -2.719  38.351  19.767  1.00  0.00     0.025 A 
ATOM     39  C   UNL     1      -3.172  37.047  19.514  1.00  0.00     0.062 A 
ATOM     40  C   UNL     1      -1.354  38.567  20.019  1.00  0.00     0.016 A 
ATOM     41  C   UNL     1      -2.284  35.963  19.548  1.00  0.00     0.158 A 
ATOM     42  C   UNL     1      -0.463  37.489  20.047  1.00  0.00     0.051 A 
ATOM     43  C   UNL     1      -0.922  36.188  19.815  1.00  0.00     0.157 A 
BRANCH  41  44
ATOM     44  O   UNL     1      -2.746  34.669  19.317  1.00  0.00    -0.504 OA
ATOM     45  H   UNL     1      -2.173  33.977  18.850  1.00  0.00     0.293 HD
ENDBRANCH  41  44
BRANCH  43  46
ATOM     46  O   UNL     1      -0.011  35.132  19.850  1.00  0.00    -0.504 OA
ATOM     47  H   UNL     1       0.965  35.254  19.608  1.00  0.00     0.293 HD
ENDBRANCH  43  46
ENDBRANCH  28  38
BRANCH  34  48
ATOM     48  O   UNL     1      -7.125  43.139  18.939  1.00  0.00    -0.507 OA
ATOM     49  H   UNL     1      -8.086  43.450  19.013  1.00  0.00     0.293 HD
ENDBRANCH  34  48
BRANCH  37  50
ATOM     50  O   UNL     1      -6.218  43.240  23.675  1.00  0.00    -0.508 OA
ATOM     51  H   UNL     1      -6.518  42.677  24.466  1.00  0.00     0.293 HD
ENDBRANCH  37  50
ENDBRANCH  26  27
ENDBRANCH   5  26
BRANCH   4  52
ATOM     52  O   UNL     1      -2.175  41.054  14.562  1.00  0.00    -0.384 OA
ATOM     53  H   UNL     1      -1.345  40.872  15.073  1.00  0.00     0.211 HD
ENDBRANCH   4  52
TORSDOF 16
ENDMDL
MODEL 5
REMARK VINA RESULT:    -5.626      1.914      2.883
REMARK INTER + INTRA:         -12.024
REMARK INTER:                  -9.483
REMARK INTRA:                  -2.541
REMARK UNBOUND:                -2.780
REMARK SMILES C[C@H]1O[C@@H](OC[C@H]2O[C@H](Oc3c(-c4ccc(O)c(O)c4)oc4cc(O)cc(O)c4c3=O)[C@@H](O)[C@H](O)[C@H]2O)[C@@H](O)[C@H](O)[C@@H]1O
REMARK SMILES IDX 7 1 36 2 34 3 32 4 9 5 8 6 6 7 5 8 4 9 1 10 2 11 42 12 3 13
REMARK SMILES IDX 40 14 38 15 43 16 41 18 39 20 37 22 35 24 10 26 11 27 12 28
REMARK SMILES IDX 30 29 21 30 29 31 31 32 22 33 27 34 23 35 26 36 24 37 13 38
REMARK SMILES IDX 20 39 14 40 18 41 15 42 16 43 19 44 17 46 28 48 25 50 33 52
REMARK H PARENT 43 17 41 19 39 21 37 23 35 25 19 45 17 47 28 49 25 51 33 53
REMARK Flexibility Score: inf
ROOT
ATOM      1  C   UNL     1      -2.611  37.671  13.010  1.00  0.00     0.180 C 
ATOM      2  C   UNL     1      -2.516  38.902  12.081  1.00  0.00     0.177 C 
ATOM      3  C   UNL     1      -2.642  40.199  12.905  1.00  0.00     0.180 C 
ATOM      4  C   UNL     1      -1.731  40.173  14.149  1.00  0.00     0.214 C 
ATOM      5  C   UNL     1      -1.814  38.820  14.895  1.00  0.00     0.339 C 
ATOM      6  O   UNL     1      -1.618  37.716  14.024  1.00  0.00    -0.332 OA
ENDROOT
BRANCH   1   7
ATOM      7  C   UNL     1      -2.502  36.351  12.235  1.00  0.00     0.198 C 
BRANCH   7   8
ATOM      8  O   UNL     1      -2.792  35.258  13.084  1.00  0.00    -0.347 OA
BRANCH   8   9
ATOM      9  C   UNL     1      -1.632  34.477  13.312  1.00  0.00     0.281 C 
ATOM     10  C   UNL     1       1.326  33.952  11.219  1.00  0.00     0.041 C 
ATOM     11  C   UNL     1       0.322  33.664  12.334  1.00  0.00     0.150 C 
ATOM     12  C   UNL     1      -0.077  32.162  12.361  1.00  0.00     0.174 C 
ATOM     13  O   UNL     1      -0.821  34.476  12.140  1.00  0.00    -0.344 OA
ATOM     14  C   UNL     1      -1.584  31.993  12.670  1.00  0.00     0.179 C 
ATOM     15  C   UNL     1      -2.038  33.026  13.727  1.00  0.00     0.202 C 
BRANCH  12  16
ATOM     16  O   UNL     1       0.703  31.507  13.330  1.00  0.00    -0.388 OA
ATOM     17  H   UNL     1       0.309  31.720  14.218  1.00  0.00     0.211 HD
ENDBRANCH  12  16
BRANCH  14  18
ATOM     18  O   UNL     1      -1.844  30.688  13.119  1.00  0.00    -0.387 OA
ATOM     19  H   UNL     1      -1.694  30.081  12.347  1.00  0.00     0.211 HD
ENDBRANCH  14  18
BRANCH  15  20
ATOM     20  O   UNL     1      -3.417  32.918  13.988  1.00  0.00    -0.385 OA
ATOM     21  H   UNL     1      -3.878  33.643  13.487  1.00  0.00     0.211 HD
ENDBRANCH  15  20
ENDBRANCH   8   9
ENDBRANCH   7   8
ENDBRANCH   1   7
BRANCH   2  22
ATOM     22  O   UNL     1      -1.340  38.908  11.306  1.00  0.00    -0.387 OA
ATOM     23  H   UNL     1      -1.099  39.850  11.109  1.00  0.00     0.211 HD
ENDBRANCH   2  22
BRANCH   3  24
ATOM     24  O   UNL     1      -3.981  40.360  13.300  1.00  0.00    -0.387 OA
ATOM     25  H   UNL     1      -4.156  39.690  14.013  1.00  0.00     0.211 HD
ENDBRANCH   3  24
BRANCH   5  26
ATOM     26  O   UNL     1      -3.053  38.706  15.610  1.00  0.00    -0.454 OA
BRANCH  26  27
ATOM     27  C   UNL     1      -3.236  39.163  16.926  1.00  0.00     0.214 A 
ATOM     28  C   UNL     1      -2.779  38.391  18.011  1.00  0.00     0.180 A 
ATOM     29  C   UNL     1      -3.875  40.387  17.196  1.00  0.00     0.239 A 
ATOM     30  O   UNL     1      -2.869  38.864  19.251  1.00  0.00    -0.452 OA
ATOM     31  C   UNL     1      -3.959  40.853  18.525  1.00  0.00     0.111 A 
ATOM     32  O   UNL     1      -4.394  41.042  16.252  1.00  0.00    -0.285 OA
ATOM     33  C   UNL     1      -3.417  40.037  19.545  1.00  0.00     0.146 A 
ATOM     34  C   UNL     1      -4.549  42.093  18.875  1.00  0.00     0.134 A 
ATOM     35  C   UNL     1      -3.460  40.453  20.879  1.00  0.00     0.094 A 
ATOM     36  C   UNL     1      -4.590  42.488  20.220  1.00  0.00     0.093 A 
ATOM     37  C   UNL     1      -4.046  41.677  21.218  1.00  0.00     0.123 A 
BRANCH  28  38
ATOM     38  C   UNL     1      -2.165  37.063  17.819  1.00  0.00     0.025 A 
ATOM     39  C   UNL     1      -2.964  35.984  17.409  1.00  0.00     0.062 A 
ATOM     40  C   UNL     1      -0.791  36.858  18.030  1.00  0.00     0.016 A 
ATOM     41  C   UNL     1      -2.410  34.707  17.244  1.00  0.00     0.158 A 
ATOM     42  C   UNL     1      -0.233  35.587  17.860  1.00  0.00     0.051 A 
ATOM     43  C   UNL     1      -1.036  34.510  17.472  1.00  0.00     0.157 A 
BRANCH  41  44
ATOM     44  O   UNL     1      -3.214  33.637  16.858  1.00  0.00    -0.504 OA
ATOM     45  H   UNL     1      -3.567  33.554  15.912  1.00  0.00     0.293 HD
ENDBRANCH  41  44
BRANCH  43  46
ATOM     46  O   UNL     1      -0.453  33.253  17.311  1.00  0.00    -0.504 OA
ATOM     47  H   UNL     1       0.541  33.100  17.437  1.00  0.00     0.293 HD
ENDBRANCH  43  46
ENDBRANCH  28  38
BRANCH  34  48
ATOM     48  O   UNL     1      -5.089  42.933  17.900  1.00  0.00    -0.507 OA
ATOM     49  H   UNL     1      -5.782  43.635  18.127  1.00  0.00     0.293 HD
ENDBRANCH  34  48
BRANCH  37  50
ATOM     50  O   UNL     1      -4.092  42.099  22.545  1.00  0.00    -0.508 OA
ATOM     51  H   UNL     1      -4.440  43.019  22.799  1.00  0.00     0.293 HD
ENDBRANCH  37  50
ENDBRANCH  26  27
ENDBRANCH   5  26
BRANCH   4  52
ATOM     52  O   UNL     1      -0.403  40.422  13.760  1.00  0.00    -0.384 OA
ATOM     53  H   UNL     1      -0.257  39.950  12.900  1.00  0.00     0.211 HD
ENDBRANCH   4  52
TORSDOF 16
ENDMDL
MODEL 6
REMARK VINA RESULT:    -5.601      1.950      9.136
REMARK INTER + INTRA:         -11.984
REMARK INTER:                  -9.742
REMARK INTRA:                  -2.241
REMARK UNBOUND:                -2.780
REMARK SMILES C[C@H]1O[C@@H](OC[C@H]2O[C@H](Oc3c(-c4ccc(O)c(O)c4)oc4cc(O)cc(O)c4c3=O)[C@@H](O)[C@H](O)[C@H]2O)[C@@H](O)[C@H](O)[C@@H]1O
REMARK SMILES IDX 7 1 36 2 34 3 32 4 9 5 8 6 6 7 5 8 4 9 1 10 2 11 42 12 3 13
REMARK SMILES IDX 40 14 38 15 43 16 41 18 39 20 37 22 35 24 10 26 11 27 12 28
REMARK SMILES IDX 30 29 21 30 29 31 31 32 22 33 27 34 23 35 26 36 24 37 13 38
REMARK SMILES IDX 20 39 14 40 18 41 15 42 16 43 19 44 17 46 28 48 25 50 33 52
REMARK H PARENT 43 17 41 19 39 21 37 23 35 25 19 45 17 47 28 49 25 51 33 53
REMARK Flexibility Score: inf
ROOT
ATOM      1  C   UNL     1      -3.163  38.933  18.959  1.00  0.00     0.180 C 
ATOM      2  C   UNL     1      -2.041  38.400  19.878  1.00  0.00     0.177 C 
ATOM      3  C   UNL     1      -1.050  37.543  19.065  1.00  0.00     0.180 C 
ATOM      4  C   UNL     1      -0.628  38.249  17.759  1.00  0.00     0.214 C 
ATOM      5  C   UNL     1      -1.839  38.868  17.021  1.00  0.00     0.339 C 
ATOM      6  O   UNL     1      -2.627  39.681  17.877  1.00  0.00    -0.332 OA
ENDROOT
BRANCH   1   7
ATOM      7  C   UNL     1      -4.183  39.784  19.724  1.00  0.00     0.198 C 
BRANCH   7   8
ATOM      8  O   UNL     1      -3.833  41.153  19.654  1.00  0.00    -0.347 OA
BRANCH   8   9
ATOM      9  C   UNL     1      -4.912  41.923  19.154  1.00  0.00     0.281 C 
ATOM     10  C   UNL     1      -5.282  43.719  15.985  1.00  0.00     0.041 C 
ATOM     11  C   UNL     1      -5.580  43.352  17.439  1.00  0.00     0.150 C 
ATOM     12  C   UNL     1      -5.745  44.622  18.319  1.00  0.00     0.174 C 
ATOM     13  O   UNL     1      -4.528  42.543  17.930  1.00  0.00    -0.344 OA
ATOM     14  C   UNL     1      -5.101  44.420  19.711  1.00  0.00     0.179 C 
ATOM     15  C   UNL     1      -5.351  42.981  20.218  1.00  0.00     0.202 C 
BRANCH  12  16
ATOM     16  O   UNL     1      -7.116  44.908  18.445  1.00  0.00    -0.388 OA
ATOM     17  H   UNL     1      -7.613  44.098  18.152  1.00  0.00     0.211 HD
ENDBRANCH  12  16
BRANCH  14  18
ATOM     18  O   UNL     1      -5.617  45.355  20.624  1.00  0.00    -0.387 OA
ATOM     19  H   UNL     1      -6.267  44.872  21.199  1.00  0.00     0.211 HD
ENDBRANCH  14  18
BRANCH  15  20
ATOM     20  O   UNL     1      -4.733  42.763  21.464  1.00  0.00    -0.385 OA
ATOM     21  H   UNL     1      -4.829  41.799  21.686  1.00  0.00     0.211 HD
ENDBRANCH  15  20
ENDBRANCH   8   9
ENDBRANCH   7   8
ENDBRANCH   1   7
BRANCH   2  22
ATOM     22  O   UNL     1      -1.371  39.429  20.568  1.00  0.00    -0.387 OA
ATOM     23  H   UNL     1      -0.784  39.016  21.253  1.00  0.00     0.211 HD
ENDBRANCH   2  22
BRANCH   3  24
ATOM     24  O   UNL     1      -1.653  36.310  18.764  1.00  0.00    -0.387 OA
ATOM     25  H   UNL     1      -1.591  36.189  17.780  1.00  0.00     0.211 HD
ENDBRANCH   3  24
BRANCH   5  26
ATOM     26  O   UNL     1      -2.631  37.849  16.396  1.00  0.00    -0.454 OA
BRANCH  26  27
ATOM     27  C   UNL     1      -2.199  37.098  15.289  1.00  0.00     0.214 A 
ATOM     28  C   UNL     1      -1.988  37.730  14.048  1.00  0.00     0.180 A 
ATOM     29  C   UNL     1      -1.971  35.713  15.384  1.00  0.00     0.239 A 
ATOM     30  O   UNL     1      -1.492  37.040  13.024  1.00  0.00    -0.452 OA
ATOM     31  C   UNL     1      -1.452  35.013  14.275  1.00  0.00     0.111 A 
ATOM     32  O   UNL     1      -2.261  35.104  16.449  1.00  0.00    -0.285 OA
ATOM     33  C   UNL     1      -1.213  35.743  13.087  1.00  0.00     0.146 A 
ATOM     34  C   UNL     1      -1.156  33.627  14.303  1.00  0.00     0.134 A 
ATOM     35  C   UNL     1      -0.687  35.104  11.960  1.00  0.00     0.094 A 
ATOM     36  C   UNL     1      -0.638  33.004  13.159  1.00  0.00     0.093 A 
ATOM     37  C   UNL     1      -0.400  33.736  11.994  1.00  0.00     0.123 A 
BRANCH  28  38
ATOM     38  C   UNL     1      -2.274  39.163  13.844  1.00  0.00     0.025 A 
ATOM     39  C   UNL     1      -1.212  40.064  13.676  1.00  0.00     0.062 A 
ATOM     40  C   UNL     1      -3.594  39.643  13.804  1.00  0.00     0.016 A 
ATOM     41  C   UNL     1      -1.457  41.434  13.506  1.00  0.00     0.158 A 
ATOM     42  C   UNL     1      -3.844  41.007  13.628  1.00  0.00     0.051 A 
ATOM     43  C   UNL     1      -2.782  41.906  13.482  1.00  0.00     0.157 A 
BRANCH  41  44
ATOM     44  O   UNL     1      -0.395  42.324  13.362  1.00  0.00    -0.504 OA
ATOM     45  H   UNL     1      -0.003  42.538  12.453  1.00  0.00     0.293 HD
ENDBRANCH  41  44
BRANCH  43  46
ATOM     46  O   UNL     1      -3.060  43.262  13.309  1.00  0.00    -0.504 OA
ATOM     47  H   UNL     1      -3.527  43.811  14.021  1.00  0.00     0.293 HD
ENDBRANCH  43  46
ENDBRANCH  28  38
BRANCH  34  48
ATOM     48  O   UNL     1      -1.368  32.870  15.456  1.00  0.00    -0.507 OA
ATOM     49  H   UNL     1      -0.777  32.967  16.272  1.00  0.00     0.293 HD
ENDBRANCH  34  48
BRANCH  37  50
ATOM     50  O   UNL     1       0.124  33.092  10.875  1.00  0.00    -0.508 OA
ATOM     51  H   UNL     1       0.010  32.093  10.734  1.00  0.00     0.293 HD
ENDBRANCH  37  50
ENDBRANCH  26  27
ENDBRANCH   5  26
BRANCH   4  52
ATOM     52  O   UNL     1       0.314  39.250  18.054  1.00  0.00    -0.384 OA
ATOM     53  H   UNL     1       1.149  38.792  18.334  1.00  0.00     0.211 HD
ENDBRANCH   4  52
TORSDOF 16
ENDMDL
MODEL 7
REMARK VINA RESULT:    -5.487      1.622      7.741
REMARK INTER + INTRA:         -11.796
REMARK INTER:                  -9.239
REMARK INTRA:                  -2.557
REMARK UNBOUND:                -2.780
REMARK SMILES C[C@H]1O[C@@H](OC[C@H]2O[C@H](Oc3c(-c4ccc(O)c(O)c4)oc4cc(O)cc(O)c4c3=O)[C@@H](O)[C@H](O)[C@H]2O)[C@@H](O)[C@H](O)[C@@H]1O
REMARK SMILES IDX 7 1 36 2 34 3 32 4 9 5 8 6 6 7 5 8 4 9 1 10 2 11 42 12 3 13
REMARK SMILES IDX 40 14 38 15 43 16 41 18 39 20 37 22 35 24 10 26 11 27 12 28
REMARK SMILES IDX 30 29 21 30 29 31 31 32 22 33 27 34 23 35 26 36 24 37 13 38
REMARK SMILES IDX 20 39 14 40 18 41 15 42 16 43 19 44 17 46 28 48 25 50 33 52
REMARK H PARENT 43 17 41 19 39 21 37 23 35 25 19 45 17 47 28 49 25 51 33 53
REMARK Flexibility Score: inf
ROOT
ATOM      1  C   UNL     1      -2.836  38.870  16.176  1.00  0.00     0.180 C 
ATOM      2  C   UNL     1      -2.686  39.854  14.993  1.00  0.00     0.177 C 
ATOM      3  C   UNL     1      -2.701  39.085  13.657  1.00  0.00     0.180 C 
ATOM      4  C   UNL     1      -3.863  38.071  13.599  1.00  0.00     0.214 C 
ATOM      5  C   UNL     1      -3.988  37.262  14.912  1.00  0.00     0.339 C 
ATOM      6  O   UNL     1      -4.024  38.102  16.056  1.00  0.00    -0.332 OA
ENDROOT
BRANCH   1   7
ATOM      7  C   UNL     1      -2.816  39.587  17.531  1.00  0.00     0.198 C 
BRANCH   7   8
ATOM      8  O   UNL     1      -3.909  39.168  18.325  1.00  0.00    -0.347 OA
BRANCH   8   9
ATOM      9  C   UNL     1      -4.598  40.285  18.859  1.00  0.00     0.281 C 
ATOM     10  C   UNL     1      -5.107  43.641  17.488  1.00  0.00     0.041 C 
ATOM     11  C   UNL     1      -5.043  42.552  18.559  1.00  0.00     0.150 C 
ATOM     12  C   UNL     1      -4.293  43.051  19.826  1.00  0.00     0.174 C 
ATOM     13  O   UNL     1      -4.398  41.416  18.017  1.00  0.00    -0.344 OA
ATOM     14  C   UNL     1      -3.400  41.934  20.417  1.00  0.00     0.179 C 
ATOM     15  C   UNL     1      -4.111  40.565  20.318  1.00  0.00     0.202 C 
BRANCH  12  16
ATOM     16  O   UNL     1      -5.241  43.479  20.772  1.00  0.00    -0.388 OA
ATOM     17  H   UNL     1      -5.155  44.466  20.849  1.00  0.00     0.211 HD
ENDBRANCH  12  16
BRANCH  14  18
ATOM     18  O   UNL     1      -3.083  42.224  21.755  1.00  0.00    -0.387 OA
ATOM     19  H   UNL     1      -2.097  42.148  21.842  1.00  0.00     0.211 HD
ENDBRANCH  14  18
BRANCH  15  20
ATOM     20  O   UNL     1      -3.295  39.528  20.810  1.00  0.00    -0.385 OA
ATOM     21  H   UNL     1      -3.866  38.929  21.362  1.00  0.00     0.211 HD
ENDBRANCH  15  20
ENDBRANCH   8   9
ENDBRANCH   7   8
ENDBRANCH   1   7
BRANCH   2  22
ATOM     22  O   UNL     1      -3.664  40.868  15.004  1.00  0.00    -0.387 OA
ATOM     23  H   UNL     1      -4.337  40.661  14.305  1.00  0.00     0.211 HD
ENDBRANCH   2  22
BRANCH   3  24
ATOM     24  O   UNL     1      -1.477  38.413  13.503  1.00  0.00    -0.387 OA
ATOM     25  H   UNL     1      -1.571  37.531  13.951  1.00  0.00     0.211 HD
ENDBRANCH   3  24
BRANCH   5  26
ATOM     26  O   UNL     1      -2.939  36.288  15.014  1.00  0.00    -0.454 OA
BRANCH  26  27
ATOM     27  C   UNL     1      -3.134  34.983  15.497  1.00  0.00     0.214 A 
ATOM     28  C   UNL     1      -2.671  34.630  16.779  1.00  0.00     0.180 A 
ATOM     29  C   UNL     1      -3.785  34.003  14.726  1.00  0.00     0.239 A 
ATOM     30  O   UNL     1      -2.934  33.424  17.275  1.00  0.00    -0.452 OA
ATOM     31  C   UNL     1      -4.041  32.732  15.282  1.00  0.00     0.111 A 
ATOM     32  O   UNL     1      -4.107  34.259  13.534  1.00  0.00    -0.285 OA
ATOM     33  C   UNL     1      -3.592  32.487  16.600  1.00  0.00     0.146 A 
ATOM     34  C   UNL     1      -4.726  31.706  14.586  1.00  0.00     0.134 A 
ATOM     35  C   UNL     1      -3.828  31.250  17.208  1.00  0.00     0.094 A 
ATOM     36  C   UNL     1      -4.946  30.470  15.210  1.00  0.00     0.093 A 
ATOM     37  C   UNL     1      -4.504  30.241  16.515  1.00  0.00     0.123 A 
BRANCH  28  38
ATOM     38  C   UNL     1      -1.913  35.575  17.623  1.00  0.00     0.025 A 
ATOM     39  C   UNL     1      -2.312  35.790  18.951  1.00  0.00     0.062 A 
ATOM     40  C   UNL     1      -0.792  36.258  17.124  1.00  0.00     0.016 A 
ATOM     41  C   UNL     1      -1.625  36.702  19.764  1.00  0.00     0.158 A 
ATOM     42  C   UNL     1      -0.099  37.163  17.933  1.00  0.00     0.051 A 
ATOM     43  C   UNL     1      -0.512  37.391  19.250  1.00  0.00     0.157 A 
BRANCH  41  44
ATOM     44  O   UNL     1      -2.041  36.925  21.075  1.00  0.00    -0.504 OA
ATOM     45  H   UNL     1      -1.398  37.251  21.787  1.00  0.00     0.293 HD
ENDBRANCH  41  44
BRANCH  43  46
ATOM     46  O   UNL     1       0.197  38.301  20.036  1.00  0.00    -0.504 OA
ATOM     47  H   UNL     1       0.073  39.302  19.944  1.00  0.00     0.293 HD
ENDBRANCH  43  46
ENDBRANCH  28  38
BRANCH  34  48
ATOM     48  O   UNL     1      -5.194  31.907  13.286  1.00  0.00    -0.507 OA
ATOM     49  H   UNL     1      -5.150  32.815  12.840  1.00  0.00     0.293 HD
ENDBRANCH  34  48
BRANCH  37  50
ATOM     50  O   UNL     1      -4.744  29.006  17.113  1.00  0.00    -0.508 OA
ATOM     51  H   UNL     1      -5.381  28.330  16.702  1.00  0.00     0.293 HD
ENDBRANCH  37  50
ENDBRANCH  26  27
ENDBRANCH   5  26
BRANCH   4  52
ATOM     52  O   UNL     1      -5.065  38.753  13.343  1.00  0.00    -0.384 OA
ATOM     53  H   UNL     1      -5.786  38.259  13.814  1.00  0.00     0.211 HD
ENDBRANCH   4  52
TORSDOF 16
ENDMDL
MODEL 8
REMARK VINA RESULT:    -5.473      2.059      5.036
REMARK INTER + INTRA:         -11.773
REMARK INTER:                  -9.203
REMARK INTRA:                  -2.571
REMARK UNBOUND:                -2.780
REMARK SMILES C[C@H]1O[C@@H](OC[C@H]2O[C@H](Oc3c(-c4ccc(O)c(O)c4)oc4cc(O)cc(O)c4c3=O)[C@@H](O)[C@H](O)[C@H]2O)[C@@H](O)[C@H](O)[C@@H]1O
REMARK SMILES IDX 7 1 36 2 34 3 32 4 9 5 8 6 6 7 5 8 4 9 1 10 2 11 42 12 3 13
REMARK SMILES IDX 40 14 38 15 43 16 41 18 39 20 37 22 35 24 10 26 11 27 12 28
REMARK SMILES IDX 30 29 21 30 29 31 31 32 22 33 27 34 23 35 26 36 24 37 13 38
REMARK SMILES IDX 20 39 14 40 18 41 15 42 16 43 19 44 17 46 28 48 25 50 33 52
REMARK H PARENT 43 17 41 19 39 21 37 23 35 25 19 45 17 47 28 49 25 51 33 53
REMARK Flexibility Score: inf
ROOT
ATOM      1  C   UNL     1      -1.169  36.696  17.633  1.00  0.00     0.180 C 
ATOM      2  C   UNL     1      -0.210  36.564  18.837  1.00  0.00     0.177 C 
ATOM      3  C   UNL     1      -0.297  37.820  19.726  1.00  0.00     0.180 C 
ATOM      4  C   UNL     1      -1.761  38.208  20.020  1.00  0.00     0.214 C 
ATOM      5  C   UNL     1      -2.639  38.149  18.747  1.00  0.00     0.339 C 
ATOM      6  O   UNL     1      -2.505  36.912  18.063  1.00  0.00    -0.332 OA
ENDROOT
BRANCH   1   7
ATOM      7  C   UNL     1      -1.112  35.473  16.709  1.00  0.00     0.198 C 
BRANCH   7   8
ATOM      8  O   UNL     1      -1.373  34.291  17.442  1.00  0.00    -0.347 OA
BRANCH   8   9
ATOM      9  C   UNL     1      -2.510  33.622  16.926  1.00  0.00     0.281 C 
ATOM     10  C   UNL     1      -4.116  33.849  13.643  1.00  0.00     0.041 C 
ATOM     11  C   UNL     1      -3.994  33.523  15.132  1.00  0.00     0.150 C 
ATOM     12  C   UNL     1      -5.253  33.987  15.916  1.00  0.00     0.174 C 
ATOM     13  O   UNL     1      -2.833  34.151  15.643  1.00  0.00    -0.344 OA
ATOM     14  C   UNL     1      -4.864  34.574  17.294  1.00  0.00     0.179 C 
ATOM     15  C   UNL     1      -3.708  33.761  17.920  1.00  0.00     0.202 C 
BRANCH  12  16
ATOM     16  O   UNL     1      -6.116  32.889  16.072  1.00  0.00    -0.388 OA
ATOM     17  H   UNL     1      -6.867  33.011  15.432  1.00  0.00     0.211 HD
ENDBRANCH  12  16
BRANCH  14  18
ATOM     18  O   UNL     1      -5.978  34.580  18.150  1.00  0.00    -0.387 OA
ATOM     19  H   UNL     1      -5.800  35.260  18.852  1.00  0.00     0.211 HD
ENDBRANCH  14  18
BRANCH  15  20
ATOM     20  O   UNL     1      -3.308  34.307  19.155  1.00  0.00    -0.385 OA
ATOM     21  H   UNL     1      -3.545  35.273  19.150  1.00  0.00     0.211 HD
ENDBRANCH  15  20
ENDBRANCH   8   9
ENDBRANCH   7   8
ENDBRANCH   1   7
BRANCH   2  22
ATOM     22  O   UNL     1      -0.443  35.395  19.589  1.00  0.00    -0.387 OA
ATOM     23  H   UNL     1      -0.011  35.503  20.476  1.00  0.00     0.211 HD
ENDBRANCH   2  22
BRANCH   3  24
ATOM     24  O   UNL     1       0.355  38.883  19.078  1.00  0.00    -0.387 OA
ATOM     25  H   UNL     1       0.226  38.751  18.102  1.00  0.00     0.211 HD
ENDBRANCH   3  24
BRANCH   5  26
ATOM     26  O   UNL     1      -2.358  39.256  17.880  1.00  0.00    -0.454 OA
BRANCH  26  27
ATOM     27  C   UNL     1      -3.286  39.785  16.966  1.00  0.00     0.214 A 
ATOM     28  C   UNL     1      -4.360  40.571  17.428  1.00  0.00     0.180 A 
ATOM     29  C   UNL     1      -3.175  39.548  15.584  1.00  0.00     0.239 A 
ATOM     30  O   UNL     1      -5.186  41.147  16.560  1.00  0.00    -0.452 OA
ATOM     31  C   UNL     1      -4.074  40.171  14.694  1.00  0.00     0.111 A 
ATOM     32  O   UNL     1      -2.292  38.756  15.156  1.00  0.00    -0.285 OA
ATOM     33  C   UNL     1      -5.084  40.992  15.245  1.00  0.00     0.146 A 
ATOM     34  C   UNL     1      -4.004  40.015  13.287  1.00  0.00     0.134 A 
ATOM     35  C   UNL     1      -5.996  41.645  14.410  1.00  0.00     0.094 A 
ATOM     36  C   UNL     1      -4.932  40.671  12.468  1.00  0.00     0.093 A 
ATOM     37  C   UNL     1      -5.923  41.485  13.023  1.00  0.00     0.123 A 
BRANCH  28  38
ATOM     38  C   UNL     1      -4.592  40.806  18.867  1.00  0.00     0.025 A 
ATOM     39  C   UNL     1      -3.588  41.410  19.640  1.00  0.00     0.062 A 
ATOM     40  C   UNL     1      -5.805  40.447  19.477  1.00  0.00     0.016 A 
ATOM     41  C   UNL     1      -3.774  41.620  21.013  1.00  0.00     0.158 A 
ATOM     42  C   UNL     1      -5.997  40.661  20.845  1.00  0.00     0.051 A 
ATOM     43  C   UNL     1      -4.987  41.244  21.617  1.00  0.00     0.157 A 
BRANCH  41  44
ATOM     44  O   UNL     1      -2.763  42.200  21.777  1.00  0.00    -0.504 OA
ATOM     45  H   UNL     1      -2.017  41.645  22.177  1.00  0.00     0.293 HD
ENDBRANCH  41  44
BRANCH  43  46
ATOM     46  O   UNL     1      -5.205  41.445  22.980  1.00  0.00    -0.504 OA
ATOM     47  H   UNL     1      -5.707  42.252  23.332  1.00  0.00     0.293 HD
ENDBRANCH  43  46
ENDBRANCH  28  38
BRANCH  34  48
ATOM     48  O   UNL     1      -3.017  39.220  12.700  1.00  0.00    -0.507 OA
ATOM     49  H   UNL     1      -3.005  38.215  12.818  1.00  0.00     0.293 HD
ENDBRANCH  34  48
BRANCH  37  50
ATOM     50  O   UNL     1      -6.827  42.133  12.183  1.00  0.00    -0.508 OA
ATOM     51  H   UNL     1      -6.865  41.935  11.188  1.00  0.00     0.293 HD
ENDBRANCH  37  50
ENDBRANCH  26  27
ENDBRANCH   5  26
BRANCH   4  52
ATOM     52  O   UNL     1      -2.285  37.348  21.000  1.00  0.00    -0.384 OA
ATOM     53  H   UNL     1      -2.859  37.897  21.594  1.00  0.00     0.211 HD
ENDBRANCH   4  52
TORSDOF 16
ENDMDL
MODEL 9
REMARK VINA RESULT:    -5.471      2.033      5.337
REMARK INTER + INTRA:         -11.770
REMARK INTER:                  -9.112
REMARK INTRA:                  -2.658
REMARK UNBOUND:                -2.780
REMARK SMILES C[C@H]1O[C@@H](OC[C@H]2O[C@H](Oc3c(-c4ccc(O)c(O)c4)oc4cc(O)cc(O)c4c3=O)[C@@H](O)[C@H](O)[C@H]2O)[C@@H](O)[C@H](O)[C@@H]1O
REMARK SMILES IDX 7 1 36 2 34 3 32 4 9 5 8 6 6 7 5 8 4 9 1 10 2 11 42 12 3 13
REMARK SMILES IDX 40 14 38 15 43 16 41 18 39 20 37 22 35 24 10 26 11 27 12 28
REMARK SMILES IDX 30 29 21 30 29 31 31 32 22 33 27 34 23 35 26 36 24 37 13 38
REMARK SMILES IDX 20 39 14 40 18 41 15 42 16 43 19 44 17 46 28 48 25 50 33 52
REMARK H PARENT 43 17 41 19 39 21 37 23 35 25 19 45 17 47 28 49 25 51 33 53
REMARK Flexibility Score: inf
ROOT
ATOM      1  C   UNL     1      -1.158  36.557  17.830  1.00  0.00     0.180 C 
ATOM      2  C   UNL     1      -0.397  36.473  19.172  1.00  0.00     0.177 C 
ATOM      3  C   UNL     1      -0.481  37.822  19.914  1.00  0.00     0.180 C 
ATOM      4  C   UNL     1      -1.925  38.363  19.946  1.00  0.00     0.214 C 
ATOM      5  C   UNL     1      -2.616  38.242  18.567  1.00  0.00     0.339 C 
ATOM      6  O   UNL     1      -2.512  36.932  18.031  1.00  0.00    -0.332 OA
ENDROOT
BRANCH   1   7
ATOM      7  C   UNL     1      -1.095  35.240  17.045  1.00  0.00     0.198 C 
BRANCH   7   8
ATOM      8  O   UNL     1      -2.400  34.785  16.742  1.00  0.00    -0.347 OA
BRANCH   8   9
ATOM      9  C   UNL     1      -2.493  34.396  15.383  1.00  0.00     0.281 C 
ATOM     10  C   UNL     1      -0.024  32.820  13.188  1.00  0.00     0.041 C 
ATOM     11  C   UNL     1      -1.284  33.603  13.556  1.00  0.00     0.150 C 
ATOM     12  C   UNL     1      -1.436  34.874  12.676  1.00  0.00     0.174 C 
ATOM     13  O   UNL     1      -1.219  33.954  14.925  1.00  0.00    -0.344 OA
ATOM     14  C   UNL     1      -1.965  36.066  13.509  1.00  0.00     0.179 C 
ATOM     15  C   UNL     1      -3.029  35.586  14.523  1.00  0.00     0.202 C 
BRANCH  12  16
ATOM     16  O   UNL     1      -2.312  34.585  11.615  1.00  0.00    -0.388 OA
ATOM     17  H   UNL     1      -1.887  33.871  11.069  1.00  0.00     0.211 HD
ENDBRANCH  12  16
BRANCH  14  18
ATOM     18  O   UNL     1      -2.506  37.048  12.661  1.00  0.00    -0.387 OA
ATOM     19  H   UNL     1      -1.794  37.724  12.509  1.00  0.00     0.211 HD
ENDBRANCH  14  18
BRANCH  15  20
ATOM     20  O   UNL     1      -3.490  36.650  15.323  1.00  0.00    -0.385 OA
ATOM     21  H   UNL     1      -3.314  37.496  14.832  1.00  0.00     0.211 HD
ENDBRANCH  15  20
ENDBRANCH   8   9
ENDBRANCH   7   8
ENDBRANCH   1   7
BRANCH   2  22
ATOM     22  O   UNL     1      -0.850  35.418  19.987  1.00  0.00    -0.387 OA
ATOM     23  H   UNL     1      -1.236  35.806  20.815  1.00  0.00     0.211 HD
ENDBRANCH   2  22
BRANCH   3  24
ATOM     24  O   UNL     1       0.360  38.748  19.275  1.00  0.00    -0.387 OA
ATOM     25  H   UNL     1       0.630  38.345  18.408  1.00  0.00     0.211 HD
ENDBRANCH   3  24
BRANCH   5  26
ATOM     26  O   UNL     1      -2.104  39.221  17.651  1.00  0.00    -0.454 OA
BRANCH  26  27
ATOM     27  C   UNL     1      -2.905  39.915  16.727  1.00  0.00     0.214 A 
ATOM     28  C   UNL     1      -3.988  40.694  17.179  1.00  0.00     0.180 A 
ATOM     29  C   UNL     1      -2.654  39.853  15.345  1.00  0.00     0.239 A 
ATOM     30  O   UNL     1      -4.689  41.424  16.317  1.00  0.00    -0.452 OA
ATOM     31  C   UNL     1      -3.424  40.636  14.459  1.00  0.00     0.111 A 
ATOM     32  O   UNL     1      -1.764  39.075  14.906  1.00  0.00    -0.285 OA
ATOM     33  C   UNL     1      -4.452  41.435  15.010  1.00  0.00     0.146 A 
ATOM     34  C   UNL     1      -3.208  40.660  13.059  1.00  0.00     0.134 A 
ATOM     35  C   UNL     1      -5.239  42.242  14.182  1.00  0.00     0.094 A 
ATOM     36  C   UNL     1      -4.013  41.469  12.245  1.00  0.00     0.093 A 
ATOM     37  C   UNL     1      -5.022  42.259  12.801  1.00  0.00     0.123 A 
BRANCH  28  38
ATOM     38  C   UNL     1      -4.364  40.754  18.605  1.00  0.00     0.025 A 
ATOM     39  C   UNL     1      -3.563  41.477  19.503  1.00  0.00     0.062 A 
ATOM     40  C   UNL     1      -5.518  40.109  19.081  1.00  0.00     0.016 A 
ATOM     41  C   UNL     1      -3.885  41.527  20.866  1.00  0.00     0.158 A 
ATOM     42  C   UNL     1      -5.847  40.163  20.439  1.00  0.00     0.051 A 
ATOM     43  C   UNL     1      -5.034  40.866  21.334  1.00  0.00     0.157 A 
BRANCH  41  44
ATOM     44  O   UNL     1      -3.072  42.229  21.754  1.00  0.00    -0.504 OA
ATOM     45  H   UNL     1      -2.461  42.972  21.438  1.00  0.00     0.293 HD
ENDBRANCH  41  44
BRANCH  43  46
ATOM     46  O   UNL     1      -5.386  40.902  22.684  1.00  0.00    -0.504 OA
ATOM     47  H   UNL     1      -6.181  41.432  23.020  1.00  0.00     0.293 HD
ENDBRANCH  43  46
ENDBRANCH  28  38
BRANCH  34  48
ATOM     48  O   UNL     1      -2.198  39.894  12.474  1.00  0.00    -0.507 OA
ATOM     49  H   UNL     1      -1.238  40.213  12.444  1.00  0.00     0.293 HD
ENDBRANCH  34  48
BRANCH  37  50
ATOM     50  O   UNL     1      -5.801  43.060  11.969  1.00  0.00    -0.508 OA
ATOM     51  H   UNL     1      -6.250  42.687  11.137  1.00  0.00     0.293 HD
ENDBRANCH  37  50
ENDBRANCH  26  27
ENDBRANCH   5  26
BRANCH   4  52
ATOM     52  O   UNL     1      -2.666  37.662  20.914  1.00  0.00    -0.384 OA
ATOM     53  H   UNL     1      -2.277  37.888  21.798  1.00  0.00     0.211 HD
ENDBRANCH   4  52
TORSDOF 16
ENDMDL
