MODEL 1
REMARK VINA RESULT:    -3.830      0.000      0.000
REMARK INTER + INTRA:          -5.373
REMARK INTER:                  -4.950
REMARK INTRA:                  -0.423
REMARK UNBOUND:                -0.423
REMARK SMILES CCO[C@H]1O[C@H](CO)[C@H](O)[C@@H](O)[C@@H]1O
REMARK SMILES IDX 4 1 13 2 11 3 9 4 6 5 5 6 3 7 2 8 1 9 14 10 12 12 7 14 8 15
REMARK SMILES IDX 10 17
REMARK H PARENT 14 11 12 13 8 16 10 18
REMARK Flexibility Score: inf
ROOT
ATOM      1  C   UNL     1       8.859   3.327   2.677  1.00  0.00     0.281 C 
ATOM      2  C   UNL     1       8.492   4.519   1.753  1.00  0.00     0.202 C 
ATOM      3  C   UNL     1       7.103   5.106   2.085  1.00  0.00     0.179 C 
ATOM      4  C   UNL     1       6.052   4.001   2.320  1.00  0.00     0.177 C 
ATOM      5  C   UNL     1       6.619   2.897   3.245  1.00  0.00     0.178 C 
ATOM      6  O   UNL     1       7.819   2.362   2.708  1.00  0.00    -0.341 OA
ENDROOT
BRANCH   1   7
ATOM      7  O   UNL     1       9.165   3.768   3.994  1.00  0.00    -0.350 OA
BRANCH   7   8
ATOM      8  C   UNL     1      10.294   4.616   4.000  1.00  0.00     0.160 C 
ATOM      9  C   UNL     1      11.553   3.766   4.060  1.00  0.00     0.035 C 
ENDBRANCH   7   8
ENDBRANCH   1   7
BRANCH   2  10
ATOM     10  O   UNL     1       8.492   4.086   0.415  1.00  0.00    -0.385 OA
ATOM     11  H   UNL     1       8.516   3.094   0.431  1.00  0.00     0.211 HD
ENDBRANCH   2  10
BRANCH   3  12
ATOM     12  O   UNL     1       7.168   6.004   3.168  1.00  0.00    -0.387 OA
ATOM     13  H   UNL     1       7.876   6.671   2.986  1.00  0.00     0.211 HD
ENDBRANCH   3  12
BRANCH   5  14
ATOM     14  C   UNL     1       5.620   1.745   3.439  1.00  0.00     0.191 C 
BRANCH  14  15
ATOM     15  O   UNL     1       4.318   2.145   3.103  1.00  0.00    -0.394 OA
ATOM     16  H   UNL     1       4.368   3.110   2.870  1.00  0.00     0.210 HD
ENDBRANCH  14  15
ENDBRANCH   5  14
BRANCH   4  17
ATOM     17  O   UNL     1       5.689   3.452   1.076  1.00  0.00    -0.387 OA
ATOM     18  H   UNL     1       4.715   3.266   1.108  1.00  0.00     0.211 HD
ENDBRANCH   4  17
TORSDOF 7
ENDMDL
MODEL 2
REMARK VINA RESULT:    -3.763      1.785      4.500
REMARK INTER + INTRA:          -5.286
REMARK INTER:                  -4.851
REMARK INTRA:                  -0.436
REMARK UNBOUND:                -0.423
REMARK SMILES CCO[C@H]1O[C@H](CO)[C@H](O)[C@@H](O)[C@@H]1O
REMARK SMILES IDX 4 1 13 2 11 3 9 4 6 5 5 6 3 7 2 8 1 9 14 10 12 12 7 14 8 15
REMARK SMILES IDX 10 17
REMARK H PARENT 14 11 12 13 8 16 10 18
REMARK Flexibility Score: inf
ROOT
ATOM      1  C   UNL     1       6.832   4.534   1.848  1.00  0.00     0.281 C 
ATOM      2  C   UNL     1       8.072   3.629   1.623  1.00  0.00     0.202 C 
ATOM      3  C   UNL     1       9.256   4.025   2.532  1.00  0.00     0.179 C 
ATOM      4  C   UNL     1       9.456   5.555   2.581  1.00  0.00     0.177 C 
ATOM      5  C   UNL     1       8.102   6.275   2.788  1.00  0.00     0.178 C 
ATOM      6  O   UNL     1       7.181   5.908   1.773  1.00  0.00    -0.341 OA
ENDROOT
BRANCH   1   7
ATOM      7  O   UNL     1       6.203   4.251   3.091  1.00  0.00    -0.350 OA
BRANCH   7   8
ATOM      8  C   UNL     1       5.652   2.950   3.100  1.00  0.00     0.160 C 
ATOM      9  C   UNL     1       4.360   2.953   2.299  1.00  0.00     0.035 C 
ENDBRANCH   7   8
ENDBRANCH   1   7
BRANCH   2  10
ATOM     10  O   UNL     1       8.481   3.725   0.280  1.00  0.00    -0.385 OA
ATOM     11  H   UNL     1       9.473   3.684   0.277  1.00  0.00     0.211 HD
ENDBRANCH   2  10
BRANCH   3  12
ATOM     12  O   UNL     1       9.124   3.473   3.821  1.00  0.00    -0.387 OA
ATOM     13  H   UNL     1       8.190   3.595   4.124  1.00  0.00     0.211 HD
ENDBRANCH   3  12
BRANCH   5  14
ATOM     14  C   UNL     1       8.260   7.804   2.768  1.00  0.00     0.191 C 
BRANCH  14  15
ATOM     15  O   UNL     1       8.509   8.268   1.467  1.00  0.00    -0.394 OA
ATOM     16  H   UNL     1       9.490   8.204   1.325  1.00  0.00     0.210 HD
ENDBRANCH  14  15
ENDBRANCH   5  14
BRANCH   4  17
ATOM     17  O   UNL     1      10.048   5.971   1.374  1.00  0.00    -0.387 OA
ATOM     18  H   UNL     1       9.363   6.485   0.872  1.00  0.00     0.211 HD
ENDBRANCH   4  17
TORSDOF 7
ENDMDL
MODEL 3
REMARK VINA RESULT:    -3.463      1.334      1.813
REMARK INTER + INTRA:          -4.898
REMARK INTER:                  -4.515
REMARK INTRA:                  -0.383
REMARK UNBOUND:                -0.423
REMARK SMILES CCO[C@H]1O[C@H](CO)[C@H](O)[C@@H](O)[C@@H]1O
REMARK SMILES IDX 4 1 13 2 11 3 9 4 6 5 5 6 3 7 2 8 1 9 14 10 12 12 7 14 8 15
REMARK SMILES IDX 10 17
REMARK H PARENT 14 11 12 13 8 16 10 18
REMARK Flexibility Score: inf
ROOT
ATOM      1  C   UNL     1       7.828   3.391   2.513  1.00  0.00     0.281 C 
ATOM      2  C   UNL     1       6.653   4.282   2.029  1.00  0.00     0.202 C 
ATOM      3  C   UNL     1       5.423   4.177   2.957  1.00  0.00     0.179 C 
ATOM      4  C   UNL     1       5.127   2.717   3.359  1.00  0.00     0.177 C 
ATOM      5  C   UNL     1       6.429   1.995   3.786  1.00  0.00     0.178 C 
ATOM      6  O   UNL     1       7.398   2.060   2.752  1.00  0.00    -0.341 OA
ENDROOT
BRANCH   1   7
ATOM      7  O   UNL     1       8.440   3.929   3.678  1.00  0.00    -0.350 OA
BRANCH   7   8
ATOM      8  C   UNL     1       9.848   3.932   3.561  1.00  0.00     0.160 C 
ATOM      9  C   UNL     1      10.290   5.237   2.919  1.00  0.00     0.035 C 
ENDBRANCH   7   8
ENDBRANCH   1   7
BRANCH   2  10
ATOM     10  O   UNL     1       6.276   3.889   0.732  1.00  0.00    -0.385 OA
ATOM     11  H   UNL     1       5.801   3.021   0.820  1.00  0.00     0.211 HD
ENDBRANCH   2  10
BRANCH   3  12
ATOM     12  O   UNL     1       5.553   5.013   4.083  1.00  0.00    -0.387 OA
ATOM     13  H   UNL     1       6.445   5.441   4.059  1.00  0.00     0.211 HD
ENDBRANCH   3  12
BRANCH   5  14
ATOM     14  C   UNL     1       6.178   0.516   4.122  1.00  0.00     0.191 C 
BRANCH  14  15
ATOM     15  O   UNL     1       6.092  -0.258   2.956  1.00  0.00    -0.394 OA
ATOM     16  H   UNL     1       6.607   0.224   2.256  1.00  0.00     0.210 HD
ENDBRANCH  14  15
ENDBRANCH   5  14
BRANCH   4  17
ATOM     17  O   UNL     1       4.544   2.056   2.261  1.00  0.00    -0.387 OA
ATOM     18  H   UNL     1       5.084   2.283   1.460  1.00  0.00     0.211 HD
ENDBRANCH   4  17
TORSDOF 7
ENDMDL
MODEL 4
REMARK VINA RESULT:    -3.384      1.371      4.147
REMARK INTER + INTRA:          -4.796
REMARK INTER:                  -4.456
REMARK INTRA:                  -0.341
REMARK UNBOUND:                -0.423
REMARK SMILES CCO[C@H]1O[C@H](CO)[C@H](O)[C@@H](O)[C@@H]1O
REMARK SMILES IDX 4 1 13 2 11 3 9 4 6 5 5 6 3 7 2 8 1 9 14 10 12 12 7 14 8 15
REMARK SMILES IDX 10 17
REMARK H PARENT 14 11 12 13 8 16 10 18
REMARK Flexibility Score: inf
ROOT
ATOM      1  C   UNL     1       6.972   3.382   3.797  1.00  0.00     0.281 C 
ATOM      2  C   UNL     1       6.204   4.440   2.961  1.00  0.00     0.202 C 
ATOM      3  C   UNL     1       7.022   4.927   1.745  1.00  0.00     0.179 C 
ATOM      4  C   UNL     1       8.495   5.203   2.116  1.00  0.00     0.177 C 
ATOM      5  C   UNL     1       9.069   4.044   2.967  1.00  0.00     0.178 C 
ATOM      6  O   UNL     1       8.277   3.834   4.125  1.00  0.00    -0.341 OA
ENDROOT
BRANCH   1   7
ATOM      7  O   UNL     1       7.038   2.134   3.118  1.00  0.00    -0.350 OA
BRANCH   7   8
ATOM      8  C   UNL     1       6.394   1.116   3.855  1.00  0.00     0.160 C 
ATOM      9  C   UNL     1       7.004  -0.226   3.486  1.00  0.00     0.035 C 
ENDBRANCH   7   8
ENDBRANCH   1   7
BRANCH   2  10
ATOM     10  O   UNL     1       5.903   5.546   3.776  1.00  0.00    -0.385 OA
ATOM     11  H   UNL     1       6.206   6.356   3.287  1.00  0.00     0.211 HD
ENDBRANCH   2  10
BRANCH   3  12
ATOM     12  O   UNL     1       6.914   4.036   0.660  1.00  0.00    -0.387 OA
ATOM     13  H   UNL     1       7.555   3.294   0.793  1.00  0.00     0.211 HD
ENDBRANCH   3  12
BRANCH   5  14
ATOM     14  C   UNL     1      10.513   4.325   3.413  1.00  0.00     0.191 C 
BRANCH  14  15
ATOM     15  O   UNL     1      11.129   5.260   2.568  1.00  0.00    -0.394 OA
ATOM     16  H   UNL     1      12.052   4.931   2.406  1.00  0.00     0.210 HD
ENDBRANCH  14  15
ENDBRANCH   5  14
BRANCH   4  17
ATOM     17  O   UNL     1       8.561   6.411   2.835  1.00  0.00    -0.387 OA
ATOM     18  H   UNL     1       8.877   7.112   2.207  1.00  0.00     0.211 HD
ENDBRANCH   4  17
TORSDOF 7
ENDMDL
MODEL 5
REMARK VINA RESULT:    -3.350      1.569      3.201
REMARK INTER + INTRA:          -4.753
REMARK INTER:                  -4.382
REMARK INTRA:                  -0.370
REMARK UNBOUND:                -0.423
REMARK SMILES CCO[C@H]1O[C@H](CO)[C@H](O)[C@@H](O)[C@@H]1O
REMARK SMILES IDX 4 1 13 2 11 3 9 4 6 5 5 6 3 7 2 8 1 9 14 10 12 12 7 14 8 15
REMARK SMILES IDX 10 17
REMARK H PARENT 14 11 12 13 8 16 10 18
REMARK Flexibility Score: inf
ROOT
ATOM      1  C   UNL     1       7.661   5.570   3.323  1.00  0.00     0.281 C 
ATOM      2  C   UNL     1       8.868   4.668   2.954  1.00  0.00     0.202 C 
ATOM      3  C   UNL     1       8.492   3.587   1.918  1.00  0.00     0.179 C 
ATOM      4  C   UNL     1       7.142   2.916   2.250  1.00  0.00     0.177 C 
ATOM      5  C   UNL     1       6.080   3.982   2.614  1.00  0.00     0.178 C 
ATOM      6  O   UNL     1       6.531   4.792   3.688  1.00  0.00    -0.341 OA
ENDROOT
BRANCH   1   7
ATOM      7  O   UNL     1       7.330   6.453   2.259  1.00  0.00    -0.350 OA
BRANCH   7   8
ATOM      8  C   UNL     1       8.193   7.571   2.235  1.00  0.00     0.160 C 
ATOM      9  C   UNL     1       7.391   8.809   1.866  1.00  0.00     0.035 C 
ENDBRANCH   7   8
ENDBRANCH   1   7
BRANCH   2  10
ATOM     10  O   UNL     1       9.347   4.035   4.115  1.00  0.00    -0.385 OA
ATOM     11  H   UNL     1       9.337   3.058   3.937  1.00  0.00     0.211 HD
ENDBRANCH   2  10
BRANCH   3  12
ATOM     12  O   UNL     1       8.513   4.099   0.607  1.00  0.00    -0.387 OA
ATOM     13  H   UNL     1       8.390   5.080   0.647  1.00  0.00     0.211 HD
ENDBRANCH   3  12
BRANCH   5  14
ATOM     14  C   UNL     1       4.743   3.340   3.021  1.00  0.00     0.191 C 
BRANCH  14  15
ATOM     15  O   UNL     1       4.448   2.234   2.210  1.00  0.00    -0.394 OA
ATOM     16  H   UNL     1       5.124   1.538   2.421  1.00  0.00     0.210 HD
ENDBRANCH  14  15
ENDBRANCH   5  14
BRANCH   4  17
ATOM     17  O   UNL     1       7.331   2.032   3.329  1.00  0.00    -0.387 OA
ATOM     18  H   UNL     1       7.492   2.584   4.138  1.00  0.00     0.211 HD
ENDBRANCH   4  17
TORSDOF 7
ENDMDL
MODEL 6
REMARK VINA RESULT:    -3.287      1.627      2.847
REMARK INTER + INTRA:          -4.671
REMARK INTER:                  -4.362
REMARK INTRA:                  -0.310
REMARK UNBOUND:                -0.423
REMARK SMILES CCO[C@H]1O[C@H](CO)[C@H](O)[C@@H](O)[C@@H]1O
REMARK SMILES IDX 4 1 13 2 11 3 9 4 6 5 5 6 3 7 2 8 1 9 14 10 12 12 7 14 8 15
REMARK SMILES IDX 10 17
REMARK H PARENT 14 11 12 13 8 16 10 18
REMARK Flexibility Score: inf
ROOT
ATOM      1  C   UNL     1       9.201   4.121   3.602  1.00  0.00     0.281 C 
ATOM      2  C   UNL     1       8.622   3.060   2.629  1.00  0.00     0.202 C 
ATOM      3  C   UNL     1       7.907   3.705   1.422  1.00  0.00     0.179 C 
ATOM      4  C   UNL     1       7.008   4.885   1.849  1.00  0.00     0.177 C 
ATOM      5  C   UNL     1       7.759   5.813   2.835  1.00  0.00     0.178 C 
ATOM      6  O   UNL     1       8.217   5.079   3.961  1.00  0.00    -0.341 OA
ENDROOT
BRANCH   1   7
ATOM      7  O   UNL     1      10.340   4.766   3.046  1.00  0.00    -0.350 OA
BRANCH   7   8
ATOM      8  C   UNL     1      11.307   5.041   4.039  1.00  0.00     0.160 C 
ATOM      9  C   UNL     1      12.298   3.890   4.098  1.00  0.00     0.035 C 
ENDBRANCH   7   8
ENDBRANCH   1   7
BRANCH   2  10
ATOM     10  O   UNL     1       7.703   2.250   3.319  1.00  0.00    -0.385 OA
ATOM     11  H   UNL     1       6.845   2.748   3.352  1.00  0.00     0.211 HD
ENDBRANCH   2  10
BRANCH   3  12
ATOM     12  O   UNL     1       8.822   4.080   0.420  1.00  0.00    -0.387 OA
ATOM     13  H   UNL     1       8.390   4.746  -0.171  1.00  0.00     0.211 HD
ENDBRANCH   3  12
BRANCH   5  14
ATOM     14  C   UNL     1       6.865   6.958   3.336  1.00  0.00     0.191 C 
BRANCH  14  15
ATOM     15  O   UNL     1       5.814   6.469   4.125  1.00  0.00    -0.394 OA
ATOM     16  H   UNL     1       6.041   6.685   5.067  1.00  0.00     0.210 HD
ENDBRANCH  14  15
ENDBRANCH   5  14
BRANCH   4  17
ATOM     17  O   UNL     1       5.847   4.372   2.456  1.00  0.00    -0.387 OA
ATOM     18  H   UNL     1       5.279   3.996   1.734  1.00  0.00     0.211 HD
ENDBRANCH   4  17
TORSDOF 7
ENDMDL
MODEL 7
REMARK VINA RESULT:    -3.227      3.015      5.722
REMARK INTER + INTRA:          -4.593
REMARK INTER:                  -4.347
REMARK INTRA:                  -0.246
REMARK UNBOUND:                -0.423
REMARK SMILES CCO[C@H]1O[C@H](CO)[C@H](O)[C@@H](O)[C@@H]1O
REMARK SMILES IDX 4 1 13 2 11 3 9 4 6 5 5 6 3 7 2 8 1 9 14 10 12 12 7 14 8 15
REMARK SMILES IDX 10 17
REMARK H PARENT 14 11 12 13 8 16 10 18
REMARK Flexibility Score: inf
ROOT
ATOM      1  C   UNL     1       9.764   5.912   3.462  1.00  0.00     0.281 C 
ATOM      2  C   UNL     1       9.904   7.141   2.525  1.00  0.00     0.202 C 
ATOM      3  C   UNL     1      11.115   7.014   1.576  1.00  0.00     0.179 C 
ATOM      4  C   UNL     1      12.371   6.497   2.310  1.00  0.00     0.177 C 
ATOM      5  C   UNL     1      12.016   5.288   3.209  1.00  0.00     0.178 C 
ATOM      6  O   UNL     1      10.988   5.630   4.125  1.00  0.00    -0.341 OA
ENDROOT
BRANCH   1   7
ATOM      7  O   UNL     1       9.311   4.768   2.751  1.00  0.00    -0.350 OA
BRANCH   7   8
ATOM      8  C   UNL     1       8.016   4.971   2.226  1.00  0.00     0.160 C 
ATOM      9  C   UNL     1       7.791   4.009   1.071  1.00  0.00     0.035 C 
ENDBRANCH   7   8
ENDBRANCH   1   7
BRANCH   2  10
ATOM     10  O   UNL     1      10.059   8.303   3.303  1.00  0.00    -0.385 OA
ATOM     11  H   UNL     1       9.219   8.825   3.213  1.00  0.00     0.211 HD
ENDBRANCH   2  10
BRANCH   3  12
ATOM     12  O   UNL     1      10.808   6.227   0.449  1.00  0.00    -0.387 OA
ATOM     13  H   UNL     1      11.650   5.992  -0.014  1.00  0.00     0.211 HD
ENDBRANCH   3  12
BRANCH   5  14
ATOM     14  C   UNL     1      13.233   4.796   4.010  1.00  0.00     0.191 C 
BRANCH  14  15
ATOM     15  O   UNL     1      13.843   3.701   3.379  1.00  0.00    -0.394 OA
ATOM     16  H   UNL     1      13.300   3.500   2.572  1.00  0.00     0.210 HD
ENDBRANCH  14  15
ENDBRANCH   5  14
BRANCH   4  17
ATOM     17  O   UNL     1      12.900   7.542   3.090  1.00  0.00    -0.387 OA
ATOM     18  H   UNL     1      13.889   7.489   3.023  1.00  0.00     0.211 HD
ENDBRANCH   4  17
TORSDOF 7
ENDMDL
MODEL 8
REMARK VINA RESULT:    -3.216      3.875      5.616
REMARK INTER + INTRA:          -4.580
REMARK INTER:                  -4.406
REMARK INTRA:                  -0.173
REMARK UNBOUND:                -0.423
REMARK SMILES CCO[C@H]1O[C@H](CO)[C@H](O)[C@@H](O)[C@@H]1O
REMARK SMILES IDX 4 1 13 2 11 3 9 4 6 5 5 6 3 7 2 8 1 9 14 10 12 12 7 14 8 15
REMARK SMILES IDX 10 17
REMARK H PARENT 14 11 12 13 8 16 10 18
REMARK Flexibility Score: inf
ROOT
ATOM      1  C   UNL     1      12.723   6.680   1.886  1.00  0.00     0.281 C 
ATOM      2  C   UNL     1      11.249   7.101   1.650  1.00  0.00     0.202 C 
ATOM      3  C   UNL     1      10.356   6.805   2.874  1.00  0.00     0.179 C 
ATOM      4  C   UNL     1      10.639   5.409   3.469  1.00  0.00     0.177 C 
ATOM      5  C   UNL     1      12.163   5.173   3.602  1.00  0.00     0.178 C 
ATOM      6  O   UNL     1      12.806   5.340   2.347  1.00  0.00    -0.341 OA
ENDROOT
BRANCH   1   7
ATOM      7  O   UNL     1      13.374   7.557   2.796  1.00  0.00    -0.350 OA
BRANCH   7   8
ATOM      8  C   UNL     1      14.467   8.210   2.183  1.00  0.00     0.160 C 
ATOM      9  C   UNL     1      15.758   7.722   2.821  1.00  0.00     0.035 C 
ENDBRANCH   7   8
ENDBRANCH   1   7
BRANCH   2  10
ATOM     10  O   UNL     1      10.739   6.406   0.539  1.00  0.00    -0.385 OA
ATOM     11  H   UNL     1      11.150   6.811  -0.269  1.00  0.00     0.211 HD
ENDBRANCH   2  10
BRANCH   3  12
ATOM     12  O   UNL     1      10.459   7.818   3.846  1.00  0.00    -0.387 OA
ATOM     13  H   UNL     1       9.678   7.759   4.451  1.00  0.00     0.211 HD
ENDBRANCH   3  12
BRANCH   5  14
ATOM     14  C   UNL     1      12.480   3.762   4.124  1.00  0.00     0.191 C 
BRANCH  14  15
ATOM     15  O   UNL     1      13.761   3.353   3.724  1.00  0.00    -0.394 OA
ATOM     16  H   UNL     1      13.633   2.611   3.075  1.00  0.00     0.210 HD
ENDBRANCH  14  15
ENDBRANCH   5  14
BRANCH   4  17
ATOM     17  O   UNL     1      10.070   4.435   2.627  1.00  0.00    -0.387 OA
ATOM     18  H   UNL     1       9.873   4.874   1.759  1.00  0.00     0.211 HD
ENDBRANCH   4  17
TORSDOF 7
ENDMDL
MODEL 9
REMARK VINA RESULT:    -3.083      8.694     10.905
REMARK INTER + INTRA:          -4.407
REMARK INTER:                  -4.001
REMARK INTRA:                  -0.405
REMARK UNBOUND:                -0.423
REMARK SMILES CCO[C@H]1O[C@H](CO)[C@H](O)[C@@H](O)[C@@H]1O
REMARK SMILES IDX 4 1 13 2 11 3 9 4 6 5 5 6 3 7 2 8 1 9 14 10 12 12 7 14 8 15
REMARK SMILES IDX 10 17
REMARK H PARENT 14 11 12 13 8 16 10 18
REMARK Flexibility Score: inf
ROOT
ATOM      1  C   UNL     1      17.841   7.722   0.980  1.00  0.00     0.281 C 
ATOM      2  C   UNL     1      18.350   9.089   1.507  1.00  0.00     0.202 C 
ATOM      3  C   UNL     1      18.004   9.304   2.997  1.00  0.00     0.179 C 
ATOM      4  C   UNL     1      16.555   8.882   3.317  1.00  0.00     0.177 C 
ATOM      5  C   UNL     1      16.236   7.506   2.684  1.00  0.00     0.178 C 
ATOM      6  O   UNL     1      16.467   7.534   1.284  1.00  0.00    -0.341 OA
ENDROOT
BRANCH   1   7
ATOM      7  O   UNL     1      18.613   6.646   1.497  1.00  0.00    -0.350 OA
BRANCH   7   8
ATOM      8  C   UNL     1      19.970   6.766   1.125  1.00  0.00     0.160 C 
ATOM      9  C   UNL     1      20.354   5.579   0.256  1.00  0.00     0.035 C 
ENDBRANCH   7   8
ENDBRANCH   1   7
BRANCH   2  10
ATOM     10  O   UNL     1      17.768  10.124   0.754  1.00  0.00    -0.385 OA
ATOM     11  H   UNL     1      16.907   9.778   0.403  1.00  0.00     0.211 HD
ENDBRANCH   2  10
BRANCH   3  12
ATOM     12  O   UNL     1      18.934   8.665   3.840  1.00  0.00    -0.387 OA
ATOM     13  H   UNL     1      19.790   9.159   3.800  1.00  0.00     0.211 HD
ENDBRANCH   3  12
BRANCH   5  14
ATOM     14  C   UNL     1      14.775   7.091   2.924  1.00  0.00     0.191 C 
BRANCH  14  15
ATOM     15  O   UNL     1      13.950   7.521   1.875  1.00  0.00    -0.394 OA
ATOM     16  H   UNL     1      14.412   8.290   1.447  1.00  0.00     0.210 HD
ENDBRANCH  14  15
ENDBRANCH   5  14
BRANCH   4  17
ATOM     17  O   UNL     1      15.678   9.861   2.816  1.00  0.00    -0.387 OA
ATOM     18  H   UNL     1      14.889   9.388   2.444  1.00  0.00     0.211 HD
ENDBRANCH   4  17
TORSDOF 7
ENDMDL
