MODEL 1
REMARK VINA RESULT:    -6.853      0.000      0.000
REMARK INTER + INTRA:          -8.490
REMARK INTER:                  -8.456
REMARK INTRA:                  -0.034
REMARK UNBOUND:                -0.034
REMARK SMILES O=c1c(O)c(-c2cc(O)c(O)c(O)c2)oc2cc(O)cc(O)c12
REMARK SMILES IDX 5 1 3 2 2 3 1 4 23 5 21 6 20 7 18 8 17 9 16 10 15 11 6 12
REMARK SMILES IDX 7 13 8 14 14 15 10 16 12 17 9 18 11 20 13 22 4 24 22 26
REMARK SMILES IDX 19 28
REMARK H PARENT 9 19 11 21 13 23 4 25 22 27 19 29
REMARK Flexibility Score: inf
ROOT
ATOM      1  C   UNL     1       0.087  11.331 -18.677  1.00  0.00     0.180 A 
ATOM      2  C   UNL     1       0.706  12.582 -18.507  1.00  0.00     0.208 A 
ATOM      3  C   UNL     1      -0.006  13.613 -17.871  1.00  0.00     0.238 A 
ATOM      4  O   UNL     1       0.533  14.746 -17.771  1.00  0.00    -0.285 OA
ATOM      5  C   UNL     1      -1.319  13.375 -17.399  1.00  0.00     0.111 A 
ATOM      6  C   UNL     1      -2.116  14.334 -16.705  1.00  0.00     0.134 A 
ATOM      7  C   UNL     1      -3.449  14.033 -16.399  1.00  0.00     0.093 A 
ATOM      8  C   UNL     1      -3.994  12.783 -16.705  1.00  0.00     0.123 A 
ATOM      9  C   UNL     1      -3.205  11.819 -17.329  1.00  0.00     0.094 A 
ATOM     10  C   UNL     1      -1.883  12.103 -17.679  1.00  0.00     0.146 A 
ATOM     11  O   UNL     1      -1.169  11.159 -18.281  1.00  0.00    -0.452 OA
ENDROOT
BRANCH   1  12
ATOM     12  C   UNL     1       0.781  10.189 -19.314  1.00  0.00     0.029 A 
ATOM     13  C   UNL     1       0.847   8.933 -18.690  1.00  0.00     0.062 A 
ATOM     14  C   UNL     1       1.489   7.857 -19.320  1.00  0.00     0.162 A 
ATOM     15  C   UNL     1       1.337  10.347 -20.593  1.00  0.00     0.062 A 
ATOM     16  C   UNL     1       2.062   8.030 -20.591  1.00  0.00     0.200 A 
ATOM     17  C   UNL     1       1.981   9.279 -21.229  1.00  0.00     0.162 A 
BRANCH  14  18
ATOM     18  O   UNL     1       1.553   6.616 -18.688  1.00  0.00    -0.504 OA
ATOM     19  H   UNL     1       0.735   6.188 -18.271  1.00  0.00     0.293 HD
ENDBRANCH  14  18
BRANCH  16  20
ATOM     20  O   UNL     1       2.710   6.971 -21.230  1.00  0.00    -0.502 OA
ATOM     21  H   UNL     1       2.557   6.757 -22.209  1.00  0.00     0.293 HD
ENDBRANCH  16  20
BRANCH  17  22
ATOM     22  O   UNL     1       2.533   9.481 -22.493  1.00  0.00    -0.504 OA
ATOM     23  H   UNL     1       2.780  10.402 -22.832  1.00  0.00     0.293 HD
ENDBRANCH  17  22
ENDBRANCH   1  12
BRANCH   2  24
ATOM     24  O   UNL     1       1.994  12.801 -19.000  1.00  0.00    -0.502 OA
ATOM     25  H   UNL     1       2.786  12.978 -18.394  1.00  0.00     0.293 HD
ENDBRANCH   2  24
BRANCH   6  26
ATOM     26  O   UNL     1      -1.643  15.577 -16.273  1.00  0.00    -0.507 OA
ATOM     27  H   UNL     1      -2.051  16.118 -15.525  1.00  0.00     0.293 HD
ENDBRANCH   6  26
BRANCH   8  28
ATOM     28  O   UNL     1      -5.316  12.486 -16.383  1.00  0.00    -0.508 OA
ATOM     29  H   UNL     1      -5.816  12.998 -15.666  1.00  0.00     0.293 HD
ENDBRANCH   8  28
TORSDOF 7
ENDMDL
MODEL 2
REMARK VINA RESULT:    -6.770      0.085      1.757
REMARK INTER + INTRA:          -8.388
REMARK INTER:                  -8.351
REMARK INTRA:                  -0.037
REMARK UNBOUND:                -0.034
REMARK SMILES O=c1c(O)c(-c2cc(O)c(O)c(O)c2)oc2cc(O)cc(O)c12
REMARK SMILES IDX 5 1 3 2 2 3 1 4 23 5 21 6 20 7 18 8 17 9 16 10 15 11 6 12
REMARK SMILES IDX 7 13 8 14 14 15 10 16 12 17 9 18 11 20 13 22 4 24 22 26
REMARK SMILES IDX 19 28
REMARK H PARENT 9 19 11 21 13 23 4 25 22 27 19 29
REMARK Flexibility Score: inf
ROOT
ATOM      1  C   UNL     1       0.063  11.359 -18.771  1.00  0.00     0.180 A 
ATOM      2  C   UNL     1       0.687  12.603 -18.571  1.00  0.00     0.208 A 
ATOM      3  C   UNL     1      -0.015  13.616 -17.897  1.00  0.00     0.238 A 
ATOM      4  O   UNL     1       0.527  14.744 -17.769  1.00  0.00    -0.285 OA
ATOM      5  C   UNL     1      -1.323  13.366 -17.416  1.00  0.00     0.111 A 
ATOM      6  C   UNL     1      -2.110  14.306 -16.685  1.00  0.00     0.134 A 
ATOM      7  C   UNL     1      -3.440  13.998 -16.373  1.00  0.00     0.093 A 
ATOM      8  C   UNL     1      -3.991  12.758 -16.709  1.00  0.00     0.123 A 
ATOM      9  C   UNL     1      -3.212  11.812 -17.371  1.00  0.00     0.094 A 
ATOM     10  C   UNL     1      -1.893  12.104 -17.728  1.00  0.00     0.146 A 
ATOM     11  O   UNL     1      -1.189  11.177 -18.366  1.00  0.00    -0.452 OA
ENDROOT
BRANCH   1  12
ATOM     12  C   UNL     1       0.748  10.235 -19.451  1.00  0.00     0.029 A 
ATOM     13  C   UNL     1       1.348  10.399 -20.710  1.00  0.00     0.062 A 
ATOM     14  C   UNL     1       2.012   9.329 -21.327  1.00  0.00     0.162 A 
ATOM     15  C   UNL     1       0.850   8.996 -18.801  1.00  0.00     0.062 A 
ATOM     16  C   UNL     1       2.090   8.085 -20.679  1.00  0.00     0.200 A 
ATOM     17  C   UNL     1       1.509   7.922 -19.410  1.00  0.00     0.162 A 
BRANCH  14  18
ATOM     18  O   UNL     1       2.600   9.502 -22.580  1.00  0.00    -0.504 OA
ATOM     19  H   UNL     1       2.051   9.751 -23.395  1.00  0.00     0.293 HD
ENDBRANCH  14  18
BRANCH  16  20
ATOM     20  O   UNL     1       2.743   7.008 -21.282  1.00  0.00    -0.502 OA
ATOM     21  H   UNL     1       2.321   6.470 -22.029  1.00  0.00     0.293 HD
ENDBRANCH  16  20
BRANCH  17  22
ATOM     22  O   UNL     1       1.575   6.702 -18.738  1.00  0.00    -0.504 OA
ATOM     23  H   UNL     1       0.946   6.470 -17.980  1.00  0.00     0.293 HD
ENDBRANCH  17  22
ENDBRANCH   1  12
BRANCH   2  24
ATOM     24  O   UNL     1       1.970  12.834 -19.073  1.00  0.00    -0.502 OA
ATOM     25  H   UNL     1       2.243  12.569 -20.013  1.00  0.00     0.293 HD
ENDBRANCH   2  24
BRANCH   6  26
ATOM     26  O   UNL     1      -1.629  15.534 -16.221  1.00  0.00    -0.507 OA
ATOM     27  H   UNL     1      -1.518  15.777 -15.249  1.00  0.00     0.293 HD
ENDBRANCH   6  26
BRANCH   8  28
ATOM     28  O   UNL     1      -5.310  12.455 -16.381  1.00  0.00    -0.508 OA
ATOM     29  H   UNL     1      -5.548  11.993 -15.511  1.00  0.00     0.293 HD
ENDBRANCH   8  28
TORSDOF 7
ENDMDL
MODEL 3
REMARK VINA RESULT:    -6.589      1.341      6.804
REMARK INTER + INTRA:          -8.164
REMARK INTER:                  -7.974
REMARK INTRA:                  -0.190
REMARK UNBOUND:                -0.034
REMARK SMILES O=c1c(O)c(-c2cc(O)c(O)c(O)c2)oc2cc(O)cc(O)c12
REMARK SMILES IDX 5 1 3 2 2 3 1 4 23 5 21 6 20 7 18 8 17 9 16 10 15 11 6 12
REMARK SMILES IDX 7 13 8 14 14 15 10 16 12 17 9 18 11 20 13 22 4 24 22 26
REMARK SMILES IDX 19 28
REMARK H PARENT 9 19 11 21 13 23 4 25 22 27 19 29
REMARK Flexibility Score: inf
ROOT
ATOM      1  C   UNL     1      -0.009  11.679 -18.297  1.00  0.00     0.180 A 
ATOM      2  C   UNL     1       0.917  12.587 -18.837  1.00  0.00     0.208 A 
ATOM      3  C   UNL     1       1.990  12.094 -19.598  1.00  0.00     0.238 A 
ATOM      4  O   UNL     1       2.846  12.907 -20.034  1.00  0.00    -0.285 OA
ATOM      5  C   UNL     1       2.112  10.702 -19.824  1.00  0.00     0.111 A 
ATOM      6  C   UNL     1       3.135  10.096 -20.613  1.00  0.00     0.134 A 
ATOM      7  C   UNL     1       3.235   8.700 -20.661  1.00  0.00     0.093 A 
ATOM      8  C   UNL     1       2.310   7.888 -19.999  1.00  0.00     0.123 A 
ATOM      9  C   UNL     1       1.273   8.470 -19.275  1.00  0.00     0.094 A 
ATOM     10  C   UNL     1       1.168   9.860 -19.180  1.00  0.00     0.146 A 
ATOM     11  O   UNL     1       0.169  10.374 -18.471  1.00  0.00    -0.452 OA
ENDROOT
BRANCH   1  12
ATOM     12  C   UNL     1      -1.179  12.124 -17.505  1.00  0.00     0.029 A 
ATOM     13  C   UNL     1      -1.021  12.770 -16.267  1.00  0.00     0.062 A 
ATOM     14  C   UNL     1      -2.139  13.206 -15.543  1.00  0.00     0.162 A 
ATOM     15  C   UNL     1      -2.470  11.950 -18.024  1.00  0.00     0.062 A 
ATOM     16  C   UNL     1      -3.430  13.006 -16.061  1.00  0.00     0.200 A 
ATOM     17  C   UNL     1      -3.593  12.380 -17.308  1.00  0.00     0.162 A 
BRANCH  14  18
ATOM     18  O   UNL     1      -1.970  13.840 -14.313  1.00  0.00    -0.504 OA
ATOM     19  H   UNL     1      -1.778  13.317 -13.466  1.00  0.00     0.293 HD
ENDBRANCH  14  18
BRANCH  16  20
ATOM     20  O   UNL     1      -4.555  13.430 -15.350  1.00  0.00    -0.502 OA
ATOM     21  H   UNL     1      -4.857  14.397 -15.343  1.00  0.00     0.293 HD
ENDBRANCH  16  20
BRANCH  17  22
ATOM     22  O   UNL     1      -4.860  12.175 -17.852  1.00  0.00    -0.504 OA
ATOM     23  H   UNL     1      -5.694  12.147 -17.279  1.00  0.00     0.293 HD
ENDBRANCH  17  22
ENDBRANCH   1  12
BRANCH   2  24
ATOM     24  O   UNL     1       0.789  13.955 -18.584  1.00  0.00    -0.502 OA
ATOM     25  H   UNL     1       0.602  14.322 -17.658  1.00  0.00     0.293 HD
ENDBRANCH   2  24
BRANCH   6  26
ATOM     26  O   UNL     1       4.053  10.814 -21.386  1.00  0.00    -0.507 OA
ATOM     27  H   UNL     1       4.925  10.443 -21.733  1.00  0.00     0.293 HD
ENDBRANCH   6  26
BRANCH   8  28
ATOM     28  O   UNL     1       2.408   6.500 -20.064  1.00  0.00    -0.508 OA
ATOM     29  H   UNL     1       2.099   5.984 -20.880  1.00  0.00     0.293 HD
ENDBRANCH   8  28
TORSDOF 7
ENDMDL
MODEL 4
REMARK VINA RESULT:    -6.580      1.556      6.912
REMARK INTER + INTRA:          -8.152
REMARK INTER:                  -8.037
REMARK INTRA:                  -0.115
REMARK UNBOUND:                -0.034
REMARK SMILES O=c1c(O)c(-c2cc(O)c(O)c(O)c2)oc2cc(O)cc(O)c12
REMARK SMILES IDX 5 1 3 2 2 3 1 4 23 5 21 6 20 7 18 8 17 9 16 10 15 11 6 12
REMARK SMILES IDX 7 13 8 14 14 15 10 16 12 17 9 18 11 20 13 22 4 24 22 26
REMARK SMILES IDX 19 28
REMARK H PARENT 9 19 11 21 13 23 4 25 22 27 19 29
REMARK Flexibility Score: inf
ROOT
ATOM      1  C   UNL     1      -0.243  11.721 -19.031  1.00  0.00     0.180 A 
ATOM      2  C   UNL     1      -0.181  12.238 -20.336  1.00  0.00     0.208 A 
ATOM      3  C   UNL     1       0.368  11.445 -21.358  1.00  0.00     0.238 A 
ATOM      4  O   UNL     1       0.470  11.934 -22.513  1.00  0.00    -0.285 OA
ATOM      5  C   UNL     1       0.829  10.139 -21.065  1.00  0.00     0.111 A 
ATOM      6  C   UNL     1       1.365   9.235 -22.029  1.00  0.00     0.134 A 
ATOM      7  C   UNL     1       1.912   8.017 -21.605  1.00  0.00     0.093 A 
ATOM      8  C   UNL     1       1.884   7.645 -20.258  1.00  0.00     0.123 A 
ATOM      9  C   UNL     1       1.309   8.496 -19.317  1.00  0.00     0.094 A 
ATOM     10  C   UNL     1       0.788   9.733 -19.705  1.00  0.00     0.146 A 
ATOM     11  O   UNL     1       0.258  10.518 -18.775  1.00  0.00    -0.452 OA
ENDROOT
BRANCH   1  12
ATOM     12  C   UNL     1      -0.829  12.487 -17.907  1.00  0.00     0.029 A 
ATOM     13  C   UNL     1      -1.905  11.981 -17.160  1.00  0.00     0.062 A 
ATOM     14  C   UNL     1      -2.432  12.710 -16.084  1.00  0.00     0.162 A 
ATOM     15  C   UNL     1      -0.264  13.718 -17.543  1.00  0.00     0.062 A 
ATOM     16  C   UNL     1      -1.874  13.954 -15.742  1.00  0.00     0.200 A 
ATOM     17  C   UNL     1      -0.783  14.455 -16.472  1.00  0.00     0.162 A 
BRANCH  14  18
ATOM     18  O   UNL     1      -3.504  12.201 -15.353  1.00  0.00    -0.504 OA
ATOM     19  H   UNL     1      -4.018  12.773 -14.693  1.00  0.00     0.293 HD
ENDBRANCH  14  18
BRANCH  16  20
ATOM     20  O   UNL     1      -2.389  14.696 -14.677  1.00  0.00    -0.502 OA
ATOM     21  H   UNL     1      -1.951  15.550 -14.352  1.00  0.00     0.293 HD
ENDBRANCH  16  20
BRANCH  17  22
ATOM     22  O   UNL     1      -0.203  15.681 -16.152  1.00  0.00    -0.504 OA
ATOM     23  H   UNL     1       0.791  15.847 -16.248  1.00  0.00     0.293 HD
ENDBRANCH  17  22
ENDBRANCH   1  12
BRANCH   2  24
ATOM     24  O   UNL     1      -0.622  13.537 -20.599  1.00  0.00    -0.502 OA
ATOM     25  H   UNL     1      -1.549  13.735 -20.960  1.00  0.00     0.293 HD
ENDBRANCH   2  24
BRANCH   6  26
ATOM     26  O   UNL     1       1.359   9.469 -23.408  1.00  0.00    -0.507 OA
ATOM     27  H   UNL     1       1.822  10.243 -23.860  1.00  0.00     0.293 HD
ENDBRANCH   6  26
BRANCH   8  28
ATOM     28  O   UNL     1       2.417   6.425 -19.847  1.00  0.00    -0.508 OA
ATOM     29  H   UNL     1       2.937   5.832 -20.483  1.00  0.00     0.293 HD
ENDBRANCH   8  28
TORSDOF 7
ENDMDL
MODEL 5
REMARK VINA RESULT:    -6.391      4.083      7.065
REMARK INTER + INTRA:          -7.920
REMARK INTER:                  -7.565
REMARK INTRA:                  -0.355
REMARK UNBOUND:                -0.034
REMARK SMILES O=c1c(O)c(-c2cc(O)c(O)c(O)c2)oc2cc(O)cc(O)c12
REMARK SMILES IDX 5 1 3 2 2 3 1 4 23 5 21 6 20 7 18 8 17 9 16 10 15 11 6 12
REMARK SMILES IDX 7 13 8 14 14 15 10 16 12 17 9 18 11 20 13 22 4 24 22 26
REMARK SMILES IDX 19 28
REMARK H PARENT 9 19 11 21 13 23 4 25 22 27 19 29
REMARK Flexibility Score: inf
ROOT
ATOM      1  C   UNL     1      -0.761  15.775 -17.339  1.00  0.00     0.180 A 
ATOM      2  C   UNL     1      -0.436  14.435 -17.612  1.00  0.00     0.208 A 
ATOM      3  C   UNL     1      -1.363  13.430 -17.288  1.00  0.00     0.238 A 
ATOM      4  O   UNL     1      -1.045  12.228 -17.484  1.00  0.00    -0.285 OA
ATOM      5  C   UNL     1      -2.609  13.780 -16.713  1.00  0.00     0.111 A 
ATOM      6  C   UNL     1      -3.638  12.848 -16.383  1.00  0.00     0.134 A 
ATOM      7  C   UNL     1      -4.777  13.291 -15.698  1.00  0.00     0.093 A 
ATOM      8  C   UNL     1      -4.951  14.643 -15.389  1.00  0.00     0.123 A 
ATOM      9  C   UNL     1      -3.979  15.568 -15.760  1.00  0.00     0.094 A 
ATOM     10  C   UNL     1      -2.816  15.152 -16.412  1.00  0.00     0.146 A 
ATOM     11  O   UNL     1      -1.910  16.065 -16.740  1.00  0.00    -0.452 OA
ENDROOT
BRANCH   1  12
ATOM     12  C   UNL     1       0.153  16.890 -17.675  1.00  0.00     0.029 A 
ATOM     13  C   UNL     1       0.030  17.600 -18.880  1.00  0.00     0.062 A 
ATOM     14  C   UNL     1       0.890  18.669 -19.170  1.00  0.00     0.162 A 
ATOM     15  C   UNL     1       1.128  17.286 -16.746  1.00  0.00     0.062 A 
ATOM     16  C   UNL     1       1.878  19.043 -18.244  1.00  0.00     0.200 A 
ATOM     17  C   UNL     1       1.992  18.350 -17.027  1.00  0.00     0.162 A 
BRANCH  14  18
ATOM     18  O   UNL     1       0.761  19.362 -20.373  1.00  0.00    -0.504 OA
ATOM     19  H   UNL     1       1.271  20.220 -20.550  1.00  0.00     0.293 HD
ENDBRANCH  14  18
BRANCH  16  20
ATOM     20  O   UNL     1       2.746  20.102 -18.518  1.00  0.00    -0.502 OA
ATOM     21  H   UNL     1       3.195  20.636 -17.784  1.00  0.00     0.293 HD
ENDBRANCH  16  20
BRANCH  17  22
ATOM     22  O   UNL     1       2.957  18.703 -16.084  1.00  0.00    -0.504 OA
ATOM     23  H   UNL     1       3.183  18.108 -15.297  1.00  0.00     0.293 HD
ENDBRANCH  17  22
ENDBRANCH   1  12
BRANCH   2  24
ATOM     24  O   UNL     1       0.807  14.111 -18.159  1.00  0.00    -0.502 OA
ATOM     25  H   UNL     1       1.294  13.251 -17.933  1.00  0.00     0.293 HD
ENDBRANCH   2  24
BRANCH   6  26
ATOM     26  O   UNL     1      -3.605  11.493 -16.726  1.00  0.00    -0.507 OA
ATOM     27  H   UNL     1      -2.763  10.969 -16.912  1.00  0.00     0.293 HD
ENDBRANCH   6  26
BRANCH   8  28
ATOM     28  O   UNL     1      -6.094  15.077 -14.721  1.00  0.00    -0.508 OA
ATOM     29  H   UNL     1      -6.830  15.581 -15.202  1.00  0.00     0.293 HD
ENDBRANCH   8  28
TORSDOF 7
ENDMDL
MODEL 6
REMARK VINA RESULT:    -6.363      8.013     10.846
REMARK INTER + INTRA:          -7.885
REMARK INTER:                  -7.566
REMARK INTRA:                  -0.318
REMARK UNBOUND:                -0.034
REMARK SMILES O=c1c(O)c(-c2cc(O)c(O)c(O)c2)oc2cc(O)cc(O)c12
REMARK SMILES IDX 5 1 3 2 2 3 1 4 23 5 21 6 20 7 18 8 17 9 16 10 15 11 6 12
REMARK SMILES IDX 7 13 8 14 14 15 10 16 12 17 9 18 11 20 13 22 4 24 22 26
REMARK SMILES IDX 19 28
REMARK H PARENT 9 19 11 21 13 23 4 25 22 27 19 29
REMARK Flexibility Score: inf
ROOT
ATOM      1  C   UNL     1      -4.224  20.089 -20.208  1.00  0.00     0.180 A 
ATOM      2  C   UNL     1      -5.465  19.792 -20.799  1.00  0.00     0.208 A 
ATOM      3  C   UNL     1      -6.267  20.848 -21.264  1.00  0.00     0.238 A 
ATOM      4  O   UNL     1      -7.400  20.579 -21.742  1.00  0.00    -0.285 OA
ATOM      5  C   UNL     1      -5.811  22.183 -21.149  1.00  0.00     0.111 A 
ATOM      6  C   UNL     1      -6.523  23.325 -21.622  1.00  0.00     0.134 A 
ATOM      7  C   UNL     1      -6.038  24.608 -21.338  1.00  0.00     0.093 A 
ATOM      8  C   UNL     1      -4.834  24.787 -20.653  1.00  0.00     0.123 A 
ATOM      9  C   UNL     1      -4.102  23.678 -20.239  1.00  0.00     0.094 A 
ATOM     10  C   UNL     1      -4.578  22.386 -20.476  1.00  0.00     0.146 A 
ATOM     11  O   UNL     1      -3.853  21.355 -20.055  1.00  0.00    -0.452 OA
ENDROOT
BRANCH   1  12
ATOM     12  C   UNL     1      -3.312  19.030 -19.717  1.00  0.00     0.029 A 
ATOM     13  C   UNL     1      -2.177  18.646 -20.449  1.00  0.00     0.062 A 
ATOM     14  C   UNL     1      -1.312  17.658 -19.957  1.00  0.00     0.162 A 
ATOM     15  C   UNL     1      -3.553  18.437 -18.469  1.00  0.00     0.062 A 
ATOM     16  C   UNL     1      -1.575  17.053 -18.716  1.00  0.00     0.200 A 
ATOM     17  C   UNL     1      -2.697  17.449 -17.970  1.00  0.00     0.162 A 
BRANCH  14  18
ATOM     18  O   UNL     1      -0.192  17.280 -20.695  1.00  0.00    -0.504 OA
ATOM     19  H   UNL     1       0.439  17.965 -21.093  1.00  0.00     0.293 HD
ENDBRANCH  14  18
BRANCH  16  20
ATOM     20  O   UNL     1      -0.727  16.064 -18.213  1.00  0.00    -0.502 OA
ATOM     21  H   UNL     1      -0.581  15.183 -18.692  1.00  0.00     0.293 HD
ENDBRANCH  16  20
BRANCH  17  22
ATOM     22  O   UNL     1      -2.980  16.874 -16.732  1.00  0.00    -0.504 OA
ATOM     23  H   UNL     1      -2.266  16.429 -16.169  1.00  0.00     0.293 HD
ENDBRANCH  17  22
ENDBRANCH   1  12
BRANCH   2  24
ATOM     24  O   UNL     1      -5.904  18.469 -20.882  1.00  0.00    -0.502 OA
ATOM     25  H   UNL     1      -5.671  17.866 -21.663  1.00  0.00     0.293 HD
ENDBRANCH   2  24
BRANCH   6  26
ATOM     26  O   UNL     1      -7.687  23.255 -22.394  1.00  0.00    -0.507 OA
ATOM     27  H   UNL     1      -7.761  23.567 -23.350  1.00  0.00     0.293 HD
ENDBRANCH   6  26
BRANCH   8  28
ATOM     28  O   UNL     1      -4.351  26.067 -20.388  1.00  0.00    -0.508 OA
ATOM     29  H   UNL     1      -4.628  26.577 -19.557  1.00  0.00     0.293 HD
ENDBRANCH   8  28
TORSDOF 7
ENDMDL
MODEL 7
REMARK VINA RESULT:    -6.340      1.533      1.726
REMARK INTER + INTRA:          -7.857
REMARK INTER:                  -7.807
REMARK INTRA:                  -0.049
REMARK UNBOUND:                -0.034
REMARK SMILES O=c1c(O)c(-c2cc(O)c(O)c(O)c2)oc2cc(O)cc(O)c12
REMARK SMILES IDX 5 1 3 2 2 3 1 4 23 5 21 6 20 7 18 8 17 9 16 10 15 11 6 12
REMARK SMILES IDX 7 13 8 14 14 15 10 16 12 17 9 18 11 20 13 22 4 24 22 26
REMARK SMILES IDX 19 28
REMARK H PARENT 9 19 11 21 13 23 4 25 22 27 19 29
REMARK Flexibility Score: inf
ROOT
ATOM      1  C   UNL     1       0.257  12.248 -18.251  1.00  0.00     0.180 A 
ATOM      2  C   UNL     1       0.478  13.612 -18.510  1.00  0.00     0.208 A 
ATOM      3  C   UNL     1      -0.365  14.564 -17.912  1.00  0.00     0.238 A 
ATOM      4  O   UNL     1      -0.196  15.780 -18.190  1.00  0.00    -0.285 OA
ATOM      5  C   UNL     1      -1.406  14.141 -17.051  1.00  0.00     0.111 A 
ATOM      6  C   UNL     1      -2.293  15.019 -16.361  1.00  0.00     0.134 A 
ATOM      7  C   UNL     1      -3.369  14.488 -15.638  1.00  0.00     0.093 A 
ATOM      8  C   UNL     1      -3.550  13.106 -15.529  1.00  0.00     0.123 A 
ATOM      9  C   UNL     1      -2.654  12.240 -16.150  1.00  0.00     0.094 A 
ATOM     10  C   UNL     1      -1.593  12.741 -16.908  1.00  0.00     0.146 A 
ATOM     11  O   UNL     1      -0.768  11.879 -17.492  1.00  0.00    -0.452 OA
ENDROOT
BRANCH   1  12
ATOM     12  C   UNL     1       1.118  11.188 -18.825  1.00  0.00     0.029 A 
ATOM     13  C   UNL     1       0.577  10.135 -19.580  1.00  0.00     0.062 A 
ATOM     14  C   UNL     1       1.411   9.153 -20.134  1.00  0.00     0.162 A 
ATOM     15  C   UNL     1       2.509  11.266 -18.661  1.00  0.00     0.062 A 
ATOM     16  C   UNL     1       2.801   9.227 -19.945  1.00  0.00     0.200 A 
ATOM     17  C   UNL     1       3.350  10.291 -19.209  1.00  0.00     0.162 A 
BRANCH  14  18
ATOM     18  O   UNL     1       0.861   8.109 -20.877  1.00  0.00    -0.504 OA
ATOM     19  H   UNL     1       0.398   7.326 -20.431  1.00  0.00     0.293 HD
ENDBRANCH  14  18
BRANCH  16  20
ATOM     20  O   UNL     1       3.646   8.256 -20.486  1.00  0.00    -0.502 OA
ATOM     21  H   UNL     1       4.640   8.237 -20.293  1.00  0.00     0.293 HD
ENDBRANCH  16  20
BRANCH  17  22
ATOM     22  O   UNL     1       4.725  10.396 -19.010  1.00  0.00    -0.504 OA
ATOM     23  H   UNL     1       5.365   9.653 -19.262  1.00  0.00     0.293 HD
ENDBRANCH  17  22
ENDBRANCH   1  12
BRANCH   2  24
ATOM     24  O   UNL     1       1.498  14.006 -19.380  1.00  0.00    -0.502 OA
ATOM     25  H   UNL     1       1.367  14.059 -20.384  1.00  0.00     0.293 HD
ENDBRANCH   2  24
BRANCH   6  26
ATOM     26  O   UNL     1      -2.148  16.410 -16.330  1.00  0.00    -0.507 OA
ATOM     27  H   UNL     1      -1.383  16.916 -16.750  1.00  0.00     0.293 HD
ENDBRANCH   6  26
BRANCH   8  28
ATOM     28  O   UNL     1      -4.614  12.586 -14.796  1.00  0.00    -0.508 OA
ATOM     29  H   UNL     1      -4.531  12.392 -13.804  1.00  0.00     0.293 HD
ENDBRANCH   8  28
TORSDOF 7
ENDMDL
MODEL 8
REMARK VINA RESULT:    -6.321      1.990      3.564
REMARK INTER + INTRA:          -7.833
REMARK INTER:                  -7.543
REMARK INTRA:                  -0.290
REMARK UNBOUND:                -0.034
REMARK SMILES O=c1c(O)c(-c2cc(O)c(O)c(O)c2)oc2cc(O)cc(O)c12
REMARK SMILES IDX 5 1 3 2 2 3 1 4 23 5 21 6 20 7 18 8 17 9 16 10 15 11 6 12
REMARK SMILES IDX 7 13 8 14 14 15 10 16 12 17 9 18 11 20 13 22 4 24 22 26
REMARK SMILES IDX 19 28
REMARK H PARENT 9 19 11 21 13 23 4 25 22 27 19 29
REMARK Flexibility Score: inf
ROOT
ATOM      1  C   UNL     1      -1.525  11.725 -18.113  1.00  0.00     0.180 A 
ATOM      2  C   UNL     1      -1.749  12.212 -16.814  1.00  0.00     0.208 A 
ATOM      3  C   UNL     1      -3.060  12.534 -16.425  1.00  0.00     0.238 A 
ATOM      4  O   UNL     1      -3.248  13.021 -15.280  1.00  0.00    -0.285 OA
ATOM      5  C   UNL     1      -4.131  12.348 -17.333  1.00  0.00     0.111 A 
ATOM      6  C   UNL     1      -5.502  12.602 -17.031  1.00  0.00     0.134 A 
ATOM      7  C   UNL     1      -6.461  12.508 -18.047  1.00  0.00     0.093 A 
ATOM      8  C   UNL     1      -6.107  12.105 -19.338  1.00  0.00     0.123 A 
ATOM      9  C   UNL     1      -4.780  11.797 -19.626  1.00  0.00     0.094 A 
ATOM     10  C   UNL     1      -3.795  11.917 -18.643  1.00  0.00     0.146 A 
ATOM     11  O   UNL     1      -2.540  11.623 -18.963  1.00  0.00    -0.452 OA
ENDROOT
BRANCH   1  12
ATOM     12  C   UNL     1      -0.175  11.341 -18.588  1.00  0.00     0.029 A 
ATOM     13  C   UNL     1       0.791  12.310 -18.906  1.00  0.00     0.062 A 
ATOM     14  C   UNL     1       2.071  11.927 -19.331  1.00  0.00     0.162 A 
ATOM     15  C   UNL     1       0.167   9.983 -18.668  1.00  0.00     0.062 A 
ATOM     16  C   UNL     1       2.398  10.564 -19.430  1.00  0.00     0.200 A 
ATOM     17  C   UNL     1       1.442   9.591 -19.093  1.00  0.00     0.162 A 
BRANCH  14  18
ATOM     18  O   UNL     1       3.020  12.898 -19.649  1.00  0.00    -0.504 OA
ATOM     19  H   UNL     1       3.335  13.041 -20.602  1.00  0.00     0.293 HD
ENDBRANCH  14  18
BRANCH  16  20
ATOM     20  O   UNL     1       3.666  10.165 -19.856  1.00  0.00    -0.502 OA
ATOM     21  H   UNL     1       4.095  10.537 -20.695  1.00  0.00     0.293 HD
ENDBRANCH  16  20
BRANCH  17  22
ATOM     22  O   UNL     1       1.738   8.231 -19.173  1.00  0.00    -0.504 OA
ATOM     23  H   UNL     1       2.248   7.747 -18.445  1.00  0.00     0.293 HD
ENDBRANCH  17  22
ENDBRANCH   1  12
BRANCH   2  24
ATOM     24  O   UNL     1      -0.676  12.409 -15.942  1.00  0.00    -0.502 OA
ATOM     25  H   UNL     1      -0.654  13.164 -15.267  1.00  0.00     0.293 HD
ENDBRANCH   2  24
BRANCH   6  26
ATOM     26  O   UNL     1      -5.974  12.921 -15.755  1.00  0.00    -0.507 OA
ATOM     27  H   UNL     1      -6.781  13.498 -15.569  1.00  0.00     0.293 HD
ENDBRANCH   6  26
BRANCH   8  28
ATOM     28  O   UNL     1      -7.071  11.999 -20.338  1.00  0.00    -0.508 OA
ATOM     29  H   UNL     1      -7.549  11.125 -20.524  1.00  0.00     0.293 HD
ENDBRANCH   8  28
TORSDOF 7
ENDMDL
MODEL 9
REMARK VINA RESULT:    -6.298      2.479      4.827
REMARK INTER + INTRA:          -7.805
REMARK INTER:                  -7.565
REMARK INTRA:                  -0.239
REMARK UNBOUND:                -0.034
REMARK SMILES O=c1c(O)c(-c2cc(O)c(O)c(O)c2)oc2cc(O)cc(O)c12
REMARK SMILES IDX 5 1 3 2 2 3 1 4 23 5 21 6 20 7 18 8 17 9 16 10 15 11 6 12
REMARK SMILES IDX 7 13 8 14 14 15 10 16 12 17 9 18 11 20 13 22 4 24 22 26
REMARK SMILES IDX 19 28
REMARK H PARENT 9 19 11 21 13 23 4 25 22 27 19 29
REMARK Flexibility Score: inf
ROOT
ATOM      1  C   UNL     1      -3.214  12.819 -17.565  1.00  0.00     0.180 A 
ATOM      2  C   UNL     1      -4.253  12.519 -18.463  1.00  0.00     0.208 A 
ATOM      3  C   UNL     1      -5.573  12.845 -18.109  1.00  0.00     0.238 A 
ATOM      4  O   UNL     1      -6.505  12.526 -18.894  1.00  0.00    -0.285 OA
ATOM      5  C   UNL     1      -5.835  13.481 -16.872  1.00  0.00     0.111 A 
ATOM      6  C   UNL     1      -7.128  13.892 -16.431  1.00  0.00     0.134 A 
ATOM      7  C   UNL     1      -7.287  14.394 -15.132  1.00  0.00     0.093 A 
ATOM      8  C   UNL     1      -6.190  14.558 -14.284  1.00  0.00     0.123 A 
ATOM      9  C   UNL     1      -4.915  14.215 -14.727  1.00  0.00     0.094 A 
ATOM     10  C   UNL     1      -4.729  13.679 -16.004  1.00  0.00     0.146 A 
ATOM     11  O   UNL     1      -3.498  13.356 -16.384  1.00  0.00    -0.452 OA
ENDROOT
BRANCH   1  12
ATOM     12  C   UNL     1      -1.796  12.528 -17.877  1.00  0.00     0.029 A 
ATOM     13  C   UNL     1      -1.318  11.209 -17.947  1.00  0.00     0.062 A 
ATOM     14  C   UNL     1       0.023  10.953 -18.267  1.00  0.00     0.162 A 
ATOM     15  C   UNL     1      -0.922  13.587 -18.164  1.00  0.00     0.062 A 
ATOM     16  C   UNL     1       0.896  12.021 -18.531  1.00  0.00     0.200 A 
ATOM     17  C   UNL     1       0.418  13.342 -18.483  1.00  0.00     0.162 A 
BRANCH  14  18
ATOM     18  O   UNL     1       0.487   9.640 -18.328  1.00  0.00    -0.504 OA
ATOM     19  H   UNL     1      -0.107   8.879 -18.636  1.00  0.00     0.293 HD
ENDBRANCH  14  18
BRANCH  16  20
ATOM     20  O   UNL     1       2.236  11.784 -18.847  1.00  0.00    -0.502 OA
ATOM     21  H   UNL     1       2.799  11.112 -18.340  1.00  0.00     0.293 HD
ENDBRANCH  16  20
BRANCH  17  22
ATOM     22  O   UNL     1       1.258  14.422 -18.748  1.00  0.00    -0.504 OA
ATOM     23  H   UNL     1       1.231  15.273 -18.198  1.00  0.00     0.293 HD
ENDBRANCH  17  22
ENDBRANCH   1  12
BRANCH   2  24
ATOM     24  O   UNL     1      -3.975  11.872 -19.669  1.00  0.00    -0.502 OA
ATOM     25  H   UNL     1      -3.526  12.341 -20.448  1.00  0.00     0.293 HD
ENDBRANCH   2  24
BRANCH   6  26
ATOM     26  O   UNL     1      -8.274  13.856 -17.230  1.00  0.00    -0.507 OA
ATOM     27  H   UNL     1      -8.270  13.825 -18.238  1.00  0.00     0.293 HD
ENDBRANCH   6  26
BRANCH   8  28
ATOM     28  O   UNL     1      -6.355  15.072 -13.000  1.00  0.00    -0.508 OA
ATOM     29  H   UNL     1      -5.566  15.217 -12.380  1.00  0.00     0.293 HD
ENDBRANCH   8  28
TORSDOF 7
ENDMDL
