MODEL 1
REMARK VINA RESULT:    -2.058      0.000      0.000
REMARK INTER + INTRA:          -4.334
REMARK INTER:                  -3.020
REMARK INTRA:                  -1.314
REMARK UNBOUND:                -1.314
REMARK SMILES CCCCCC(=O)CCCCC
REMARK SMILES IDX 6 1 7 2 5 3 4 4 3 5 2 6 1 7 8 8 9 9 10 10 11 11 12 12
REMARK H PARENT
REMARK Flexibility Score: inf
ROOT
ATOM      1  C   UNL     1     109.389 112.921 109.259  1.00  0.00     0.132 C 
ATOM      2  O   UNL     1     109.144 111.849 109.793  1.00  0.00    -0.300 OA
ENDROOT
BRANCH   1   3
ATOM      3  C   UNL     1     108.716 113.268 107.958  1.00  0.00     0.075 C 
BRANCH   3   4
ATOM      4  C   UNL     1     108.620 114.787 107.788  1.00  0.00     0.008 C 
BRANCH   4   5
ATOM      5  C   UNL     1     109.410 115.256 106.560  1.00  0.00     0.000 C 
BRANCH   5   6
ATOM      6  C   UNL     1     110.377 116.386 106.927  1.00  0.00    -0.003 C 
ATOM      7  C   UNL     1     109.969 117.059 108.235  1.00  0.00     0.004 C 
ENDBRANCH   5   6
ENDBRANCH   4   5
ENDBRANCH   3   4
ENDBRANCH   1   3
BRANCH   1   8
ATOM      8  C   UNL     1     110.372 113.860 109.908  1.00  0.00     0.075 C 
BRANCH   8   9
ATOM      9  C   UNL     1     111.804 113.326 109.763  1.00  0.00     0.008 C 
BRANCH   9  10
ATOM     10  C   UNL     1     112.514 113.868 108.512  1.00  0.00     0.000 C 
BRANCH  10  11
ATOM     11  C   UNL     1     112.984 112.751 107.570  1.00  0.00    -0.003 C 
ATOM     12  C   UNL     1     112.011 112.567 106.409  1.00  0.00     0.004 C 
ENDBRANCH  10  11
ENDBRANCH   9  10
ENDBRANCH   8   9
ENDBRANCH   1   8
TORSDOF 8
ENDMDL
MODEL 2
REMARK VINA RESULT:    -2.044      8.486     10.070
REMARK INTER + INTRA:          -4.315
REMARK INTER:                  -3.109
REMARK INTRA:                  -1.206
REMARK UNBOUND:                -1.314
REMARK SMILES CCCCCC(=O)CCCCC
REMARK SMILES IDX 6 1 7 2 5 3 4 4 3 5 2 6 1 7 8 8 9 9 10 10 11 11 12 12
REMARK H PARENT
REMARK Flexibility Score: inf
ROOT
ATOM      1  C   UNL     1     114.721 121.079 108.405  1.00  0.00     0.132 C 
ATOM      2  O   UNL     1     114.177 120.075 107.967  1.00  0.00    -0.300 OA
ENDROOT
BRANCH   1   3
ATOM      3  C   UNL     1     114.253 121.659 109.714  1.00  0.00     0.075 C 
BRANCH   3   4
ATOM      4  C   UNL     1     112.784 122.087 109.620  1.00  0.00     0.008 C 
BRANCH   4   5
ATOM      5  C   UNL     1     112.659 123.516 109.080  1.00  0.00     0.000 C 
BRANCH   5   6
ATOM      6  C   UNL     1     111.783 123.554 107.824  1.00  0.00    -0.003 C 
ATOM      7  C   UNL     1     112.630 123.478 106.557  1.00  0.00     0.004 C 
ENDBRANCH   5   6
ENDBRANCH   4   5
ENDBRANCH   3   4
ENDBRANCH   1   3
BRANCH   1   8
ATOM      8  C   UNL     1     115.833 121.719 107.617  1.00  0.00     0.075 C 
BRANCH   8   9
ATOM      9  C   UNL     1     116.885 122.320 108.560  1.00  0.00     0.008 C 
BRANCH   9  10
ATOM     10  C   UNL     1     117.109 123.821 108.319  1.00  0.00     0.000 C 
BRANCH  10  11
ATOM     11  C   UNL     1     116.185 124.388 107.231  1.00  0.00    -0.003 C 
ATOM     12  C   UNL     1     115.499 125.665 107.705  1.00  0.00     0.004 C 
ENDBRANCH  10  11
ENDBRANCH   9  10
ENDBRANCH   8   9
ENDBRANCH   1   8
TORSDOF 8
ENDMDL
MODEL 3
REMARK VINA RESULT:    -2.035      1.817      2.561
REMARK INTER + INTRA:          -4.301
REMARK INTER:                  -3.025
REMARK INTRA:                  -1.277
REMARK UNBOUND:                -1.314
REMARK SMILES CCCCCC(=O)CCCCC
REMARK SMILES IDX 6 1 7 2 5 3 4 4 3 5 2 6 1 7 8 8 9 9 10 10 11 11 12 12
REMARK H PARENT
REMARK Flexibility Score: inf
ROOT
ATOM      1  C   UNL     1     107.621 112.589 108.883  1.00  0.00     0.132 C 
ATOM      2  O   UNL     1     107.159 112.003 109.852  1.00  0.00    -0.300 OA
ENDROOT
BRANCH   1   3
ATOM      3  C   UNL     1     106.725 113.480 108.063  1.00  0.00     0.075 C 
BRANCH   3   4
ATOM      4  C   UNL     1     107.424 113.903 106.768  1.00  0.00     0.008 C 
BRANCH   4   5
ATOM      5  C   UNL     1     107.519 115.430 106.666  1.00  0.00     0.000 C 
BRANCH   5   6
ATOM      6  C   UNL     1     106.773 116.106 107.820  1.00  0.00    -0.003 C 
ATOM      7  C   UNL     1     107.434 117.425 108.210  1.00  0.00     0.004 C 
ENDBRANCH   5   6
ENDBRANCH   4   5
ENDBRANCH   3   4
ENDBRANCH   1   3
BRANCH   1   8
ATOM      8  C   UNL     1     109.070 112.392 108.524  1.00  0.00     0.075 C 
BRANCH   8   9
ATOM      9  C   UNL     1     109.979 113.033 109.582  1.00  0.00     0.008 C 
BRANCH   9  10
ATOM     10  C   UNL     1     110.235 114.525 109.317  1.00  0.00     0.000 C 
BRANCH  10  11
ATOM     11  C   UNL     1     110.965 114.771 107.989  1.00  0.00    -0.003 C 
ATOM     12  C   UNL     1     110.987 116.257 107.642  1.00  0.00     0.004 C 
ENDBRANCH  10  11
ENDBRANCH   9  10
ENDBRANCH   8   9
ENDBRANCH   1   8
TORSDOF 8
ENDMDL
MODEL 4
REMARK VINA RESULT:    -2.034      6.952      9.140
REMARK INTER + INTRA:          -4.300
REMARK INTER:                  -2.864
REMARK INTRA:                  -1.436
REMARK UNBOUND:                -1.314
REMARK SMILES CCCCCC(=O)CCCCC
REMARK SMILES IDX 6 1 7 2 5 3 4 4 3 5 2 6 1 7 8 8 9 9 10 10 11 11 12 12
REMARK H PARENT
REMARK Flexibility Score: inf
ROOT
ATOM      1  C   UNL     1     119.344 108.691 108.356  1.00  0.00     0.132 C 
ATOM      2  O   UNL     1     120.373 108.607 107.701  1.00  0.00    -0.300 OA
ENDROOT
BRANCH   1   3
ATOM      3  C   UNL     1     118.058 108.161 107.780  1.00  0.00     0.075 C 
BRANCH   3   4
ATOM      4  C   UNL     1     117.786 108.782 106.406  1.00  0.00     0.008 C 
BRANCH   4   5
ATOM      5  C   UNL     1     116.388 109.410 106.352  1.00  0.00     0.000 C 
BRANCH   5   6
ATOM      6  C   UNL     1     115.550 108.993 107.564  1.00  0.00    -0.003 C 
ATOM      7  C   UNL     1     114.854 110.196 108.195  1.00  0.00     0.004 C 
ENDBRANCH   5   6
ENDBRANCH   4   5
ENDBRANCH   3   4
ENDBRANCH   1   3
BRANCH   1   8
ATOM      8  C   UNL     1     119.386 109.338 109.715  1.00  0.00     0.075 C 
BRANCH   8   9
ATOM      9  C   UNL     1     118.225 110.330 109.875  1.00  0.00     0.008 C 
BRANCH   9  10
ATOM     10  C   UNL     1     118.635 111.777 109.554  1.00  0.00     0.000 C 
BRANCH  10  11
ATOM     11  C   UNL     1     118.066 112.268 108.216  1.00  0.00    -0.003 C 
ATOM     12  C   UNL     1     119.128 112.231 107.121  1.00  0.00     0.004 C 
ENDBRANCH  10  11
ENDBRANCH   9  10
ENDBRANCH   8   9
ENDBRANCH   1   8
TORSDOF 8
ENDMDL
MODEL 5
REMARK VINA RESULT:    -2.033     11.533     13.510
REMARK INTER + INTRA:          -4.298
REMARK INTER:                  -3.144
REMARK INTRA:                  -1.154
REMARK UNBOUND:                -1.314
REMARK SMILES CCCCCC(=O)CCCCC
REMARK SMILES IDX 6 1 7 2 5 3 4 4 3 5 2 6 1 7 8 8 9 9 10 10 11 11 12 12
REMARK H PARENT
REMARK Flexibility Score: inf
ROOT
ATOM      1  C   UNL     1     124.947 115.852 107.813  1.00  0.00     0.132 C 
ATOM      2  O   UNL     1     126.113 115.856 108.181  1.00  0.00    -0.300 OA
ENDROOT
BRANCH   1   3
ATOM      3  C   UNL     1     124.076 114.666 108.136  1.00  0.00     0.075 C 
BRANCH   3   4
ATOM      4  C   UNL     1     122.729 115.125 108.703  1.00  0.00     0.008 C 
BRANCH   4   5
ATOM      5  C   UNL     1     121.584 114.802 107.735  1.00  0.00     0.000 C 
BRANCH   5   6
ATOM      6  C   UNL     1     120.732 116.044 107.458  1.00  0.00    -0.003 C 
ATOM      7  C   UNL     1     120.878 116.503 106.010  1.00  0.00     0.004 C 
ENDBRANCH   5   6
ENDBRANCH   4   5
ENDBRANCH   3   4
ENDBRANCH   1   3
BRANCH   1   8
ATOM      8  C   UNL     1     124.416 117.023 107.029  1.00  0.00     0.075 C 
BRANCH   8   9
ATOM      9  C   UNL     1     124.431 118.296 107.888  1.00  0.00     0.008 C 
BRANCH   9  10
ATOM     10  C   UNL     1     123.048 118.961 107.985  1.00  0.00     0.000 C 
BRANCH  10  11
ATOM     11  C   UNL     1     122.594 119.167 109.437  1.00  0.00    -0.003 C 
ATOM     12  C   UNL     1     121.078 119.042 109.561  1.00  0.00     0.004 C 
ENDBRANCH  10  11
ENDBRANCH   9  10
ENDBRANCH   8   9
ENDBRANCH   1   8
TORSDOF 8
ENDMDL
MODEL 6
REMARK VINA RESULT:    -2.031      2.518      4.369
REMARK INTER + INTRA:          -4.295
REMARK INTER:                  -2.902
REMARK INTRA:                  -1.394
REMARK UNBOUND:                -1.314
REMARK SMILES CCCCCC(=O)CCCCC
REMARK SMILES IDX 6 1 7 2 5 3 4 4 3 5 2 6 1 7 8 8 9 9 10 10 11 11 12 12
REMARK H PARENT
REMARK Flexibility Score: inf
ROOT
ATOM      1  C   UNL     1     108.071 116.889 108.067  1.00  0.00     0.132 C 
ATOM      2  O   UNL     1     107.341 117.817 108.385  1.00  0.00    -0.300 OA
ENDROOT
BRANCH   1   3
ATOM      3  C   UNL     1     109.423 116.759 108.719  1.00  0.00     0.075 C 
BRANCH   3   4
ATOM      4  C   UNL     1     110.442 116.175 107.735  1.00  0.00     0.008 C 
BRANCH   4   5
ATOM      5  C   UNL     1     110.929 114.797 108.199  1.00  0.00     0.000 C 
BRANCH   5   6
ATOM      6  C   UNL     1     110.327 114.430 109.558  1.00  0.00    -0.003 C 
ATOM      7  C   UNL     1     110.038 112.934 109.649  1.00  0.00     0.004 C 
ENDBRANCH   5   6
ENDBRANCH   4   5
ENDBRANCH   3   4
ENDBRANCH   1   3
BRANCH   1   8
ATOM      8  C   UNL     1     107.609 115.911 107.020  1.00  0.00     0.075 C 
BRANCH   8   9
ATOM      9  C   UNL     1     106.763 114.799 107.657  1.00  0.00     0.008 C 
BRANCH   9  10
ATOM     10  C   UNL     1     107.198 113.395 107.209  1.00  0.00     0.000 C 
BRANCH  10  11
ATOM     11  C   UNL     1     108.240 113.431 106.083  1.00  0.00    -0.003 C 
ATOM     12  C   UNL     1     109.165 112.220 106.151  1.00  0.00     0.004 C 
ENDBRANCH  10  11
ENDBRANCH   9  10
ENDBRANCH   8   9
ENDBRANCH   1   8
TORSDOF 8
ENDMDL
MODEL 7
REMARK VINA RESULT:    -2.031      7.684      9.671
REMARK INTER + INTRA:          -4.295
REMARK INTER:                  -2.873
REMARK INTRA:                  -1.422
REMARK UNBOUND:                -1.314
REMARK SMILES CCCCCC(=O)CCCCC
REMARK SMILES IDX 6 1 7 2 5 3 4 4 3 5 2 6 1 7 8 8 9 9 10 10 11 11 12 12
REMARK H PARENT
REMARK Flexibility Score: inf
ROOT
ATOM      1  C   UNL     1     113.413 123.556 107.662  1.00  0.00     0.132 C 
ATOM      2  O   UNL     1     113.446 124.618 108.268  1.00  0.00    -0.300 OA
ENDROOT
BRANCH   1   3
ATOM      3  C   UNL     1     112.679 122.387 108.264  1.00  0.00     0.075 C 
BRANCH   3   4
ATOM      4  C   UNL     1     113.192 122.097 109.678  1.00  0.00     0.008 C 
BRANCH   4   5
ATOM      5  C   UNL     1     113.679 120.649 109.803  1.00  0.00     0.000 C 
BRANCH   5   6
ATOM      6  C   UNL     1     113.129 119.784 108.664  1.00  0.00    -0.003 C 
ATOM      7  C   UNL     1     114.204 118.857 108.105  1.00  0.00     0.004 C 
ENDBRANCH   5   6
ENDBRANCH   4   5
ENDBRANCH   3   4
ENDBRANCH   1   3
BRANCH   1   8
ATOM      8  C   UNL     1     114.122 123.440 106.339  1.00  0.00     0.075 C 
BRANCH   8   9
ATOM      9  C   UNL     1     114.775 122.057 106.198  1.00  0.00     0.008 C 
BRANCH   9  10
ATOM     10  C   UNL     1     116.296 122.095 106.419  1.00  0.00     0.000 C 
BRANCH  10  11
ATOM     11  C   UNL     1     116.702 121.601 107.815  1.00  0.00    -0.003 C 
ATOM     12  C   UNL     1     116.912 122.771 108.771  1.00  0.00     0.004 C 
ENDBRANCH  10  11
ENDBRANCH   9  10
ENDBRANCH   8   9
ENDBRANCH   1   8
TORSDOF 8
ENDMDL
MODEL 8
REMARK VINA RESULT:    -2.016      1.433      4.036
REMARK INTER + INTRA:          -4.272
REMARK INTER:                  -3.122
REMARK INTRA:                  -1.150
REMARK UNBOUND:                -1.314
REMARK SMILES CCCCCC(=O)CCCCC
REMARK SMILES IDX 6 1 7 2 5 3 4 4 3 5 2 6 1 7 8 8 9 9 10 10 11 11 12 12
REMARK H PARENT
REMARK Flexibility Score: inf
ROOT
ATOM      1  C   UNL     1     108.841 113.185 107.260  1.00  0.00     0.132 C 
ATOM      2  O   UNL     1     109.493 112.343 106.660  1.00  0.00    -0.300 OA
ENDROOT
BRANCH   1   3
ATOM      3  C   UNL     1     108.228 112.834 108.590  1.00  0.00     0.075 C 
BRANCH   3   4
ATOM      4  C   UNL     1     109.305 112.371 109.575  1.00  0.00     0.008 C 
BRANCH   4   5
ATOM      5  C   UNL     1     110.274 113.511 109.910  1.00  0.00     0.000 C 
BRANCH   5   6
ATOM      6  C   UNL     1     111.723 113.103 109.625  1.00  0.00    -0.003 C 
ATOM      7  C   UNL     1     112.318 113.933 108.492  1.00  0.00     0.004 C 
ENDBRANCH   5   6
ENDBRANCH   4   5
ENDBRANCH   3   4
ENDBRANCH   1   3
BRANCH   1   8
ATOM      8  C   UNL     1     108.651 114.547 106.644  1.00  0.00     0.075 C 
BRANCH   8   9
ATOM      9  C   UNL     1     107.744 115.416 107.528  1.00  0.00     0.008 C 
BRANCH   9  10
ATOM     10  C   UNL     1     108.340 116.806 107.801  1.00  0.00     0.000 C 
BRANCH  10  11
ATOM     11  C   UNL     1     109.700 116.738 108.509  1.00  0.00    -0.003 C 
ATOM     12  C   UNL     1     110.792 117.389 107.666  1.00  0.00     0.004 C 
ENDBRANCH  10  11
ENDBRANCH   9  10
ENDBRANCH   8   9
ENDBRANCH   1   8
TORSDOF 8
ENDMDL
MODEL 9
REMARK VINA RESULT:    -2.004      9.828     11.561
REMARK INTER + INTRA:          -4.256
REMARK INTER:                  -2.841
REMARK INTRA:                  -1.415
REMARK UNBOUND:                -1.314
REMARK SMILES CCCCCC(=O)CCCCC
REMARK SMILES IDX 6 1 7 2 5 3 4 4 3 5 2 6 1 7 8 8 9 9 10 10 11 11 12 12
REMARK H PARENT
REMARK Flexibility Score: inf
ROOT
ATOM      1  C   UNL     1     119.028 117.546 107.820  1.00  0.00     0.132 C 
ATOM      2  O   UNL     1     117.811 117.645 107.872  1.00  0.00    -0.300 OA
ENDROOT
BRANCH   1   3
ATOM      3  C   UNL     1     119.882 118.687 108.305  1.00  0.00     0.075 C 
BRANCH   3   4
ATOM      4  C   UNL     1     120.443 118.387 109.699  1.00  0.00     0.008 C 
BRANCH   4   5
ATOM      5  C   UNL     1     121.958 118.613 109.745  1.00  0.00     0.000 C 
BRANCH   5   6
ATOM      6  C   UNL     1     122.464 119.218 108.432  1.00  0.00    -0.003 C 
ATOM      7  C   UNL     1     123.898 118.784 108.140  1.00  0.00     0.004 C 
ENDBRANCH   5   6
ENDBRANCH   4   5
ENDBRANCH   3   4
ENDBRANCH   1   3
BRANCH   1   8
ATOM      8  C   UNL     1     119.642 116.293 107.254  1.00  0.00     0.075 C 
BRANCH   8   9
ATOM      9  C   UNL     1     120.788 116.642 106.292  1.00  0.00     0.008 C 
BRANCH   9  10
ATOM     10  C   UNL     1     122.112 115.964 106.679  1.00  0.00     0.000 C 
BRANCH  10  11
ATOM     11  C   UNL     1     122.056 115.306 108.065  1.00  0.00    -0.003 C 
ATOM     12  C   UNL     1     123.447 114.888 108.530  1.00  0.00     0.004 C 
ENDBRANCH  10  11
ENDBRANCH   9  10
ENDBRANCH   8   9
ENDBRANCH   1   8
TORSDOF 8
ENDMDL
