MODEL 1
REMARK VINA RESULT:    -4.478      0.000      0.000
REMARK INTER + INTRA:          -9.932
REMARK INTER:                  -8.405
REMARK INTRA:                  -1.527
REMARK UNBOUND:                -1.527
REMARK SMILES CCCCCCCCC=CCCCCCCCC(=O)[O-]
REMARK SMILES IDX 10 1 9 2 11 3 12 4 13 5 14 6 15 7 16 8 17 9 18 10 19 11
REMARK SMILES IDX 20 12 8 13 7 14 6 15 5 16 4 17 3 18 2 19 1 20
REMARK H PARENT
REMARK Flexibility Score: inf
ROOT
ATOM      1  C   UNL     1       6.430   4.484  32.486  1.00  0.00    -0.031 C 
ATOM      2  C   UNL     1       6.442   5.822  32.634  1.00  0.00    -0.031 C 
ENDROOT
BRANCH   1   3
ATOM      3  C   UNL     1       5.630   3.518  33.329  1.00  0.00     0.027 C 
BRANCH   3   4
ATOM      4  C   UNL     1       5.008   2.398  32.479  1.00  0.00     0.004 C 
BRANCH   4   5
ATOM      5  C   UNL     1       3.485   2.231  32.652  1.00  0.00     0.000 C 
BRANCH   5   6
ATOM      6  C   UNL     1       2.944   0.879  32.138  1.00  0.00     0.000 C 
BRANCH   6   7
ATOM      7  C   UNL     1       4.034  -0.206  32.092  1.00  0.00     0.000 C 
BRANCH   7   8
ATOM      8  C   UNL     1       3.505  -1.599  32.478  1.00  0.00     0.006 C 
BRANCH   8   9
ATOM      9  C   UNL     1       4.297  -2.283  33.605  1.00  0.00     0.053 C 
BRANCH   9  10
ATOM     10  C   UNL     1       3.483  -3.321  34.316  1.00  0.00     0.041 C 
ATOM     11  O   UNL     1       2.268  -3.479  34.029  1.00  0.00    -0.550 OA
ATOM     12  O   UNL     1       4.062  -4.098  35.312  1.00  0.00    -0.550 OA
ENDBRANCH   9  10
ENDBRANCH   8   9
ENDBRANCH   7   8
ENDBRANCH   6   7
ENDBRANCH   5   6
ENDBRANCH   4   5
ENDBRANCH   3   4
ENDBRANCH   1   3
BRANCH   2  13
ATOM     13  C   UNL     1       5.634   6.600  33.645  1.00  0.00     0.027 C 
BRANCH  13  14
ATOM     14  C   UNL     1       6.365   7.843  34.177  1.00  0.00     0.004 C 
BRANCH  14  15
ATOM     15  C   UNL     1       5.527   8.619  35.205  1.00  0.00     0.000 C 
BRANCH  15  16
ATOM     16  C   UNL     1       4.399   7.744  35.765  1.00  0.00     0.000 C 
BRANCH  16  17
ATOM     17  C   UNL     1       4.698   7.319  37.209  1.00  0.00    -0.000 C 
BRANCH  17  18
ATOM     18  C   UNL     1       5.281   5.897  37.306  1.00  0.00    -0.000 C 
BRANCH  18  19
ATOM     19  C   UNL     1       6.818   5.831  37.362  1.00  0.00    -0.003 C 
ATOM     20  C   UNL     1       7.411   4.842  36.359  1.00  0.00     0.004 C 
ENDBRANCH  18  19
ENDBRANCH  17  18
ENDBRANCH  16  17
ENDBRANCH  15  16
ENDBRANCH  14  15
ENDBRANCH  13  14
ENDBRANCH   2  13
TORSDOF 15
ENDMDL
MODEL 2
REMARK VINA RESULT:    -4.305      1.579      3.446
REMARK INTER + INTRA:          -9.607
REMARK INTER:                  -8.686
REMARK INTRA:                  -0.921
REMARK UNBOUND:                -1.527
REMARK SMILES CCCCCCCCC=CCCCCCCCC(=O)[O-]
REMARK SMILES IDX 10 1 9 2 11 3 12 4 13 5 14 6 15 7 16 8 17 9 18 10 19 11
REMARK SMILES IDX 20 12 8 13 7 14 6 15 5 16 4 17 3 18 2 19 1 20
REMARK H PARENT
REMARK Flexibility Score: inf
ROOT
ATOM      1  C   UNL     1       3.357   1.843  32.173  1.00  0.00    -0.031 C 
ATOM      2  C   UNL     1       4.295   2.494  32.887  1.00  0.00    -0.031 C 
ENDROOT
BRANCH   1   3
ATOM      3  C   UNL     1       3.608   1.059  30.906  1.00  0.00     0.027 C 
BRANCH   3   4
ATOM      4  C   UNL     1       3.456  -0.454  31.131  1.00  0.00     0.004 C 
BRANCH   4   5
ATOM      5  C   UNL     1       2.983  -0.850  32.544  1.00  0.00     0.000 C 
BRANCH   5   6
ATOM      6  C   UNL     1       2.259  -2.212  32.600  1.00  0.00     0.000 C 
BRANCH   6   7
ATOM      7  C   UNL     1       2.128  -2.743  34.039  1.00  0.00     0.000 C 
BRANCH   7   8
ATOM      8  C   UNL     1       3.298  -3.657  34.446  1.00  0.00     0.006 C 
BRANCH   8   9
ATOM      9  C   UNL     1       4.184  -3.083  35.563  1.00  0.00     0.053 C 
BRANCH   9  10
ATOM     10  C   UNL     1       5.038  -4.135  36.202  1.00  0.00     0.041 C 
ATOM     11  O   UNL     1       4.799  -5.355  36.000  1.00  0.00    -0.550 OA
ATOM     12  O   UNL     1       6.086  -3.770  37.038  1.00  0.00    -0.550 OA
ENDBRANCH   9  10
ENDBRANCH   8   9
ENDBRANCH   7   8
ENDBRANCH   6   7
ENDBRANCH   5   6
ENDBRANCH   4   5
ENDBRANCH   3   4
ENDBRANCH   1   3
BRANCH   2  13
ATOM     13  C   UNL     1       5.771   2.529  32.568  1.00  0.00     0.027 C 
BRANCH  13  14
ATOM     14  C   UNL     1       6.272   3.929  32.179  1.00  0.00     0.004 C 
BRANCH  14  15
ATOM     15  C   UNL     1       5.918   4.990  33.231  1.00  0.00     0.000 C 
BRANCH  15  16
ATOM     16  C   UNL     1       6.581   4.672  34.577  1.00  0.00     0.000 C 
BRANCH  16  17
ATOM     17  C   UNL     1       7.464   5.838  35.045  1.00  0.00    -0.000 C 
BRANCH  17  18
ATOM     18  C   UNL     1       6.951   6.495  36.339  1.00  0.00    -0.000 C 
BRANCH  18  19
ATOM     19  C   UNL     1       5.437   6.773  36.367  1.00  0.00    -0.003 C 
ATOM     20  C   UNL     1       4.741   6.172  37.587  1.00  0.00     0.004 C 
ENDBRANCH  18  19
ENDBRANCH  17  18
ENDBRANCH  16  17
ENDBRANCH  15  16
ENDBRANCH  14  15
ENDBRANCH  13  14
ENDBRANCH   2  13
TORSDOF 15
ENDMDL
MODEL 3
REMARK VINA RESULT:    -4.260      3.817      8.736
REMARK INTER + INTRA:          -9.523
REMARK INTER:                  -8.618
REMARK INTRA:                  -0.904
REMARK UNBOUND:                -1.527
REMARK SMILES CCCCCCCCC=CCCCCCCCC(=O)[O-]
REMARK SMILES IDX 10 1 9 2 11 3 12 4 13 5 14 6 15 7 16 8 17 9 18 10 19 11
REMARK SMILES IDX 20 12 8 13 7 14 6 15 5 16 4 17 3 18 2 19 1 20
REMARK H PARENT
REMARK Flexibility Score: inf
ROOT
ATOM      1  C   UNL     1       3.398  -0.565  31.745  1.00  0.00    -0.031 C 
ATOM      2  C   UNL     1       2.929  -1.744  32.196  1.00  0.00    -0.031 C 
ENDROOT
BRANCH   1   3
ATOM      3  C   UNL     1       3.099   0.786  32.352  1.00  0.00     0.027 C 
BRANCH   3   4
ATOM      4  C   UNL     1       3.911   1.907  31.682  1.00  0.00     0.004 C 
BRANCH   4   5
ATOM      5  C   UNL     1       5.322   2.115  32.267  1.00  0.00     0.000 C 
BRANCH   5   6
ATOM      6  C   UNL     1       5.451   3.373  33.152  1.00  0.00     0.000 C 
BRANCH   6   7
ATOM      7  C   UNL     1       6.306   4.467  32.489  1.00  0.00     0.000 C 
BRANCH   7   8
ATOM      8  C   UNL     1       6.771   5.545  33.484  1.00  0.00     0.006 C 
BRANCH   8   9
ATOM      9  C   UNL     1       6.497   5.203  34.957  1.00  0.00     0.053 C 
BRANCH   9  10
ATOM     10  C   UNL     1       7.732   5.301  35.799  1.00  0.00     0.041 C 
ATOM     11  O   UNL     1       8.647   6.109  35.490  1.00  0.00    -0.550 OA
ATOM     12  O   UNL     1       7.884   4.484  36.912  1.00  0.00    -0.550 OA
ENDBRANCH   9  10
ENDBRANCH   8   9
ENDBRANCH   7   8
ENDBRANCH   6   7
ENDBRANCH   5   6
ENDBRANCH   4   5
ENDBRANCH   3   4
ENDBRANCH   1   3
BRANCH   2  13
ATOM     13  C   UNL     1       2.047  -1.931  33.408  1.00  0.00     0.027 C 
BRANCH  13  14
ATOM     14  C   UNL     1       2.120  -3.349  33.995  1.00  0.00     0.004 C 
BRANCH  14  15
ATOM     15  C   UNL     1       3.563  -3.783  34.297  1.00  0.00     0.000 C 
BRANCH  15  16
ATOM     16  C   UNL     1       4.115  -3.039  35.519  1.00  0.00     0.000 C 
BRANCH  16  17
ATOM     17  C   UNL     1       5.644  -3.151  35.586  1.00  0.00    -0.000 C 
BRANCH  17  18
ATOM     18  C   UNL     1       6.185  -3.123  37.028  1.00  0.00    -0.000 C 
BRANCH  18  19
ATOM     19  C   UNL     1       5.578  -4.181  37.967  1.00  0.00    -0.003 C 
ATOM     20  C   UNL     1       5.901  -5.613  37.543  1.00  0.00     0.004 C 
ENDBRANCH  18  19
ENDBRANCH  17  18
ENDBRANCH  16  17
ENDBRANCH  15  16
ENDBRANCH  14  15
ENDBRANCH  13  14
ENDBRANCH   2  13
TORSDOF 15
ENDMDL
MODEL 4
REMARK VINA RESULT:    -4.234      7.889      9.579
REMARK INTER + INTRA:          -9.474
REMARK INTER:                  -6.292
REMARK INTRA:                  -3.182
REMARK UNBOUND:                -1.527
REMARK SMILES CCCCCCCCC=CCCCCCCCC(=O)[O-]
REMARK SMILES IDX 10 1 9 2 11 3 12 4 13 5 14 6 15 7 16 8 17 9 18 10 19 11
REMARK SMILES IDX 20 12 8 13 7 14 6 15 5 16 4 17 3 18 2 19 1 20
REMARK H PARENT
REMARK Flexibility Score: inf
ROOT
ATOM      1  C   UNL     1      11.686   8.261  28.668  1.00  0.00    -0.031 C 
ATOM      2  C   UNL     1      12.393   9.102  29.447  1.00  0.00    -0.031 C 
ENDROOT
BRANCH   1   3
ATOM      3  C   UNL     1      11.671   6.755  28.795  1.00  0.00     0.027 C 
BRANCH   3   4
ATOM      4  C   UNL     1      12.496   6.080  27.687  1.00  0.00     0.004 C 
BRANCH   4   5
ATOM      5  C   UNL     1      13.404   4.932  28.171  1.00  0.00     0.000 C 
BRANCH   5   6
ATOM      6  C   UNL     1      14.339   5.325  29.335  1.00  0.00     0.000 C 
BRANCH   6   7
ATOM      7  C   UNL     1      14.254   4.335  30.510  1.00  0.00     0.000 C 
BRANCH   7   8
ATOM      8  C   UNL     1      12.864   3.690  30.648  1.00  0.00     0.006 C 
BRANCH   8   9
ATOM      9  C   UNL     1      12.895   2.191  30.989  1.00  0.00     0.053 C 
BRANCH   9  10
ATOM     10  C   UNL     1      13.590   1.388  29.933  1.00  0.00     0.041 C 
ATOM     11  O   UNL     1      14.596   0.690  30.227  1.00  0.00    -0.550 OA
ATOM     12  O   UNL     1      13.141   1.427  28.619  1.00  0.00    -0.550 OA
ENDBRANCH   9  10
ENDBRANCH   8   9
ENDBRANCH   7   8
ENDBRANCH   6   7
ENDBRANCH   5   6
ENDBRANCH   4   5
ENDBRANCH   3   4
ENDBRANCH   1   3
BRANCH   2  13
ATOM     13  C   UNL     1      13.269   8.695  30.608  1.00  0.00     0.027 C 
BRANCH  13  14
ATOM     14  C   UNL     1      12.492   8.526  31.923  1.00  0.00     0.004 C 
BRANCH  14  15
ATOM     15  C   UNL     1      12.604   7.102  32.489  1.00  0.00     0.000 C 
BRANCH  15  16
ATOM     16  C   UNL     1      11.233   6.416  32.523  1.00  0.00     0.000 C 
BRANCH  16  17
ATOM     17  C   UNL     1      10.101   7.442  32.366  1.00  0.00    -0.000 C 
BRANCH  17  18
ATOM     18  C   UNL     1       9.065   7.033  31.304  1.00  0.00    -0.000 C 
BRANCH  18  19
ATOM     19  C   UNL     1       8.409   8.206  30.554  1.00  0.00    -0.003 C 
ATOM     20  C   UNL     1       8.994   9.564  30.940  1.00  0.00     0.004 C 
ENDBRANCH  18  19
ENDBRANCH  17  18
ENDBRANCH  16  17
ENDBRANCH  15  16
ENDBRANCH  14  15
ENDBRANCH  13  14
ENDBRANCH   2  13
TORSDOF 15
ENDMDL
MODEL 5
REMARK VINA RESULT:    -4.229     12.396     14.200
REMARK INTER + INTRA:          -9.465
REMARK INTER:                  -7.056
REMARK INTRA:                  -2.409
REMARK UNBOUND:                -1.527
REMARK SMILES CCCCCCCCC=CCCCCCCCC(=O)[O-]
REMARK SMILES IDX 10 1 9 2 11 3 12 4 13 5 14 6 15 7 16 8 17 9 18 10 19 11
REMARK SMILES IDX 20 12 8 13 7 14 6 15 5 16 4 17 3 18 2 19 1 20
REMARK H PARENT
REMARK Flexibility Score: inf
ROOT
ATOM      1  C   UNL     1       6.508   3.116  19.742  1.00  0.00    -0.031 C 
ATOM      2  C   UNL     1       6.003   4.129  19.013  1.00  0.00    -0.031 C 
ENDROOT
BRANCH   1   3
ATOM      3  C   UNL     1       5.843   1.776  19.955  1.00  0.00     0.027 C 
BRANCH   3   4
ATOM      4  C   UNL     1       5.254   1.648  21.369  1.00  0.00     0.004 C 
BRANCH   4   5
ATOM      5  C   UNL     1       3.764   2.029  21.481  1.00  0.00     0.000 C 
BRANCH   5   6
ATOM      6  C   UNL     1       2.932   1.664  20.232  1.00  0.00     0.000 C 
BRANCH   6   7
ATOM      7  C   UNL     1       1.553   2.348  20.231  1.00  0.00     0.000 C 
BRANCH   7   8
ATOM      8  C   UNL     1       0.445   1.454  19.647  1.00  0.00     0.006 C 
BRANCH   8   9
ATOM      9  C   UNL     1      -0.771   1.275  20.570  1.00  0.00     0.053 C 
BRANCH   9  10
ATOM     10  C   UNL     1      -1.657   0.152  20.125  1.00  0.00     0.041 C 
ATOM     11  O   UNL     1      -2.576  -0.267  20.877  1.00  0.00    -0.550 OA
ATOM     12  O   UNL     1      -1.454  -0.448  18.889  1.00  0.00    -0.550 OA
ENDBRANCH   9  10
ENDBRANCH   8   9
ENDBRANCH   7   8
ENDBRANCH   6   7
ENDBRANCH   5   6
ENDBRANCH   4   5
ENDBRANCH   3   4
ENDBRANCH   1   3
BRANCH   2  13
ATOM     13  C   UNL     1       4.700   4.096  18.249  1.00  0.00     0.027 C 
BRANCH  13  14
ATOM     14  C   UNL     1       3.779   5.283  18.573  1.00  0.00     0.004 C 
BRANCH  14  15
ATOM     15  C   UNL     1       3.557   5.455  20.084  1.00  0.00     0.000 C 
BRANCH  15  16
ATOM     16  C   UNL     1       4.083   6.813  20.564  1.00  0.00     0.000 C 
BRANCH  16  17
ATOM     17  C   UNL     1       4.428   6.771  22.060  1.00  0.00    -0.000 C 
BRANCH  17  18
ATOM     18  C   UNL     1       5.906   6.431  22.325  1.00  0.00    -0.000 C 
BRANCH  18  19
ATOM     19  C   UNL     1       6.172   4.966  22.713  1.00  0.00    -0.003 C 
ATOM     20  C   UNL     1       5.522   4.569  24.038  1.00  0.00     0.004 C 
ENDBRANCH  18  19
ENDBRANCH  17  18
ENDBRANCH  16  17
ENDBRANCH  15  16
ENDBRANCH  14  15
ENDBRANCH  13  14
ENDBRANCH   2  13
TORSDOF 15
ENDMDL
MODEL 6
REMARK VINA RESULT:    -4.214     12.592     14.509
REMARK INTER + INTRA:          -9.436
REMARK INTER:                  -6.627
REMARK INTRA:                  -2.809
REMARK UNBOUND:                -1.527
REMARK SMILES CCCCCCCCC=CCCCCCCCC(=O)[O-]
REMARK SMILES IDX 10 1 9 2 11 3 12 4 13 5 14 6 15 7 16 8 17 9 18 10 19 11
REMARK SMILES IDX 20 12 8 13 7 14 6 15 5 16 4 17 3 18 2 19 1 20
REMARK H PARENT
REMARK Flexibility Score: inf
ROOT
ATOM      1  C   UNL     1       5.747   3.468  21.785  1.00  0.00    -0.031 C 
ATOM      2  C   UNL     1       6.289   3.382  20.556  1.00  0.00    -0.031 C 
ENDROOT
BRANCH   1   3
ATOM      3  C   UNL     1       4.435   2.849  22.208  1.00  0.00     0.027 C 
BRANCH   3   4
ATOM      4  C   UNL     1       3.292   3.878  22.213  1.00  0.00     0.004 C 
BRANCH   4   5
ATOM      5  C   UNL     1       1.981   3.384  21.570  1.00  0.00     0.000 C 
BRANCH   5   6
ATOM      6  C   UNL     1       2.172   2.209  20.587  1.00  0.00     0.000 C 
BRANCH   6   7
ATOM      7  C   UNL     1       1.464   2.452  19.242  1.00  0.00     0.000 C 
BRANCH   7   8
ATOM      8  C   UNL     1       1.101   1.145  18.514  1.00  0.00     0.006 C 
BRANCH   8   9
ATOM      9  C   UNL     1       0.803  -0.036  19.452  1.00  0.00     0.053 C 
BRANCH   9  10
ATOM     10  C   UNL     1      -0.663  -0.185  19.722  1.00  0.00     0.041 C 
ATOM     11  O   UNL     1      -1.116   0.005  20.882  1.00  0.00    -0.550 OA
ATOM     12  O   UNL     1      -1.526  -0.557  18.699  1.00  0.00    -0.550 OA
ENDBRANCH   9  10
ENDBRANCH   8   9
ENDBRANCH   7   8
ENDBRANCH   6   7
ENDBRANCH   5   6
ENDBRANCH   4   5
ENDBRANCH   3   4
ENDBRANCH   1   3
BRANCH   2  13
ATOM     13  C   UNL     1       5.701   2.623  19.389  1.00  0.00     0.027 C 
BRANCH  13  14
ATOM     14  C   UNL     1       4.820   3.496  18.482  1.00  0.00     0.004 C 
BRANCH  14  15
ATOM     15  C   UNL     1       5.099   4.996  18.664  1.00  0.00     0.000 C 
BRANCH  15  16
ATOM     16  C   UNL     1       3.794   5.802  18.654  1.00  0.00     0.000 C 
BRANCH  16  17
ATOM     17  C   UNL     1       3.698   6.708  19.889  1.00  0.00    -0.000 C 
BRANCH  17  18
ATOM     18  C   UNL     1       5.042   6.866  20.623  1.00  0.00    -0.000 C 
BRANCH  18  19
ATOM     19  C   UNL     1       4.925   7.156  22.130  1.00  0.00    -0.003 C 
ATOM     20  C   UNL     1       6.231   7.656  22.746  1.00  0.00     0.004 C 
ENDBRANCH  18  19
ENDBRANCH  17  18
ENDBRANCH  16  17
ENDBRANCH  15  16
ENDBRANCH  14  15
ENDBRANCH  13  14
ENDBRANCH   2  13
TORSDOF 15
ENDMDL
MODEL 7
REMARK VINA RESULT:    -4.212     12.315     14.459
REMARK INTER + INTRA:          -9.432
REMARK INTER:                  -6.512
REMARK INTRA:                  -2.920
REMARK UNBOUND:                -1.527
REMARK SMILES CCCCCCCCC=CCCCCCCCC(=O)[O-]
REMARK SMILES IDX 10 1 9 2 11 3 12 4 13 5 14 6 15 7 16 8 17 9 18 10 19 11
REMARK SMILES IDX 20 12 8 13 7 14 6 15 5 16 4 17 3 18 2 19 1 20
REMARK H PARENT
REMARK Flexibility Score: inf
ROOT
ATOM      1  C   UNL     1       3.672   4.795  19.449  1.00  0.00    -0.031 C 
ATOM      2  C   UNL     1       4.952   5.011  19.804  1.00  0.00    -0.031 C 
ENDROOT
BRANCH   1   3
ATOM      3  C   UNL     1       3.204   3.776  18.435  1.00  0.00     0.027 C 
BRANCH   3   4
ATOM      4  C   UNL     1       2.031   2.937  18.968  1.00  0.00     0.004 C 
BRANCH   4   5
ATOM      5  C   UNL     1       1.522   1.854  17.995  1.00  0.00     0.000 C 
BRANCH   5   6
ATOM      6  C   UNL     1       0.662   0.765  18.671  1.00  0.00     0.000 C 
BRANCH   6   7
ATOM      7  C   UNL     1       1.411   0.052  19.810  1.00  0.00     0.000 C 
BRANCH   7   8
ATOM      8  C   UNL     1       0.714   0.210  21.173  1.00  0.00     0.006 C 
BRANCH   8   9
ATOM      9  C   UNL     1      -0.400   1.270  21.191  1.00  0.00     0.053 C 
BRANCH   9  10
ATOM     10  C   UNL     1      -1.736   0.678  21.523  1.00  0.00     0.041 C 
ATOM     11  O   UNL     1      -2.718   1.428  21.765  1.00  0.00    -0.550 OA
ATOM     12  O   UNL     1      -1.891  -0.701  21.588  1.00  0.00    -0.550 OA
ENDBRANCH   9  10
ENDBRANCH   8   9
ENDBRANCH   7   8
ENDBRANCH   6   7
ENDBRANCH   5   6
ENDBRANCH   4   5
ENDBRANCH   3   4
ENDBRANCH   1   3
BRANCH   2  13
ATOM     13  C   UNL     1       6.148   4.252  19.279  1.00  0.00     0.027 C 
BRANCH  13  14
ATOM     14  C   UNL     1       6.588   3.103  20.200  1.00  0.00     0.004 C 
BRANCH  14  15
ATOM     15  C   UNL     1       6.149   1.729  19.671  1.00  0.00     0.000 C 
BRANCH  15  16
ATOM     16  C   UNL     1       4.989   1.167  20.501  1.00  0.00     0.000 C 
BRANCH  16  17
ATOM     17  C   UNL     1       4.979   1.771  21.913  1.00  0.00    -0.000 C 
BRANCH  17  18
ATOM     18  C   UNL     1       3.633   2.426  22.275  1.00  0.00    -0.000 C 
BRANCH  18  19
ATOM     19  C   UNL     1       3.705   3.468  23.405  1.00  0.00    -0.003 C 
ATOM     20  C   UNL     1       5.035   4.219  23.443  1.00  0.00     0.004 C 
ENDBRANCH  18  19
ENDBRANCH  17  18
ENDBRANCH  16  17
ENDBRANCH  15  16
ENDBRANCH  14  15
ENDBRANCH  13  14
ENDBRANCH   2  13
TORSDOF 15
ENDMDL
MODEL 8
REMARK VINA RESULT:    -4.207      5.364      7.927
REMARK INTER + INTRA:          -9.424
REMARK INTER:                  -8.398
REMARK INTRA:                  -1.026
REMARK UNBOUND:                -1.527
REMARK SMILES CCCCCCCCC=CCCCCCCCC(=O)[O-]
REMARK SMILES IDX 10 1 9 2 11 3 12 4 13 5 14 6 15 7 16 8 17 9 18 10 19 11
REMARK SMILES IDX 20 12 8 13 7 14 6 15 5 16 4 17 3 18 2 19 1 20
REMARK H PARENT
REMARK Flexibility Score: inf
ROOT
ATOM      1  C   UNL     1       2.614  -0.153  27.913  1.00  0.00    -0.031 C 
ATOM      2  C   UNL     1       1.730   0.494  27.132  1.00  0.00    -0.031 C 
ENDROOT
BRANCH   1   3
ATOM      3  C   UNL     1       2.653  -0.097  29.423  1.00  0.00     0.027 C 
BRANCH   3   4
ATOM      4  C   UNL     1       3.435   1.125  29.930  1.00  0.00     0.004 C 
BRANCH   4   5
ATOM      5  C   UNL     1       3.952   1.003  31.377  1.00  0.00     0.000 C 
BRANCH   5   6
ATOM      6  C   UNL     1       2.999   0.231  32.316  1.00  0.00     0.000 C 
BRANCH   6   7
ATOM      7  C   UNL     1       3.601  -1.104  32.790  1.00  0.00     0.000 C 
BRANCH   7   8
ATOM      8  C   UNL     1       2.546  -2.214  32.939  1.00  0.00     0.006 C 
BRANCH   8   9
ATOM      9  C   UNL     1       2.438  -2.793  34.359  1.00  0.00     0.053 C 
BRANCH   9  10
ATOM     10  C   UNL     1       3.649  -3.590  34.736  1.00  0.00     0.041 C 
ATOM     11  O   UNL     1       3.753  -4.793  34.377  1.00  0.00    -0.550 OA
ATOM     12  O   UNL     1       4.652  -3.013  35.504  1.00  0.00    -0.550 OA
ENDBRANCH   9  10
ENDBRANCH   8   9
ENDBRANCH   7   8
ENDBRANCH   6   7
ENDBRANCH   5   6
ENDBRANCH   4   5
ENDBRANCH   3   4
ENDBRANCH   1   3
BRANCH   2  13
ATOM     13  C   UNL     1       0.597   1.364  27.623  1.00  0.00     0.027 C 
BRANCH  13  14
ATOM     14  C   UNL     1      -0.362   1.798  26.503  1.00  0.00     0.004 C 
BRANCH  14  15
ATOM     15  C   UNL     1      -0.288   3.306  26.222  1.00  0.00     0.000 C 
BRANCH  15  16
ATOM     16  C   UNL     1      -1.689   3.930  26.200  1.00  0.00     0.000 C 
BRANCH  16  17
ATOM     17  C   UNL     1      -1.888   4.875  27.394  1.00  0.00    -0.000 C 
BRANCH  17  18
ATOM     18  C   UNL     1      -0.649   4.964  28.302  1.00  0.00    -0.000 C 
BRANCH  18  19
ATOM     19  C   UNL     1      -0.001   6.358  28.377  1.00  0.00    -0.003 C 
ATOM     20  C   UNL     1      -0.136   7.151  27.079  1.00  0.00     0.004 C 
ENDBRANCH  18  19
ENDBRANCH  17  18
ENDBRANCH  16  17
ENDBRANCH  15  16
ENDBRANCH  14  15
ENDBRANCH  13  14
ENDBRANCH   2  13
TORSDOF 15
ENDMDL
MODEL 9
REMARK VINA RESULT:    -4.204     13.442     16.301
REMARK INTER + INTRA:          -9.419
REMARK INTER:                  -7.215
REMARK INTRA:                  -2.204
REMARK UNBOUND:                -1.527
REMARK SMILES CCCCCCCCC=CCCCCCCCC(=O)[O-]
REMARK SMILES IDX 10 1 9 2 11 3 12 4 13 5 14 6 15 7 16 8 17 9 18 10 19 11
REMARK SMILES IDX 20 12 8 13 7 14 6 15 5 16 4 17 3 18 2 19 1 20
REMARK H PARENT
REMARK Flexibility Score: inf
ROOT
ATOM      1  C   UNL     1       4.106   3.171  19.258  1.00  0.00    -0.031 C 
ATOM      2  C   UNL     1       2.951   3.726  19.670  1.00  0.00    -0.031 C 
ENDROOT
BRANCH   1   3
ATOM      3  C   UNL     1       4.875   2.100  19.997  1.00  0.00     0.027 C 
BRANCH   3   4
ATOM      4  C   UNL     1       6.378   2.415  20.059  1.00  0.00     0.004 C 
BRANCH   4   5
ATOM      5  C   UNL     1       6.729   3.741  20.763  1.00  0.00     0.000 C 
BRANCH   5   6
ATOM      6  C   UNL     1       6.073   3.901  22.152  1.00  0.00     0.000 C 
BRANCH   6   7
ATOM      7  C   UNL     1       5.345   5.248  22.302  1.00  0.00     0.000 C 
BRANCH   7   8
ATOM      8  C   UNL     1       5.523   6.162  21.075  1.00  0.00     0.006 C 
BRANCH   8   9
ATOM      9  C   UNL     1       4.293   7.025  20.750  1.00  0.00     0.053 C 
BRANCH   9  10
ATOM     10  C   UNL     1       4.043   7.118  19.276  1.00  0.00     0.041 C 
ATOM     11  O   UNL     1       2.994   7.665  18.844  1.00  0.00    -0.550 OA
ATOM     12  O   UNL     1       4.957   6.579  18.379  1.00  0.00    -0.550 OA
ENDBRANCH   9  10
ENDBRANCH   8   9
ENDBRANCH   7   8
ENDBRANCH   6   7
ENDBRANCH   5   6
ENDBRANCH   4   5
ENDBRANCH   3   4
ENDBRANCH   1   3
BRANCH   2  13
ATOM     13  C   UNL     1       2.199   3.356  20.927  1.00  0.00     0.027 C 
BRANCH  13  14
ATOM     14  C   UNL     1       1.227   2.183  20.726  1.00  0.00     0.004 C 
BRANCH  14  15
ATOM     15  C   UNL     1       0.697   2.103  19.286  1.00  0.00     0.000 C 
BRANCH  15  16
ATOM     16  C   UNL     1       0.728   0.659  18.771  1.00  0.00     0.000 C 
BRANCH  16  17
ATOM     17  C   UNL     1      -0.066  -0.273  19.697  1.00  0.00    -0.000 C 
BRANCH  17  18
ATOM     18  C   UNL     1      -1.541  -0.419  19.279  1.00  0.00    -0.000 C 
BRANCH  18  19
ATOM     19  C   UNL     1      -2.559  -0.203  20.414  1.00  0.00    -0.003 C 
ATOM     20  C   UNL     1      -2.923   1.266  20.620  1.00  0.00     0.004 C 
ENDBRANCH  18  19
ENDBRANCH  17  18
ENDBRANCH  16  17
ENDBRANCH  15  16
ENDBRANCH  14  15
ENDBRANCH  13  14
ENDBRANCH   2  13
TORSDOF 15
ENDMDL
