MODEL 1
REMARK VINA RESULT:    -5.297      0.000      0.000
REMARK INTER + INTRA:          -5.813
REMARK INTER:                  -5.607
REMARK INTRA:                  -0.206
REMARK UNBOUND:                -0.206
REMARK SMILES C=C(C)[C@H]1CC[C@]2(C)CCCC(=C)[C@@H]2C1
REMARK SMILES IDX 4 1 5 2 6 3 7 4 9 5 10 6 11 7 12 8 13 9 14 10 15 11 8 12
REMARK SMILES IDX 2 13 3 14 1 15
REMARK H PARENT
REMARK Flexibility Score: inf
ROOT
ATOM      1  C   UNL     1      30.856   8.477  34.601  1.00  0.00     0.015 C 
ATOM      2  C   UNL     1      30.340   9.919  34.746  1.00  0.00     0.008 C 
ATOM      3  C   UNL     1      30.001  10.526  33.375  1.00  0.00     0.008 C 
ATOM      4  C   UNL     1      31.188  10.469  32.365  1.00  0.00    -0.026 C 
ATOM      5  C   UNL     1      30.729  11.010  30.976  1.00  0.00     0.008 C 
ATOM      6  C   UNL     1      29.754  10.088  30.236  1.00  0.00     0.005 C 
ATOM      7  C   UNL     1      30.351   8.698  30.052  1.00  0.00     0.031 C 
ATOM      8  C   UNL     1      30.789   8.129  31.380  1.00  0.00    -0.074 C 
ATOM      9  C   UNL     1      30.494   6.840  31.649  1.00  0.00     0.008 C 
ATOM     10  C   UNL     1      31.726   8.996  32.240  1.00  0.00     0.021 C 
ATOM     11  C   UNL     1      32.060   8.409  33.639  1.00  0.00     0.016 C 
ATOM     12  C   UNL     1      32.320  11.421  32.841  1.00  0.00     0.012 C 
ENDROOT
BRANCH   1  13
ATOM     13  C   UNL     1      31.204   7.879  35.958  1.00  0.00    -0.077 C 
ATOM     14  C   UNL     1      31.523   8.755  37.143  1.00  0.00     0.039 C 
ATOM     15  C   UNL     1      31.244   6.546  36.116  1.00  0.00     0.008 C 
ENDBRANCH   1  13
TORSDOF 1
ENDMDL
MODEL 2
REMARK VINA RESULT:    -5.148      1.180      4.674
REMARK INTER + INTRA:          -5.655
REMARK INTER:                  -5.451
REMARK INTRA:                  -0.204
REMARK UNBOUND:                -0.206
REMARK SMILES C=C(C)[C@H]1CC[C@]2(C)CCCC(=C)[C@@H]2C1
REMARK SMILES IDX 4 1 5 2 6 3 7 4 9 5 10 6 11 7 12 8 13 9 14 10 15 11 8 12
REMARK SMILES IDX 2 13 3 14 1 15
REMARK H PARENT
REMARK Flexibility Score: inf
ROOT
ATOM      1  C   UNL     1      31.296   8.169  32.523  1.00  0.00     0.015 C 
ATOM      2  C   UNL     1      31.706   9.650  32.588  1.00  0.00     0.008 C 
ATOM      3  C   UNL     1      31.888  10.111  34.043  1.00  0.00     0.008 C 
ATOM      4  C   UNL     1      30.634   9.851  34.934  1.00  0.00    -0.026 C 
ATOM      5  C   UNL     1      30.940  10.253  36.410  1.00  0.00     0.008 C 
ATOM      6  C   UNL     1      31.925   9.318  37.122  1.00  0.00     0.005 C 
ATOM      7  C   UNL     1      31.427   7.878  37.095  1.00  0.00     0.031 C 
ATOM      8  C   UNL     1      31.140   7.443  35.678  1.00  0.00    -0.074 C 
ATOM      9  C   UNL     1      31.555   6.220  35.291  1.00  0.00     0.008 C 
ATOM     10  C   UNL     1      30.207   8.340  34.845  1.00  0.00     0.021 C 
ATOM     11  C   UNL     1      30.030   7.903  33.364  1.00  0.00     0.016 C 
ATOM     12  C   UNL     1      29.472  10.772  34.474  1.00  0.00     0.012 C 
ENDROOT
BRANCH   1  13
ATOM     13  C   UNL     1      31.102   7.714  31.083  1.00  0.00    -0.077 C 
ATOM     14  C   UNL     1      31.563   6.355  30.619  1.00  0.00     0.039 C 
ATOM     15  C   UNL     1      30.520   8.532  30.191  1.00  0.00     0.008 C 
ENDBRANCH   1  13
TORSDOF 1
ENDMDL
MODEL 3
REMARK VINA RESULT:    -4.933      1.803      4.024
REMARK INTER + INTRA:          -5.428
REMARK INTER:                  -5.224
REMARK INTRA:                  -0.204
REMARK UNBOUND:                -0.206
REMARK SMILES C=C(C)[C@H]1CC[C@]2(C)CCCC(=C)[C@@H]2C1
REMARK SMILES IDX 4 1 5 2 6 3 7 4 9 5 10 6 11 7 12 8 13 9 14 10 15 11 8 12
REMARK SMILES IDX 2 13 3 14 1 15
REMARK H PARENT
REMARK Flexibility Score: inf
ROOT
ATOM      1  C   UNL     1      31.109   8.822  37.057  1.00  0.00     0.015 C 
ATOM      2  C   UNL     1      31.127   7.288  37.171  1.00  0.00     0.008 C 
ATOM      3  C   UNL     1      31.280   6.632  35.790  1.00  0.00     0.008 C 
ATOM      4  C   UNL     1      30.197   7.092  34.766  1.00  0.00    -0.026 C 
ATOM      5  C   UNL     1      30.486   6.459  33.369  1.00  0.00     0.008 C 
ATOM      6  C   UNL     1      31.722   7.030  32.667  1.00  0.00     0.005 C 
ATOM      7  C   UNL     1      31.611   8.542  32.511  1.00  0.00     0.031 C 
ATOM      8  C   UNL     1      31.354   9.195  33.847  1.00  0.00    -0.074 C 
ATOM      9  C   UNL     1      32.044  10.313  34.153  1.00  0.00     0.008 C 
ATOM     10  C   UNL     1      30.169   8.662  34.671  1.00  0.00     0.021 C 
ATOM     11  C   UNL     1      30.013   9.296  36.081  1.00  0.00     0.016 C 
ATOM     12  C   UNL     1      28.809   6.549  35.201  1.00  0.00     0.012 C 
ENDROOT
BRANCH   1  13
ATOM     13  C   UNL     1      30.945   9.474  38.424  1.00  0.00    -0.077 C 
ATOM     14  C   UNL     1      30.590   8.660  39.643  1.00  0.00     0.039 C 
ATOM     15  C   UNL     1      31.104  10.800  38.562  1.00  0.00     0.008 C 
ENDBRANCH   1  13
TORSDOF 1
ENDMDL
MODEL 4
REMARK VINA RESULT:    -4.903      4.978      7.507
REMARK INTER + INTRA:          -5.395
REMARK INTER:                  -5.195
REMARK INTRA:                  -0.200
REMARK UNBOUND:                -0.206
REMARK SMILES C=C(C)[C@H]1CC[C@]2(C)CCCC(=C)[C@@H]2C1
REMARK SMILES IDX 4 1 5 2 6 3 7 4 9 5 10 6 11 7 12 8 13 9 14 10 15 11 8 12
REMARK SMILES IDX 2 13 3 14 1 15
REMARK H PARENT
REMARK Flexibility Score: inf
ROOT
ATOM      1  C   UNL     1      30.139   8.097  27.064  1.00  0.00     0.015 C 
ATOM      2  C   UNL     1      29.256   9.270  27.525  1.00  0.00     0.008 C 
ATOM      3  C   UNL     1      28.601   9.975  26.327  1.00  0.00     0.008 C 
ATOM      4  C   UNL     1      29.628  10.452  25.255  1.00  0.00    -0.026 C 
ATOM      5  C   UNL     1      28.874  11.063  24.033  1.00  0.00     0.008 C 
ATOM      6  C   UNL     1      28.121  10.032  23.185  1.00  0.00     0.005 C 
ATOM      7  C   UNL     1      29.061   8.940  22.690  1.00  0.00     0.031 C 
ATOM      8  C   UNL     1      29.795   8.308  23.848  1.00  0.00    -0.074 C 
ATOM      9  C   UNL     1      29.911   6.964  23.871  1.00  0.00     0.008 C 
ATOM     10  C   UNL     1      30.542   9.254  24.805  1.00  0.00     0.021 C 
ATOM     11  C   UNL     1      31.191   8.562  26.036  1.00  0.00     0.016 C 
ATOM     12  C   UNL     1      30.492  11.603  25.841  1.00  0.00     0.012 C 
ENDROOT
BRANCH   1  13
ATOM     13  C   UNL     1      30.800   7.406  28.249  1.00  0.00    -0.077 C 
ATOM     14  C   UNL     1      30.489   7.813  29.668  1.00  0.00     0.039 C 
ATOM     15  C   UNL     1      31.687   6.419  28.045  1.00  0.00     0.008 C 
ENDBRANCH   1  13
TORSDOF 1
ENDMDL
MODEL 5
REMARK VINA RESULT:    -4.752      1.472      4.884
REMARK INTER + INTRA:          -5.236
REMARK INTER:                  -5.050
REMARK INTRA:                  -0.186
REMARK UNBOUND:                -0.206
REMARK SMILES C=C(C)[C@H]1CC[C@]2(C)CCCC(=C)[C@@H]2C1
REMARK SMILES IDX 4 1 5 2 6 3 7 4 9 5 10 6 11 7 12 8 13 9 14 10 15 11 8 12
REMARK SMILES IDX 2 13 3 14 1 15
REMARK H PARENT
REMARK Flexibility Score: inf
ROOT
ATOM      1  C   UNL     1      30.114   9.386  31.123  1.00  0.00     0.015 C 
ATOM      2  C   UNL     1      31.250   8.442  31.554  1.00  0.00     0.008 C 
ATOM      3  C   UNL     1      31.486   8.516  33.071  1.00  0.00     0.008 C 
ATOM      4  C   UNL     1      31.754   9.964  33.584  1.00  0.00    -0.026 C 
ATOM      5  C   UNL     1      31.881   9.960  35.139  1.00  0.00     0.008 C 
ATOM      6  C   UNL     1      30.562   9.698  35.874  1.00  0.00     0.005 C 
ATOM      7  C   UNL     1      29.500  10.712  35.467  1.00  0.00     0.031 C 
ATOM      8  C   UNL     1      29.331  10.730  33.967  1.00  0.00    -0.074 C 
ATOM      9  C   UNL     1      28.079  10.761  33.467  1.00  0.00     0.008 C 
ATOM     10  C   UNL     1      30.601  10.928  33.121  1.00  0.00     0.021 C 
ATOM     11  C   UNL     1      30.386  10.833  31.585  1.00  0.00     0.016 C 
ATOM     12  C   UNL     1      33.125  10.458  33.046  1.00  0.00     0.012 C 
ENDROOT
BRANCH   1  13
ATOM     13  C   UNL     1      29.888   9.325  29.619  1.00  0.00    -0.077 C 
ATOM     14  C   UNL     1      29.362  10.514  28.855  1.00  0.00     0.039 C 
ATOM     15  C   UNL     1      30.148   8.193  28.944  1.00  0.00     0.008 C 
ENDBRANCH   1  13
TORSDOF 1
ENDMDL
MODEL 6
REMARK VINA RESULT:    -4.624      4.911      7.634
REMARK INTER + INTRA:          -5.100
REMARK INTER:                  -4.902
REMARK INTRA:                  -0.198
REMARK UNBOUND:                -0.206
REMARK SMILES C=C(C)[C@H]1CC[C@]2(C)CCCC(=C)[C@@H]2C1
REMARK SMILES IDX 4 1 5 2 6 3 7 4 9 5 10 6 11 7 12 8 13 9 14 10 15 11 8 12
REMARK SMILES IDX 2 13 3 14 1 15
REMARK H PARENT
REMARK Flexibility Score: inf
ROOT
ATOM      1  C   UNL     1      30.296   8.150  26.497  1.00  0.00     0.015 C 
ATOM      2  C   UNL     1      30.891   8.871  25.276  1.00  0.00     0.008 C 
ATOM      3  C   UNL     1      30.796  10.397  25.432  1.00  0.00     0.008 C 
ATOM      4  C   UNL     1      29.346  10.900  25.711  1.00  0.00    -0.026 C 
ATOM      5  C   UNL     1      29.357  12.441  25.957  1.00  0.00     0.008 C 
ATOM      6  C   UNL     1      30.003  12.858  27.283  1.00  0.00     0.005 C 
ATOM      7  C   UNL     1      29.320  12.174  28.462  1.00  0.00     0.031 C 
ATOM      8  C   UNL     1      29.309  10.677  28.271  1.00  0.00    -0.074 C 
ATOM      9  C   UNL     1      29.620   9.898  29.328  1.00  0.00     0.008 C 
ATOM     10  C   UNL     1      28.736  10.142  26.947  1.00  0.00     0.021 C 
ATOM     11  C   UNL     1      28.845   8.604  26.760  1.00  0.00     0.016 C 
ATOM     12  C   UNL     1      28.469  10.676  24.449  1.00  0.00     0.012 C 
ENDROOT
BRANCH   1  13
ATOM     13  C   UNL     1      30.377   6.638  26.337  1.00  0.00    -0.077 C 
ATOM     14  C   UNL     1      29.855   5.951  25.100  1.00  0.00     0.039 C 
ATOM     15  C   UNL     1      30.910   5.885  27.312  1.00  0.00     0.008 C 
ENDBRANCH   1  13
TORSDOF 1
ENDMDL
MODEL 7
REMARK VINA RESULT:    -4.576      4.080      7.889
REMARK INTER + INTRA:          -5.050
REMARK INTER:                  -4.867
REMARK INTRA:                  -0.183
REMARK UNBOUND:                -0.206
REMARK SMILES C=C(C)[C@H]1CC[C@]2(C)CCCC(=C)[C@@H]2C1
REMARK SMILES IDX 4 1 5 2 6 3 7 4 9 5 10 6 11 7 12 8 13 9 14 10 15 11 8 12
REMARK SMILES IDX 2 13 3 14 1 15
REMARK H PARENT
REMARK Flexibility Score: inf
ROOT
ATOM      1  C   UNL     1      30.549   8.933  25.378  1.00  0.00     0.015 C 
ATOM      2  C   UNL     1      30.322  10.453  25.443  1.00  0.00     0.008 C 
ATOM      3  C   UNL     1      30.123  10.922  26.893  1.00  0.00     0.008 C 
ATOM      4  C   UNL     1      28.978  10.166  27.634  1.00  0.00    -0.026 C 
ATOM      5  C   UNL     1      28.913  10.630  29.123  1.00  0.00     0.008 C 
ATOM      6  C   UNL     1      30.092  10.155  29.978  1.00  0.00     0.005 C 
ATOM      7  C   UNL     1      30.218   8.637  29.939  1.00  0.00     0.031 C 
ATOM      8  C   UNL     1      30.306   8.149  28.513  1.00  0.00    -0.074 C 
ATOM      9  C   UNL     1      31.220   7.201  28.220  1.00  0.00     0.008 C 
ATOM     10  C   UNL     1      29.204   8.612  27.544  1.00  0.00     0.021 C 
ATOM     11  C   UNL     1      29.401   8.168  26.069  1.00  0.00     0.016 C 
ATOM     12  C   UNL     1      27.611  10.553  27.007  1.00  0.00     0.012 C 
ENDROOT
BRANCH   1  13
ATOM     13  C   UNL     1      30.732   8.465  23.940  1.00  0.00    -0.077 C 
ATOM     14  C   UNL     1      30.252   7.108  23.490  1.00  0.00     0.039 C 
ATOM     15  C   UNL     1      31.342   9.259  23.046  1.00  0.00     0.008 C 
ENDBRANCH   1  13
TORSDOF 1
ENDMDL
MODEL 8
REMARK VINA RESULT:    -4.557      2.350      4.536
REMARK INTER + INTRA:          -5.029
REMARK INTER:                  -4.833
REMARK INTRA:                  -0.196
REMARK UNBOUND:                -0.206
REMARK SMILES C=C(C)[C@H]1CC[C@]2(C)CCCC(=C)[C@@H]2C1
REMARK SMILES IDX 4 1 5 2 6 3 7 4 9 5 10 6 11 7 12 8 13 9 14 10 15 11 8 12
REMARK SMILES IDX 2 13 3 14 1 15
REMARK H PARENT
REMARK Flexibility Score: inf
ROOT
ATOM      1  C   UNL     1      29.937  10.600  37.061  1.00  0.00     0.015 C 
ATOM      2  C   UNL     1      29.547  10.882  35.600  1.00  0.00     0.008 C 
ATOM      3  C   UNL     1      29.788   9.649  34.714  1.00  0.00     0.008 C 
ATOM      4  C   UNL     1      31.248   9.107  34.796  1.00  0.00    -0.026 C 
ATOM      5  C   UNL     1      31.377   7.802  33.950  1.00  0.00     0.008 C 
ATOM      6  C   UNL     1      30.651   6.593  34.550  1.00  0.00     0.005 C 
ATOM      7  C   UNL     1      31.136   6.314  35.968  1.00  0.00     0.031 C 
ATOM      8  C   UNL     1      31.006   7.549  36.825  1.00  0.00    -0.074 C 
ATOM      9  C   UNL     1      30.509   7.409  38.072  1.00  0.00     0.008 C 
ATOM     10  C   UNL     1      31.648   8.843  36.294  1.00  0.00     0.021 C 
ATOM     11  C   UNL     1      31.394  10.105  37.163  1.00  0.00     0.016 C 
ATOM     12  C   UNL     1      32.218  10.132  34.148  1.00  0.00     0.012 C 
ENDROOT
BRANCH   1  13
ATOM     13  C   UNL     1      29.711  11.825  37.937  1.00  0.00    -0.077 C 
ATOM     14  C   UNL     1      30.254  11.895  39.342  1.00  0.00     0.039 C 
ATOM     15  C   UNL     1      29.008  12.868  37.468  1.00  0.00     0.008 C 
ENDBRANCH   1  13
TORSDOF 1
ENDMDL
MODEL 9
REMARK VINA RESULT:    -4.441      5.748      7.860
REMARK INTER + INTRA:          -4.906
REMARK INTER:                  -4.722
REMARK INTRA:                  -0.185
REMARK UNBOUND:                -0.206
REMARK SMILES C=C(C)[C@H]1CC[C@]2(C)CCCC(=C)[C@@H]2C1
REMARK SMILES IDX 4 1 5 2 6 3 7 4 9 5 10 6 11 7 12 8 13 9 14 10 15 11 8 12
REMARK SMILES IDX 2 13 3 14 1 15
REMARK H PARENT
REMARK Flexibility Score: inf
ROOT
ATOM      1  C   UNL     1      28.312  10.117  26.982  1.00  0.00     0.015 C 
ATOM      2  C   UNL     1      28.270  10.865  25.637  1.00  0.00     0.008 C 
ATOM      3  C   UNL     1      28.795   9.980  24.495  1.00  0.00     0.008 C 
ATOM      4  C   UNL     1      30.224   9.414  24.762  1.00  0.00    -0.026 C 
ATOM      5  C   UNL     1      30.636   8.450  23.605  1.00  0.00     0.008 C 
ATOM      6  C   UNL     1      29.863   7.127  23.589  1.00  0.00     0.005 C 
ATOM      7  C   UNL     1      30.008   6.394  24.917  1.00  0.00     0.031 C 
ATOM      8  C   UNL     1      29.596   7.288  26.062  1.00  0.00    -0.074 C 
ATOM      9  C   UNL     1      28.823   6.761  27.034  1.00  0.00     0.008 C 
ATOM     10  C   UNL     1      30.265   8.671  26.147  1.00  0.00     0.021 C 
ATOM     11  C   UNL     1      29.730   9.588  27.281  1.00  0.00     0.016 C 
ATOM     12  C   UNL     1      31.255  10.575  24.737  1.00  0.00     0.012 C 
ENDROOT
BRANCH   1  13
ATOM     13  C   UNL     1      27.804  10.997  28.116  1.00  0.00    -0.077 C 
ATOM     14  C   UNL     1      26.406  11.561  28.106  1.00  0.00     0.039 C 
ATOM     15  C   UNL     1      28.609  11.295  29.150  1.00  0.00     0.008 C 
ENDBRANCH   1  13
TORSDOF 1
ENDMDL
