MODEL 1
REMARK VINA RESULT:    -1.094      0.000      0.000
REMARK INTER + INTRA:          -9.064
REMARK INTER:                  -2.758
REMARK INTRA:                  -6.306
REMARK UNBOUND:                -6.306
REMARK SMILES CCCCCCCCCCCCCCCCCCCCCCCCCCCC(=O)[O-]
REMARK SMILES IDX 15 1 16 2 17 3 18 4 19 5 20 6 21 7 22 8 23 9 24 10 25 11
REMARK SMILES IDX 26 12 27 13 28 14 29 15 30 16 14 17 13 18 12 19 11 20 10 21
REMARK SMILES IDX 9 22 8 23 7 24 6 25 5 26 4 27 3 28 2 29 1 30
REMARK H PARENT
REMARK Flexibility Score: inf
ROOT
ATOM      1  C   UNL     1      24.285  29.243  14.191  1.00  0.00     0.000 C 
ENDROOT
BRANCH   1   2
ATOM      2  C   UNL     1      24.842  29.077  12.768  1.00  0.00     0.000 C 
BRANCH   2   3
ATOM      3  C   UNL     1      23.960  28.184  11.884  1.00  0.00     0.000 C 
BRANCH   3   4
ATOM      4  C   UNL     1      22.503  28.194  12.368  1.00  0.00     0.000 C 
BRANCH   4   5
ATOM      5  C   UNL     1      21.985  26.791  12.732  1.00  0.00     0.000 C 
BRANCH   5   6
ATOM      6  C   UNL     1      23.077  25.710  12.880  1.00  0.00     0.000 C 
BRANCH   6   7
ATOM      7  C   UNL     1      23.177  25.064  14.276  1.00  0.00     0.000 C 
BRANCH   7   8
ATOM      8  C   UNL     1      24.609  24.761  14.754  1.00  0.00     0.000 C 
BRANCH   8   9
ATOM      9  C   UNL     1      24.639  23.901  16.029  1.00  0.00     0.000 C 
BRANCH   9  10
ATOM     10  C   UNL     1      25.464  24.541  17.159  1.00  0.00     0.000 C 
BRANCH  10  11
ATOM     11  C   UNL     1      24.721  24.545  18.506  1.00  0.00     0.000 C 
BRANCH  11  12
ATOM     12  C   UNL     1      23.205  24.321  18.346  1.00  0.00     0.006 C 
BRANCH  12  13
ATOM     13  C   UNL     1      22.351  25.573  18.605  1.00  0.00     0.053 C 
BRANCH  13  14
ATOM     14  C   UNL     1      22.698  26.231  19.906  1.00  0.00     0.041 C 
ATOM     15  O   UNL     1      22.333  25.713  20.994  1.00  0.00    -0.550 OA
ATOM     16  O   UNL     1      23.397  27.432  19.914  1.00  0.00    -0.550 OA
ENDBRANCH  13  14
ENDBRANCH  12  13
ENDBRANCH  11  12
ENDBRANCH  10  11
ENDBRANCH   9  10
ENDBRANCH   8   9
ENDBRANCH   7   8
ENDBRANCH   6   7
ENDBRANCH   5   6
ENDBRANCH   4   5
ENDBRANCH   3   4
ENDBRANCH   2   3
ENDBRANCH   1   2
BRANCH   1  17
ATOM     17  C   UNL     1      25.005  28.351  15.217  1.00  0.00     0.000 C 
BRANCH  17  18
ATOM     18  C   UNL     1      24.121  28.018  16.430  1.00  0.00     0.000 C 
BRANCH  18  19
ATOM     19  C   UNL     1      22.622  28.207  16.142  1.00  0.00     0.000 C 
BRANCH  19  20
ATOM     20  C   UNL     1      21.906  29.055  17.207  1.00  0.00     0.000 C 
BRANCH  20  21
ATOM     21  C   UNL     1      20.743  29.907  16.655  1.00  0.00     0.000 C 
BRANCH  21  22
ATOM     22  C   UNL     1      20.774  30.040  15.119  1.00  0.00    -0.000 C 
BRANCH  22  23
ATOM     23  C   UNL     1      19.576  29.338  14.449  1.00  0.00    -0.000 C 
BRANCH  23  24
ATOM     24  C   UNL     1      18.432  28.981  15.419  1.00  0.00    -0.000 C 
BRANCH  24  25
ATOM     25  C   UNL     1      18.054  27.486  15.435  1.00  0.00    -0.000 C 
BRANCH  25  26
ATOM     26  C   UNL     1      19.154  26.590  14.844  1.00  0.00    -0.000 C 
BRANCH  26  27
ATOM     27  C   UNL     1      19.861  25.787  15.946  1.00  0.00    -0.000 C 
BRANCH  27  28
ATOM     28  C   UNL     1      19.882  24.277  15.660  1.00  0.00    -0.000 C 
BRANCH  28  29
ATOM     29  C   UNL     1      19.077  23.899  14.409  1.00  0.00    -0.003 C 
ATOM     30  C   UNL     1      19.993  23.395  13.296  1.00  0.00     0.004 C 
ENDBRANCH  28  29
ENDBRANCH  27  28
ENDBRANCH  26  27
ENDBRANCH  25  26
ENDBRANCH  24  25
ENDBRANCH  23  24
ENDBRANCH  22  23
ENDBRANCH  21  22
ENDBRANCH  20  21
ENDBRANCH  19  20
ENDBRANCH  18  19
ENDBRANCH  17  18
ENDBRANCH   1  17
TORSDOF 26
ENDMDL
MODEL 2
REMARK VINA RESULT:    -1.061      3.076      5.807
REMARK INTER + INTRA:          -8.980
REMARK INTER:                  -2.983
REMARK INTRA:                  -5.997
REMARK UNBOUND:                -6.306
REMARK SMILES CCCCCCCCCCCCCCCCCCCCCCCCCCCC(=O)[O-]
REMARK SMILES IDX 15 1 16 2 17 3 18 4 19 5 20 6 21 7 22 8 23 9 24 10 25 11
REMARK SMILES IDX 26 12 27 13 28 14 29 15 30 16 14 17 13 18 12 19 11 20 10 21
REMARK SMILES IDX 9 22 8 23 7 24 6 25 5 26 4 27 3 28 2 29 1 30
REMARK H PARENT
REMARK Flexibility Score: inf
ROOT
ATOM      1  C   UNL     1      21.570  24.394  17.518  1.00  0.00     0.000 C 
ENDROOT
BRANCH   1   2
ATOM      2  C   UNL     1      22.524  25.480  18.041  1.00  0.00     0.000 C 
BRANCH   2   3
ATOM      3  C   UNL     1      23.190  25.097  19.371  1.00  0.00     0.000 C 
BRANCH   3   4
ATOM      4  C   UNL     1      24.660  25.541  19.400  1.00  0.00     0.000 C 
BRANCH   4   5
ATOM      5  C   UNL     1      24.959  26.680  18.408  1.00  0.00     0.000 C 
BRANCH   5   6
ATOM      6  C   UNL     1      26.125  26.406  17.434  1.00  0.00     0.000 C 
BRANCH   6   7
ATOM      7  C   UNL     1      25.713  26.166  15.968  1.00  0.00     0.000 C 
BRANCH   7   8
ATOM      8  C   UNL     1      26.008  24.754  15.430  1.00  0.00     0.000 C 
BRANCH   8   9
ATOM      9  C   UNL     1      26.040  23.691  16.541  1.00  0.00     0.000 C 
BRANCH   9  10
ATOM     10  C   UNL     1      24.790  22.793  16.541  1.00  0.00     0.000 C 
BRANCH  10  11
ATOM     11  C   UNL     1      24.449  22.253  15.141  1.00  0.00     0.000 C 
BRANCH  11  12
ATOM     12  C   UNL     1      23.296  21.232  15.166  1.00  0.00     0.006 C 
BRANCH  12  13
ATOM     13  C   UNL     1      22.143  21.556  14.202  1.00  0.00     0.053 C 
BRANCH  13  14
ATOM     14  C   UNL     1      22.174  20.692  12.978  1.00  0.00     0.041 C 
ATOM     15  O   UNL     1      23.275  20.321  12.493  1.00  0.00    -0.550 OA
ATOM     16  O   UNL     1      20.987  20.325  12.356  1.00  0.00    -0.550 OA
ENDBRANCH  13  14
ENDBRANCH  12  13
ENDBRANCH  11  12
ENDBRANCH  10  11
ENDBRANCH   9  10
ENDBRANCH   8   9
ENDBRANCH   7   8
ENDBRANCH   6   7
ENDBRANCH   5   6
ENDBRANCH   4   5
ENDBRANCH   3   4
ENDBRANCH   2   3
ENDBRANCH   1   2
BRANCH   1  17
ATOM     17  C   UNL     1      21.249  24.559  16.022  1.00  0.00     0.000 C 
BRANCH  17  18
ATOM     18  C   UNL     1      22.330  25.355  15.273  1.00  0.00     0.000 C 
BRANCH  18  19
ATOM     19  C   UNL     1      22.177  25.272  13.745  1.00  0.00     0.000 C 
BRANCH  19  20
ATOM     20  C   UNL     1      23.346  25.922  12.986  1.00  0.00     0.000 C 
BRANCH  20  21
ATOM     21  C   UNL     1      23.107  27.400  12.609  1.00  0.00     0.000 C 
BRANCH  21  22
ATOM     22  C   UNL     1      24.383  28.106  12.110  1.00  0.00    -0.000 C 
BRANCH  22  23
ATOM     23  C   UNL     1      24.688  29.391  12.907  1.00  0.00    -0.000 C 
BRANCH  23  24
ATOM     24  C   UNL     1      23.652  29.712  14.003  1.00  0.00    -0.000 C 
BRANCH  24  25
ATOM     25  C   UNL     1      24.127  29.405  15.438  1.00  0.00    -0.000 C 
BRANCH  25  26
ATOM     26  C   UNL     1      22.985  28.936  16.353  1.00  0.00    -0.000 C 
BRANCH  26  27
ATOM     27  C   UNL     1      21.648  28.908  15.596  1.00  0.00    -0.000 C 
BRANCH  27  28
ATOM     28  C   UNL     1      20.525  28.236  16.401  1.00  0.00    -0.000 C 
BRANCH  28  29
ATOM     29  C   UNL     1      19.374  27.739  15.515  1.00  0.00    -0.003 C 
ATOM     30  C   UNL     1      18.024  27.956  16.193  1.00  0.00     0.004 C 
ENDBRANCH  28  29
ENDBRANCH  27  28
ENDBRANCH  26  27
ENDBRANCH  25  26
ENDBRANCH  24  25
ENDBRANCH  23  24
ENDBRANCH  22  23
ENDBRANCH  21  22
ENDBRANCH  20  21
ENDBRANCH  19  20
ENDBRANCH  18  19
ENDBRANCH  17  18
ENDBRANCH   1  17
TORSDOF 26
ENDMDL
MODEL 3
REMARK VINA RESULT:    -1.015     18.278     21.420
REMARK INTER + INTRA:          -8.865
REMARK INTER:                  -2.731
REMARK INTRA:                  -6.134
REMARK UNBOUND:                -6.306
REMARK SMILES CCCCCCCCCCCCCCCCCCCCCCCCCCCC(=O)[O-]
REMARK SMILES IDX 15 1 16 2 17 3 18 4 19 5 20 6 21 7 22 8 23 9 24 10 25 11
REMARK SMILES IDX 26 12 27 13 28 14 29 15 30 16 14 17 13 18 12 19 11 20 10 21
REMARK SMILES IDX 9 22 8 23 7 24 6 25 5 26 4 27 3 28 2 29 1 30
REMARK H PARENT
REMARK Flexibility Score: inf
ROOT
ATOM      1  C   UNL     1       7.389  15.988  27.529  1.00  0.00     0.000 C 
ENDROOT
BRANCH   1   2
ATOM      2  C   UNL     1       7.420  14.451  27.526  1.00  0.00     0.000 C 
BRANCH   2   3
ATOM      3  C   UNL     1       6.220  13.833  26.792  1.00  0.00     0.000 C 
BRANCH   3   4
ATOM      4  C   UNL     1       6.005  12.374  27.218  1.00  0.00     0.000 C 
BRANCH   4   5
ATOM      5  C   UNL     1       6.047  11.393  26.031  1.00  0.00     0.000 C 
BRANCH   5   6
ATOM      6  C   UNL     1       6.447  12.022  24.680  1.00  0.00     0.000 C 
BRANCH   6   7
ATOM      7  C   UNL     1       7.844  11.629  24.160  1.00  0.00     0.000 C 
BRANCH   7   8
ATOM      8  C   UNL     1       9.007  11.925  25.124  1.00  0.00     0.000 C 
BRANCH   8   9
ATOM      9  C   UNL     1       9.913  10.703  25.354  1.00  0.00     0.000 C 
BRANCH   9  10
ATOM     10  C   UNL     1       9.754  10.102  26.761  1.00  0.00     0.000 C 
BRANCH  10  11
ATOM     11  C   UNL     1       9.349  11.150  27.812  1.00  0.00     0.000 C 
BRANCH  11  12
ATOM     12  C   UNL     1      10.547  11.646  28.644  1.00  0.00     0.006 C 
BRANCH  12  13
ATOM     13  C   UNL     1      10.701  13.175  28.679  1.00  0.00     0.053 C 
BRANCH  13  14
ATOM     14  C   UNL     1      11.307  13.708  27.416  1.00  0.00     0.041 C 
ATOM     15  O   UNL     1      12.227  13.071  26.838  1.00  0.00    -0.550 OA
ATOM     16  O   UNL     1      10.879  14.923  26.897  1.00  0.00    -0.550 OA
ENDBRANCH  13  14
ENDBRANCH  12  13
ENDBRANCH  11  12
ENDBRANCH  10  11
ENDBRANCH   9  10
ENDBRANCH   8   9
ENDBRANCH   7   8
ENDBRANCH   6   7
ENDBRANCH   5   6
ENDBRANCH   4   5
ENDBRANCH   3   4
ENDBRANCH   2   3
ENDBRANCH   1   2
BRANCH   1  17
ATOM     17  C   UNL     1       5.968  16.553  27.358  1.00  0.00     0.000 C 
BRANCH  17  18
ATOM     18  C   UNL     1       5.918  17.729  26.369  1.00  0.00     0.000 C 
BRANCH  18  19
ATOM     19  C   UNL     1       6.626  17.417  25.039  1.00  0.00     0.000 C 
BRANCH  19  20
ATOM     20  C   UNL     1       5.920  16.321  24.224  1.00  0.00     0.000 C 
BRANCH  20  21
ATOM     21  C   UNL     1       6.877  15.449  23.383  1.00  0.00     0.000 C 
BRANCH  21  22
ATOM     22  C   UNL     1       8.299  15.380  23.974  1.00  0.00    -0.000 C 
BRANCH  22  23
ATOM     23  C   UNL     1       9.364  15.910  22.992  1.00  0.00    -0.000 C 
BRANCH  23  24
ATOM     24  C   UNL     1      10.723  16.227  23.649  1.00  0.00    -0.000 C 
BRANCH  24  25
ATOM     25  C   UNL     1      11.885  15.333  23.171  1.00  0.00    -0.000 C 
BRANCH  25  26
ATOM     26  C   UNL     1      11.640  13.842  23.451  1.00  0.00    -0.000 C 
BRANCH  26  27
ATOM     27  C   UNL     1      11.810  13.006  22.174  1.00  0.00    -0.000 C 
BRANCH  27  28
ATOM     28  C   UNL     1      10.499  12.347  21.718  1.00  0.00    -0.000 C 
BRANCH  28  29
ATOM     29  C   UNL     1       9.809  13.119  20.584  1.00  0.00    -0.003 C 
ATOM     30  C   UNL     1       8.295  13.144  20.778  1.00  0.00     0.004 C 
ENDBRANCH  28  29
ENDBRANCH  27  28
ENDBRANCH  26  27
ENDBRANCH  25  26
ENDBRANCH  24  25
ENDBRANCH  23  24
ENDBRANCH  22  23
ENDBRANCH  21  22
ENDBRANCH  20  21
ENDBRANCH  19  20
ENDBRANCH  18  19
ENDBRANCH  17  18
ENDBRANCH   1  17
TORSDOF 26
ENDMDL
MODEL 4
REMARK VINA RESULT:    -0.995      1.818      4.991
REMARK INTER + INTRA:          -8.813
REMARK INTER:                  -2.851
REMARK INTRA:                  -5.962
REMARK UNBOUND:                -6.306
REMARK SMILES CCCCCCCCCCCCCCCCCCCCCCCCCCCC(=O)[O-]
REMARK SMILES IDX 15 1 16 2 17 3 18 4 19 5 20 6 21 7 22 8 23 9 24 10 25 11
REMARK SMILES IDX 26 12 27 13 28 14 29 15 30 16 14 17 13 18 12 19 11 20 10 21
REMARK SMILES IDX 9 22 8 23 7 24 6 25 5 26 4 27 3 28 2 29 1 30
REMARK H PARENT
REMARK Flexibility Score: inf
ROOT
ATOM      1  C   UNL     1      21.963  24.374  17.634  1.00  0.00     0.000 C 
ENDROOT
BRANCH   1   2
ATOM      2  C   UNL     1      23.066  23.405  18.089  1.00  0.00     0.000 C 
BRANCH   2   3
ATOM      3  C   UNL     1      23.738  22.675  16.917  1.00  0.00     0.000 C 
BRANCH   3   4
ATOM      4  C   UNL     1      25.237  22.471  17.181  1.00  0.00     0.000 C 
BRANCH   4   5
ATOM      5  C   UNL     1      26.125  23.082  16.082  1.00  0.00     0.000 C 
BRANCH   5   6
ATOM      6  C   UNL     1      25.458  24.199  15.251  1.00  0.00     0.000 C 
BRANCH   6   7
ATOM      7  C   UNL     1      25.869  25.635  15.632  1.00  0.00     0.000 C 
BRANCH   7   8
ATOM      8  C   UNL     1      25.047  26.269  16.769  1.00  0.00     0.000 C 
BRANCH   8   9
ATOM      9  C   UNL     1      25.766  26.204  18.128  1.00  0.00     0.000 C 
BRANCH   9  10
ATOM     10  C   UNL     1      25.149  27.149  19.173  1.00  0.00     0.000 C 
BRANCH  10  11
ATOM     11  C   UNL     1      23.611  27.173  19.116  1.00  0.00     0.000 C 
BRANCH  11  12
ATOM     12  C   UNL     1      22.971  27.379  20.501  1.00  0.00     0.006 C 
BRANCH  12  13
ATOM     13  C   UNL     1      21.775  26.456  20.788  1.00  0.00     0.053 C 
BRANCH  13  14
ATOM     14  C   UNL     1      22.176  25.243  21.571  1.00  0.00     0.041 C 
ATOM     15  O   UNL     1      21.670  24.121  21.304  1.00  0.00    -0.550 OA
ATOM     16  O   UNL     1      23.084  25.359  22.617  1.00  0.00    -0.550 OA
ENDBRANCH  13  14
ENDBRANCH  12  13
ENDBRANCH  11  12
ENDBRANCH  10  11
ENDBRANCH   9  10
ENDBRANCH   8   9
ENDBRANCH   7   8
ENDBRANCH   6   7
ENDBRANCH   5   6
ENDBRANCH   4   5
ENDBRANCH   3   4
ENDBRANCH   2   3
ENDBRANCH   1   2
BRANCH   1  17
ATOM     17  C   UNL     1      21.795  24.405  16.104  1.00  0.00     0.000 C 
BRANCH  17  18
ATOM     18  C   UNL     1      21.669  25.836  15.555  1.00  0.00     0.000 C 
BRANCH  18  19
ATOM     19  C   UNL     1      22.351  26.009  14.188  1.00  0.00     0.000 C 
BRANCH  19  20
ATOM     20  C   UNL     1      21.514  26.837  13.198  1.00  0.00     0.000 C 
BRANCH  20  21
ATOM     21  C   UNL     1      22.355  27.695  12.229  1.00  0.00     0.000 C 
BRANCH  21  22
ATOM     22  C   UNL     1      23.873  27.534  12.447  1.00  0.00    -0.000 C 
BRANCH  22  23
ATOM     23  C   UNL     1      24.579  28.888  12.657  1.00  0.00    -0.000 C 
BRANCH  23  24
ATOM     24  C   UNL     1      23.928  29.777  13.736  1.00  0.00    -0.000 C 
BRANCH  24  25
ATOM     25  C   UNL     1      24.232  29.345  15.185  1.00  0.00    -0.000 C 
BRANCH  25  26
ATOM     26  C   UNL     1      22.966  29.236  16.049  1.00  0.00    -0.000 C 
BRANCH  26  27
ATOM     27  C   UNL     1      21.782  29.954  15.385  1.00  0.00    -0.000 C 
BRANCH  27  28
ATOM     28  C   UNL     1      20.430  29.303  15.719  1.00  0.00    -0.000 C 
BRANCH  28  29
ATOM     29  C   UNL     1      19.928  29.664  17.124  1.00  0.00    -0.003 C 
ATOM     30  C   UNL     1      20.181  28.525  18.108  1.00  0.00     0.004 C 
ENDBRANCH  28  29
ENDBRANCH  27  28
ENDBRANCH  26  27
ENDBRANCH  25  26
ENDBRANCH  24  25
ENDBRANCH  23  24
ENDBRANCH  22  23
ENDBRANCH  21  22
ENDBRANCH  20  21
ENDBRANCH  19  20
ENDBRANCH  18  19
ENDBRANCH  17  18
ENDBRANCH   1  17
TORSDOF 26
ENDMDL
MODEL 5
REMARK VINA RESULT:    -0.957      2.639      4.534
REMARK INTER + INTRA:          -8.718
REMARK INTER:                  -3.090
REMARK INTRA:                  -5.627
REMARK UNBOUND:                -6.306
REMARK SMILES CCCCCCCCCCCCCCCCCCCCCCCCCCCC(=O)[O-]
REMARK SMILES IDX 15 1 16 2 17 3 18 4 19 5 20 6 21 7 22 8 23 9 24 10 25 11
REMARK SMILES IDX 26 12 27 13 28 14 29 15 30 16 14 17 13 18 12 19 11 20 10 21
REMARK SMILES IDX 9 22 8 23 7 24 6 25 5 26 4 27 3 28 2 29 1 30
REMARK H PARENT
REMARK Flexibility Score: inf
ROOT
ATOM      1  C   UNL     1      24.857  25.135  16.395  1.00  0.00     0.000 C 
ENDROOT
BRANCH   1   2
ATOM      2  C   UNL     1      24.979  23.672  15.938  1.00  0.00     0.000 C 
BRANCH   2   3
ATOM      3  C   UNL     1      26.125  23.453  14.939  1.00  0.00     0.000 C 
BRANCH   3   4
ATOM      4  C   UNL     1      25.941  22.138  14.168  1.00  0.00     0.000 C 
BRANCH   4   5
ATOM      5  C   UNL     1      24.945  22.266  13.000  1.00  0.00     0.000 C 
BRANCH   5   6
ATOM      6  C   UNL     1      23.873  21.157  12.934  1.00  0.00     0.000 C 
BRANCH   6   7
ATOM      7  C   UNL     1      22.604  21.420  13.768  1.00  0.00     0.000 C 
BRANCH   7   8
ATOM      8  C   UNL     1      21.912  20.159  14.317  1.00  0.00     0.000 C 
BRANCH   8   9
ATOM      9  C   UNL     1      22.686  19.516  15.480  1.00  0.00     0.000 C 
BRANCH   9  10
ATOM     10  C   UNL     1      23.330  20.556  16.413  1.00  0.00     0.000 C 
BRANCH  10  11
ATOM     11  C   UNL     1      22.368  21.042  17.512  1.00  0.00     0.000 C 
BRANCH  11  12
ATOM     12  C   UNL     1      21.710  22.391  17.167  1.00  0.00     0.006 C 
BRANCH  12  13
ATOM     13  C   UNL     1      21.250  23.201  18.390  1.00  0.00     0.053 C 
BRANCH  13  14
ATOM     14  C   UNL     1      19.760  23.184  18.547  1.00  0.00     0.041 C 
ATOM     15  O   UNL     1      19.094  24.238  18.370  1.00  0.00    -0.550 OA
ATOM     16  O   UNL     1      19.112  22.013  18.921  1.00  0.00    -0.550 OA
ENDBRANCH  13  14
ENDBRANCH  12  13
ENDBRANCH  11  12
ENDBRANCH  10  11
ENDBRANCH   9  10
ENDBRANCH   8   9
ENDBRANCH   7   8
ENDBRANCH   6   7
ENDBRANCH   5   6
ENDBRANCH   4   5
ENDBRANCH   3   4
ENDBRANCH   2   3
ENDBRANCH   1   2
BRANCH   1  17
ATOM     17  C   UNL     1      25.821  26.072  15.646  1.00  0.00     0.000 C 
BRANCH  17  18
ATOM     18  C   UNL     1      25.725  27.527  16.134  1.00  0.00     0.000 C 
BRANCH  18  19
ATOM     19  C   UNL     1      24.276  27.970  16.400  1.00  0.00     0.000 C 
BRANCH  19  20
ATOM     20  C   UNL     1      23.955  29.358  15.822  1.00  0.00     0.000 C 
BRANCH  20  21
ATOM     21  C   UNL     1      23.260  29.321  14.445  1.00  0.00     0.000 C 
BRANCH  21  22
ATOM     22  C   UNL     1      24.258  29.342  13.270  1.00  0.00    -0.000 C 
BRANCH  22  23
ATOM     23  C   UNL     1      24.233  28.030  12.460  1.00  0.00    -0.000 C 
BRANCH  23  24
ATOM     24  C   UNL     1      22.986  27.159  12.711  1.00  0.00    -0.000 C 
BRANCH  24  25
ATOM     25  C   UNL     1      23.293  25.677  13.008  1.00  0.00    -0.000 C 
BRANCH  25  26
ATOM     26  C   UNL     1      22.174  24.989  13.806  1.00  0.00    -0.000 C 
BRANCH  26  27
ATOM     27  C   UNL     1      21.240  26.023  14.451  1.00  0.00    -0.000 C 
BRANCH  27  28
ATOM     28  C   UNL     1      21.356  26.054  15.983  1.00  0.00    -0.000 C 
BRANCH  28  29
ATOM     29  C   UNL     1      20.413  27.078  16.630  1.00  0.00    -0.003 C 
ATOM     30  C   UNL     1      20.062  28.197  15.652  1.00  0.00     0.004 C 
ENDBRANCH  28  29
ENDBRANCH  27  28
ENDBRANCH  26  27
ENDBRANCH  25  26
ENDBRANCH  24  25
ENDBRANCH  23  24
ENDBRANCH  22  23
ENDBRANCH  21  22
ENDBRANCH  20  21
ENDBRANCH  19  20
ENDBRANCH  18  19
ENDBRANCH  17  18
ENDBRANCH   1  17
TORSDOF 26
ENDMDL
MODEL 6
REMARK VINA RESULT:    -0.956      2.477      6.067
REMARK INTER + INTRA:          -8.715
REMARK INTER:                  -2.660
REMARK INTRA:                  -6.055
REMARK UNBOUND:                -6.306
REMARK SMILES CCCCCCCCCCCCCCCCCCCCCCCCCCCC(=O)[O-]
REMARK SMILES IDX 15 1 16 2 17 3 18 4 19 5 20 6 21 7 22 8 23 9 24 10 25 11
REMARK SMILES IDX 26 12 27 13 28 14 29 15 30 16 14 17 13 18 12 19 11 20 10 21
REMARK SMILES IDX 9 22 8 23 7 24 6 25 5 26 4 27 3 28 2 29 1 30
REMARK H PARENT
REMARK Flexibility Score: inf
ROOT
ATOM      1  C   UNL     1      20.801  24.897  17.461  1.00  0.00     0.000 C 
ENDROOT
BRANCH   1   2
ATOM      2  C   UNL     1      20.164  26.276  17.698  1.00  0.00     0.000 C 
BRANCH   2   3
ATOM      3  C   UNL     1      21.149  27.433  17.476  1.00  0.00     0.000 C 
BRANCH   3   4
ATOM      4  C   UNL     1      20.543  28.505  16.558  1.00  0.00     0.000 C 
BRANCH   4   5
ATOM      5  C   UNL     1      20.539  28.089  15.076  1.00  0.00     0.000 C 
BRANCH   5   6
ATOM      6  C   UNL     1      19.843  29.083  14.122  1.00  0.00     0.000 C 
BRANCH   6   7
ATOM      7  C   UNL     1      19.502  28.524  12.727  1.00  0.00     0.000 C 
BRANCH   7   8
ATOM      8  C   UNL     1      18.145  27.804  12.626  1.00  0.00     0.000 C 
BRANCH   8   9
ATOM      9  C   UNL     1      18.242  26.453  11.896  1.00  0.00     0.000 C 
BRANCH   9  10
ATOM     10  C   UNL     1      17.812  25.268  12.778  1.00  0.00     0.000 C 
BRANCH  10  11
ATOM     11  C   UNL     1      18.571  25.219  14.115  1.00  0.00     0.000 C 
BRANCH  11  12
ATOM     12  C   UNL     1      17.627  25.104  15.327  1.00  0.00     0.006 C 
BRANCH  12  13
ATOM     13  C   UNL     1      16.962  26.428  15.737  1.00  0.00     0.053 C 
BRANCH  13  14
ATOM     14  C   UNL     1      16.372  26.359  17.112  1.00  0.00     0.041 C 
ATOM     15  O   UNL     1      15.478  25.513  17.376  1.00  0.00    -0.550 OA
ATOM     16  O   UNL     1      16.788  27.251  18.094  1.00  0.00    -0.550 OA
ENDBRANCH  13  14
ENDBRANCH  12  13
ENDBRANCH  11  12
ENDBRANCH  10  11
ENDBRANCH   9  10
ENDBRANCH   8   9
ENDBRANCH   7   8
ENDBRANCH   6   7
ENDBRANCH   5   6
ENDBRANCH   4   5
ENDBRANCH   3   4
ENDBRANCH   2   3
ENDBRANCH   1   2
BRANCH   1  17
ATOM     17  C   UNL     1      21.668  24.855  16.191  1.00  0.00     0.000 C 
BRANCH  17  18
ATOM     18  C   UNL     1      22.566  23.608  16.132  1.00  0.00     0.000 C 
BRANCH  18  19
ATOM     19  C   UNL     1      24.039  23.949  15.850  1.00  0.00     0.000 C 
BRANCH  19  20
ATOM     20  C   UNL     1      24.447  25.336  16.374  1.00  0.00     0.000 C 
BRANCH  20  21
ATOM     21  C   UNL     1      25.723  25.905  15.718  1.00  0.00     0.000 C 
BRANCH  21  22
ATOM     22  C   UNL     1      25.705  27.442  15.608  1.00  0.00    -0.000 C 
BRANCH  22  23
ATOM     23  C   UNL     1      24.319  28.035  15.933  1.00  0.00    -0.000 C 
BRANCH  23  24
ATOM     24  C   UNL     1      24.240  29.567  15.787  1.00  0.00    -0.000 C 
BRANCH  24  25
ATOM     25  C   UNL     1      23.461  30.048  14.545  1.00  0.00    -0.000 C 
BRANCH  25  26
ATOM     26  C   UNL     1      24.120  29.612  13.227  1.00  0.00    -0.000 C 
BRANCH  26  27
ATOM     27  C   UNL     1      23.159  28.759  12.386  1.00  0.00    -0.000 C 
BRANCH  27  28
ATOM     28  C   UNL     1      23.717  27.359  12.085  1.00  0.00    -0.000 C 
BRANCH  28  29
ATOM     29  C   UNL     1      23.154  26.281  13.022  1.00  0.00    -0.003 C 
ATOM     30  C   UNL     1      21.878  25.668  12.451  1.00  0.00     0.004 C 
ENDBRANCH  28  29
ENDBRANCH  27  28
ENDBRANCH  26  27
ENDBRANCH  25  26
ENDBRANCH  24  25
ENDBRANCH  23  24
ENDBRANCH  22  23
ENDBRANCH  21  22
ENDBRANCH  20  21
ENDBRANCH  19  20
ENDBRANCH  18  19
ENDBRANCH  17  18
ENDBRANCH   1  17
TORSDOF 26
ENDMDL
MODEL 7
REMARK VINA RESULT:    -0.955     17.846     21.130
REMARK INTER + INTRA:          -8.714
REMARK INTER:                  -2.319
REMARK INTRA:                  -6.394
REMARK UNBOUND:                -6.306
REMARK SMILES CCCCCCCCCCCCCCCCCCCCCCCCCCCC(=O)[O-]
REMARK SMILES IDX 15 1 16 2 17 3 18 4 19 5 20 6 21 7 22 8 23 9 24 10 25 11
REMARK SMILES IDX 26 12 27 13 28 14 29 15 30 16 14 17 13 18 12 19 11 20 10 21
REMARK SMILES IDX 9 22 8 23 7 24 6 25 5 26 4 27 3 28 2 29 1 30
REMARK H PARENT
REMARK Flexibility Score: inf
ROOT
ATOM      1  C   UNL     1       7.759  14.670  26.061  1.00  0.00     0.000 C 
ENDROOT
BRANCH   1   2
ATOM      2  C   UNL     1       9.162  14.560  26.679  1.00  0.00     0.000 C 
BRANCH   2   3
ATOM      3  C   UNL     1       9.132  14.457  28.211  1.00  0.00     0.000 C 
BRANCH   3   4
ATOM      4  C   UNL     1      10.326  13.644  28.733  1.00  0.00     0.000 C 
BRANCH   4   5
ATOM      5  C   UNL     1      11.454  13.509  27.695  1.00  0.00     0.000 C 
BRANCH   5   6
ATOM      6  C   UNL     1      12.739  14.301  28.021  1.00  0.00     0.000 C 
BRANCH   6   7
ATOM      7  C   UNL     1      12.937  15.594  27.205  1.00  0.00     0.000 C 
BRANCH   7   8
ATOM      8  C   UNL     1      12.057  16.780  27.637  1.00  0.00     0.000 C 
BRANCH   8   9
ATOM      9  C   UNL     1      12.529  18.117  27.040  1.00  0.00     0.000 C 
BRANCH   9  10
ATOM     10  C   UNL     1      11.425  18.839  26.249  1.00  0.00     0.000 C 
BRANCH  10  11
ATOM     11  C   UNL     1      10.249  17.912  25.893  1.00  0.00     0.000 C 
BRANCH  11  12
ATOM     12  C   UNL     1       8.892  18.475  26.356  1.00  0.00     0.006 C 
BRANCH  12  13
ATOM     13  C   UNL     1       8.530  18.134  27.811  1.00  0.00     0.053 C 
BRANCH  13  14
ATOM     14  C   UNL     1       7.083  17.777  27.962  1.00  0.00     0.041 C 
ATOM     15  O   UNL     1       6.673  17.233  29.020  1.00  0.00    -0.550 OA
ATOM     16  O   UNL     1       6.194  18.016  26.921  1.00  0.00    -0.550 OA
ENDBRANCH  13  14
ENDBRANCH  12  13
ENDBRANCH  11  12
ENDBRANCH  10  11
ENDBRANCH   9  10
ENDBRANCH   8   9
ENDBRANCH   7   8
ENDBRANCH   6   7
ENDBRANCH   5   6
ENDBRANCH   4   5
ENDBRANCH   3   4
ENDBRANCH   2   3
ENDBRANCH   1   2
BRANCH   1  17
ATOM     17  C   UNL     1       6.648  14.237  27.034  1.00  0.00     0.000 C 
BRANCH  17  18
ATOM     18  C   UNL     1       6.136  12.816  26.747  1.00  0.00     0.000 C 
BRANCH  18  19
ATOM     19  C   UNL     1       6.732  11.767  27.700  1.00  0.00     0.000 C 
BRANCH  19  20
ATOM     20  C   UNL     1       7.447  10.621  26.964  1.00  0.00     0.000 C 
BRANCH  20  21
ATOM     21  C   UNL     1       8.962  10.847  26.771  1.00  0.00     0.000 C 
BRANCH  21  22
ATOM     22  C   UNL     1       9.415  10.656  25.310  1.00  0.00    -0.000 C 
BRANCH  22  23
ATOM     23  C   UNL     1       8.791  11.702  24.365  1.00  0.00    -0.000 C 
BRANCH  23  24
ATOM     24  C   UNL     1       9.815  12.443  23.483  1.00  0.00    -0.000 C 
BRANCH  24  25
ATOM     25  C   UNL     1      11.189  12.661  24.149  1.00  0.00    -0.000 C 
BRANCH  25  26
ATOM     26  C   UNL     1      11.990  13.800  23.497  1.00  0.00    -0.000 C 
BRANCH  26  27
ATOM     27  C   UNL     1      11.468  15.171  23.951  1.00  0.00    -0.000 C 
BRANCH  27  28
ATOM     28  C   UNL     1      11.222  16.131  22.777  1.00  0.00    -0.000 C 
BRANCH  28  29
ATOM     29  C   UNL     1       9.900  15.850  22.047  1.00  0.00    -0.003 C 
ATOM     30  C   UNL     1       8.706  16.321  22.873  1.00  0.00     0.004 C 
ENDBRANCH  28  29
ENDBRANCH  27  28
ENDBRANCH  26  27
ENDBRANCH  25  26
ENDBRANCH  24  25
ENDBRANCH  23  24
ENDBRANCH  22  23
ENDBRANCH  21  22
ENDBRANCH  20  21
ENDBRANCH  19  20
ENDBRANCH  18  19
ENDBRANCH  17  18
ENDBRANCH   1  17
TORSDOF 26
ENDMDL
MODEL 8
REMARK VINA RESULT:    -0.949      2.121      5.715
REMARK INTER + INTRA:          -8.698
REMARK INTER:                  -2.780
REMARK INTRA:                  -5.918
REMARK UNBOUND:                -6.306
REMARK SMILES CCCCCCCCCCCCCCCCCCCCCCCCCCCC(=O)[O-]
REMARK SMILES IDX 15 1 16 2 17 3 18 4 19 5 20 6 21 7 22 8 23 9 24 10 25 11
REMARK SMILES IDX 26 12 27 13 28 14 29 15 30 16 14 17 13 18 12 19 11 20 10 21
REMARK SMILES IDX 9 22 8 23 7 24 6 25 5 26 4 27 3 28 2 29 1 30
REMARK H PARENT
REMARK Flexibility Score: inf
ROOT
ATOM      1  C   UNL     1      23.344  25.692  15.980  1.00  0.00     0.000 C 
ENDROOT
BRANCH   1   2
ATOM      2  C   UNL     1      24.821  26.096  16.119  1.00  0.00     0.000 C 
BRANCH   2   3
ATOM      3  C   UNL     1      25.243  27.167  15.101  1.00  0.00     0.000 C 
BRANCH   3   4
ATOM      4  C   UNL     1      24.017  27.800  14.427  1.00  0.00     0.000 C 
BRANCH   4   5
ATOM      5  C   UNL     1      24.076  27.723  12.890  1.00  0.00     0.000 C 
BRANCH   5   6
ATOM      6  C   UNL     1      22.748  27.335  12.206  1.00  0.00     0.000 C 
BRANCH   6   7
ATOM      7  C   UNL     1      22.212  25.933  12.559  1.00  0.00     0.000 C 
BRANCH   7   8
ATOM      8  C   UNL     1      20.796  25.908  13.163  1.00  0.00     0.000 C 
BRANCH   8   9
ATOM      9  C   UNL     1      20.314  27.301  13.603  1.00  0.00     0.000 C 
BRANCH   9  10
ATOM     10  C   UNL     1      20.215  27.440  15.132  1.00  0.00     0.000 C 
BRANCH  10  11
ATOM     11  C   UNL     1      20.696  28.813  15.635  1.00  0.00     0.000 C 
BRANCH  11  12
ATOM     12  C   UNL     1      21.378  28.731  17.014  1.00  0.00     0.006 C 
BRANCH  12  13
ATOM     13  C   UNL     1      22.541  29.719  17.202  1.00  0.00     0.053 C 
BRANCH  13  14
ATOM     14  C   UNL     1      23.688  29.103  17.943  1.00  0.00     0.041 C 
ATOM     15  O   UNL     1      23.487  28.153  18.744  1.00  0.00    -0.550 OA
ATOM     16  O   UNL     1      24.975  29.600  17.772  1.00  0.00    -0.550 OA
ENDBRANCH  13  14
ENDBRANCH  12  13
ENDBRANCH  11  12
ENDBRANCH  10  11
ENDBRANCH   9  10
ENDBRANCH   8   9
ENDBRANCH   7   8
ENDBRANCH   6   7
ENDBRANCH   5   6
ENDBRANCH   4   5
ENDBRANCH   3   4
ENDBRANCH   2   3
ENDBRANCH   1   2
BRANCH   1  17
ATOM     17  C   UNL     1      22.807  24.972  17.230  1.00  0.00     0.000 C 
BRANCH  17  18
ATOM     18  C   UNL     1      21.273  24.869  17.236  1.00  0.00     0.000 C 
BRANCH  18  19
ATOM     19  C   UNL     1      20.773  23.435  16.993  1.00  0.00     0.000 C 
BRANCH  19  20
ATOM     20  C   UNL     1      20.602  23.101  15.502  1.00  0.00     0.000 C 
BRANCH  20  21
ATOM     21  C   UNL     1      21.898  22.625  14.811  1.00  0.00     0.000 C 
BRANCH  21  22
ATOM     22  C   UNL     1      21.631  21.700  13.608  1.00  0.00    -0.000 C 
BRANCH  22  23
ATOM     23  C   UNL     1      22.827  21.649  12.635  1.00  0.00    -0.000 C 
BRANCH  23  24
ATOM     24  C   UNL     1      23.918  22.698  12.923  1.00  0.00    -0.000 C 
BRANCH  24  25
ATOM     25  C   UNL     1      25.227  22.116  13.492  1.00  0.00    -0.000 C 
BRANCH  25  26
ATOM     26  C   UNL     1      25.919  23.067  14.482  1.00  0.00    -0.000 C 
BRANCH  26  27
ATOM     27  C   UNL     1      26.125  22.390  15.845  1.00  0.00    -0.000 C 
BRANCH  27  28
ATOM     28  C   UNL     1      25.254  21.136  16.022  1.00  0.00    -0.000 C 
BRANCH  28  29
ATOM     29  C   UNL     1      24.205  21.293  17.133  1.00  0.00    -0.003 C 
ATOM     30  C   UNL     1      23.148  20.195  17.050  1.00  0.00     0.004 C 
ENDBRANCH  28  29
ENDBRANCH  27  28
ENDBRANCH  26  27
ENDBRANCH  25  26
ENDBRANCH  24  25
ENDBRANCH  23  24
ENDBRANCH  22  23
ENDBRANCH  21  22
ENDBRANCH  20  21
ENDBRANCH  19  20
ENDBRANCH  18  19
ENDBRANCH  17  18
ENDBRANCH   1  17
TORSDOF 26
ENDMDL
MODEL 9
REMARK VINA RESULT:    -0.923      1.201      4.498
REMARK INTER + INTRA:          -8.631
REMARK INTER:                  -2.397
REMARK INTRA:                  -6.234
REMARK UNBOUND:                -6.306
REMARK SMILES CCCCCCCCCCCCCCCCCCCCCCCCCCCC(=O)[O-]
REMARK SMILES IDX 15 1 16 2 17 3 18 4 19 5 20 6 21 7 22 8 23 9 24 10 25 11
REMARK SMILES IDX 26 12 27 13 28 14 29 15 30 16 14 17 13 18 12 19 11 20 10 21
REMARK SMILES IDX 9 22 8 23 7 24 6 25 5 26 4 27 3 28 2 29 1 30
REMARK H PARENT
REMARK Flexibility Score: inf
ROOT
ATOM      1  C   UNL     1      21.229  26.317  15.200  1.00  0.00     0.000 C 
ENDROOT
BRANCH   1   2
ATOM      2  C   UNL     1      19.986  25.588  15.735  1.00  0.00     0.000 C 
BRANCH   2   3
ATOM      3  C   UNL     1      20.212  24.080  15.917  1.00  0.00     0.000 C 
BRANCH   3   4
ATOM      4  C   UNL     1      21.155  23.529  14.837  1.00  0.00     0.000 C 
BRANCH   4   5
ATOM      5  C   UNL     1      21.948  22.298  15.310  1.00  0.00     0.000 C 
BRANCH   5   6
ATOM      6  C   UNL     1      23.429  22.270  14.875  1.00  0.00     0.000 C 
BRANCH   6   7
ATOM      7  C   UNL     1      23.848  23.386  13.897  1.00  0.00     0.000 C 
BRANCH   7   8
ATOM      8  C   UNL     1      24.706  24.506  14.513  1.00  0.00     0.000 C 
BRANCH   8   9
ATOM      9  C   UNL     1      25.378  24.083  15.830  1.00  0.00     0.000 C 
BRANCH   9  10
ATOM     10  C   UNL     1      24.871  24.884  17.041  1.00  0.00     0.000 C 
BRANCH  10  11
ATOM     11  C   UNL     1      24.410  23.981  18.199  1.00  0.00     0.000 C 
BRANCH  11  12
ATOM     12  C   UNL     1      22.901  24.104  18.480  1.00  0.00     0.006 C 
BRANCH  12  13
ATOM     13  C   UNL     1      22.400  25.551  18.619  1.00  0.00     0.053 C 
BRANCH  13  14
ATOM     14  C   UNL     1      22.838  26.175  19.909  1.00  0.00     0.041 C 
ATOM     15  O   UNL     1      23.777  27.014  19.919  1.00  0.00    -0.550 OA
ATOM     16  O   UNL     1      22.230  25.806  21.103  1.00  0.00    -0.550 OA
ENDBRANCH  13  14
ENDBRANCH  12  13
ENDBRANCH  11  12
ENDBRANCH  10  11
ENDBRANCH   9  10
ENDBRANCH   8   9
ENDBRANCH   7   8
ENDBRANCH   6   7
ENDBRANCH   5   6
ENDBRANCH   4   5
ENDBRANCH   3   4
ENDBRANCH   2   3
ENDBRANCH   1   2
BRANCH   1  17
ATOM     17  C   UNL     1      20.875  27.584  14.402  1.00  0.00     0.000 C 
BRANCH  17  18
ATOM     18  C   UNL     1      21.086  27.405  12.889  1.00  0.00     0.000 C 
BRANCH  18  19
ATOM     19  C   UNL     1      22.227  26.427  12.561  1.00  0.00     0.000 C 
BRANCH  19  20
ATOM     20  C   UNL     1      23.509  27.133  12.089  1.00  0.00     0.000 C 
BRANCH  20  21
ATOM     21  C   UNL     1      23.451  28.673  12.185  1.00  0.00     0.000 C 
BRANCH  21  22
ATOM     22  C   UNL     1      24.354  29.238  13.299  1.00  0.00    -0.000 C 
BRANCH  22  23
ATOM     23  C   UNL     1      24.868  28.137  14.249  1.00  0.00    -0.000 C 
BRANCH  23  24
ATOM     24  C   UNL     1      25.010  28.589  15.716  1.00  0.00    -0.000 C 
BRANCH  24  25
ATOM     25  C   UNL     1      23.762  28.334  16.585  1.00  0.00    -0.000 C 
BRANCH  25  26
ATOM     26  C   UNL     1      22.875  29.582  16.729  1.00  0.00    -0.000 C 
BRANCH  26  27
ATOM     27  C   UNL     1      22.150  29.589  18.083  1.00  0.00    -0.000 C 
BRANCH  27  28
ATOM     28  C   UNL     1      20.803  28.852  18.038  1.00  0.00    -0.000 C 
BRANCH  28  29
ATOM     29  C   UNL     1      19.681  29.701  17.423  1.00  0.00    -0.003 C 
ATOM     30  C   UNL     1      18.538  28.822  16.920  1.00  0.00     0.004 C 
ENDBRANCH  28  29
ENDBRANCH  27  28
ENDBRANCH  26  27
ENDBRANCH  25  26
ENDBRANCH  24  25
ENDBRANCH  23  24
ENDBRANCH  22  23
ENDBRANCH  21  22
ENDBRANCH  20  21
ENDBRANCH  19  20
ENDBRANCH  18  19
ENDBRANCH  17  18
ENDBRANCH   1  17
TORSDOF 26
ENDMDL
