MODEL 1
REMARK VINA RESULT:    -4.141      0.000      0.000
REMARK INTER + INTRA:          -8.613
REMARK INTER:                  -7.772
REMARK INTRA:                  -0.841
REMARK UNBOUND:                -0.841
REMARK SMILES O=C([O-])CCCCCCCCCCCCCCC(=O)[O-]
REMARK SMILES IDX 10 1 9 2 8 3 7 4 6 5 5 6 4 7 2 8 1 9 3 10 11 11 12 12 13 13
REMARK SMILES IDX 14 14 15 15 16 16 17 17 18 18 19 19 20 20
REMARK H PARENT
REMARK Flexibility Score: inf
ROOT
ATOM      1  C   UNL     1       5.125  13.357  34.499  1.00  0.00     0.000 C 
ENDROOT
BRANCH   1   2
ATOM      2  C   UNL     1       5.668  13.731  35.890  1.00  0.00     0.000 C 
BRANCH   2   3
ATOM      3  C   UNL     1       6.115  15.199  35.975  1.00  0.00     0.000 C 
BRANCH   3   4
ATOM      4  C   UNL     1       6.377  15.818  34.592  1.00  0.00     0.000 C 
BRANCH   4   5
ATOM      5  C   UNL     1       6.479  17.351  34.643  1.00  0.00     0.000 C 
BRANCH   5   6
ATOM      6  C   UNL     1       5.208  18.045  34.123  1.00  0.00     0.006 C 
BRANCH   6   7
ATOM      7  C   UNL     1       5.526  19.153  33.111  1.00  0.00     0.053 C 
BRANCH   7   8
ATOM      8  C   UNL     1       6.610  20.061  33.606  1.00  0.00     0.041 C 
ATOM      9  O   UNL     1       7.686  20.173  32.963  1.00  0.00    -0.550 OA
ATOM     10  O   UNL     1       6.444  20.757  34.797  1.00  0.00    -0.550 OA
ENDBRANCH   7   8
ENDBRANCH   6   7
ENDBRANCH   5   6
ENDBRANCH   4   5
ENDBRANCH   3   4
ENDBRANCH   2   3
ENDBRANCH   1   2
BRANCH   1  11
ATOM     11  C   UNL     1       5.040  11.829  34.300  1.00  0.00     0.000 C 
BRANCH  11  12
ATOM     12  C   UNL     1       5.671  11.343  32.983  1.00  0.00     0.000 C 
BRANCH  12  13
ATOM     13  C   UNL     1       6.374   9.983  33.125  1.00  0.00     0.000 C 
BRANCH  13  14
ATOM     14  C   UNL     1       6.248   9.398  34.541  1.00  0.00     0.000 C 
BRANCH  14  15
ATOM     15  C   UNL     1       5.708   7.958  34.538  1.00  0.00     0.000 C 
BRANCH  15  16
ATOM     16  C   UNL     1       6.570   7.005  33.697  1.00  0.00     0.006 C 
BRANCH  16  17
ATOM     17  C   UNL     1       8.001   6.869  34.235  1.00  0.00     0.053 C 
BRANCH  17  18
ATOM     18  C   UNL     1       8.015   6.034  35.477  1.00  0.00     0.041 C 
ATOM     19  O   UNL     1       8.612   6.442  36.508  1.00  0.00    -0.550 OA
ATOM     20  O   UNL     1       7.328   4.827  35.512  1.00  0.00    -0.550 OA
ENDBRANCH  17  18
ENDBRANCH  16  17
ENDBRANCH  15  16
ENDBRANCH  14  15
ENDBRANCH  13  14
ENDBRANCH  12  13
ENDBRANCH  11  12
ENDBRANCH   1  11
TORSDOF 15
ENDMDL
MODEL 2
REMARK VINA RESULT:    -3.967      1.268     10.810
REMARK INTER + INTRA:          -8.287
REMARK INTER:                  -7.705
REMARK INTRA:                  -0.581
REMARK UNBOUND:                -0.841
REMARK SMILES O=C([O-])CCCCCCCCCCCCCCC(=O)[O-]
REMARK SMILES IDX 10 1 9 2 8 3 7 4 6 5 5 6 4 7 2 8 1 9 3 10 11 11 12 12 13 13
REMARK SMILES IDX 14 14 15 15 16 16 17 17 18 18 19 19 20 20
REMARK H PARENT
REMARK Flexibility Score: inf
ROOT
ATOM      1  C   UNL     1       5.187  12.488  33.502  1.00  0.00     0.000 C 
ENDROOT
BRANCH   1   2
ATOM      2  C   UNL     1       5.231  10.977  33.790  1.00  0.00     0.000 C 
BRANCH   2   3
ATOM      3  C   UNL     1       6.353  10.261  33.023  1.00  0.00     0.000 C 
BRANCH   3   4
ATOM      4  C   UNL     1       6.499   8.784  33.429  1.00  0.00     0.000 C 
BRANCH   4   5
ATOM      5  C   UNL     1       7.959   8.306  33.395  1.00  0.00     0.000 C 
BRANCH   5   6
ATOM      6  C   UNL     1       8.177   7.014  34.202  1.00  0.00     0.006 C 
BRANCH   6   7
ATOM      7  C   UNL     1       6.860   6.282  34.489  1.00  0.00     0.053 C 
BRANCH   7   8
ATOM      8  C   UNL     1       6.604   6.157  35.959  1.00  0.00     0.041 C 
ATOM      9  O   UNL     1       7.228   6.885  36.775  1.00  0.00    -0.550 OA
ATOM     10  O   UNL     1       5.701   5.212  36.430  1.00  0.00    -0.550 OA
ENDBRANCH   7   8
ENDBRANCH   6   7
ENDBRANCH   5   6
ENDBRANCH   4   5
ENDBRANCH   3   4
ENDBRANCH   2   3
ENDBRANCH   1   2
BRANCH   1  11
ATOM     11  C   UNL     1       5.231  13.328  34.796  1.00  0.00     0.000 C 
BRANCH  11  12
ATOM     12  C   UNL     1       4.954  14.825  34.569  1.00  0.00     0.000 C 
BRANCH  12  13
ATOM     13  C   UNL     1       6.227  15.684  34.641  1.00  0.00     0.000 C 
BRANCH  13  14
ATOM     14  C   UNL     1       6.153  16.758  35.738  1.00  0.00     0.000 C 
BRANCH  14  15
ATOM     15  C   UNL     1       5.385  18.011  35.286  1.00  0.00     0.000 C 
BRANCH  15  16
ATOM     16  C   UNL     1       6.238  18.944  34.412  1.00  0.00     0.006 C 
BRANCH  16  17
ATOM     17  C   UNL     1       5.591  19.238  33.051  1.00  0.00     0.053 C 
BRANCH  17  18
ATOM     18  C   UNL     1       6.403  20.239  32.292  1.00  0.00     0.041 C 
ATOM     19  O   UNL     1       7.544  20.574  32.707  1.00  0.00    -0.550 OA
ATOM     20  O   UNL     1       5.922  20.768  31.102  1.00  0.00    -0.550 OA
ENDBRANCH  17  18
ENDBRANCH  16  17
ENDBRANCH  15  16
ENDBRANCH  14  15
ENDBRANCH  13  14
ENDBRANCH  12  13
ENDBRANCH  11  12
ENDBRANCH   1  11
TORSDOF 15
ENDMDL
MODEL 3
REMARK VINA RESULT:    -3.829      2.714      4.690
REMARK INTER + INTRA:          -8.028
REMARK INTER:                  -6.722
REMARK INTRA:                  -1.305
REMARK UNBOUND:                -0.841
REMARK SMILES O=C([O-])CCCCCCCCCCCCCCC(=O)[O-]
REMARK SMILES IDX 10 1 9 2 8 3 7 4 6 5 5 6 4 7 2 8 1 9 3 10 11 11 12 12 13 13
REMARK SMILES IDX 14 14 15 15 16 16 17 17 18 18 19 19 20 20
REMARK H PARENT
REMARK Flexibility Score: inf
ROOT
ATOM      1  C   UNL     1       7.585   9.125  33.783  1.00  0.00     0.000 C 
ENDROOT
BRANCH   1   2
ATOM      2  C   UNL     1       6.374   9.669  33.002  1.00  0.00     0.000 C 
BRANCH   2   3
ATOM      3  C   UNL     1       5.634  10.782  33.760  1.00  0.00     0.000 C 
BRANCH   3   4
ATOM      4  C   UNL     1       5.242  10.365  35.188  1.00  0.00     0.000 C 
BRANCH   4   5
ATOM      5  C   UNL     1       5.436  11.500  36.206  1.00  0.00     0.000 C 
BRANCH   5   6
ATOM      6  C   UNL     1       5.370  12.894  35.558  1.00  0.00     0.006 C 
BRANCH   6   7
ATOM      7  C   UNL     1       6.003  13.974  36.444  1.00  0.00     0.053 C 
BRANCH   7   8
ATOM      8  C   UNL     1       5.934  15.326  35.803  1.00  0.00     0.041 C 
ATOM      9  O   UNL     1       5.440  16.300  36.430  1.00  0.00    -0.550 OA
ATOM     10  O   UNL     1       6.383  15.502  34.500  1.00  0.00    -0.550 OA
ENDBRANCH   7   8
ENDBRANCH   6   7
ENDBRANCH   5   6
ENDBRANCH   4   5
ENDBRANCH   3   4
ENDBRANCH   2   3
ENDBRANCH   1   2
BRANCH   1  11
ATOM     11  C   UNL     1       7.649   7.583  33.754  1.00  0.00     0.000 C 
BRANCH  11  12
ATOM     12  C   UNL     1       6.323   6.919  33.342  1.00  0.00     0.000 C 
BRANCH  12  13
ATOM     13  C   UNL     1       5.492   6.449  34.548  1.00  0.00     0.000 C 
BRANCH  13  14
ATOM     14  C   UNL     1       6.017   5.137  35.151  1.00  0.00     0.000 C 
BRANCH  14  15
ATOM     15  C   UNL     1       6.356   5.268  36.645  1.00  0.00     0.000 C 
BRANCH  15  16
ATOM     16  C   UNL     1       7.760   4.740  36.981  1.00  0.00     0.006 C 
BRANCH  16  17
ATOM     17  C   UNL     1       8.878   5.626  36.414  1.00  0.00     0.053 C 
BRANCH  17  18
ATOM     18  C   UNL     1       9.828   4.809  35.597  1.00  0.00     0.041 C 
ATOM     19  O   UNL     1      10.018   3.595  35.873  1.00  0.00    -0.550 OA
ATOM     20  O   UNL     1      10.469   5.374  34.502  1.00  0.00    -0.550 OA
ENDBRANCH  17  18
ENDBRANCH  16  17
ENDBRANCH  15  16
ENDBRANCH  14  15
ENDBRANCH  13  14
ENDBRANCH  12  13
ENDBRANCH  11  12
ENDBRANCH   1  11
TORSDOF 15
ENDMDL
MODEL 4
REMARK VINA RESULT:    -3.792      1.688     11.156
REMARK INTER + INTRA:          -7.957
REMARK INTER:                  -7.322
REMARK INTRA:                  -0.635
REMARK UNBOUND:                -0.841
REMARK SMILES O=C([O-])CCCCCCCCCCCCCCC(=O)[O-]
REMARK SMILES IDX 10 1 9 2 8 3 7 4 6 5 5 6 4 7 2 8 1 9 3 10 11 11 12 12 13 13
REMARK SMILES IDX 14 14 15 15 16 16 17 17 18 18 19 19 20 20
REMARK H PARENT
REMARK Flexibility Score: inf
ROOT
ATOM      1  C   UNL     1       5.989  10.631  32.958  1.00  0.00     0.000 C 
ENDROOT
BRANCH   1   2
ATOM      2  C   UNL     1       6.438   9.490  33.890  1.00  0.00     0.000 C 
BRANCH   2   3
ATOM      3  C   UNL     1       7.694   8.769  33.378  1.00  0.00     0.000 C 
BRANCH   3   4
ATOM      4  C   UNL     1       7.870   7.373  34.001  1.00  0.00     0.000 C 
BRANCH   4   5
ATOM      5  C   UNL     1       6.633   6.482  33.805  1.00  0.00     0.000 C 
BRANCH   5   6
ATOM      6  C   UNL     1       6.257   5.705  35.079  1.00  0.00     0.006 C 
BRANCH   6   7
ATOM      7  C   UNL     1       5.572   4.369  34.761  1.00  0.00     0.053 C 
BRANCH   7   8
ATOM      8  C   UNL     1       5.945   3.307  35.749  1.00  0.00     0.041 C 
ATOM      9  O   UNL     1       5.057   2.747  36.443  1.00  0.00    -0.550 OA
ATOM     10  O   UNL     1       7.278   2.961  35.928  1.00  0.00    -0.550 OA
ENDBRANCH   7   8
ENDBRANCH   6   7
ENDBRANCH   5   6
ENDBRANCH   4   5
ENDBRANCH   3   4
ENDBRANCH   2   3
ENDBRANCH   1   2
BRANCH   1  11
ATOM     11  C   UNL     1       4.987  11.583  33.646  1.00  0.00     0.000 C 
BRANCH  11  12
ATOM     12  C   UNL     1       5.249  11.768  35.151  1.00  0.00     0.000 C 
BRANCH  12  13
ATOM     13  C   UNL     1       5.136  13.234  35.599  1.00  0.00     0.000 C 
BRANCH  13  14
ATOM     14  C   UNL     1       5.618  14.220  34.523  1.00  0.00     0.000 C 
BRANCH  14  15
ATOM     15  C   UNL     1       5.358  15.686  34.906  1.00  0.00     0.000 C 
BRANCH  15  16
ATOM     16  C   UNL     1       6.531  16.610  34.542  1.00  0.00     0.006 C 
BRANCH  16  17
ATOM     17  C   UNL     1       6.283  18.070  34.944  1.00  0.00     0.053 C 
BRANCH  17  18
ATOM     18  C   UNL     1       6.305  18.954  33.738  1.00  0.00     0.041 C 
ATOM     19  O   UNL     1       5.258  19.125  33.058  1.00  0.00    -0.550 OA
ATOM     20  O   UNL     1       7.468  19.629  33.389  1.00  0.00    -0.550 OA
ENDBRANCH  17  18
ENDBRANCH  16  17
ENDBRANCH  15  16
ENDBRANCH  14  15
ENDBRANCH  13  14
ENDBRANCH  12  13
ENDBRANCH  11  12
ENDBRANCH   1  11
TORSDOF 15
ENDMDL
MODEL 5
REMARK VINA RESULT:    -3.776      1.074     10.950
REMARK INTER + INTRA:          -7.928
REMARK INTER:                  -7.343
REMARK INTRA:                  -0.585
REMARK UNBOUND:                -0.841
REMARK SMILES O=C([O-])CCCCCCCCCCCCCCC(=O)[O-]
REMARK SMILES IDX 10 1 9 2 8 3 7 4 6 5 5 6 4 7 2 8 1 9 3 10 11 11 12 12 13 13
REMARK SMILES IDX 14 14 15 15 16 16 17 17 18 18 19 19 20 20
REMARK H PARENT
REMARK Flexibility Score: inf
ROOT
ATOM      1  C   UNL     1       5.197  11.197  33.382  1.00  0.00     0.000 C 
ENDROOT
BRANCH   1   2
ATOM      2  C   UNL     1       6.394  10.294  33.030  1.00  0.00     0.000 C 
BRANCH   2   3
ATOM      3  C   UNL     1       6.595   9.157  34.044  1.00  0.00     0.000 C 
BRANCH   3   4
ATOM      4  C   UNL     1       7.175   7.886  33.401  1.00  0.00     0.000 C 
BRANCH   4   5
ATOM      5  C   UNL     1       6.833   6.616  34.195  1.00  0.00     0.000 C 
BRANCH   5   6
ATOM      6  C   UNL     1       7.572   6.545  35.543  1.00  0.00     0.006 C 
BRANCH   6   7
ATOM      7  C   UNL     1       8.866   5.726  35.450  1.00  0.00     0.053 C 
BRANCH   7   8
ATOM      8  C   UNL     1       8.742   4.411  36.156  1.00  0.00     0.041 C 
ATOM      9  O   UNL     1       9.699   3.966  36.842  1.00  0.00    -0.550 OA
ATOM     10  O   UNL     1       7.579   3.660  36.029  1.00  0.00    -0.550 OA
ENDBRANCH   7   8
ENDBRANCH   6   7
ENDBRANCH   5   6
ENDBRANCH   4   5
ENDBRANCH   3   4
ENDBRANCH   2   3
ENDBRANCH   1   2
BRANCH   1  11
ATOM     11  C   UNL     1       5.226  11.652  34.857  1.00  0.00     0.000 C 
BRANCH  11  12
ATOM     12  C   UNL     1       5.080  13.173  35.035  1.00  0.00     0.000 C 
BRANCH  12  13
ATOM     13  C   UNL     1       5.867  13.710  36.242  1.00  0.00     0.000 C 
BRANCH  13  14
ATOM     14  C   UNL     1       6.120  15.224  36.155  1.00  0.00     0.000 C 
BRANCH  14  15
ATOM     15  C   UNL     1       6.102  15.743  34.707  1.00  0.00     0.000 C 
BRANCH  15  16
ATOM     16  C   UNL     1       5.763  17.239  34.620  1.00  0.00     0.006 C 
BRANCH  16  17
ATOM     17  C   UNL     1       6.992  18.110  34.328  1.00  0.00     0.053 C 
BRANCH  17  18
ATOM     18  C   UNL     1       6.574  19.436  33.776  1.00  0.00     0.041 C 
ATOM     19  O   UNL     1       7.422  20.194  33.236  1.00  0.00    -0.550 OA
ATOM     20  O   UNL     1       5.238  19.816  33.814  1.00  0.00    -0.550 OA
ENDBRANCH  17  18
ENDBRANCH  16  17
ENDBRANCH  15  16
ENDBRANCH  14  15
ENDBRANCH  13  14
ENDBRANCH  12  13
ENDBRANCH  11  12
ENDBRANCH   1  11
TORSDOF 15
ENDMDL
MODEL 6
REMARK VINA RESULT:    -3.702      1.677     10.727
REMARK INTER + INTRA:          -7.789
REMARK INTER:                  -6.932
REMARK INTRA:                  -0.858
REMARK UNBOUND:                -0.841
REMARK SMILES O=C([O-])CCCCCCCCCCCCCCC(=O)[O-]
REMARK SMILES IDX 10 1 9 2 8 3 7 4 6 5 5 6 4 7 2 8 1 9 3 10 11 11 12 12 13 13
REMARK SMILES IDX 14 14 15 15 16 16 17 17 18 18 19 19 20 20
REMARK H PARENT
REMARK Flexibility Score: inf
ROOT
ATOM      1  C   UNL     1       7.480   8.867  33.409  1.00  0.00     0.000 C 
ENDROOT
BRANCH   1   2
ATOM      2  C   UNL     1       6.861   7.804  34.335  1.00  0.00     0.000 C 
BRANCH   2   3
ATOM      3  C   UNL     1       6.265   6.619  33.559  1.00  0.00     0.000 C 
BRANCH   3   4
ATOM      4  C   UNL     1       5.706   5.526  34.486  1.00  0.00     0.000 C 
BRANCH   4   5
ATOM      5  C   UNL     1       5.675   5.963  35.959  1.00  0.00     0.000 C 
BRANCH   5   6
ATOM      6  C   UNL     1       6.679   5.185  36.827  1.00  0.00     0.006 C 
BRANCH   6   7
ATOM      7  C   UNL     1       7.472   4.155  36.013  1.00  0.00     0.053 C 
BRANCH   7   8
ATOM      8  C   UNL     1       8.931   4.491  35.967  1.00  0.00     0.041 C 
ATOM      9  O   UNL     1       9.304   5.691  35.896  1.00  0.00    -0.550 OA
ATOM     10  O   UNL     1       9.879   3.475  35.968  1.00  0.00    -0.550 OA
ENDBRANCH   7   8
ENDBRANCH   6   7
ENDBRANCH   5   6
ENDBRANCH   4   5
ENDBRANCH   3   4
ENDBRANCH   2   3
ENDBRANCH   1   2
BRANCH   1  11
ATOM     11  C   UNL     1       6.456   9.946  32.997  1.00  0.00     0.000 C 
BRANCH  11  12
ATOM     12  C   UNL     1       5.631  10.493  34.175  1.00  0.00     0.000 C 
BRANCH  12  13
ATOM     13  C   UNL     1       4.972  11.847  33.864  1.00  0.00     0.000 C 
BRANCH  13  14
ATOM     14  C   UNL     1       5.301  12.920  34.915  1.00  0.00     0.000 C 
BRANCH  14  15
ATOM     15  C   UNL     1       5.037  14.346  34.404  1.00  0.00     0.000 C 
BRANCH  15  16
ATOM     16  C   UNL     1       6.183  15.314  34.736  1.00  0.00     0.006 C 
BRANCH  16  17
ATOM     17  C   UNL     1       5.719  16.520  35.564  1.00  0.00     0.053 C 
BRANCH  17  18
ATOM     18  C   UNL     1       5.919  17.789  34.797  1.00  0.00     0.041 C 
ATOM     19  O   UNL     1       6.766  18.637  35.184  1.00  0.00    -0.550 OA
ATOM     20  O   UNL     1       5.204  18.015  33.628  1.00  0.00    -0.550 OA
ENDBRANCH  17  18
ENDBRANCH  16  17
ENDBRANCH  15  16
ENDBRANCH  14  15
ENDBRANCH  13  14
ENDBRANCH  12  13
ENDBRANCH  11  12
ENDBRANCH   1  11
TORSDOF 15
ENDMDL
MODEL 7
REMARK VINA RESULT:    -3.428      1.576      2.876
REMARK INTER + INTRA:          -7.275
REMARK INTER:                  -6.541
REMARK INTRA:                  -0.734
REMARK UNBOUND:                -0.841
REMARK SMILES O=C([O-])CCCCCCCCCCCCCCC(=O)[O-]
REMARK SMILES IDX 10 1 9 2 8 3 7 4 6 5 5 6 4 7 2 8 1 9 3 10 11 11 12 12 13 13
REMARK SMILES IDX 14 14 15 15 16 16 17 17 18 18 19 19 20 20
REMARK H PARENT
REMARK Flexibility Score: inf
ROOT
ATOM      1  C   UNL     1       5.933  10.865  33.353  1.00  0.00     0.000 C 
ENDROOT
BRANCH   1   2
ATOM      2  C   UNL     1       4.875  11.775  34.003  1.00  0.00     0.000 C 
BRANCH   2   3
ATOM      3  C   UNL     1       5.307  13.250  34.042  1.00  0.00     0.000 C 
BRANCH   3   4
ATOM      4  C   UNL     1       5.519  13.766  35.475  1.00  0.00     0.000 C 
BRANCH   4   5
ATOM      5  C   UNL     1       4.961  15.184  35.678  1.00  0.00     0.000 C 
BRANCH   5   6
ATOM      6  C   UNL     1       6.066  16.255  35.707  1.00  0.00     0.006 C 
BRANCH   6   7
ATOM      7  C   UNL     1       6.115  17.071  34.409  1.00  0.00     0.053 C 
BRANCH   7   8
ATOM      8  C   UNL     1       6.567  18.477  34.656  1.00  0.00     0.041 C 
ATOM      9  O   UNL     1       6.807  19.245  33.687  1.00  0.00    -0.550 OA
ATOM     10  O   UNL     1       6.757  18.929  35.956  1.00  0.00    -0.550 OA
ENDBRANCH   7   8
ENDBRANCH   6   7
ENDBRANCH   5   6
ENDBRANCH   4   5
ENDBRANCH   3   4
ENDBRANCH   2   3
ENDBRANCH   1   2
BRANCH   1  11
ATOM     11  C   UNL     1       5.823   9.405  33.841  1.00  0.00     0.000 C 
BRANCH  11  12
ATOM     12  C   UNL     1       6.751   8.433  33.092  1.00  0.00     0.000 C 
BRANCH  12  13
ATOM     13  C   UNL     1       8.035   8.113  33.873  1.00  0.00     0.000 C 
BRANCH  13  14
ATOM     14  C   UNL     1       8.186   6.613  34.172  1.00  0.00     0.000 C 
BRANCH  14  15
ATOM     15  C   UNL     1       8.244   6.315  35.680  1.00  0.00     0.000 C 
BRANCH  15  16
ATOM     16  C   UNL     1       6.993   5.578  36.185  1.00  0.00     0.006 C 
BRANCH  16  17
ATOM     17  C   UNL     1       5.939   5.379  35.088  1.00  0.00     0.053 C 
BRANCH  17  18
ATOM     18  C   UNL     1       5.694   3.922  34.857  1.00  0.00     0.041 C 
ATOM     19  O   UNL     1       5.128   3.534  33.800  1.00  0.00    -0.550 OA
ATOM     20  O   UNL     1       6.133   2.986  35.785  1.00  0.00    -0.550 OA
ENDBRANCH  17  18
ENDBRANCH  16  17
ENDBRANCH  15  16
ENDBRANCH  14  15
ENDBRANCH  13  14
ENDBRANCH  12  13
ENDBRANCH  11  12
ENDBRANCH   1  11
TORSDOF 15
ENDMDL
MODEL 8
REMARK VINA RESULT:    -3.330      5.193     10.414
REMARK INTER + INTRA:          -7.091
REMARK INTER:                  -5.404
REMARK INTRA:                  -1.688
REMARK UNBOUND:                -0.841
REMARK SMILES O=C([O-])CCCCCCCCCCCCCCC(=O)[O-]
REMARK SMILES IDX 10 1 9 2 8 3 7 4 6 5 5 6 4 7 2 8 1 9 3 10 11 11 12 12 13 13
REMARK SMILES IDX 14 14 15 15 16 16 17 17 18 18 19 19 20 20
REMARK H PARENT
REMARK Flexibility Score: inf
ROOT
ATOM      1  C   UNL     1       9.157   5.779  34.830  1.00  0.00     0.000 C 
ENDROOT
BRANCH   1   2
ATOM      2  C   UNL     1       9.296   5.072  36.190  1.00  0.00     0.000 C 
BRANCH   2   3
ATOM      3  C   UNL     1       8.715   3.650  36.179  1.00  0.00     0.000 C 
BRANCH   3   4
ATOM      4  C   UNL     1       7.183   3.636  36.320  1.00  0.00     0.000 C 
BRANCH   4   5
ATOM      5  C   UNL     1       6.536   2.438  35.607  1.00  0.00     0.000 C 
BRANCH   5   6
ATOM      6  C   UNL     1       5.095   2.728  35.152  1.00  0.00     0.006 C 
BRANCH   6   7
ATOM      7  C   UNL     1       4.895   4.200  34.768  1.00  0.00     0.053 C 
BRANCH   7   8
ATOM      8  C   UNL     1       4.978   4.402  33.287  1.00  0.00     0.041 C 
ATOM      9  O   UNL     1       4.875   3.419  32.506  1.00  0.00    -0.550 OA
ATOM     10  O   UNL     1       5.205   5.671  32.769  1.00  0.00    -0.550 OA
ENDBRANCH   7   8
ENDBRANCH   6   7
ENDBRANCH   5   6
ENDBRANCH   4   5
ENDBRANCH   3   4
ENDBRANCH   2   3
ENDBRANCH   1   2
BRANCH   1  11
ATOM     11  C   UNL     1       7.909   6.686  34.772  1.00  0.00     0.000 C 
BRANCH  11  12
ATOM     12  C   UNL     1       7.629   7.434  36.087  1.00  0.00     0.000 C 
BRANCH  12  13
ATOM     13  C   UNL     1       6.217   7.170  36.634  1.00  0.00     0.000 C 
BRANCH  13  14
ATOM     14  C   UNL     1       5.430   8.466  36.887  1.00  0.00     0.000 C 
BRANCH  14  15
ATOM     15  C   UNL     1       6.337   9.707  36.933  1.00  0.00     0.000 C 
BRANCH  15  16
ATOM     16  C   UNL     1       5.802  10.863  36.074  1.00  0.00     0.006 C 
BRANCH  16  17
ATOM     17  C   UNL     1       4.906  10.381  34.924  1.00  0.00     0.053 C 
BRANCH  17  18
ATOM     18  C   UNL     1       5.533  10.701  33.604  1.00  0.00     0.041 C 
ATOM     19  O   UNL     1       5.241  11.771  33.007  1.00  0.00    -0.550 OA
ATOM     20  O   UNL     1       6.477   9.843  33.055  1.00  0.00    -0.550 OA
ENDBRANCH  17  18
ENDBRANCH  16  17
ENDBRANCH  15  16
ENDBRANCH  14  15
ENDBRANCH  13  14
ENDBRANCH  12  13
ENDBRANCH  11  12
ENDBRANCH   1  11
TORSDOF 15
ENDMDL
MODEL 9
REMARK VINA RESULT:    -3.217      3.024      5.034
REMARK INTER + INTRA:          -6.879
REMARK INTER:                  -5.408
REMARK INTRA:                  -1.471
REMARK UNBOUND:                -0.841
REMARK SMILES O=C([O-])CCCCCCCCCCCCCCC(=O)[O-]
REMARK SMILES IDX 10 1 9 2 8 3 7 4 6 5 5 6 4 7 2 8 1 9 3 10 11 11 12 12 13 13
REMARK SMILES IDX 14 14 15 15 16 16 17 17 18 18 19 19 20 20
REMARK H PARENT
REMARK Flexibility Score: inf
ROOT
ATOM      1  C   UNL     1       7.498   9.431  33.716  1.00  0.00     0.000 C 
ENDROOT
BRANCH   1   2
ATOM      2  C   UNL     1       5.974   9.605  33.581  1.00  0.00     0.000 C 
BRANCH   2   3
ATOM      3  C   UNL     1       5.300   9.960  34.915  1.00  0.00     0.000 C 
BRANCH   3   4
ATOM      4  C   UNL     1       6.289   9.971  36.094  1.00  0.00     0.000 C 
BRANCH   4   5
ATOM      5  C   UNL     1       6.019  11.120  37.078  1.00  0.00     0.000 C 
BRANCH   5   6
ATOM      6  C   UNL     1       5.429  12.363  36.389  1.00  0.00     0.006 C 
BRANCH   6   7
ATOM      7  C   UNL     1       6.152  13.651  36.801  1.00  0.00     0.053 C 
BRANCH   7   8
ATOM      8  C   UNL     1       5.977  14.735  35.782  1.00  0.00     0.041 C 
ATOM      9  O   UNL     1       6.038  15.944  36.126  1.00  0.00    -0.550 OA
ATOM     10  O   UNL     1       5.711  14.408  34.458  1.00  0.00    -0.550 OA
ENDBRANCH   7   8
ENDBRANCH   6   7
ENDBRANCH   5   6
ENDBRANCH   4   5
ENDBRANCH   3   4
ENDBRANCH   2   3
ENDBRANCH   1   2
BRANCH   1  11
ATOM     11  C   UNL     1       7.948   7.989  33.396  1.00  0.00     0.000 C 
BRANCH  11  12
ATOM     12  C   UNL     1       6.887   6.925  33.726  1.00  0.00     0.000 C 
BRANCH  12  13
ATOM     13  C   UNL     1       7.244   6.092  34.967  1.00  0.00     0.000 C 
BRANCH  13  14
ATOM     14  C   UNL     1       6.315   6.378  36.158  1.00  0.00     0.000 C 
BRANCH  14  15
ATOM     15  C   UNL     1       4.890   5.843  35.936  1.00  0.00     0.000 C 
BRANCH  15  16
ATOM     16  C   UNL     1       4.875   4.471  35.246  1.00  0.00     0.006 C 
BRANCH  16  17
ATOM     17  C   UNL     1       5.183   3.318  36.211  1.00  0.00     0.053 C 
BRANCH  17  18
ATOM     18  C   UNL     1       6.286   2.464  35.671  1.00  0.00     0.041 C 
ATOM     19  O   UNL     1       7.467   2.624  36.076  1.00  0.00    -0.550 OA
ATOM     20  O   UNL     1       6.003   1.459  34.755  1.00  0.00    -0.550 OA
ENDBRANCH  17  18
ENDBRANCH  16  17
ENDBRANCH  15  16
ENDBRANCH  14  15
ENDBRANCH  13  14
ENDBRANCH  12  13
ENDBRANCH  11  12
ENDBRANCH   1  11
TORSDOF 15
ENDMDL
