MODEL 1
REMARK VINA RESULT:    -2.485      0.000      0.000
REMARK INTER + INTRA:          -3.374
REMARK INTER:                  -3.211
REMARK INTRA:                  -0.163
REMARK UNBOUND:                -0.163
REMARK SMILES CCCCCCC=O
REMARK SMILES IDX 4 1 3 2 2 3 1 4 5 5 6 6 7 7 8 8
REMARK H PARENT
REMARK Flexibility Score: inf
ROOT
ATOM      1  C   UNL     1     240.065 236.219 234.208  1.00  0.00     0.000 C 
ENDROOT
BRANCH   1   2
ATOM      2  C   UNL     1     238.885 237.024 233.641  1.00  0.00    -0.000 C 
BRANCH   2   3
ATOM      3  C   UNL     1     237.914 236.156 232.828  1.00  0.00    -0.003 C 
ATOM      4  C   UNL     1     238.669 235.233 231.876  1.00  0.00     0.004 C 
ENDBRANCH   2   3
ENDBRANCH   1   2
BRANCH   1   5
ATOM      5  C   UNL     1     241.426 236.782 233.776  1.00  0.00     0.008 C 
BRANCH   5   6
ATOM      6  C   UNL     1     241.530 238.276 234.105  1.00  0.00     0.072 C 
BRANCH   6   7
ATOM      7  C   UNL     1     242.688 238.904 233.390  1.00  0.00     0.224 C 
ATOM      8  O   UNL     1     242.627 240.062 233.008  1.00  0.00    -0.303 OA
ENDBRANCH   6   7
ENDBRANCH   5   6
ENDBRANCH   1   5
TORSDOF 5
ENDMDL
MODEL 2
REMARK VINA RESULT:    -2.426      8.498      9.629
REMARK INTER + INTRA:          -3.298
REMARK INTER:                  -3.010
REMARK INTRA:                  -0.288
REMARK UNBOUND:                -0.163
REMARK SMILES CCCCCCC=O
REMARK SMILES IDX 4 1 3 2 2 3 1 4 5 5 6 6 7 7 8 8
REMARK H PARENT
REMARK Flexibility Score: inf
ROOT
ATOM      1  C   UNL     1     232.233 239.133 234.852  1.00  0.00     0.000 C 
ENDROOT
BRANCH   1   2
ATOM      2  C   UNL     1     231.437 238.704 233.609  1.00  0.00    -0.000 C 
BRANCH   2   3
ATOM      3  C   UNL     1     232.235 237.767 232.691  1.00  0.00    -0.003 C 
ATOM      4  C   UNL     1     233.265 238.543 231.876  1.00  0.00     0.004 C 
ENDBRANCH   2   3
ENDBRANCH   1   2
BRANCH   1   5
ATOM      5  C   UNL     1     232.382 240.657 234.962  1.00  0.00     0.008 C 
BRANCH   5   6
ATOM      6  C   UNL     1     231.765 241.357 233.744  1.00  0.00     0.072 C 
BRANCH   6   7
ATOM      7  C   UNL     1     230.597 242.205 234.148  1.00  0.00     0.224 C 
ATOM      8  O   UNL     1     229.463 241.751 234.123  1.00  0.00    -0.303 OA
ENDBRANCH   6   7
ENDBRANCH   5   6
ENDBRANCH   1   5
TORSDOF 5
ENDMDL
MODEL 3
REMARK VINA RESULT:    -2.417      9.149     10.496
REMARK INTER + INTRA:          -3.287
REMARK INTER:                  -3.096
REMARK INTRA:                  -0.191
REMARK UNBOUND:                -0.163
REMARK SMILES CCCCCCC=O
REMARK SMILES IDX 4 1 3 2 2 3 1 4 5 5 6 6 7 7 8 8
REMARK H PARENT
REMARK Flexibility Score: inf
ROOT
ATOM      1  C   UNL     1     236.143 228.208 233.941  1.00  0.00     0.000 C 
ENDROOT
BRANCH   1   2
ATOM      2  C   UNL     1     237.003 229.417 233.541  1.00  0.00    -0.000 C 
BRANCH   2   3
ATOM      3  C   UNL     1     236.192 230.511 232.832  1.00  0.00    -0.003 C 
ATOM      4  C   UNL     1     235.158 229.902 231.887  1.00  0.00     0.004 C 
ENDBRANCH   2   3
ENDBRANCH   1   2
BRANCH   1   5
ATOM      5  C   UNL     1     236.929 226.889 233.920  1.00  0.00     0.008 C 
BRANCH   5   6
ATOM      6  C   UNL     1     238.420 227.137 234.179  1.00  0.00     0.072 C 
BRANCH   6   7
ATOM      7  C   UNL     1     239.252 226.007 233.650  1.00  0.00     0.224 C 
ATOM      8  O   UNL     1     238.792 225.231 232.828  1.00  0.00    -0.303 OA
ENDBRANCH   6   7
ENDBRANCH   5   6
ENDBRANCH   1   5
TORSDOF 5
ENDMDL
MODEL 4
REMARK VINA RESULT:    -2.383     12.999     14.874
REMARK INTER + INTRA:          -3.242
REMARK INTER:                  -3.142
REMARK INTRA:                  -0.100
REMARK UNBOUND:                -0.163
REMARK SMILES CCCCCCC=O
REMARK SMILES IDX 4 1 3 2 2 3 1 4 5 5 6 6 7 7 8 8
REMARK H PARENT
REMARK Flexibility Score: inf
ROOT
ATOM      1  C   UNL     1     226.492 230.530 234.394  1.00  0.00     0.000 C 
ENDROOT
BRANCH   1   2
ATOM      2  C   UNL     1     225.703 229.711 233.359  1.00  0.00    -0.000 C 
BRANCH   2   3
ATOM      3  C   UNL     1     225.931 228.199 233.505  1.00  0.00    -0.003 C 
ATOM      4  C   UNL     1     225.507 227.456 232.240  1.00  0.00     0.004 C 
ENDBRANCH   2   3
ENDBRANCH   1   2
BRANCH   1   5
ATOM      5  C   UNL     1     227.244 231.711 233.764  1.00  0.00     0.008 C 
BRANCH   5   6
ATOM      6  C   UNL     1     228.754 231.447 233.740  1.00  0.00     0.072 C 
BRANCH   6   7
ATOM      7  C   UNL     1     229.487 232.583 233.091  1.00  0.00     0.224 C 
ATOM      8  O   UNL     1     229.050 233.102 232.075  1.00  0.00    -0.303 OA
ENDBRANCH   6   7
ENDBRANCH   5   6
ENDBRANCH   1   5
TORSDOF 5
ENDMDL
MODEL 5
REMARK VINA RESULT:    -2.367      1.328      2.398
REMARK INTER + INTRA:          -3.222
REMARK INTER:                  -3.099
REMARK INTRA:                  -0.123
REMARK UNBOUND:                -0.163
REMARK SMILES CCCCCCC=O
REMARK SMILES IDX 4 1 3 2 2 3 1 4 5 5 6 6 7 7 8 8
REMARK H PARENT
REMARK Flexibility Score: inf
ROOT
ATOM      1  C   UNL     1     241.439 238.131 234.145  1.00  0.00     0.000 C 
ENDROOT
BRANCH   1   2
ATOM      2  C   UNL     1     241.332 236.637 233.802  1.00  0.00    -0.000 C 
BRANCH   2   3
ATOM      3  C   UNL     1     239.919 236.233 233.358  1.00  0.00    -0.003 C 
ATOM      4  C   UNL     1     238.880 237.237 233.850  1.00  0.00     0.004 C 
ENDBRANCH   2   3
ENDBRANCH   1   2
BRANCH   1   5
ATOM      5  C   UNL     1     242.666 238.798 233.506  1.00  0.00     0.008 C 
BRANCH   5   6
ATOM      6  C   UNL     1     242.587 240.324 233.632  1.00  0.00     0.072 C 
BRANCH   6   7
ATOM      7  C   UNL     1     242.932 240.988 232.333  1.00  0.00     0.224 C 
ATOM      8  O   UNL     1     242.955 242.206 232.247  1.00  0.00    -0.303 OA
ENDBRANCH   6   7
ENDBRANCH   5   6
ENDBRANCH   1   5
TORSDOF 5
ENDMDL
MODEL 6
REMARK VINA RESULT:    -2.327     12.728     14.735
REMARK INTER + INTRA:          -3.170
REMARK INTER:                  -2.952
REMARK INTRA:                  -0.218
REMARK UNBOUND:                -0.163
REMARK SMILES CCCCCCC=O
REMARK SMILES IDX 4 1 3 2 2 3 1 4 5 5 6 6 7 7 8 8
REMARK H PARENT
REMARK Flexibility Score: inf
ROOT
ATOM      1  C   UNL     1     228.295 232.497 234.367  1.00  0.00     0.000 C 
ENDROOT
BRANCH   1   2
ATOM      2  C   UNL     1     229.356 231.568 233.756  1.00  0.00    -0.000 C 
BRANCH   2   3
ATOM      3  C   UNL     1     230.307 232.304 232.802  1.00  0.00    -0.003 C 
ATOM      4  C   UNL     1     229.538 233.241 231.875  1.00  0.00     0.004 C 
ENDBRANCH   2   3
ENDBRANCH   1   2
BRANCH   1   5
ATOM      5  C   UNL     1     226.933 231.808 234.536  1.00  0.00     0.008 C 
BRANCH   5   6
ATOM      6  C   UNL     1     227.027 230.316 234.195  1.00  0.00     0.072 C 
BRANCH   6   7
ATOM      7  C   UNL     1     225.848 229.876 233.382  1.00  0.00     0.224 C 
ATOM      8  O   UNL     1     224.837 229.461 233.929  1.00  0.00    -0.303 OA
ENDBRANCH   6   7
ENDBRANCH   5   6
ENDBRANCH   1   5
TORSDOF 5
ENDMDL
MODEL 7
REMARK VINA RESULT:    -2.312      8.658     10.339
REMARK INTER + INTRA:          -3.151
REMARK INTER:                  -3.047
REMARK INTRA:                  -0.104
REMARK UNBOUND:                -0.163
REMARK SMILES CCCCCCC=O
REMARK SMILES IDX 4 1 3 2 2 3 1 4 5 5 6 6 7 7 8 8
REMARK H PARENT
REMARK Flexibility Score: inf
ROOT
ATOM      1  C   UNL     1     236.314 228.874 233.478  1.00  0.00     0.000 C 
ENDROOT
BRANCH   1   2
ATOM      2  C   UNL     1     235.448 229.127 232.233  1.00  0.00    -0.000 C 
BRANCH   2   3
ATOM      3  C   UNL     1     235.348 230.617 231.875  1.00  0.00    -0.003 C 
ATOM      4  C   UNL     1     235.592 231.493 233.101  1.00  0.00     0.004 C 
ENDBRANCH   2   3
ENDBRANCH   1   2
BRANCH   1   5
ATOM      5  C   UNL     1     236.583 227.382 233.718  1.00  0.00     0.008 C 
BRANCH   5   6
ATOM      6  C   UNL     1     238.037 227.150 234.146  1.00  0.00     0.072 C 
BRANCH   6   7
ATOM      7  C   UNL     1     238.555 225.852 233.603  1.00  0.00     0.224 C 
ATOM      8  O   UNL     1     239.586 225.821 232.950  1.00  0.00    -0.303 OA
ENDBRANCH   6   7
ENDBRANCH   5   6
ENDBRANCH   1   5
TORSDOF 5
ENDMDL
MODEL 8
REMARK VINA RESULT:    -2.310      9.293     10.824
REMARK INTER + INTRA:          -3.148
REMARK INTER:                  -2.938
REMARK INTRA:                  -0.210
REMARK UNBOUND:                -0.163
REMARK SMILES CCCCCCC=O
REMARK SMILES IDX 4 1 3 2 2 3 1 4 5 5 6 6 7 7 8 8
REMARK H PARENT
REMARK Flexibility Score: inf
ROOT
ATOM      1  C   UNL     1     237.743 226.520 233.760  1.00  0.00     0.000 C 
ENDROOT
BRANCH   1   2
ATOM      2  C   UNL     1     238.916 225.590 233.414  1.00  0.00    -0.000 C 
BRANCH   2   3
ATOM      3  C   UNL     1     240.278 226.194 233.784  1.00  0.00    -0.003 C 
ATOM      4  C   UNL     1     241.337 225.841 232.743  1.00  0.00     0.004 C 
ENDBRANCH   2   3
ENDBRANCH   1   2
BRANCH   1   5
ATOM      5  C   UNL     1     238.182 227.752 234.565  1.00  0.00     0.008 C 
BRANCH   5   6
ATOM      6  C   UNL     1     237.436 229.007 234.096  1.00  0.00     0.072 C 
BRANCH   6   7
ATOM      7  C   UNL     1     236.175 228.642 233.372  1.00  0.00     0.224 C 
ATOM      8  O   UNL     1     235.691 229.403 232.548  1.00  0.00    -0.303 OA
ENDBRANCH   6   7
ENDBRANCH   5   6
ENDBRANCH   1   5
TORSDOF 5
ENDMDL
MODEL 9
REMARK VINA RESULT:    -2.309      2.243      4.844
REMARK INTER + INTRA:          -3.146
REMARK INTER:                  -2.958
REMARK INTRA:                  -0.188
REMARK UNBOUND:                -0.163
REMARK SMILES CCCCCCC=O
REMARK SMILES IDX 4 1 3 2 2 3 1 4 5 5 6 6 7 7 8 8
REMARK H PARENT
REMARK Flexibility Score: inf
ROOT
ATOM      1  C   UNL     1     242.882 238.975 233.975  1.00  0.00     0.000 C 
ENDROOT
BRANCH   1   2
ATOM      2  C   UNL     1     243.710 239.308 232.724  1.00  0.00    -0.000 C 
BRANCH   2   3
ATOM      3  C   UNL     1     243.169 240.529 231.966  1.00  0.00    -0.003 C 
ATOM      4  C   UNL     1     242.603 241.568 232.931  1.00  0.00     0.004 C 
ENDBRANCH   2   3
ENDBRANCH   1   2
BRANCH   1   5
ATOM      5  C   UNL     1     241.897 237.821 233.742  1.00  0.00     0.008 C 
BRANCH   5   6
ATOM      6  C   UNL     1     240.588 238.056 234.505  1.00  0.00     0.072 C 
BRANCH   6   7
ATOM      7  C   UNL     1     239.510 237.135 234.018  1.00  0.00     0.224 C 
ATOM      8  O   UNL     1     239.753 236.290 233.170  1.00  0.00    -0.303 OA
ENDBRANCH   6   7
ENDBRANCH   5   6
ENDBRANCH   1   5
TORSDOF 5
ENDMDL
