MODEL 1
REMARK VINA RESULT:    -3.264      0.000      0.000
REMARK INTER + INTRA:          -5.288
REMARK INTER:                  -4.791
REMARK INTRA:                  -0.497
REMARK UNBOUND:                -0.497
REMARK SMILES C=C1C=C[C@H](C(C)C)CCC(C)=CCC1
REMARK SMILES IDX 3 1 4 2 5 3 9 4 10 5 11 6 12 7 13 8 6 10 7 11 8 12 2 13 1 14
REMARK SMILES IDX 15 15 14 16
REMARK H PARENT
REMARK Flexibility Score: 70.00
ROOT
ATOM      1  C   UNL     1      10.965  18.723  27.505  1.00  0.00    -0.001 C 
ATOM      2  C   UNL     1      10.283  18.776  26.348  1.00  0.00    -0.023 C 
ENDROOT
BRANCH   2   3
ATOM      3  C   UNL     1      10.292  19.874  25.289  1.00  0.00     0.014 C 
BRANCH   3   4
ATOM      4  C   UNL     1      11.462  19.721  24.272  1.00  0.00     0.012 C 
BRANCH   4   5
ATOM      5  C   UNL     1      12.482  20.880  24.218  1.00  0.00     0.031 C 
BRANCH   5   6
ATOM      6  C   UNL     1      13.914  20.412  24.389  1.00  0.00    -0.077 C 
ATOM      7  C   UNL     1      14.683  19.959  23.172  1.00  0.00     0.039 C 
ATOM      8  C   UNL     1      14.528  20.322  25.594  1.00  0.00    -0.028 CG0
ATOM      9  G   UNL     1      13.974  20.792  26.922  1.00  0.00     0.000 G0
ENDBRANCH   5   6
ENDBRANCH   4   5
ENDBRANCH   3   4
BRANCH   3  10
ATOM     10  C   UNL     1       8.890  20.204  24.682  1.00  0.00    -0.010 C 
ATOM     11  C   UNL     1       8.898  20.089  23.146  1.00  0.00     0.008 C 
ATOM     12  C   UNL     1       7.805  19.262  25.236  1.00  0.00     0.008 C 
ENDBRANCH   3  10
ENDBRANCH   2   3
BRANCH   1  13
ATOM     13  C   UNL     1      11.880  19.757  28.014  1.00  0.00    -0.055 C 
ATOM     14  C   UNL     1      11.373  20.927  28.413  1.00  0.00     0.012 C 
BRANCH  13  15
ATOM     15  C   UNL     1      13.373  19.640  27.780  1.00  0.00     0.039 C 
BRANCH  15  16
ATOM     16  C   UNL     1      13.973  20.777  26.923  1.00  0.00     0.032 CG0
ATOM     17  G   UNL     1      14.533  20.325  25.592  1.00  0.00     0.000 G0
ENDBRANCH  15  16
ENDBRANCH  13  15
ENDBRANCH   1  13
TORSDOF 1
ENDMDL
MODEL 2
REMARK VINA RESULT:    -3.235      4.143      7.015
REMARK INTER + INTRA:          -5.244
REMARK INTER:                  -4.743
REMARK INTRA:                  -0.501
REMARK UNBOUND:                -0.497
REMARK SMILES C=C1C=C[C@H](C(C)C)CCC(C)=CCC1
REMARK SMILES IDX 3 1 4 2 5 3 9 4 10 5 11 6 12 7 13 8 6 10 7 11 8 12 2 13 1 14
REMARK SMILES IDX 15 15 14 16
REMARK H PARENT
REMARK Flexibility Score: 70.00
ROOT
ATOM      1  C   UNL     1       6.130  18.108  22.400  1.00  0.00    -0.001 C 
ATOM      2  C   UNL     1       7.383  18.126  22.885  1.00  0.00    -0.023 C 
ENDROOT
BRANCH   2   3
ATOM      3  C   UNL     1       8.096  19.249  23.633  1.00  0.00     0.014 C 
BRANCH   3   4
ATOM      4  C   UNL     1       7.711  19.306  25.142  1.00  0.00     0.012 C 
BRANCH   4   5
ATOM      5  C   UNL     1       6.765  20.452  25.567  1.00  0.00     0.031 C 
BRANCH   5   6
ATOM      6  C   UNL     1       7.107  21.773  24.906  1.00  0.00    -0.077 C 
ATOM      7  C   UNL     1       8.291  22.557  25.417  1.00  0.00     0.039 C 
ATOM      8  C   UNL     1       6.366  22.321  23.912  1.00  0.00    -0.028 CG0
ATOM      9  G   UNL     1       5.195  21.676  23.204  1.00  0.00     0.000 G0
ENDBRANCH   5   6
ENDBRANCH   4   5
ENDBRANCH   3   4
BRANCH   3  10
ATOM     10  C   UNL     1       9.618  19.386  23.305  1.00  0.00    -0.010 C 
ATOM     11  C   UNL     1       9.943  20.761  22.693  1.00  0.00     0.008 C 
ATOM     12  C   UNL     1      10.481  19.197  24.566  1.00  0.00     0.008 C 
ENDBRANCH   3  10
ENDBRANCH   2   3
BRANCH   1  13
ATOM     13  C   UNL     1       5.159  19.212  22.478  1.00  0.00    -0.055 C 
ATOM     14  C   UNL     1       3.858  18.920  22.565  1.00  0.00     0.012 C 
BRANCH  13  15
ATOM     15  C   UNL     1       5.579  20.626  22.130  1.00  0.00     0.039 C 
BRANCH  15  16
ATOM     16  C   UNL     1       5.193  21.683  23.190  1.00  0.00     0.032 CG0
ATOM     17  G   UNL     1       6.371  22.302  23.910  1.00  0.00     0.000 G0
ENDBRANCH  15  16
ENDBRANCH  13  15
ENDBRANCH   1  13
TORSDOF 1
ENDMDL
MODEL 3
REMARK VINA RESULT:    -3.168      2.389      5.224
REMARK INTER + INTRA:          -5.147
REMARK INTER:                  -4.559
REMARK INTRA:                  -0.588
REMARK UNBOUND:                -0.497
REMARK SMILES C=C1C=C[C@H](C(C)C)CCC(C)=CCC1
REMARK SMILES IDX 3 1 4 2 5 3 9 4 10 5 11 6 12 7 13 8 6 10 7 11 8 12 2 13 1 14
REMARK SMILES IDX 15 15 14 16
REMARK H PARENT
REMARK Flexibility Score: 70.00
ROOT
ATOM      1  C   UNL     1       9.560  19.155  23.096  1.00  0.00    -0.001 C 
ATOM      2  C   UNL     1      10.803  19.264  23.595  1.00  0.00    -0.023 C 
ENDROOT
BRANCH   2   3
ATOM      3  C   UNL     1      11.238  19.813  24.950  1.00  0.00     0.014 C 
BRANCH   3   4
ATOM      4  C   UNL     1      10.981  18.812  26.116  1.00  0.00     0.012 C 
BRANCH   4   5
ATOM      5  C   UNL     1       9.802  19.142  27.059  1.00  0.00     0.031 C 
BRANCH   5   6
ATOM      6  C   UNL     1       9.676  20.626  27.346  1.00  0.00    -0.077 C 
ATOM      7  C   UNL     1      10.644  21.265  28.311  1.00  0.00     0.039 C 
ATOM      8  C   UNL     1       8.697  21.404  26.824  1.00  0.00    -0.028 CG0
ATOM      9  G   UNL     1       7.678  20.990  25.784  1.00  0.00     0.000 G0
ENDBRANCH   5   6
ENDBRANCH   4   5
ENDBRANCH   3   4
BRANCH   3  10
ATOM     10  C   UNL     1      12.629  20.525  24.948  1.00  0.00    -0.010 C 
ATOM     11  C   UNL     1      12.480  22.058  24.984  1.00  0.00     0.008 C 
ATOM     12  C   UNL     1      13.482  20.090  26.154  1.00  0.00     0.008 C 
ENDBRANCH   3  10
ENDBRANCH   2   3
BRANCH   1  13
ATOM     13  C   UNL     1       8.321  19.572  23.771  1.00  0.00    -0.055 C 
ATOM     14  C   UNL     1       7.222  18.827  23.619  1.00  0.00     0.012 C 
BRANCH  13  15
ATOM     15  C   UNL     1       8.192  20.971  24.339  1.00  0.00     0.039 C 
BRANCH  15  16
ATOM     16  C   UNL     1       7.660  21.022  25.789  1.00  0.00     0.032 CG0
ATOM     17  G   UNL     1       8.703  21.393  26.822  1.00  0.00     0.000 G0
ENDBRANCH  15  16
ENDBRANCH  13  15
ENDBRANCH   1  13
TORSDOF 1
ENDMDL
MODEL 4
REMARK VINA RESULT:    -3.062      9.581     11.897
REMARK INTER + INTRA:          -4.991
REMARK INTER:                  -4.468
REMARK INTRA:                  -0.524
REMARK UNBOUND:                -0.497
REMARK SMILES C=C1C=C[C@H](C(C)C)CCC(C)=CCC1
REMARK SMILES IDX 3 1 4 2 5 3 9 4 10 5 11 6 12 7 13 8 6 10 7 11 8 12 2 13 1 14
REMARK SMILES IDX 15 15 14 16
REMARK H PARENT
REMARK Flexibility Score: 70.00
ROOT
ATOM      1  C   UNL     1      15.654  17.143  37.600  1.00  0.00    -0.001 C 
ATOM      2  C   UNL     1      14.856  16.184  37.102  1.00  0.00    -0.023 C 
ENDROOT
BRANCH   2   3
ATOM      3  C   UNL     1      13.334  16.178  36.991  1.00  0.00     0.014 C 
BRANCH   3   4
ATOM      4  C   UNL     1      12.818  16.943  35.736  1.00  0.00     0.012 C 
BRANCH   4   5
ATOM      5  C   UNL     1      11.938  18.185  36.001  1.00  0.00     0.031 C 
BRANCH   5   6
ATOM      6  C   UNL     1      12.407  19.412  35.243  1.00  0.00    -0.077 C 
ATOM      7  C   UNL     1      11.927  19.620  33.828  1.00  0.00     0.039 C 
ATOM      8  C   UNL     1      13.288  20.308  35.751  1.00  0.00    -0.028 CG0
ATOM      9  G   UNL     1      13.831  20.334  37.163  1.00  0.00     0.000 G0
ENDBRANCH   5   6
ENDBRANCH   4   5
ENDBRANCH   3   4
BRANCH   3  10
ATOM     10  C   UNL     1      12.666  14.794  37.276  1.00  0.00    -0.010 C 
ATOM     11  C   UNL     1      13.652  13.633  37.050  1.00  0.00     0.008 C 
ATOM     12  C   UNL     1      12.142  14.713  38.722  1.00  0.00     0.008 C 
ENDBRANCH   3  10
ENDBRANCH   2   3
BRANCH   1  13
ATOM     13  C   UNL     1      15.210  18.423  38.174  1.00  0.00    -0.055 C 
ATOM     14  C   UNL     1      14.525  18.412  39.321  1.00  0.00     0.012 C 
BRANCH  13  15
ATOM     15  C   UNL     1      15.223  19.684  37.333  1.00  0.00     0.039 C 
BRANCH  15  16
ATOM     16  C   UNL     1      13.838  20.349  37.164  1.00  0.00     0.032 CG0
ATOM     17  G   UNL     1      13.288  20.292  35.755  1.00  0.00     0.000 G0
ENDBRANCH  15  16
ENDBRANCH  13  15
ENDBRANCH   1  13
TORSDOF 1
ENDMDL
MODEL 5
REMARK VINA RESULT:    -3.047      2.151      2.936
REMARK INTER + INTRA:          -4.968
REMARK INTER:                  -4.618
REMARK INTRA:                  -0.350
REMARK UNBOUND:                -0.497
REMARK SMILES C=C1C=C[C@H](C(C)C)CCC(C)=CCC1
REMARK SMILES IDX 3 1 4 2 5 3 9 4 10 5 11 6 12 7 13 8 6 10 7 11 8 12 2 13 1 14
REMARK SMILES IDX 15 15 14 16
REMARK H PARENT
REMARK Flexibility Score: 70.00
ROOT
ATOM      1  C   UNL     1       8.705  19.114  26.960  1.00  0.00    -0.001 C 
ATOM      2  C   UNL     1       7.872  19.350  25.933  1.00  0.00    -0.023 C 
ENDROOT
BRANCH   2   3
ATOM      3  C   UNL     1       8.183  19.997  24.587  1.00  0.00     0.014 C 
BRANCH   3   4
ATOM      4  C   UNL     1       9.156  19.144  23.719  1.00  0.00     0.012 C 
BRANCH   4   5
ATOM      5  C   UNL     1      10.592  19.689  23.559  1.00  0.00     0.031 C 
BRANCH   5   6
ATOM      6  C   UNL     1      10.661  21.202  23.651  1.00  0.00    -0.077 C 
ATOM      7  C   UNL     1      10.163  22.025  22.489  1.00  0.00     0.039 C 
ATOM      8  C   UNL     1      11.204  21.859  24.704  1.00  0.00    -0.028 CG0
ATOM      9  G   UNL     1      11.689  21.239  25.997  1.00  0.00     0.000 G0
ENDBRANCH   5   6
ENDBRANCH   4   5
ENDBRANCH   3   4
BRANCH   3  10
ATOM     10  C   UNL     1       6.940  20.590  23.847  1.00  0.00    -0.010 C 
ATOM     11  C   UNL     1       6.254  19.535  22.960  1.00  0.00     0.008 C 
ATOM     12  C   UNL     1       5.903  21.136  24.846  1.00  0.00     0.008 C 
ENDBRANCH   3  10
ENDBRANCH   2   3
BRANCH   1  13
ATOM     13  C   UNL     1      10.136  19.456  27.006  1.00  0.00    -0.055 C 
ATOM     14  C   UNL     1      11.016  18.506  27.337  1.00  0.00     0.012 C 
BRANCH  13  15
ATOM     15  C   UNL     1      10.576  20.906  27.015  1.00  0.00     0.039 C 
BRANCH  15  16
ATOM     16  C   UNL     1      11.700  21.236  26.007  1.00  0.00     0.032 CG0
ATOM     17  G   UNL     1      11.215  21.853  24.713  1.00  0.00     0.000 G0
ENDBRANCH  15  16
ENDBRANCH  13  15
ENDBRANCH   1  13
TORSDOF 1
ENDMDL
MODEL 6
REMARK VINA RESULT:    -3.014      2.062      3.683
REMARK INTER + INTRA:          -4.920
REMARK INTER:                  -4.451
REMARK INTRA:                  -0.469
REMARK UNBOUND:                -0.497
REMARK SMILES C=C1C=C[C@H](C(C)C)CCC(C)=CCC1
REMARK SMILES IDX 3 1 4 2 5 3 9 4 10 5 11 6 12 7 13 8 6 10 7 11 8 12 2 13 1 14
REMARK SMILES IDX 15 15 14 16
REMARK H PARENT
REMARK Flexibility Score: 70.00
ROOT
ATOM      1  C   UNL     1       9.753  18.953  27.041  1.00  0.00    -0.001 C 
ATOM      2  C   UNL     1      10.950  18.853  26.438  1.00  0.00    -0.023 C 
ENDROOT
BRANCH   2   3
ATOM      3  C   UNL     1      11.528  19.718  25.322  1.00  0.00     0.014 C 
BRANCH   3   4
ATOM      4  C   UNL     1      12.889  20.370  25.710  1.00  0.00     0.012 C 
BRANCH   4   5
ATOM      5  C   UNL     1      12.955  21.051  27.095  1.00  0.00     0.031 C 
BRANCH   5   6
ATOM      6  C   UNL     1      12.332  22.434  27.102  1.00  0.00    -0.077 C 
ATOM      7  C   UNL     1      13.147  23.602  26.605  1.00  0.00     0.039 C 
ATOM      8  C   UNL     1      11.093  22.689  27.588  1.00  0.00    -0.028 CG0
ATOM      9  G   UNL     1      10.084  21.664  28.059  1.00  0.00     0.000 G0
ENDBRANCH   5   6
ENDBRANCH   4   5
ENDBRANCH   3   4
BRANCH   3  10
ATOM     10  C   UNL     1      11.451  19.080  23.897  1.00  0.00    -0.010 C 
ATOM     11  C   UNL     1      10.103  19.382  23.216  1.00  0.00     0.008 C 
ATOM     12  C   UNL     1      12.582  19.600  22.991  1.00  0.00     0.008 C 
ENDBRANCH   3  10
ENDBRANCH   2   3
BRANCH   1  13
ATOM     13  C   UNL     1       8.711  19.944  26.728  1.00  0.00    -0.055 C 
ATOM     14  C   UNL     1       7.721  19.598  25.899  1.00  0.00     0.012 C 
BRANCH  13  15
ATOM     15  C   UNL     1       8.926  21.409  27.052  1.00  0.00     0.039 C 
BRANCH  15  16
ATOM     16  C   UNL     1      10.072  21.676  28.054  1.00  0.00     0.032 CG0
ATOM     17  G   UNL     1      11.079  22.705  27.588  1.00  0.00     0.000 G0
ENDBRANCH  15  16
ENDBRANCH  13  15
ENDBRANCH   1  13
TORSDOF 1
ENDMDL
MODEL 7
REMARK VINA RESULT:    -2.997     11.612     12.976
REMARK INTER + INTRA:          -4.896
REMARK INTER:                  -4.369
REMARK INTRA:                  -0.527
REMARK UNBOUND:                -0.497
REMARK SMILES C=C1C=C[C@H](C(C)C)CCC(C)=CCC1
REMARK SMILES IDX 3 1 4 2 5 3 9 4 10 5 11 6 12 7 13 8 6 10 7 11 8 12 2 13 1 14
REMARK SMILES IDX 15 15 14 16
REMARK H PARENT
REMARK Flexibility Score: 70.00
ROOT
ATOM      1  C   UNL     1      14.503  17.292  36.341  1.00  0.00    -0.001 C 
ATOM      2  C   UNL     1      13.516  16.382  36.390  1.00  0.00    -0.023 C 
ENDROOT
BRANCH   2   3
ATOM      3  C   UNL     1      12.912  15.699  37.613  1.00  0.00     0.014 C 
BRANCH   3   4
ATOM      4  C   UNL     1      11.517  16.279  37.999  1.00  0.00     0.012 C 
BRANCH   4   5
ATOM      5  C   UNL     1      11.176  17.678  37.439  1.00  0.00     0.031 C 
BRANCH   5   6
ATOM      6  C   UNL     1      11.291  18.773  38.481  1.00  0.00    -0.077 C 
ATOM      7  C   UNL     1      10.216  18.892  39.534  1.00  0.00     0.039 C 
ATOM      8  C   UNL     1      12.283  19.696  38.484  1.00  0.00    -0.028 CG0
ATOM      9  G   UNL     1      13.494  19.716  37.576  1.00  0.00     0.000 G0
ENDBRANCH   5   6
ENDBRANCH   4   5
ENDBRANCH   3   4
BRANCH   3  10
ATOM     10  C   UNL     1      13.035  14.141  37.617  1.00  0.00    -0.010 C 
ATOM     11  C   UNL     1      11.733  13.470  37.142  1.00  0.00     0.008 C 
ATOM     12  C   UNL     1      14.185  13.670  36.709  1.00  0.00     0.008 C 
ENDBRANCH   3  10
ENDBRANCH   2   3
BRANCH   1  13
ATOM     13  C   UNL     1      15.242  17.825  37.497  1.00  0.00    -0.055 C 
ATOM     14  C   UNL     1      16.126  17.037  38.116  1.00  0.00     0.012 C 
BRANCH  13  15
ATOM     15  C   UNL     1      14.779  19.096  38.180  1.00  0.00     0.039 C 
BRANCH  15  16
ATOM     16  C   UNL     1      13.505  19.720  37.567  1.00  0.00     0.032 CG0
ATOM     17  G   UNL     1      12.298  19.692  38.479  1.00  0.00     0.000 G0
ENDBRANCH  15  16
ENDBRANCH  13  15
ENDBRANCH   1  13
TORSDOF 1
ENDMDL
MODEL 8
REMARK VINA RESULT:    -2.993      3.731      6.367
REMARK INTER + INTRA:          -4.890
REMARK INTER:                  -4.266
REMARK INTRA:                  -0.624
REMARK UNBOUND:                -0.497
REMARK SMILES C=C1C=C[C@H](C(C)C)CCC(C)=CCC1
REMARK SMILES IDX 3 1 4 2 5 3 9 4 10 5 11 6 12 7 13 8 6 10 7 11 8 12 2 13 1 14
REMARK SMILES IDX 15 15 14 16
REMARK H PARENT
REMARK Flexibility Score: 70.00
ROOT
ATOM      1  C   UNL     1       7.375  19.241  24.970  1.00  0.00    -0.001 C 
ATOM      2  C   UNL     1       8.498  19.742  25.510  1.00  0.00    -0.023 C 
ENDROOT
BRANCH   2   3
ATOM      3  C   UNL     1       9.641  20.477  24.815  1.00  0.00     0.014 C 
BRANCH   3   4
ATOM      4  C   UNL     1       9.571  22.022  25.011  1.00  0.00     0.012 C 
BRANCH   4   5
ATOM      5  C   UNL     1       8.245  22.583  25.572  1.00  0.00     0.031 C 
BRANCH   5   6
ATOM      6  C   UNL     1       7.472  23.397  24.552  1.00  0.00    -0.077 C 
ATOM      7  C   UNL     1       7.902  24.817  24.277  1.00  0.00     0.039 C 
ATOM      8  C   UNL     1       6.371  22.934  23.912  1.00  0.00    -0.028 CG0
ATOM      9  G   UNL     1       5.817  21.527  23.979  1.00  0.00     0.000 G0
ENDBRANCH   5   6
ENDBRANCH   4   5
ENDBRANCH   3   4
BRANCH   3  10
ATOM     10  C   UNL     1      11.047  19.822  25.006  1.00  0.00    -0.010 C 
ATOM     11  C   UNL     1      11.139  19.059  26.341  1.00  0.00     0.008 C 
ATOM     12  C   UNL     1      11.368  18.843  23.862  1.00  0.00     0.008 C 
ENDBRANCH   3  10
ENDBRANCH   2   3
BRANCH   1  13
ATOM     13  C   UNL     1       7.009  19.286  23.545  1.00  0.00    -0.055 C 
ATOM     14  C   UNL     1       7.457  18.323  22.734  1.00  0.00     0.012 C 
BRANCH  13  15
ATOM     15  C   UNL     1       6.434  20.552  22.943  1.00  0.00     0.039 C 
BRANCH  15  16
ATOM     16  C   UNL     1       5.810  21.521  23.974  1.00  0.00     0.032 CG0
ATOM     17  G   UNL     1       6.375  22.924  23.931  1.00  0.00     0.000 G0
ENDBRANCH  15  16
ENDBRANCH  13  15
ENDBRANCH   1  13
TORSDOF 1
ENDMDL
MODEL 9
REMARK VINA RESULT:    -2.940      2.105      4.233
REMARK INTER + INTRA:          -4.812
REMARK INTER:                  -4.392
REMARK INTRA:                  -0.420
REMARK UNBOUND:                -0.497
REMARK SMILES C=C1C=C[C@H](C(C)C)CCC(C)=CCC1
REMARK SMILES IDX 3 1 4 2 5 3 9 4 10 5 11 6 12 7 13 8 6 10 7 11 8 12 2 13 1 14
REMARK SMILES IDX 15 15 14 16
REMARK H PARENT
REMARK Flexibility Score: 70.00
ROOT
ATOM      1  C   UNL     1      11.069  19.376  23.382  1.00  0.00    -0.001 C 
ATOM      2  C   UNL     1       9.758  19.296  23.099  1.00  0.00    -0.023 C 
ENDROOT
BRANCH   2   3
ATOM      3  C   UNL     1       8.576  19.802  23.922  1.00  0.00     0.014 C 
BRANCH   3   4
ATOM      4  C   UNL     1       8.538  21.356  24.030  1.00  0.00     0.012 C 
BRANCH   4   5
ATOM      5  C   UNL     1       8.777  21.953  25.435  1.00  0.00     0.031 C 
BRANCH   5   6
ATOM      6  C   UNL     1       8.457  20.978  26.550  1.00  0.00    -0.077 C 
ATOM      7  C   UNL     1       7.013  20.749  26.925  1.00  0.00     0.039 C 
ATOM      8  C   UNL     1       9.407  20.339  27.276  1.00  0.00    -0.028 CG0
ATOM      9  G   UNL     1      10.898  20.363  27.023  1.00  0.00     0.000 G0
ENDBRANCH   5   6
ENDBRANCH   4   5
ENDBRANCH   3   4
BRANCH   3  10
ATOM     10  C   UNL     1       7.215  19.101  23.605  1.00  0.00    -0.010 C 
ATOM     11  C   UNL     1       6.172  20.103  23.077  1.00  0.00     0.008 C 
ATOM     12  C   UNL     1       7.392  17.985  22.560  1.00  0.00     0.008 C 
ENDBRANCH   3  10
ENDBRANCH   2   3
BRANCH   1  13
ATOM     13  C   UNL     1      11.655  19.974  24.592  1.00  0.00    -0.055 C 
ATOM     14  C   UNL     1      12.643  20.863  24.458  1.00  0.00     0.012 C 
BRANCH  13  15
ATOM     15  C   UNL     1      11.392  19.360  25.953  1.00  0.00     0.039 C 
BRANCH  15  16
ATOM     16  C   UNL     1      10.910  20.367  27.022  1.00  0.00     0.032 CG0
ATOM     17  G   UNL     1       9.418  20.338  27.276  1.00  0.00     0.000 G0
ENDBRANCH  15  16
ENDBRANCH  13  15
ENDBRANCH   1  13
TORSDOF 1
ENDMDL
