MODEL 1
REMARK VINA RESULT:    -4.400      0.000      0.000
REMARK INTER + INTRA:         -13.193
REMARK INTER:                 -11.088
REMARK INTRA:                  -2.105
REMARK UNBOUND:                -2.105
REMARK SMILES CCCCCCCCCCCCCCCCCCCCCCCCCCCC(=O)[O-]
REMARK SMILES IDX 15 1 16 2 17 3 18 4 19 5 20 6 21 7 22 8 23 9 24 10 25 11
REMARK SMILES IDX 26 12 27 13 28 14 29 15 30 16 14 17 13 18 12 19 11 20 10 21
REMARK SMILES IDX 9 22 8 23 7 24 6 25 5 26 4 27 3 28 2 29 1 30
REMARK H PARENT
REMARK Flexibility Score: inf
ROOT
ATOM      1  C   UNL     1      23.798   0.503  -5.198  1.00  0.00     0.000 C 
ENDROOT
BRANCH   1   2
ATOM      2  C   UNL     1      25.139   0.832  -4.520  1.00  0.00     0.000 C 
BRANCH   2   3
ATOM      3  C   UNL     1      26.266   1.101  -5.531  1.00  0.00     0.000 C 
BRANCH   3   4
ATOM      4  C   UNL     1      27.664   1.079  -4.888  1.00  0.00     0.000 C 
BRANCH   4   5
ATOM      5  C   UNL     1      28.774   0.468  -5.762  1.00  0.00     0.000 C 
BRANCH   5   6
ATOM      6  C   UNL     1      28.476  -0.982  -6.183  1.00  0.00     0.000 C 
BRANCH   6   7
ATOM      7  C   UNL     1      29.210  -2.014  -5.312  1.00  0.00     0.000 C 
BRANCH   7   8
ATOM      8  C   UNL     1      28.246  -2.884  -4.484  1.00  0.00     0.000 C 
BRANCH   8   9
ATOM      9  C   UNL     1      27.078  -3.434  -5.317  1.00  0.00     0.000 C 
BRANCH   9  10
ATOM     10  C   UNL     1      26.188  -4.406  -4.523  1.00  0.00     0.000 C 
BRANCH  10  11
ATOM     11  C   UNL     1      27.000  -5.366  -3.632  1.00  0.00     0.000 C 
BRANCH  11  12
ATOM     12  C   UNL     1      27.565  -6.608  -4.351  1.00  0.00     0.006 C 
BRANCH  12  13
ATOM     13  C   UNL     1      28.174  -6.323  -5.732  1.00  0.00     0.053 C 
BRANCH  13  14
ATOM     14  C   UNL     1      27.680  -7.282  -6.771  1.00  0.00     0.041 C 
ATOM     15  O   UNL     1      26.538  -7.132  -7.280  1.00  0.00    -0.550 OA
ATOM     16  O   UNL     1      28.494  -8.322  -7.199  1.00  0.00    -0.550 OA
ENDBRANCH  13  14
ENDBRANCH  12  13
ENDBRANCH  11  12
ENDBRANCH  10  11
ENDBRANCH   9  10
ENDBRANCH   8   9
ENDBRANCH   7   8
ENDBRANCH   6   7
ENDBRANCH   5   6
ENDBRANCH   4   5
ENDBRANCH   3   4
ENDBRANCH   2   3
ENDBRANCH   1   2
BRANCH   1  17
ATOM     17  C   UNL     1      22.552   1.105  -4.521  1.00  0.00     0.000 C 
BRANCH  17  18
ATOM     18  C   UNL     1      21.234   0.844  -5.282  1.00  0.00     0.000 C 
BRANCH  18  19
ATOM     19  C   UNL     1      21.363   1.119  -6.791  1.00  0.00     0.000 C 
BRANCH  19  20
ATOM     20  C   UNL     1      20.328   0.338  -7.617  1.00  0.00     0.000 C 
BRANCH  20  21
ATOM     21  C   UNL     1      20.312  -1.161  -7.264  1.00  0.00     0.000 C 
BRANCH  21  22
ATOM     22  C   UNL     1      19.039  -1.585  -6.508  1.00  0.00    -0.000 C 
BRANCH  22  23
ATOM     23  C   UNL     1      19.245  -2.684  -5.450  1.00  0.00    -0.000 C 
BRANCH  23  24
ATOM     24  C   UNL     1      19.462  -2.121  -4.038  1.00  0.00    -0.000 C 
BRANCH  24  25
ATOM     25  C   UNL     1      18.125  -1.870  -3.331  1.00  0.00    -0.000 C 
BRANCH  25  26
ATOM     26  C   UNL     1      17.536  -0.515  -3.744  1.00  0.00    -0.000 C 
BRANCH  26  27
ATOM     27  C   UNL     1      16.043  -0.640  -4.079  1.00  0.00    -0.000 C 
BRANCH  27  28
ATOM     28  C   UNL     1      15.601   0.314  -5.203  1.00  0.00    -0.000 C 
BRANCH  28  29
ATOM     29  C   UNL     1      16.752   0.963  -5.992  1.00  0.00    -0.003 C 
ATOM     30  C   UNL     1      16.444   1.124  -7.480  1.00  0.00     0.004 C 
ENDBRANCH  28  29
ENDBRANCH  27  28
ENDBRANCH  26  27
ENDBRANCH  25  26
ENDBRANCH  24  25
ENDBRANCH  23  24
ENDBRANCH  22  23
ENDBRANCH  21  22
ENDBRANCH  20  21
ENDBRANCH  19  20
ENDBRANCH  18  19
ENDBRANCH  17  18
ENDBRANCH   1  17
TORSDOF 26
ENDMDL
MODEL 2
REMARK VINA RESULT:    -4.303      3.489      9.987
REMARK INTER + INTRA:         -12.947
REMARK INTER:                 -10.465
REMARK INTRA:                  -2.482
REMARK UNBOUND:                -2.105
REMARK SMILES CCCCCCCCCCCCCCCCCCCCCCCCCCCC(=O)[O-]
REMARK SMILES IDX 15 1 16 2 17 3 18 4 19 5 20 6 21 7 22 8 23 9 24 10 25 11
REMARK SMILES IDX 26 12 27 13 28 14 29 15 30 16 14 17 13 18 12 19 11 20 10 21
REMARK SMILES IDX 9 22 8 23 7 24 6 25 5 26 4 27 3 28 2 29 1 30
REMARK H PARENT
REMARK Flexibility Score: inf
ROOT
ATOM      1  C   UNL     1      22.764   1.124  -4.500  1.00  0.00     0.000 C 
ENDROOT
BRANCH   1   2
ATOM      2  C   UNL     1      21.495   1.059  -5.366  1.00  0.00     0.000 C 
BRANCH   2   3
ATOM      3  C   UNL     1      21.803   1.061  -6.873  1.00  0.00     0.000 C 
BRANCH   3   4
ATOM      4  C   UNL     1      21.038  -0.032  -7.641  1.00  0.00     0.000 C 
BRANCH   4   5
ATOM      5  C   UNL     1      19.641  -0.363  -7.086  1.00  0.00     0.000 C 
BRANCH   5   6
ATOM      6  C   UNL     1      19.340  -1.872  -7.082  1.00  0.00     0.000 C 
BRANCH   6   7
ATOM      7  C   UNL     1      19.986  -2.602  -5.895  1.00  0.00     0.000 C 
BRANCH   7   8
ATOM      8  C   UNL     1      18.982  -2.907  -4.768  1.00  0.00     0.000 C 
BRANCH   8   9
ATOM      9  C   UNL     1      19.086  -1.918  -3.597  1.00  0.00     0.000 C 
BRANCH   9  10
ATOM     10  C   UNL     1      17.799  -1.856  -2.756  1.00  0.00     0.000 C 
BRANCH  10  11
ATOM     11  C   UNL     1      16.733  -0.923  -3.362  1.00  0.00     0.000 C 
BRANCH  11  12
ATOM     12  C   UNL     1      17.282   0.198  -4.268  1.00  0.00     0.006 C 
BRANCH  12  13
ATOM     13  C   UNL     1      16.236   0.838  -5.195  1.00  0.00     0.053 C 
BRANCH  13  14
ATOM     14  C   UNL     1      16.334   0.314  -6.594  1.00  0.00     0.041 C 
ATOM     15  O   UNL     1      16.442   1.109  -7.564  1.00  0.00    -0.550 OA
ATOM     16  O   UNL     1      16.337  -1.056  -6.824  1.00  0.00    -0.550 OA
ENDBRANCH  13  14
ENDBRANCH  12  13
ENDBRANCH  11  12
ENDBRANCH  10  11
ENDBRANCH   9  10
ENDBRANCH   8   9
ENDBRANCH   7   8
ENDBRANCH   6   7
ENDBRANCH   5   6
ENDBRANCH   4   5
ENDBRANCH   3   4
ENDBRANCH   2   3
ENDBRANCH   1   2
BRANCH   1  17
ATOM     17  C   UNL     1      24.094   1.125  -5.279  1.00  0.00     0.000 C 
BRANCH  17  18
ATOM     18  C   UNL     1      25.349   1.107  -4.382  1.00  0.00     0.000 C 
BRANCH  18  19
ATOM     19  C   UNL     1      26.390   0.072  -4.848  1.00  0.00     0.000 C 
BRANCH  19  20
ATOM     20  C   UNL     1      27.810   0.658  -4.907  1.00  0.00     0.000 C 
BRANCH  20  21
ATOM     21  C   UNL     1      28.892  -0.437  -4.924  1.00  0.00     0.000 C 
BRANCH  21  22
ATOM     22  C   UNL     1      28.858  -1.295  -6.202  1.00  0.00    -0.000 C 
BRANCH  22  23
ATOM     23  C   UNL     1      29.185  -2.785  -5.996  1.00  0.00    -0.000 C 
BRANCH  23  24
ATOM     24  C   UNL     1      29.351  -3.162  -4.516  1.00  0.00    -0.000 C 
BRANCH  24  25
ATOM     25  C   UNL     1      28.300  -4.190  -4.086  1.00  0.00    -0.000 C 
BRANCH  25  26
ATOM     26  C   UNL     1      26.893  -3.734  -4.490  1.00  0.00    -0.000 C 
BRANCH  26  27
ATOM     27  C   UNL     1      26.133  -4.857  -5.211  1.00  0.00    -0.000 C 
BRANCH  27  28
ATOM     28  C   UNL     1      26.783  -6.238  -5.017  1.00  0.00    -0.000 C 
BRANCH  28  29
ATOM     29  C   UNL     1      27.152  -6.970  -6.320  1.00  0.00    -0.003 C 
ATOM     30  C   UNL     1      28.384  -7.863  -6.178  1.00  0.00     0.004 C 
ENDBRANCH  28  29
ENDBRANCH  27  28
ENDBRANCH  26  27
ENDBRANCH  25  26
ENDBRANCH  24  25
ENDBRANCH  23  24
ENDBRANCH  22  23
ENDBRANCH  21  22
ENDBRANCH  20  21
ENDBRANCH  19  20
ENDBRANCH  18  19
ENDBRANCH  17  18
ENDBRANCH   1  17
TORSDOF 26
ENDMDL
MODEL 3
REMARK VINA RESULT:    -3.884      5.860      9.104
REMARK INTER + INTRA:         -11.891
REMARK INTER:                  -7.834
REMARK INTRA:                  -4.057
REMARK UNBOUND:                -2.105
REMARK SMILES CCCCCCCCCCCCCCCCCCCCCCCCCCCC(=O)[O-]
REMARK SMILES IDX 15 1 16 2 17 3 18 4 19 5 20 6 21 7 22 8 23 9 24 10 25 11
REMARK SMILES IDX 26 12 27 13 28 14 29 15 30 16 14 17 13 18 12 19 11 20 10 21
REMARK SMILES IDX 9 22 8 23 7 24 6 25 5 26 4 27 3 28 2 29 1 30
REMARK H PARENT
REMARK Flexibility Score: inf
ROOT
ATOM      1  C   UNL     1      27.605  -1.812  -2.076  1.00  0.00     0.000 C 
ENDROOT
BRANCH   1   2
ATOM      2  C   UNL     1      28.791  -0.996  -2.617  1.00  0.00     0.000 C 
BRANCH   2   3
ATOM      3  C   UNL     1      28.347   0.174  -3.511  1.00  0.00     0.000 C 
BRANCH   3   4
ATOM      4  C   UNL     1      26.991  -0.076  -4.195  1.00  0.00     0.000 C 
BRANCH   4   5
ATOM      5  C   UNL     1      26.654   0.887  -5.348  1.00  0.00     0.000 C 
BRANCH   5   6
ATOM      6  C   UNL     1      27.765   0.962  -6.411  1.00  0.00     0.000 C 
BRANCH   6   7
ATOM      7  C   UNL     1      27.727  -0.221  -7.390  1.00  0.00     0.000 C 
BRANCH   7   8
ATOM      8  C   UNL     1      29.118  -0.575  -7.947  1.00  0.00     0.000 C 
BRANCH   8   9
ATOM      9  C   UNL     1      29.564  -1.996  -7.570  1.00  0.00     0.000 C 
BRANCH   9  10
ATOM     10  C   UNL     1      29.507  -2.255  -6.055  1.00  0.00     0.000 C 
BRANCH  10  11
ATOM     11  C   UNL     1      28.782  -3.567  -5.699  1.00  0.00     0.000 C 
BRANCH  11  12
ATOM     12  C   UNL     1      27.271  -3.426  -5.420  1.00  0.00     0.006 C 
BRANCH  12  13
ATOM     13  C   UNL     1      26.504  -4.757  -5.375  1.00  0.00     0.053 C 
BRANCH  13  14
ATOM     14  C   UNL     1      26.745  -5.499  -4.097  1.00  0.00     0.041 C 
ATOM     15  O   UNL     1      26.385  -5.002  -2.998  1.00  0.00    -0.550 OA
ATOM     16  O   UNL     1      27.337  -6.755  -4.122  1.00  0.00    -0.550 OA
ENDBRANCH  13  14
ENDBRANCH  12  13
ENDBRANCH  11  12
ENDBRANCH  10  11
ENDBRANCH   9  10
ENDBRANCH   8   9
ENDBRANCH   7   8
ENDBRANCH   6   7
ENDBRANCH   5   6
ENDBRANCH   4   5
ENDBRANCH   3   4
ENDBRANCH   2   3
ENDBRANCH   1   2
BRANCH   1  17
ATOM     17  C   UNL     1      27.875  -2.575  -0.764  1.00  0.00     0.000 C 
BRANCH  17  18
ATOM     18  C   UNL     1      29.324  -2.452  -0.250  1.00  0.00     0.000 C 
BRANCH  18  19
ATOM     19  C   UNL     1      29.410  -2.522   1.286  1.00  0.00     0.000 C 
BRANCH  19  20
ATOM     20  C   UNL     1      29.266  -3.959   1.813  1.00  0.00     0.000 C 
BRANCH  20  21
ATOM     21  C   UNL     1      27.989  -4.146   2.654  1.00  0.00     0.000 C 
BRANCH  21  22
ATOM     22  C   UNL     1      28.284  -4.505   4.121  1.00  0.00    -0.000 C 
BRANCH  22  23
ATOM     23  C   UNL     1      28.098  -3.353   5.125  1.00  0.00    -0.000 C 
BRANCH  23  24
ATOM     24  C   UNL     1      27.466  -2.104   4.490  1.00  0.00    -0.000 C 
BRANCH  24  25
ATOM     25  C   UNL     1      28.130  -0.824   5.009  1.00  0.00    -0.000 C 
BRANCH  25  26
ATOM     26  C   UNL     1      28.827  -0.071   3.869  1.00  0.00    -0.000 C 
BRANCH  26  27
ATOM     27  C   UNL     1      27.904   0.996   3.264  1.00  0.00    -0.000 C 
BRANCH  27  28
ATOM     28  C   UNL     1      26.772   0.394   2.414  1.00  0.00    -0.000 C 
BRANCH  28  29
ATOM     29  C   UNL     1      26.945   0.557   0.893  1.00  0.00    -0.003 C 
ATOM     30  C   UNL     1      28.337   1.050   0.497  1.00  0.00     0.004 C 
ENDBRANCH  28  29
ENDBRANCH  27  28
ENDBRANCH  26  27
ENDBRANCH  25  26
ENDBRANCH  24  25
ENDBRANCH  23  24
ENDBRANCH  22  23
ENDBRANCH  21  22
ENDBRANCH  20  21
ENDBRANCH  19  20
ENDBRANCH  18  19
ENDBRANCH  17  18
ENDBRANCH   1  17
TORSDOF 26
ENDMDL
MODEL 4
REMARK VINA RESULT:    -3.749      1.672      2.957
REMARK INTER + INTRA:         -11.551
REMARK INTER:                  -9.136
REMARK INTRA:                  -2.415
REMARK UNBOUND:                -2.105
REMARK SMILES CCCCCCCCCCCCCCCCCCCCCCCCCCCC(=O)[O-]
REMARK SMILES IDX 15 1 16 2 17 3 18 4 19 5 20 6 21 7 22 8 23 9 24 10 25 11
REMARK SMILES IDX 26 12 27 13 28 14 29 15 30 16 14 17 13 18 12 19 11 20 10 21
REMARK SMILES IDX 9 22 8 23 7 24 6 25 5 26 4 27 3 28 2 29 1 30
REMARK H PARENT
REMARK Flexibility Score: inf
ROOT
ATOM      1  C   UNL     1      22.919   0.989  -4.691  1.00  0.00     0.000 C 
ENDROOT
BRANCH   1   2
ATOM      2  C   UNL     1      24.272   1.107  -5.410  1.00  0.00     0.000 C 
BRANCH   2   3
ATOM      3  C   UNL     1      25.463   1.125  -4.437  1.00  0.00     0.000 C 
BRANCH   3   4
ATOM      4  C   UNL     1      26.756   0.573  -5.064  1.00  0.00     0.000 C 
BRANCH   4   5
ATOM      5  C   UNL     1      27.782   0.018  -4.060  1.00  0.00     0.000 C 
BRANCH   5   6
ATOM      6  C   UNL     1      27.433   0.352  -2.598  1.00  0.00     0.000 C 
BRANCH   6   7
ATOM      7  C   UNL     1      28.515  -0.110  -1.611  1.00  0.00     0.000 C 
BRANCH   7   8
ATOM      8  C   UNL     1      28.030  -1.239  -0.684  1.00  0.00     0.000 C 
BRANCH   8   9
ATOM      9  C   UNL     1      26.864  -2.041  -1.284  1.00  0.00     0.000 C 
BRANCH   9  10
ATOM     10  C   UNL     1      27.308  -3.400  -1.852  1.00  0.00     0.000 C 
BRANCH  10  11
ATOM     11  C   UNL     1      27.136  -3.494  -3.380  1.00  0.00     0.000 C 
BRANCH  11  12
ATOM     12  C   UNL     1      26.706  -4.879  -3.907  1.00  0.00     0.006 C 
BRANCH  12  13
ATOM     13  C   UNL     1      26.364  -4.912  -5.405  1.00  0.00     0.053 C 
BRANCH  13  14
ATOM     14  C   UNL     1      26.925  -6.126  -6.080  1.00  0.00     0.041 C 
ATOM     15  O   UNL     1      26.923  -6.211  -7.336  1.00  0.00    -0.550 OA
ATOM     16  O   UNL     1      27.479  -7.149  -5.322  1.00  0.00    -0.550 OA
ENDBRANCH  13  14
ENDBRANCH  12  13
ENDBRANCH  11  12
ENDBRANCH  10  11
ENDBRANCH   9  10
ENDBRANCH   8   9
ENDBRANCH   7   8
ENDBRANCH   6   7
ENDBRANCH   5   6
ENDBRANCH   4   5
ENDBRANCH   3   4
ENDBRANCH   2   3
ENDBRANCH   1   2
BRANCH   1  17
ATOM     17  C   UNL     1      21.679   1.034  -5.605  1.00  0.00     0.000 C 
BRANCH  17  18
ATOM     18  C   UNL     1      21.955   0.604  -7.062  1.00  0.00     0.000 C 
BRANCH  18  19
ATOM     19  C   UNL     1      20.678   0.144  -7.790  1.00  0.00     0.000 C 
BRANCH  19  20
ATOM     20  C   UNL     1      19.400   0.621  -7.082  1.00  0.00     0.000 C 
BRANCH  20  21
ATOM     21  C   UNL     1      18.185  -0.266  -7.414  1.00  0.00     0.000 C 
BRANCH  21  22
ATOM     22  C   UNL     1      16.853   0.338  -6.932  1.00  0.00    -0.000 C 
BRANCH  22  23
ATOM     23  C   UNL     1      16.933   1.123  -5.611  1.00  0.00    -0.000 C 
BRANCH  23  24
ATOM     24  C   UNL     1      15.828   0.737  -4.617  1.00  0.00    -0.000 C 
BRANCH  24  25
ATOM     25  C   UNL     1      15.447  -0.741  -4.759  1.00  0.00    -0.000 C 
BRANCH  25  26
ATOM     26  C   UNL     1      16.277  -1.612  -3.807  1.00  0.00    -0.000 C 
BRANCH  26  27
ATOM     27  C   UNL     1      17.188  -0.750  -2.921  1.00  0.00    -0.000 C 
BRANCH  27  28
ATOM     28  C   UNL     1      18.545  -1.415  -2.635  1.00  0.00    -0.000 C 
BRANCH  28  29
ATOM     29  C   UNL     1      18.874  -2.628  -3.525  1.00  0.00    -0.003 C 
ATOM     30  C   UNL     1      19.676  -2.258  -4.772  1.00  0.00     0.004 C 
ENDBRANCH  28  29
ENDBRANCH  27  28
ENDBRANCH  26  27
ENDBRANCH  25  26
ENDBRANCH  24  25
ENDBRANCH  23  24
ENDBRANCH  22  23
ENDBRANCH  21  22
ENDBRANCH  20  21
ENDBRANCH  19  20
ENDBRANCH  18  19
ENDBRANCH  17  18
ENDBRANCH   1  17
TORSDOF 26
ENDMDL
MODEL 5
REMARK VINA RESULT:    -3.742      2.684      9.899
REMARK INTER + INTRA:         -11.534
REMARK INTER:                  -9.048
REMARK INTRA:                  -2.487
REMARK UNBOUND:                -2.105
REMARK SMILES CCCCCCCCCCCCCCCCCCCCCCCCCCCC(=O)[O-]
REMARK SMILES IDX 15 1 16 2 17 3 18 4 19 5 20 6 21 7 22 8 23 9 24 10 25 11
REMARK SMILES IDX 26 12 27 13 28 14 29 15 30 16 14 17 13 18 12 19 11 20 10 21
REMARK SMILES IDX 9 22 8 23 7 24 6 25 5 26 4 27 3 28 2 29 1 30
REMARK H PARENT
REMARK Flexibility Score: inf
ROOT
ATOM      1  C   UNL     1      23.824   0.273  -5.037  1.00  0.00     0.000 C 
ENDROOT
BRANCH   1   2
ATOM      2  C   UNL     1      22.586   0.993  -5.597  1.00  0.00     0.000 C 
BRANCH   2   3
ATOM      3  C   UNL     1      21.455   1.125  -4.562  1.00  0.00     0.000 C 
BRANCH   3   4
ATOM      4  C   UNL     1      20.056   0.947  -5.178  1.00  0.00     0.000 C 
BRANCH   4   5
ATOM      5  C   UNL     1      20.045   0.507  -6.653  1.00  0.00     0.000 C 
BRANCH   5   6
ATOM      6  C   UNL     1      18.772   0.946  -7.400  1.00  0.00     0.000 C 
BRANCH   6   7
ATOM      7  C   UNL     1      17.520   0.189  -6.930  1.00  0.00     0.000 C 
BRANCH   7   8
ATOM      8  C   UNL     1      16.465   1.119  -6.304  1.00  0.00     0.000 C 
BRANCH   8   9
ATOM      9  C   UNL     1      15.837   0.532  -5.030  1.00  0.00     0.000 C 
BRANCH   9  10
ATOM     10  C   UNL     1      16.415  -0.846  -4.663  1.00  0.00     0.000 C 
BRANCH  10  11
ATOM     11  C   UNL     1      17.535  -0.761  -3.607  1.00  0.00     0.000 C 
BRANCH  11  12
ATOM     12  C   UNL     1      17.904  -2.099  -2.933  1.00  0.00     0.006 C 
BRANCH  12  13
ATOM     13  C   UNL     1      18.362  -3.197  -3.905  1.00  0.00     0.053 C 
BRANCH  13  14
ATOM     14  C   UNL     1      19.372  -2.690  -4.887  1.00  0.00     0.041 C 
ATOM     15  O   UNL     1      19.097  -2.642  -6.114  1.00  0.00    -0.550 OA
ATOM     16  O   UNL     1      20.608  -2.238  -4.441  1.00  0.00    -0.550 OA
ENDBRANCH  13  14
ENDBRANCH  12  13
ENDBRANCH  11  12
ENDBRANCH  10  11
ENDBRANCH   9  10
ENDBRANCH   8   9
ENDBRANCH   7   8
ENDBRANCH   6   7
ENDBRANCH   5   6
ENDBRANCH   4   5
ENDBRANCH   3   4
ENDBRANCH   2   3
ENDBRANCH   1   2
BRANCH   1  17
ATOM     17  C   UNL     1      25.119   1.107  -5.019  1.00  0.00     0.000 C 
BRANCH  17  18
ATOM     18  C   UNL     1      26.317   0.396  -4.354  1.00  0.00     0.000 C 
BRANCH  18  19
ATOM     19  C   UNL     1      27.403  -0.000  -5.372  1.00  0.00     0.000 C 
BRANCH  19  20
ATOM     20  C   UNL     1      28.823   0.218  -4.824  1.00  0.00     0.000 C 
BRANCH  20  21
ATOM     21  C   UNL     1      28.877   0.112  -3.288  1.00  0.00     0.000 C 
BRANCH  21  22
ATOM     22  C   UNL     1      29.250  -1.298  -2.797  1.00  0.00    -0.000 C 
BRANCH  22  23
ATOM     23  C   UNL     1      28.098  -2.089  -2.152  1.00  0.00    -0.000 C 
BRANCH  23  24
ATOM     24  C   UNL     1      27.781  -3.396  -2.893  1.00  0.00    -0.000 C 
BRANCH  24  25
ATOM     25  C   UNL     1      28.551  -3.484  -4.215  1.00  0.00    -0.000 C 
BRANCH  25  26
ATOM     26  C   UNL     1      29.617  -4.585  -4.152  1.00  0.00    -0.000 C 
BRANCH  26  27
ATOM     27  C   UNL     1      29.013  -5.958  -4.481  1.00  0.00    -0.000 C 
BRANCH  27  28
ATOM     28  C   UNL     1      28.082  -5.925  -5.705  1.00  0.00    -0.000 C 
BRANCH  28  29
ATOM     29  C   UNL     1      26.655  -6.440  -5.449  1.00  0.00    -0.003 C 
ATOM     30  C   UNL     1      26.240  -6.357  -3.981  1.00  0.00     0.004 C 
ENDBRANCH  28  29
ENDBRANCH  27  28
ENDBRANCH  26  27
ENDBRANCH  25  26
ENDBRANCH  24  25
ENDBRANCH  23  24
ENDBRANCH  22  23
ENDBRANCH  21  22
ENDBRANCH  20  21
ENDBRANCH  19  20
ENDBRANCH  18  19
ENDBRANCH  17  18
ENDBRANCH   1  17
TORSDOF 26
ENDMDL
MODEL 6
REMARK VINA RESULT:    -3.703      1.624      4.671
REMARK INTER + INTRA:         -11.437
REMARK INTER:                  -9.376
REMARK INTRA:                  -2.061
REMARK UNBOUND:                -2.105
REMARK SMILES CCCCCCCCCCCCCCCCCCCCCCCCCCCC(=O)[O-]
REMARK SMILES IDX 15 1 16 2 17 3 18 4 19 5 20 6 21 7 22 8 23 9 24 10 25 11
REMARK SMILES IDX 26 12 27 13 28 14 29 15 30 16 14 17 13 18 12 19 11 20 10 21
REMARK SMILES IDX 9 22 8 23 7 24 6 25 5 26 4 27 3 28 2 29 1 30
REMARK H PARENT
REMARK Flexibility Score: inf
ROOT
ATOM      1  C   UNL     1      28.721  -2.168  -6.128  1.00  0.00     0.000 C 
ENDROOT
BRANCH   1   2
ATOM      2  C   UNL     1      29.640  -2.790  -5.063  1.00  0.00     0.000 C 
BRANCH   2   3
ATOM      3  C   UNL     1      28.856  -3.462  -3.922  1.00  0.00     0.000 C 
BRANCH   3   4
ATOM      4  C   UNL     1      27.508  -2.776  -3.638  1.00  0.00     0.000 C 
BRANCH   4   5
ATOM      5  C   UNL     1      26.268  -3.548  -4.122  1.00  0.00     0.000 C 
BRANCH   5   6
ATOM      6  C   UNL     1      26.614  -4.686  -5.099  1.00  0.00     0.000 C 
BRANCH   6   7
ATOM      7  C   UNL     1      26.170  -6.063  -4.585  1.00  0.00     0.000 C 
BRANCH   7   8
ATOM      8  C   UNL     1      27.211  -6.715  -3.656  1.00  0.00     0.000 C 
BRANCH   8   9
ATOM      9  C   UNL     1      28.579  -6.896  -4.333  1.00  0.00     0.000 C 
BRANCH   9  10
ATOM     10  C   UNL     1      28.772  -8.307  -4.914  1.00  0.00     0.000 C 
BRANCH  10  11
ATOM     11  C   UNL     1      28.856  -8.313  -6.453  1.00  0.00     0.000 C 
BRANCH  11  12
ATOM     12  C   UNL     1      27.595  -7.802  -7.180  1.00  0.00     0.006 C 
BRANCH  12  13
ATOM     13  C   UNL     1      27.772  -6.451  -7.891  1.00  0.00     0.053 C 
BRANCH  13  14
ATOM     14  C   UNL     1      28.205  -6.620  -9.314  1.00  0.00     0.041 C 
ATOM     15  O   UNL     1      27.922  -5.742 -10.171  1.00  0.00    -0.550 OA
ATOM     16  O   UNL     1      28.949  -7.731  -9.688  1.00  0.00    -0.550 OA
ENDBRANCH  13  14
ENDBRANCH  12  13
ENDBRANCH  11  12
ENDBRANCH  10  11
ENDBRANCH   9  10
ENDBRANCH   8   9
ENDBRANCH   7   8
ENDBRANCH   6   7
ENDBRANCH   5   6
ENDBRANCH   4   5
ENDBRANCH   3   4
ENDBRANCH   2   3
ENDBRANCH   1   2
BRANCH   1  17
ATOM     17  C   UNL     1      28.832  -0.638  -6.282  1.00  0.00     0.000 C 
BRANCH  17  18
ATOM     18  C   UNL     1      27.717  -0.009  -7.144  1.00  0.00     0.000 C 
BRANCH  18  19
ATOM     19  C   UNL     1      26.975   1.122  -6.408  1.00  0.00     0.000 C 
BRANCH  19  20
ATOM     20  C   UNL     1      26.794   0.824  -4.911  1.00  0.00     0.000 C 
BRANCH  20  21
ATOM     21  C   UNL     1      25.363   1.125  -4.426  1.00  0.00     0.000 C 
BRANCH  21  22
ATOM     22  C   UNL     1      24.294   0.834  -5.495  1.00  0.00    -0.000 C 
BRANCH  22  23
ATOM     23  C   UNL     1      22.842   1.082  -5.048  1.00  0.00    -0.000 C 
BRANCH  23  24
ATOM     24  C   UNL     1      21.840   1.019  -6.210  1.00  0.00    -0.000 C 
BRANCH  24  25
ATOM     25  C   UNL     1      20.566   0.271  -5.802  1.00  0.00    -0.000 C 
BRANCH  25  26
ATOM     26  C   UNL     1      19.591   0.171  -6.983  1.00  0.00    -0.000 C 
BRANCH  26  27
ATOM     27  C   UNL     1      18.203   0.704  -6.602  1.00  0.00    -0.000 C 
BRANCH  27  28
ATOM     28  C   UNL     1      17.472  -0.198  -5.593  1.00  0.00    -0.000 C 
BRANCH  28  29
ATOM     29  C   UNL     1      16.173   0.392  -5.016  1.00  0.00    -0.003 C 
ATOM     30  C   UNL     1      15.285  -0.653  -4.342  1.00  0.00     0.004 C 
ENDBRANCH  28  29
ENDBRANCH  27  28
ENDBRANCH  26  27
ENDBRANCH  25  26
ENDBRANCH  24  25
ENDBRANCH  23  24
ENDBRANCH  22  23
ENDBRANCH  21  22
ENDBRANCH  20  21
ENDBRANCH  19  20
ENDBRANCH  18  19
ENDBRANCH  17  18
ENDBRANCH   1  17
TORSDOF 26
ENDMDL
MODEL 7
REMARK VINA RESULT:    -3.700      5.700      8.362
REMARK INTER + INTRA:         -11.429
REMARK INTER:                  -6.899
REMARK INTRA:                  -4.530
REMARK UNBOUND:                -2.105
REMARK SMILES CCCCCCCCCCCCCCCCCCCCCCCCCCCC(=O)[O-]
REMARK SMILES IDX 15 1 16 2 17 3 18 4 19 5 20 6 21 7 22 8 23 9 24 10 25 11
REMARK SMILES IDX 26 12 27 13 28 14 29 15 30 16 14 17 13 18 12 19 11 20 10 21
REMARK SMILES IDX 9 22 8 23 7 24 6 25 5 26 4 27 3 28 2 29 1 30
REMARK H PARENT
REMARK Flexibility Score: inf
ROOT
ATOM      1  C   UNL     1      26.834   0.999  -1.055  1.00  0.00     0.000 C 
ENDROOT
BRANCH   1   2
ATOM      2  C   UNL     1      27.684   0.408  -2.193  1.00  0.00     0.000 C 
BRANCH   2   3
ATOM      3  C   UNL     1      27.267   0.931  -3.578  1.00  0.00     0.000 C 
BRANCH   3   4
ATOM      4  C   UNL     1      26.464  -0.100  -4.390  1.00  0.00     0.000 C 
BRANCH   4   5
ATOM      5  C   UNL     1      27.196  -1.425  -4.667  1.00  0.00     0.000 C 
BRANCH   5   6
ATOM      6  C   UNL     1      28.380  -1.265  -5.637  1.00  0.00     0.000 C 
BRANCH   6   7
ATOM      7  C   UNL     1      29.583  -2.140  -5.251  1.00  0.00     0.000 C 
BRANCH   7   8
ATOM      8  C   UNL     1      29.794  -2.221  -3.729  1.00  0.00     0.000 C 
BRANCH   8   9
ATOM      9  C   UNL     1      30.124  -3.643  -3.250  1.00  0.00     0.000 C 
BRANCH   9  10
ATOM     10  C   UNL     1      29.712  -4.723  -4.265  1.00  0.00     0.000 C 
BRANCH  10  11
ATOM     11  C   UNL     1      29.833  -6.151  -3.700  1.00  0.00     0.000 C 
BRANCH  11  12
ATOM     12  C   UNL     1      29.480  -7.280  -4.690  1.00  0.00     0.006 C 
BRANCH  12  13
ATOM     13  C   UNL     1      27.995  -7.348  -5.077  1.00  0.00     0.053 C 
BRANCH  13  14
ATOM     14  C   UNL     1      27.738  -6.740  -6.421  1.00  0.00     0.041 C 
ATOM     15  O   UNL     1      27.346  -5.548  -6.514  1.00  0.00    -0.550 OA
ATOM     16  O   UNL     1      27.965  -7.482  -7.574  1.00  0.00    -0.550 OA
ENDBRANCH  13  14
ENDBRANCH  12  13
ENDBRANCH  11  12
ENDBRANCH  10  11
ENDBRANCH   9  10
ENDBRANCH   8   9
ENDBRANCH   7   8
ENDBRANCH   6   7
ENDBRANCH   5   6
ENDBRANCH   4   5
ENDBRANCH   3   4
ENDBRANCH   2   3
ENDBRANCH   1   2
BRANCH   1  17
ATOM     17  C   UNL     1      27.493   0.981   0.338  1.00  0.00     0.000 C 
BRANCH  17  18
ATOM     18  C   UNL     1      29.032   1.101   0.308  1.00  0.00     0.000 C 
BRANCH  18  19
ATOM     19  C   UNL     1      29.682   0.637   1.625  1.00  0.00     0.000 C 
BRANCH  19  20
ATOM     20  C   UNL     1      28.738   0.793   2.828  1.00  0.00     0.000 C 
BRANCH  20  21
ATOM     21  C   UNL     1      28.807  -0.413   3.784  1.00  0.00     0.000 C 
BRANCH  21  22
ATOM     22  C   UNL     1      27.707  -1.455   3.515  1.00  0.00    -0.000 C 
BRANCH  22  23
ATOM     23  C   UNL     1      28.170  -2.922   3.576  1.00  0.00    -0.000 C 
BRANCH  23  24
ATOM     24  C   UNL     1      28.134  -3.618   2.208  1.00  0.00    -0.000 C 
BRANCH  24  25
ATOM     25  C   UNL     1      29.365  -3.254   1.369  1.00  0.00    -0.000 C 
BRANCH  25  26
ATOM     26  C   UNL     1      28.955  -2.495   0.101  1.00  0.00    -0.000 C 
BRANCH  26  27
ATOM     27  C   UNL     1      27.432  -2.520  -0.091  1.00  0.00    -0.000 C 
BRANCH  27  28
ATOM     28  C   UNL     1      27.017  -2.815  -1.543  1.00  0.00    -0.000 C 
BRANCH  28  29
ATOM     29  C   UNL     1      26.309  -4.166  -1.753  1.00  0.00    -0.003 C 
ATOM     30  C   UNL     1      26.276  -4.605  -3.216  1.00  0.00     0.004 C 
ENDBRANCH  28  29
ENDBRANCH  27  28
ENDBRANCH  26  27
ENDBRANCH  25  26
ENDBRANCH  24  25
ENDBRANCH  23  24
ENDBRANCH  22  23
ENDBRANCH  21  22
ENDBRANCH  20  21
ENDBRANCH  19  20
ENDBRANCH  18  19
ENDBRANCH  17  18
ENDBRANCH   1  17
TORSDOF 26
ENDMDL
MODEL 8
REMARK VINA RESULT:    -3.394      3.585      9.735
REMARK INTER + INTRA:         -10.658
REMARK INTER:                  -9.553
REMARK INTRA:                  -1.105
REMARK UNBOUND:                -2.105
REMARK SMILES CCCCCCCCCCCCCCCCCCCCCCCCCCCC(=O)[O-]
REMARK SMILES IDX 15 1 16 2 17 3 18 4 19 5 20 6 21 7 22 8 23 9 24 10 25 11
REMARK SMILES IDX 26 12 27 13 28 14 29 15 30 16 14 17 13 18 12 19 11 20 10 21
REMARK SMILES IDX 9 22 8 23 7 24 6 25 5 26 4 27 3 28 2 29 1 30
REMARK H PARENT
REMARK Flexibility Score: inf
ROOT
ATOM      1  C   UNL     1      24.098   0.765  -5.924  1.00  0.00     0.000 C 
ENDROOT
BRANCH   1   2
ATOM      2  C   UNL     1      22.981   0.828  -4.870  1.00  0.00     0.000 C 
BRANCH   2   3
ATOM      3  C   UNL     1      21.575   0.827  -5.493  1.00  0.00     0.000 C 
BRANCH   3   4
ATOM      4  C   UNL     1      21.599   0.989  -7.023  1.00  0.00     0.000 C 
BRANCH   4   5
ATOM      5  C   UNL     1      20.444   0.299  -7.770  1.00  0.00     0.000 C 
BRANCH   5   6
ATOM      6  C   UNL     1      19.145   1.125  -7.760  1.00  0.00     0.000 C 
BRANCH   6   7
ATOM      7  C   UNL     1      18.241   0.791  -6.563  1.00  0.00     0.000 C 
BRANCH   7   8
ATOM      8  C   UNL     1      17.229  -0.326  -6.876  1.00  0.00     0.000 C 
BRANCH   8   9
ATOM      9  C   UNL     1      17.476  -1.599  -6.053  1.00  0.00     0.000 C 
BRANCH   9  10
ATOM     10  C   UNL     1      18.868  -2.206  -6.300  1.00  0.00     0.000 C 
BRANCH  10  11
ATOM     11  C   UNL     1      19.769  -2.163  -5.050  1.00  0.00     0.000 C 
BRANCH  11  12
ATOM     12  C   UNL     1      19.193  -2.862  -3.802  1.00  0.00     0.006 C 
BRANCH  12  13
ATOM     13  C   UNL     1      17.690  -2.633  -3.580  1.00  0.00     0.053 C 
BRANCH  13  14
ATOM     14  C   UNL     1      17.430  -1.534  -2.596  1.00  0.00     0.041 C 
ATOM     15  O   UNL     1      18.319  -1.200  -1.769  1.00  0.00    -0.550 OA
ATOM     16  O   UNL     1      16.218  -0.857  -2.615  1.00  0.00    -0.550 OA
ENDBRANCH  13  14
ENDBRANCH  12  13
ENDBRANCH  11  12
ENDBRANCH  10  11
ENDBRANCH   9  10
ENDBRANCH   8   9
ENDBRANCH   7   8
ENDBRANCH   6   7
ENDBRANCH   5   6
ENDBRANCH   4   5
ENDBRANCH   3   4
ENDBRANCH   2   3
ENDBRANCH   1   2
BRANCH   1  17
ATOM     17  C   UNL     1      25.522   1.026  -5.394  1.00  0.00     0.000 C 
BRANCH  17  18
ATOM     18  C   UNL     1      25.648   0.935  -3.859  1.00  0.00     0.000 C 
BRANCH  18  19
ATOM     19  C   UNL     1      27.108   0.760  -3.400  1.00  0.00     0.000 C 
BRANCH  19  20
ATOM     20  C   UNL     1      27.239   0.739  -1.868  1.00  0.00     0.000 C 
BRANCH  20  21
ATOM     21  C   UNL     1      28.606   0.200  -1.408  1.00  0.00     0.000 C 
BRANCH  21  22
ATOM     22  C   UNL     1      28.666  -1.338  -1.378  1.00  0.00    -0.000 C 
BRANCH  22  23
ATOM     23  C   UNL     1      29.299  -1.989  -2.621  1.00  0.00    -0.000 C 
BRANCH  23  24
ATOM     24  C   UNL     1      28.593  -3.287  -3.041  1.00  0.00    -0.000 C 
BRANCH  24  25
ATOM     25  C   UNL     1      27.070  -3.113  -3.045  1.00  0.00    -0.000 C 
BRANCH  25  26
ATOM     26  C   UNL     1      26.448  -3.781  -4.277  1.00  0.00    -0.000 C 
BRANCH  26  27
ATOM     27  C   UNL     1      27.279  -4.989  -4.730  1.00  0.00    -0.000 C 
BRANCH  27  28
ATOM     28  C   UNL     1      26.427  -6.252  -4.948  1.00  0.00    -0.000 C 
BRANCH  28  29
ATOM     29  C   UNL     1      26.869  -7.136  -6.129  1.00  0.00    -0.003 C 
ATOM     30  C   UNL     1      27.171  -6.338  -7.397  1.00  0.00     0.004 C 
ENDBRANCH  28  29
ENDBRANCH  27  28
ENDBRANCH  26  27
ENDBRANCH  25  26
ENDBRANCH  24  25
ENDBRANCH  23  24
ENDBRANCH  22  23
ENDBRANCH  21  22
ENDBRANCH  20  21
ENDBRANCH  19  20
ENDBRANCH  18  19
ENDBRANCH  17  18
ENDBRANCH   1  17
TORSDOF 26
ENDMDL
MODEL 9
REMARK VINA RESULT:    -3.134      1.320      2.776
REMARK INTER + INTRA:         -10.002
REMARK INTER:                  -6.761
REMARK INTRA:                  -3.241
REMARK UNBOUND:                -2.105
REMARK SMILES CCCCCCCCCCCCCCCCCCCCCCCCCCCC(=O)[O-]
REMARK SMILES IDX 15 1 16 2 17 3 18 4 19 5 20 6 21 7 22 8 23 9 24 10 25 11
REMARK SMILES IDX 26 12 27 13 28 14 29 15 30 16 14 17 13 18 12 19 11 20 10 21
REMARK SMILES IDX 9 22 8 23 7 24 6 25 5 26 4 27 3 28 2 29 1 30
REMARK H PARENT
REMARK Flexibility Score: inf
ROOT
ATOM      1  C   UNL     1      22.347   0.208  -5.087  1.00  0.00     0.000 C 
ENDROOT
BRANCH   1   2
ATOM      2  C   UNL     1      23.549   1.114  -4.773  1.00  0.00     0.000 C 
BRANCH   2   3
ATOM      3  C   UNL     1      24.802   0.740  -5.583  1.00  0.00     0.000 C 
BRANCH   3   4
ATOM      4  C   UNL     1      26.111   1.125  -4.872  1.00  0.00     0.000 C 
BRANCH   4   5
ATOM      5  C   UNL     1      26.052   1.093  -3.334  1.00  0.00     0.000 C 
BRANCH   5   6
ATOM      6  C   UNL     1      27.438   0.936  -2.683  1.00  0.00     0.000 C 
BRANCH   6   7
ATOM      7  C   UNL     1      28.167  -0.336  -3.144  1.00  0.00     0.000 C 
BRANCH   7   8
ATOM      8  C   UNL     1      27.549  -1.619  -2.559  1.00  0.00     0.000 C 
BRANCH   8   9
ATOM      9  C   UNL     1      27.505  -2.772  -3.573  1.00  0.00     0.000 C 
BRANCH   9  10
ATOM     10  C   UNL     1      28.844  -2.975  -4.302  1.00  0.00     0.000 C 
BRANCH  10  11
ATOM     11  C   UNL     1      29.011  -4.401  -4.860  1.00  0.00     0.000 C 
BRANCH  11  12
ATOM     12  C   UNL     1      27.770  -4.976  -5.573  1.00  0.00     0.006 C 
BRANCH  12  13
ATOM     13  C   UNL     1      27.500  -6.461  -5.286  1.00  0.00     0.053 C 
BRANCH  13  14
ATOM     14  C   UNL     1      27.733  -7.316  -6.493  1.00  0.00     0.041 C 
ATOM     15  O   UNL     1      26.979  -7.215  -7.496  1.00  0.00    -0.550 OA
ATOM     16  O   UNL     1      28.803  -8.201  -6.522  1.00  0.00    -0.550 OA
ENDBRANCH  13  14
ENDBRANCH  12  13
ENDBRANCH  11  12
ENDBRANCH  10  11
ENDBRANCH   9  10
ENDBRANCH   8   9
ENDBRANCH   7   8
ENDBRANCH   6   7
ENDBRANCH   5   6
ENDBRANCH   4   5
ENDBRANCH   3   4
ENDBRANCH   2   3
ENDBRANCH   1   2
BRANCH   1  17
ATOM     17  C   UNL     1      21.086   0.937  -5.591  1.00  0.00     0.000 C 
BRANCH  17  18
ATOM     18  C   UNL     1      20.987   1.035  -7.128  1.00  0.00     0.000 C 
BRANCH  18  19
ATOM     19  C   UNL     1      19.529   1.125  -7.617  1.00  0.00     0.000 C 
BRANCH  19  20
ATOM     20  C   UNL     1      18.522   0.725  -6.527  1.00  0.00     0.000 C 
BRANCH  20  21
ATOM     21  C   UNL     1      17.292   0.002  -7.106  1.00  0.00     0.000 C 
BRANCH  21  22
ATOM     22  C   UNL     1      16.088   0.004  -6.146  1.00  0.00    -0.000 C 
BRANCH  22  23
ATOM     23  C   UNL     1      16.434   0.262  -4.669  1.00  0.00    -0.000 C 
BRANCH  23  24
ATOM     24  C   UNL     1      15.894  -0.827  -3.729  1.00  0.00    -0.000 C 
BRANCH  24  25
ATOM     25  C   UNL     1      17.022  -1.452  -2.900  1.00  0.00    -0.000 C 
BRANCH  25  26
ATOM     26  C   UNL     1      18.358  -0.756  -3.186  1.00  0.00    -0.000 C 
BRANCH  26  27
ATOM     27  C   UNL     1      19.446  -1.776  -3.550  1.00  0.00    -0.000 C 
BRANCH  27  28
ATOM     28  C   UNL     1      19.020  -2.724  -4.685  1.00  0.00    -0.000 C 
BRANCH  28  29
ATOM     29  C   UNL     1      19.798  -2.551  -6.002  1.00  0.00    -0.003 C 
ATOM     30  C   UNL     1      19.016  -3.019  -7.228  1.00  0.00     0.004 C 
ENDBRANCH  28  29
ENDBRANCH  27  28
ENDBRANCH  26  27
ENDBRANCH  25  26
ENDBRANCH  24  25
ENDBRANCH  23  24
ENDBRANCH  22  23
ENDBRANCH  21  22
ENDBRANCH  20  21
ENDBRANCH  19  20
ENDBRANCH  18  19
ENDBRANCH  17  18
ENDBRANCH   1  17
TORSDOF 26
ENDMDL
