MODEL 1
REMARK VINA RESULT:    -4.148      0.000      0.000
REMARK INTER + INTRA:          -4.529
REMARK INTER:                  -5.119
REMARK INTRA:                   0.589
REMARK UNBOUND:                 0.589
REMARK SMILES C=C1CC[C@@H]2[C@H]1[C@@H]1[C@H](CC[C@@H]2C)C1(C)C
REMARK SMILES IDX 6 1 5 2 4 3 3 4 2 5 1 6 11 7 12 8 10 9 7 11 8 12 13 13 14 14
REMARK SMILES IDX 15 15 9 16
REMARK H PARENT
REMARK Flexibility Score: 80.00
ROOT
ATOM      1  C   UNL     1     143.499 139.088 134.176  1.00  0.00     0.022 C 
ATOM      2  C   UNL     1     143.032 138.761 135.628  1.00  0.00    -0.000 C 
ATOM      3  C   UNL     1     143.860 139.652 136.583  1.00  0.00     0.009 C 
ATOM      4  C   UNL     1     144.544 140.724 135.746  1.00  0.00     0.031 C 
ATOM      5  C   UNL     1     144.417 140.255 134.343  1.00  0.00    -0.074 C 
ATOM      6  C   UNL     1     145.104 140.806 133.334  1.00  0.00     0.008 C 
ENDROOT
BRANCH   2   7
ATOM      7  C   UNL     1     141.501 138.807 135.946  1.00  0.00    -0.011 C 
ATOM      8  C   UNL     1     140.839 140.191 135.768  1.00  0.00     0.008 C 
BRANCH   7   9
ATOM      9  C   UNL     1     140.687 137.672 135.261  1.00  0.00     0.004 CG0
ATOM     10  G   UNL     1     141.185 137.260 133.868  1.00  0.00     0.000 G0
ENDBRANCH   7   9
ENDBRANCH   2   7
BRANCH   1  11
ATOM     11  C   UNL     1     142.386 139.453 133.152  1.00  0.00     0.006 C 
ATOM     12  C   UNL     1     141.219 138.475 132.917  1.00  0.00    -0.001 C 
ATOM     13  C   UNL     1     142.289 138.660 131.831  1.00  0.00    -0.029 C 
ATOM     14  C   UNL     1     143.268 137.516 131.500  1.00  0.00     0.012 C 
ATOM     15  C   UNL     1     141.842 139.499 130.627  1.00  0.00     0.012 C 
BRANCH  12  16
ATOM     16  C   UNL     1     141.189 137.259 133.856  1.00  0.00     0.005 CG0
ATOM     17  G   UNL     1     140.700 137.664 135.255  1.00  0.00     0.000 G0
ENDBRANCH  12  16
ENDBRANCH   1  11
TORSDOF 0
ENDMDL
MODEL 2
REMARK VINA RESULT:    -4.128      4.563      6.242
REMARK INTER + INTRA:          -4.504
REMARK INTER:                  -5.087
REMARK INTRA:                   0.583
REMARK UNBOUND:                 0.589
REMARK SMILES C=C1CC[C@@H]2[C@H]1[C@@H]1[C@H](CC[C@@H]2C)C1(C)C
REMARK SMILES IDX 6 1 5 2 4 3 3 4 2 5 1 6 11 7 12 8 10 9 7 11 8 12 13 13 14 14
REMARK SMILES IDX 15 15 9 16
REMARK H PARENT
REMARK Flexibility Score: 80.00
ROOT
ATOM      1  C   UNL     1     138.778 143.100 134.157  1.00  0.00     0.022 C 
ATOM      2  C   UNL     1     139.117 143.353 135.658  1.00  0.00    -0.000 C 
ATOM      3  C   UNL     1     138.210 142.420 136.493  1.00  0.00     0.009 C 
ATOM      4  C   UNL     1     137.601 141.393 135.548  1.00  0.00     0.031 C 
ATOM      5  C   UNL     1     137.849 141.930 134.186  1.00  0.00    -0.074 C 
ATOM      6  C   UNL     1     137.253 141.431 133.095  1.00  0.00     0.008 C 
ENDROOT
BRANCH   2   7
ATOM      7  C   UNL     1     140.615 143.287 136.104  1.00  0.00    -0.011 C 
ATOM      8  C   UNL     1     141.288 141.909 135.923  1.00  0.00     0.008 C 
BRANCH   7   9
ATOM      9  C   UNL     1     141.486 144.447 135.543  1.00  0.00     0.004 CG0
ATOM     10  G   UNL     1     141.108 144.923 134.132  1.00  0.00     0.000 G0
ENDBRANCH   7   9
ENDBRANCH   2   7
BRANCH   1  11
ATOM     11  C   UNL     1     139.975 142.782 133.215  1.00  0.00     0.006 C 
ATOM     12  C   UNL     1     141.158 143.765 133.133  1.00  0.00    -0.001 C 
ATOM     13  C   UNL     1     140.186 143.639 131.949  1.00  0.00    -0.029 C 
ATOM     14  C   UNL     1     139.240 144.803 131.594  1.00  0.00     0.012 C 
ATOM     15  C   UNL     1     140.737 142.860 130.748  1.00  0.00     0.012 C 
BRANCH  12  16
ATOM     16  C   UNL     1     141.106 144.932 134.130  1.00  0.00     0.005 CG0
ATOM     17  G   UNL     1     141.476 144.456 135.543  1.00  0.00     0.000 G0
ENDBRANCH  12  16
ENDBRANCH   1  11
TORSDOF 0
ENDMDL
MODEL 3
REMARK VINA RESULT:    -4.097      3.352      4.398
REMARK INTER + INTRA:          -4.466
REMARK INTER:                  -5.077
REMARK INTRA:                   0.611
REMARK UNBOUND:                 0.589
REMARK SMILES C=C1CC[C@@H]2[C@H]1[C@@H]1[C@H](CC[C@@H]2C)C1(C)C
REMARK SMILES IDX 6 1 5 2 4 3 3 4 2 5 1 6 11 7 12 8 10 9 7 11 8 12 13 13 14 14
REMARK SMILES IDX 15 15 9 16
REMARK H PARENT
REMARK Flexibility Score: 80.00
ROOT
ATOM      1  C   UNL     1     143.165 143.419 134.020  1.00  0.00     0.022 C 
ATOM      2  C   UNL     1     143.524 142.952 135.464  1.00  0.00    -0.000 C 
ATOM      3  C   UNL     1     142.643 143.768 136.438  1.00  0.00     0.009 C 
ATOM      4  C   UNL     1     141.549 144.444 135.623  1.00  0.00     0.031 C 
ATOM      5  C   UNL     1     141.993 144.325 134.212  1.00  0.00    -0.074 C 
ATOM      6  C   UNL     1     141.415 145.008 133.214  1.00  0.00     0.008 C 
ENDROOT
BRANCH   2   7
ATOM      7  C   UNL     1     143.500 141.419 135.779  1.00  0.00    -0.011 C 
ATOM      8  C   UNL     1     142.120 140.743 135.623  1.00  0.00     0.008 C 
BRANCH   7   9
ATOM      9  C   UNL     1     144.631 140.619 135.071  1.00  0.00     0.004 CG0
ATOM     10  G   UNL     1     145.016 141.128 133.674  1.00  0.00     0.000 G0
ENDBRANCH   7   9
ENDBRANCH   2   7
BRANCH   1  11
ATOM     11  C   UNL     1     142.793 142.305 132.999  1.00  0.00     0.006 C 
ATOM     12  C   UNL     1     143.776 141.146 132.747  1.00  0.00    -0.001 C 
ATOM     13  C   UNL     1     143.565 142.216 131.666  1.00  0.00    -0.029 C 
ATOM     14  C   UNL     1     144.696 143.204 131.319  1.00  0.00     0.012 C 
ATOM     15  C   UNL     1     142.710 141.765 130.474  1.00  0.00     0.012 C 
BRANCH  12  16
ATOM     16  C   UNL     1     145.006 141.124 133.666  1.00  0.00     0.005 CG0
ATOM     17  G   UNL     1     144.632 140.612 135.065  1.00  0.00     0.000 G0
ENDBRANCH  12  16
ENDBRANCH   1  11
TORSDOF 0
ENDMDL
MODEL 4
REMARK VINA RESULT:    -4.093      3.382      4.479
REMARK INTER + INTRA:          -4.461
REMARK INTER:                  -5.072
REMARK INTRA:                   0.610
REMARK UNBOUND:                 0.589
REMARK SMILES C=C1CC[C@@H]2[C@H]1[C@@H]1[C@H](CC[C@@H]2C)C1(C)C
REMARK SMILES IDX 6 1 5 2 4 3 3 4 2 5 1 6 11 7 12 8 10 9 7 11 8 12 13 13 14 14
REMARK SMILES IDX 15 15 9 16
REMARK H PARENT
REMARK Flexibility Score: 80.00
ROOT
ATOM      1  C   UNL     1     139.074 138.802 134.102  1.00  0.00     0.022 C 
ATOM      2  C   UNL     1     138.769 139.203 135.578  1.00  0.00    -0.000 C 
ATOM      3  C   UNL     1     139.691 138.352 136.481  1.00  0.00     0.009 C 
ATOM      4  C   UNL     1     140.757 137.720 135.596  1.00  0.00     0.031 C 
ATOM      5  C   UNL     1     140.258 137.897 134.209  1.00  0.00    -0.074 C 
ATOM      6  C   UNL     1     140.800 137.261 133.162  1.00  0.00     0.008 C 
ENDROOT
BRANCH   2   7
ATOM      7  C   UNL     1     138.797 140.721 135.958  1.00  0.00    -0.011 C 
ATOM      8  C   UNL     1     140.168 141.411 135.783  1.00  0.00     0.008 C 
BRANCH   7   9
ATOM      9  C   UNL     1     137.638 141.544 135.327  1.00  0.00     0.004 CG0
ATOM     10  G   UNL     1     137.212 141.100 133.919  1.00  0.00     0.000 G0
ENDBRANCH   7   9
ENDBRANCH   2   7
BRANCH   1  11
ATOM     11  C   UNL     1     139.401 139.962 133.117  1.00  0.00     0.006 C 
ATOM     12  C   UNL     1     138.405 141.125 132.956  1.00  0.00    -0.001 C 
ATOM     13  C   UNL     1     138.577 140.104 131.821  1.00  0.00    -0.029 C 
ATOM     14  C   UNL     1     137.436 139.126 131.476  1.00  0.00     0.012 C 
ATOM     15  C   UNL     1     139.381 140.612 130.618  1.00  0.00     0.012 C 
BRANCH  12  16
ATOM     16  C   UNL     1     137.212 141.099 133.923  1.00  0.00     0.005 CG0
ATOM     17  G   UNL     1     137.641 141.546 135.329  1.00  0.00     0.000 G0
ENDBRANCH  12  16
ENDBRANCH   1  11
TORSDOF 0
ENDMDL
MODEL 5
REMARK VINA RESULT:    -4.041      1.999      4.032
REMARK INTER + INTRA:          -4.396
REMARK INTER:                  -5.002
REMARK INTRA:                   0.606
REMARK UNBOUND:                 0.589
REMARK SMILES C=C1CC[C@@H]2[C@H]1[C@@H]1[C@H](CC[C@@H]2C)C1(C)C
REMARK SMILES IDX 6 1 5 2 4 3 3 4 2 5 1 6 11 7 12 8 10 9 7 11 8 12 13 13 14 14
REMARK SMILES IDX 15 15 9 16
REMARK H PARENT
REMARK Flexibility Score: 80.00
ROOT
ATOM      1  C   UNL     1     142.490 139.008 133.801  1.00  0.00     0.022 C 
ATOM      2  C   UNL     1     141.529 138.300 132.798  1.00  0.00    -0.000 C 
ATOM      3  C   UNL     1     140.769 137.211 133.589  1.00  0.00     0.009 C 
ATOM      4  C   UNL     1     140.988 137.472 135.072  1.00  0.00     0.031 C 
ATOM      5  C   UNL     1     142.115 138.436 135.130  1.00  0.00    -0.074 C 
ATOM      6  C   UNL     1     142.760 138.725 136.268  1.00  0.00     0.008 C 
ENDROOT
BRANCH   2   7
ATOM      7  C   UNL     1     140.574 139.185 131.931  1.00  0.00    -0.011 C 
ATOM      8  C   UNL     1     139.544 140.011 132.733  1.00  0.00     0.008 C 
BRANCH   7   9
ATOM      9  C   UNL     1     141.314 140.042 130.864  1.00  0.00     0.004 CG0
ATOM     10  G   UNL     1     142.698 140.557 131.286  1.00  0.00     0.000 G0
ENDBRANCH   7   9
ENDBRANCH   2   7
BRANCH   1  11
ATOM     11  C   UNL     1     142.408 140.561 133.869  1.00  0.00     0.006 C 
ATOM     12  C   UNL     1     142.589 141.387 132.582  1.00  0.00    -0.001 C 
ATOM     13  C   UNL     1     143.689 141.393 133.654  1.00  0.00    -0.029 C 
ATOM     14  C   UNL     1     145.050 140.726 133.375  1.00  0.00     0.012 C 
ATOM     15  C   UNL     1     143.755 142.673 134.498  1.00  0.00     0.012 C 
BRANCH  12  16
ATOM     16  C   UNL     1     142.693 140.565 131.289  1.00  0.00     0.005 CG0
ATOM     17  G   UNL     1     141.314 140.034 130.870  1.00  0.00     0.000 G0
ENDBRANCH  12  16
ENDBRANCH   1  11
TORSDOF 0
ENDMDL
MODEL 6
REMARK VINA RESULT:    -4.036      3.265      4.825
REMARK INTER + INTRA:          -4.390
REMARK INTER:                  -4.978
REMARK INTRA:                   0.588
REMARK UNBOUND:                 0.589
REMARK SMILES C=C1CC[C@@H]2[C@H]1[C@@H]1[C@H](CC[C@@H]2C)C1(C)C
REMARK SMILES IDX 6 1 5 2 4 3 3 4 2 5 1 6 11 7 12 8 10 9 7 11 8 12 13 13 14 14
REMARK SMILES IDX 15 15 9 16
REMARK H PARENT
REMARK Flexibility Score: 80.00
ROOT
ATOM      1  C   UNL     1     143.147 142.537 133.836  1.00  0.00     0.022 C 
ATOM      2  C   UNL     1     143.877 141.601 132.824  1.00  0.00    -0.000 C 
ATOM      3  C   UNL     1     145.001 140.879 133.602  1.00  0.00     0.009 C 
ATOM      4  C   UNL     1     144.750 141.089 135.088  1.00  0.00     0.031 C 
ATOM      5  C   UNL     1     143.747 142.181 135.158  1.00  0.00    -0.074 C 
ATOM      6  C   UNL     1     143.449 142.815 136.300  1.00  0.00     0.008 C 
ENDROOT
BRANCH   2   7
ATOM      7  C   UNL     1     143.016 140.617 131.966  1.00  0.00    -0.011 C 
ATOM      8  C   UNL     1     142.235 139.558 132.776  1.00  0.00     0.008 C 
BRANCH   7   9
ATOM      9  C   UNL     1     142.122 141.326 130.909  1.00  0.00     0.004 CG0
ATOM     10  G   UNL     1     141.553 142.685 131.343  1.00  0.00     0.000 G0
ENDBRANCH   7   9
ENDBRANCH   2   7
BRANCH   1  11
ATOM     11  C   UNL     1     141.599 142.400 133.921  1.00  0.00     0.006 C 
ATOM     12  C   UNL     1     140.752 142.560 132.646  1.00  0.00    -0.001 C 
ATOM     13  C   UNL     1     140.721 143.653 133.725  1.00  0.00    -0.029 C 
ATOM     14  C   UNL     1     141.337 145.038 133.447  1.00  0.00     0.012 C 
ATOM     15  C   UNL     1     139.450 143.669 134.584  1.00  0.00     0.012 C 
BRANCH  12  16
ATOM     16  C   UNL     1     141.554 142.700 131.344  1.00  0.00     0.005 CG0
ATOM     17  G   UNL     1     142.123 141.342 130.905  1.00  0.00     0.000 G0
ENDBRANCH  12  16
ENDBRANCH   1  11
TORSDOF 0
ENDMDL
MODEL 7
REMARK VINA RESULT:    -3.993      2.825      4.878
REMARK INTER + INTRA:          -4.337
REMARK INTER:                  -4.935
REMARK INTRA:                   0.598
REMARK UNBOUND:                 0.589
REMARK SMILES C=C1CC[C@@H]2[C@H]1[C@@H]1[C@H](CC[C@@H]2C)C1(C)C
REMARK SMILES IDX 6 1 5 2 4 3 3 4 2 5 1 6 11 7 12 8 10 9 7 11 8 12 13 13 14 14
REMARK SMILES IDX 15 15 9 16
REMARK H PARENT
REMARK Flexibility Score: 80.00
ROOT
ATOM      1  C   UNL     1     139.100 139.750 133.975  1.00  0.00     0.022 C 
ATOM      2  C   UNL     1     138.404 140.705 132.958  1.00  0.00    -0.000 C 
ATOM      3  C   UNL     1     137.304 141.469 133.731  1.00  0.00     0.009 C 
ATOM      4  C   UNL     1     137.547 141.258 135.219  1.00  0.00     0.031 C 
ATOM      5  C   UNL     1     138.512 140.132 135.294  1.00  0.00    -0.074 C 
ATOM      6  C   UNL     1     138.787 139.494 136.440  1.00  0.00     0.008 C 
ENDROOT
BRANCH   2   7
ATOM      7  C   UNL     1     139.298 141.656 132.097  1.00  0.00    -0.011 C 
ATOM      8  C   UNL     1     140.111 142.694 132.902  1.00  0.00     0.008 C 
BRANCH   7   9
ATOM      9  C   UNL     1     140.171 140.911 131.046  1.00  0.00     0.004 CG0
ATOM     10  G   UNL     1     140.680 139.529 131.483  1.00  0.00     0.000 G0
ENDBRANCH   7   9
ENDBRANCH   2   7
BRANCH   1  11
ATOM     11  C   UNL     1     140.652 139.835 134.061  1.00  0.00     0.006 C 
ATOM     12  C   UNL     1     141.494 139.645 132.786  1.00  0.00    -0.001 C 
ATOM     13  C   UNL     1     141.488 138.552 133.866  1.00  0.00    -0.029 C 
ATOM     14  C   UNL     1     140.825 137.189 133.589  1.00  0.00     0.012 C 
ATOM     15  C   UNL     1     142.757 138.494 134.726  1.00  0.00     0.012 C 
BRANCH  12  16
ATOM     16  C   UNL     1     140.688 139.531 131.484  1.00  0.00     0.005 CG0
ATOM     17  G   UNL     1     140.181 140.909 131.035  1.00  0.00     0.000 G0
ENDBRANCH  12  16
ENDBRANCH   1  11
TORSDOF 0
ENDMDL
MODEL 8
REMARK VINA RESULT:    -3.894      2.401      5.185
REMARK INTER + INTRA:          -4.215
REMARK INTER:                  -4.807
REMARK INTRA:                   0.592
REMARK UNBOUND:                 0.589
REMARK SMILES C=C1CC[C@@H]2[C@H]1[C@@H]1[C@H](CC[C@@H]2C)C1(C)C
REMARK SMILES IDX 6 1 5 2 4 3 3 4 2 5 1 6 11 7 12 8 10 9 7 11 8 12 13 13 14 14
REMARK SMILES IDX 15 15 9 16
REMARK H PARENT
REMARK Flexibility Score: 80.00
ROOT
ATOM      1  C   UNL     1     138.571 139.616 134.825  1.00  0.00     0.022 C 
ATOM      2  C   UNL     1     138.572 139.271 133.305  1.00  0.00    -0.000 C 
ATOM      3  C   UNL     1     137.613 140.267 132.612  1.00  0.00     0.009 C 
ATOM      4  C   UNL     1     137.314 141.389 133.597  1.00  0.00     0.031 C 
ATOM      5  C   UNL     1     137.778 140.879 134.912  1.00  0.00    -0.074 C 
ATOM      6  C   UNL     1     137.467 141.480 136.068  1.00  0.00     0.008 C 
ENDROOT
BRANCH   2   7
ATOM      7  C   UNL     1     139.948 139.156 132.568  1.00  0.00    -0.011 C 
ATOM      8  C   UNL     1     140.777 140.459 132.529  1.00  0.00     0.008 C 
BRANCH   7   9
ATOM      9  C   UNL     1     140.796 137.932 133.016  1.00  0.00     0.004 CG0
ATOM     10  G   UNL     1     140.653 137.545 134.496  1.00  0.00     0.000 G0
ENDBRANCH   7   9
ENDBRANCH   2   7
BRANCH   1  11
ATOM     11  C   UNL     1     139.960 139.835 135.492  1.00  0.00     0.006 C 
ATOM     12  C   UNL     1     141.031 138.733 135.395  1.00  0.00    -0.001 C 
ATOM     13  C   UNL     1     140.337 139.006 136.738  1.00  0.00    -0.029 C 
ATOM     14  C   UNL     1     139.372 137.966 137.340  1.00  0.00     0.012 C 
ATOM     15  C   UNL     1     141.194 139.764 137.760  1.00  0.00     0.012 C 
BRANCH  12  16
ATOM     16  C   UNL     1     140.663 137.544 134.496  1.00  0.00     0.005 CG0
ATOM     17  G   UNL     1     140.794 137.922 133.013  1.00  0.00     0.000 G0
ENDBRANCH  12  16
ENDBRANCH   1  11
TORSDOF 0
ENDMDL
MODEL 9
REMARK VINA RESULT:    -3.815      2.089      3.906
REMARK INTER + INTRA:          -4.118
REMARK INTER:                  -4.727
REMARK INTRA:                   0.609
REMARK UNBOUND:                 0.589
REMARK SMILES C=C1CC[C@@H]2[C@H]1[C@@H]1[C@H](CC[C@@H]2C)C1(C)C
REMARK SMILES IDX 6 1 5 2 4 3 3 4 2 5 1 6 11 7 12 8 10 9 7 11 8 12 13 13 14 14
REMARK SMILES IDX 15 15 9 16
REMARK H PARENT
REMARK Flexibility Score: 80.00
ROOT
ATOM      1  C   UNL     1     142.979 139.400 134.663  1.00  0.00     0.022 C 
ATOM      2  C   UNL     1     144.000 140.537 134.970  1.00  0.00    -0.000 C 
ATOM      3  C   UNL     1     144.975 140.609 133.771  1.00  0.00     0.009 C 
ATOM      4  C   UNL     1     144.371 139.802 132.630  1.00  0.00     0.031 C 
ATOM      5  C   UNL     1     143.288 139.003 133.255  1.00  0.00    -0.074 C 
ATOM      6  C   UNL     1     142.681 137.990 132.622  1.00  0.00     0.008 C 
ENDROOT
BRANCH   2   7
ATOM      7  C   UNL     1     143.449 141.944 135.376  1.00  0.00    -0.011 C 
ATOM      8  C   UNL     1     142.595 142.646 134.297  1.00  0.00     0.008 C 
BRANCH   7   9
ATOM      9  C   UNL     1     142.767 141.967 136.774  1.00  0.00     0.004 CG0
ATOM     10  G   UNL     1     141.991 140.694 137.143  1.00  0.00     0.000 G0
ENDBRANCH   7   9
ENDBRANCH   2   7
BRANCH   1  11
ATOM     11  C   UNL     1     141.471 139.768 134.773  1.00  0.00     0.006 C 
ATOM     12  C   UNL     1     140.929 140.366 136.086  1.00  0.00    -0.001 C 
ATOM     13  C   UNL     1     140.556 138.929 135.690  1.00  0.00    -0.029 C 
ATOM     14  C   UNL     1     141.097 137.734 136.498  1.00  0.00     0.012 C 
ATOM     15  C   UNL     1     139.124 138.761 135.163  1.00  0.00     0.012 C 
BRANCH  12  16
ATOM     16  C   UNL     1     141.995 140.685 137.144  1.00  0.00     0.005 CG0
ATOM     17  G   UNL     1     142.761 141.965 136.777  1.00  0.00     0.000 G0
ENDBRANCH  12  16
ENDBRANCH   1  11
TORSDOF 0
ENDMDL
