MODEL 1
REMARK VINA RESULT:    -2.979      0.000      0.000
REMARK INTER + INTRA:          -8.178
REMARK INTER:                  -5.417
REMARK INTRA:                  -2.761
REMARK UNBOUND:                -2.761
REMARK SMILES CCCCCCCCCCCCCC[C@@H](C)C(=O)[O-]
REMARK SMILES IDX 9 1 10 2 11 3 12 4 13 5 14 6 15 7 16 8 17 9 18 10 19 11 8 12
REMARK SMILES IDX 7 13 6 14 5 15 4 16 3 17 2 18 1 19
REMARK H PARENT
REMARK Flexibility Score: inf
ROOT
ATOM      1  C   UNL     1      31.539  30.671  52.673  1.00  0.00     0.000 C 
ENDROOT
BRANCH   1   2
ATOM      2  C   UNL     1      30.445  31.621  52.172  1.00  0.00     0.000 C 
BRANCH   2   3
ATOM      3  C   UNL     1      30.775  33.078  52.532  1.00  0.00     0.000 C 
BRANCH   3   4
ATOM      4  C   UNL     1      29.538  33.990  52.494  1.00  0.00     0.000 C 
BRANCH   4   5
ATOM      5  C   UNL     1      28.256  33.231  52.113  1.00  0.00     0.001 C 
BRANCH   5   6
ATOM      6  C   UNL     1      27.007  33.757  52.846  1.00  0.00     0.009 C 
BRANCH   6   7
ATOM      7  C   UNL     1      25.659  33.288  52.252  1.00  0.00     0.032 C 
ATOM      8  C   UNL     1      25.677  33.242  50.718  1.00  0.00     0.014 C 
BRANCH   7   9
ATOM      9  C   UNL     1      25.321  31.925  52.793  1.00  0.00     0.044 C 
ATOM     10  O   UNL     1      25.302  30.926  52.026  1.00  0.00    -0.550 OA
ATOM     11  O   UNL     1      25.011  31.761  54.138  1.00  0.00    -0.550 OA
ENDBRANCH   7   9
ENDBRANCH   6   7
ENDBRANCH   5   6
ENDBRANCH   4   5
ENDBRANCH   3   4
ENDBRANCH   2   3
ENDBRANCH   1   2
BRANCH   1  12
ATOM     12  C   UNL     1      32.496  31.393  53.635  1.00  0.00     0.000 C 
BRANCH  12  13
ATOM     13  C   UNL     1      32.459  30.809  55.056  1.00  0.00    -0.000 C 
BRANCH  13  14
ATOM     14  C   UNL     1      32.344  31.894  56.138  1.00  0.00    -0.000 C 
BRANCH  14  15
ATOM     15  C   UNL     1      30.972  32.578  56.084  1.00  0.00    -0.000 C 
BRANCH  15  16
ATOM     16  C   UNL     1      29.847  31.579  56.395  1.00  0.00    -0.000 C 
BRANCH  16  17
ATOM     17  C   UNL     1      28.657  31.708  55.429  1.00  0.00    -0.000 C 
BRANCH  17  18
ATOM     18  C   UNL     1      28.261  30.365  54.797  1.00  0.00    -0.003 C 
ATOM     19  C   UNL     1      29.168  29.240  55.287  1.00  0.00     0.004 C 
ENDBRANCH  17  18
ENDBRANCH  16  17
ENDBRANCH  15  16
ENDBRANCH  14  15
ENDBRANCH  13  14
ENDBRANCH  12  13
ENDBRANCH   1  12
TORSDOF 14
ENDMDL
MODEL 2
REMARK VINA RESULT:    -2.975     15.987     18.243
REMARK INTER + INTRA:          -8.172
REMARK INTER:                  -5.286
REMARK INTRA:                  -2.885
REMARK UNBOUND:                -2.761
REMARK SMILES CCCCCCCCCCCCCC[C@@H](C)C(=O)[O-]
REMARK SMILES IDX 9 1 10 2 11 3 12 4 13 5 14 6 15 7 16 8 17 9 18 10 19 11 8 12
REMARK SMILES IDX 7 13 6 14 5 15 4 16 3 17 2 18 1 19
REMARK H PARENT
REMARK Flexibility Score: inf
ROOT
ATOM      1  C   UNL     1      18.315  20.855  51.901  1.00  0.00     0.000 C 
ENDROOT
BRANCH   1   2
ATOM      2  C   UNL     1      17.020  21.246  51.178  1.00  0.00     0.000 C 
BRANCH   2   3
ATOM      3  C   UNL     1      16.888  20.497  49.843  1.00  0.00     0.000 C 
BRANCH   3   4
ATOM      4  C   UNL     1      15.539  19.772  49.705  1.00  0.00     0.000 C 
BRANCH   4   5
ATOM      5  C   UNL     1      15.583  18.635  48.670  1.00  0.00     0.001 C 
BRANCH   5   6
ATOM      6  C   UNL     1      17.013  18.306  48.200  1.00  0.00     0.009 C 
BRANCH   6   7
ATOM      7  C   UNL     1      17.127  17.869  46.722  1.00  0.00     0.032 C 
ATOM      8  C   UNL     1      15.757  17.645  46.068  1.00  0.00     0.014 C 
BRANCH   7   9
ATOM      9  C   UNL     1      17.891  18.910  45.950  1.00  0.00     0.044 C 
ATOM     10  O   UNL     1      17.844  20.119  46.300  1.00  0.00    -0.550 OA
ATOM     11  O   UNL     1      18.641  18.549  44.836  1.00  0.00    -0.550 OA
ENDBRANCH   7   9
ENDBRANCH   6   7
ENDBRANCH   5   6
ENDBRANCH   4   5
ENDBRANCH   3   4
ENDBRANCH   2   3
ENDBRANCH   1   2
BRANCH   1  12
ATOM     12  C   UNL     1      19.062  19.754  51.133  1.00  0.00     0.000 C 
BRANCH  12  13
ATOM     13  C   UNL     1      19.258  18.478  51.966  1.00  0.00    -0.000 C 
BRANCH  13  14
ATOM     14  C   UNL     1      18.639  17.238  51.303  1.00  0.00    -0.000 C 
BRANCH  14  15
ATOM     15  C   UNL     1      17.158  17.096  51.679  1.00  0.00    -0.000 C 
BRANCH  15  16
ATOM     16  C   UNL     1      16.917  17.524  53.134  1.00  0.00    -0.000 C 
BRANCH  16  17
ATOM     17  C   UNL     1      15.709  18.463  53.283  1.00  0.00    -0.000 C 
BRANCH  17  18
ATOM     18  C   UNL     1      15.880  19.469  54.431  1.00  0.00    -0.003 C 
ATOM     19  C   UNL     1      17.245  19.315  55.096  1.00  0.00     0.004 C 
ENDBRANCH  17  18
ENDBRANCH  16  17
ENDBRANCH  15  16
ENDBRANCH  14  15
ENDBRANCH  13  14
ENDBRANCH  12  13
ENDBRANCH   1  12
TORSDOF 14
ENDMDL
MODEL 3
REMARK VINA RESULT:    -2.908      1.361      2.166
REMARK INTER + INTRA:          -8.049
REMARK INTER:                  -5.378
REMARK INTRA:                  -2.671
REMARK UNBOUND:                -2.761
REMARK SMILES CCCCCCCCCCCCCC[C@@H](C)C(=O)[O-]
REMARK SMILES IDX 9 1 10 2 11 3 12 4 13 5 14 6 15 7 16 8 17 9 18 10 19 11 8 12
REMARK SMILES IDX 7 13 6 14 5 15 4 16 3 17 2 18 1 19
REMARK H PARENT
REMARK Flexibility Score: inf
ROOT
ATOM      1  C   UNL     1      29.820  32.356  52.141  1.00  0.00     0.000 C 
ENDROOT
BRANCH   1   2
ATOM      2  C   UNL     1      30.286  33.748  52.586  1.00  0.00     0.000 C 
BRANCH   2   3
ATOM      3  C   UNL     1      29.184  34.469  53.378  1.00  0.00     0.000 C 
BRANCH   3   4
ATOM      4  C   UNL     1      27.876  33.664  53.435  1.00  0.00     0.000 C 
BRANCH   4   5
ATOM      5  C   UNL     1      26.629  34.550  53.275  1.00  0.00     0.001 C 
BRANCH   5   6
ATOM      6  C   UNL     1      25.545  33.907  52.390  1.00  0.00     0.009 C 
BRANCH   6   7
ATOM      7  C   UNL     1      25.863  32.472  51.911  1.00  0.00     0.032 C 
ATOM      8  C   UNL     1      25.065  31.407  52.676  1.00  0.00     0.014 C 
BRANCH   7   9
ATOM      9  C   UNL     1      25.574  32.360  50.439  1.00  0.00     0.044 C 
ATOM     10  O   UNL     1      24.805  31.458  50.013  1.00  0.00    -0.550 OA
ATOM     11  O   UNL     1      26.165  33.238  49.538  1.00  0.00    -0.550 OA
ENDBRANCH   7   9
ENDBRANCH   6   7
ENDBRANCH   5   6
ENDBRANCH   4   5
ENDBRANCH   3   4
ENDBRANCH   2   3
ENDBRANCH   1   2
BRANCH   1  12
ATOM     12  C   UNL     1      30.903  31.301  52.415  1.00  0.00     0.000 C 
BRANCH  12  13
ATOM     13  C   UNL     1      32.009  31.815  53.349  1.00  0.00    -0.000 C 
BRANCH  13  14
ATOM     14  C   UNL     1      31.955  31.171  54.742  1.00  0.00    -0.000 C 
BRANCH  14  15
ATOM     15  C   UNL     1      31.728  32.230  55.829  1.00  0.00    -0.000 C 
BRANCH  15  16
ATOM     16  C   UNL     1      30.243  32.315  56.211  1.00  0.00    -0.000 C 
BRANCH  16  17
ATOM     17  C   UNL     1      29.573  30.934  56.295  1.00  0.00    -0.000 C 
BRANCH  17  18
ATOM     18  C   UNL     1      28.170  30.919  55.667  1.00  0.00    -0.003 C 
ATOM     19  C   UNL     1      28.124  29.997  54.452  1.00  0.00     0.004 C 
ENDBRANCH  17  18
ENDBRANCH  16  17
ENDBRANCH  15  16
ENDBRANCH  14  15
ENDBRANCH  13  14
ENDBRANCH  12  13
ENDBRANCH   1  12
TORSDOF 14
ENDMDL
MODEL 4
REMARK VINA RESULT:    -2.902     16.782     19.090
REMARK INTER + INTRA:          -8.039
REMARK INTER:                  -5.604
REMARK INTRA:                  -2.435
REMARK UNBOUND:                -2.761
REMARK SMILES CCCCCCCCCCCCCC[C@@H](C)C(=O)[O-]
REMARK SMILES IDX 9 1 10 2 11 3 12 4 13 5 14 6 15 7 16 8 17 9 18 10 19 11 8 12
REMARK SMILES IDX 7 13 6 14 5 15 4 16 3 17 2 18 1 19
REMARK H PARENT
REMARK Flexibility Score: inf
ROOT
ATOM      1  C   UNL     1      16.008  19.781  49.269  1.00  0.00     0.000 C 
ENDROOT
BRANCH   1   2
ATOM      2  C   UNL     1      15.076  18.581  49.056  1.00  0.00     0.000 C 
BRANCH   2   3
ATOM      3  C   UNL     1      14.288  18.724  47.745  1.00  0.00     0.000 C 
BRANCH   3   4
ATOM      4  C   UNL     1      14.633  17.625  46.726  1.00  0.00     0.000 C 
BRANCH   4   5
ATOM      5  C   UNL     1      15.928  17.924  45.952  1.00  0.00     0.001 C 
BRANCH   5   6
ATOM      6  C   UNL     1      16.072  19.410  45.574  1.00  0.00     0.009 C 
BRANCH   6   7
ATOM      7  C   UNL     1      17.495  19.837  45.146  1.00  0.00     0.032 C 
ATOM      8  C   UNL     1      18.502  18.681  45.219  1.00  0.00     0.014 C 
BRANCH   7   9
ATOM      9  C   UNL     1      17.454  20.382  43.744  1.00  0.00     0.044 C 
ATOM     10  O   UNL     1      16.855  21.464  43.503  1.00  0.00    -0.550 OA
ATOM     11  O   UNL     1      18.062  19.690  42.703  1.00  0.00    -0.550 OA
ENDBRANCH   7   9
ENDBRANCH   6   7
ENDBRANCH   5   6
ENDBRANCH   4   5
ENDBRANCH   3   4
ENDBRANCH   2   3
ENDBRANCH   1   2
BRANCH   1  12
ATOM     12  C   UNL     1      17.481  19.349  49.214  1.00  0.00     0.000 C 
BRANCH  12  13
ATOM     13  C   UNL     1      17.665  17.841  49.443  1.00  0.00    -0.000 C 
BRANCH  13  14
ATOM     14  C   UNL     1      18.210  17.517  50.843  1.00  0.00    -0.000 C 
BRANCH  14  15
ATOM     15  C   UNL     1      17.092  17.012  51.764  1.00  0.00    -0.000 C 
BRANCH  15  16
ATOM     16  C   UNL     1      16.974  17.892  53.018  1.00  0.00    -0.000 C 
BRANCH  16  17
ATOM     17  C   UNL     1      15.674  18.711  53.047  1.00  0.00    -0.000 C 
BRANCH  17  18
ATOM     18  C   UNL     1      15.921  20.218  52.883  1.00  0.00    -0.003 C 
ATOM     19  C   UNL     1      17.414  20.534  52.902  1.00  0.00     0.004 C 
ENDBRANCH  17  18
ENDBRANCH  16  17
ENDBRANCH  15  16
ENDBRANCH  14  15
ENDBRANCH  13  14
ENDBRANCH  12  13
ENDBRANCH   1  12
TORSDOF 14
ENDMDL
MODEL 5
REMARK VINA RESULT:    -2.839      2.026      5.170
REMARK INTER + INTRA:          -7.924
REMARK INTER:                  -5.402
REMARK INTRA:                  -2.522
REMARK UNBOUND:                -2.761
REMARK SMILES CCCCCCCCCCCCCC[C@@H](C)C(=O)[O-]
REMARK SMILES IDX 9 1 10 2 11 3 12 4 13 5 14 6 15 7 16 8 17 9 18 10 19 11 8 12
REMARK SMILES IDX 7 13 6 14 5 15 4 16 3 17 2 18 1 19
REMARK H PARENT
REMARK Flexibility Score: inf
ROOT
ATOM      1  C   UNL     1      30.209  32.430  52.214  1.00  0.00     0.000 C 
ENDROOT
BRANCH   1   2
ATOM      2  C   UNL     1      31.521  32.712  52.958  1.00  0.00     0.000 C 
BRANCH   2   3
ATOM      3  C   UNL     1      32.012  31.458  53.698  1.00  0.00     0.000 C 
BRANCH   3   4
ATOM      4  C   UNL     1      32.222  31.704  55.201  1.00  0.00     0.000 C 
BRANCH   4   5
ATOM      5  C   UNL     1      31.144  31.028  56.066  1.00  0.00     0.001 C 
BRANCH   5   6
ATOM      6  C   UNL     1      29.956  31.958  56.378  1.00  0.00     0.009 C 
BRANCH   6   7
ATOM      7  C   UNL     1      28.563  31.356  56.080  1.00  0.00     0.032 C 
ATOM      8  C   UNL     1      28.583  30.393  54.886  1.00  0.00     0.014 C 
BRANCH   7   9
ATOM      9  C   UNL     1      28.058  30.636  57.301  1.00  0.00     0.044 C 
ATOM     10  O   UNL     1      27.934  29.383  57.290  1.00  0.00    -0.550 OA
ATOM     11  O   UNL     1      27.708  31.349  58.442  1.00  0.00    -0.550 OA
ENDBRANCH   7   9
ENDBRANCH   6   7
ENDBRANCH   5   6
ENDBRANCH   4   5
ENDBRANCH   3   4
ENDBRANCH   2   3
ENDBRANCH   1   2
BRANCH   1  12
ATOM     12  C   UNL     1      29.358  33.704  52.100  1.00  0.00     0.000 C 
BRANCH  12  13
ATOM     13  C   UNL     1      28.555  33.997  53.377  1.00  0.00    -0.000 C 
BRANCH  13  14
ATOM     14  C   UNL     1      27.057  34.195  53.101  1.00  0.00    -0.000 C 
BRANCH  14  15
ATOM     15  C   UNL     1      26.317  32.851  53.096  1.00  0.00    -0.000 C 
BRANCH  15  16
ATOM     16  C   UNL     1      25.734  32.550  51.707  1.00  0.00    -0.000 C 
BRANCH  16  17
ATOM     17  C   UNL     1      26.432  31.367  51.016  1.00  0.00    -0.000 C 
BRANCH  17  18
ATOM     18  C   UNL     1      27.237  31.795  49.780  1.00  0.00    -0.003 C 
ATOM     19  C   UNL     1      26.854  33.204  49.337  1.00  0.00     0.004 C 
ENDBRANCH  17  18
ENDBRANCH  16  17
ENDBRANCH  15  16
ENDBRANCH  14  15
ENDBRANCH  13  14
ENDBRANCH  12  13
ENDBRANCH   1  12
TORSDOF 14
ENDMDL
MODEL 6
REMARK VINA RESULT:    -2.824     16.909     19.150
REMARK INTER + INTRA:          -7.897
REMARK INTER:                  -5.226
REMARK INTRA:                  -2.670
REMARK UNBOUND:                -2.761
REMARK SMILES CCCCCCCCCCCCCC[C@@H](C)C(=O)[O-]
REMARK SMILES IDX 9 1 10 2 11 3 12 4 13 5 14 6 15 7 16 8 17 9 18 10 19 11 8 12
REMARK SMILES IDX 7 13 6 14 5 15 4 16 3 17 2 18 1 19
REMARK H PARENT
REMARK Flexibility Score: inf
ROOT
ATOM      1  C   UNL     1      16.012  20.092  49.879  1.00  0.00     0.000 C 
ENDROOT
BRANCH   1   2
ATOM      2  C   UNL     1      17.471  20.562  49.942  1.00  0.00     0.000 C 
BRANCH   2   3
ATOM      3  C   UNL     1      18.420  19.378  50.179  1.00  0.00     0.000 C 
BRANCH   3   4
ATOM      4  C   UNL     1      17.690  18.026  50.174  1.00  0.00     0.000 C 
BRANCH   4   5
ATOM      5  C   UNL     1      17.915  17.228  51.470  1.00  0.00     0.001 C 
BRANCH   5   6
ATOM      6  C   UNL     1      16.710  17.289  52.429  1.00  0.00     0.009 C 
BRANCH   6   7
ATOM      7  C   UNL     1      16.646  18.556  53.312  1.00  0.00     0.032 C 
ATOM      8  C   UNL     1      15.209  19.052  53.523  1.00  0.00     0.014 C 
BRANCH   7   9
ATOM      9  C   UNL     1      17.283  18.270  54.645  1.00  0.00     0.044 C 
ATOM     10  O   UNL     1      16.649  17.630  55.524  1.00  0.00    -0.550 OA
ATOM     11  O   UNL     1      18.567  18.725  54.921  1.00  0.00    -0.550 OA
ENDBRANCH   7   9
ENDBRANCH   6   7
ENDBRANCH   5   6
ENDBRANCH   4   5
ENDBRANCH   3   4
ENDBRANCH   2   3
ENDBRANCH   1   2
BRANCH   1  12
ATOM     12  C   UNL     1      15.173  21.022  48.990  1.00  0.00     0.000 C 
BRANCH  12  13
ATOM     13  C   UNL     1      14.495  20.279  47.828  1.00  0.00    -0.000 C 
BRANCH  13  14
ATOM     14  C   UNL     1      14.231  18.799  48.146  1.00  0.00    -0.000 C 
BRANCH  14  15
ATOM     15  C   UNL     1      14.822  17.890  47.060  1.00  0.00    -0.000 C 
BRANCH  15  16
ATOM     16  C   UNL     1      15.894  18.632  46.246  1.00  0.00    -0.000 C 
BRANCH  16  17
ATOM     17  C   UNL     1      17.311  18.095  46.505  1.00  0.00    -0.000 C 
BRANCH  17  18
ATOM     18  C   UNL     1      18.371  19.207  46.511  1.00  0.00    -0.003 C 
ATOM     19  C   UNL     1      17.749  20.560  46.179  1.00  0.00     0.004 C 
ENDBRANCH  17  18
ENDBRANCH  16  17
ENDBRANCH  15  16
ENDBRANCH  14  15
ENDBRANCH  13  14
ENDBRANCH  12  13
ENDBRANCH   1  12
TORSDOF 14
ENDMDL
MODEL 7
REMARK VINA RESULT:    -2.798      2.493      5.497
REMARK INTER + INTRA:          -7.850
REMARK INTER:                  -5.089
REMARK INTRA:                  -2.761
REMARK UNBOUND:                -2.761
REMARK SMILES CCCCCCCCCCCCCC[C@@H](C)C(=O)[O-]
REMARK SMILES IDX 9 1 10 2 11 3 12 4 13 5 14 6 15 7 16 8 17 9 18 10 19 11 8 12
REMARK SMILES IDX 7 13 6 14 5 15 4 16 3 17 2 18 1 19
REMARK H PARENT
REMARK Flexibility Score: inf
ROOT
ATOM      1  C   UNL     1      29.499  33.683  52.684  1.00  0.00     0.000 C 
ENDROOT
BRANCH   1   2
ATOM      2  C   UNL     1      29.141  33.269  51.251  1.00  0.00     0.000 C 
BRANCH   2   3
ATOM      3  C   UNL     1      29.793  31.927  50.887  1.00  0.00     0.000 C 
BRANCH   3   4
ATOM      4  C   UNL     1      29.173  30.744  51.649  1.00  0.00     0.000 C 
BRANCH   4   5
ATOM      5  C   UNL     1      30.210  29.965  52.476  1.00  0.00     0.001 C 
BRANCH   5   6
ATOM      6  C   UNL     1      30.183  30.333  53.972  1.00  0.00     0.009 C 
BRANCH   6   7
ATOM      7  C   UNL     1      31.537  30.802  54.551  1.00  0.00     0.032 C 
ATOM      8  C   UNL     1      32.392  31.547  53.516  1.00  0.00     0.014 C 
BRANCH   7   9
ATOM      9  C   UNL     1      31.293  31.692  55.738  1.00  0.00     0.044 C 
ATOM     10  O   UNL     1      30.117  31.995  56.071  1.00  0.00    -0.550 OA
ATOM     11  O   UNL     1      32.363  32.201  56.467  1.00  0.00    -0.550 OA
ENDBRANCH   7   9
ENDBRANCH   6   7
ENDBRANCH   5   6
ENDBRANCH   4   5
ENDBRANCH   3   4
ENDBRANCH   2   3
ENDBRANCH   1   2
BRANCH   1  12
ATOM     12  C   UNL     1      28.274  33.585  53.606  1.00  0.00     0.000 C 
BRANCH  12  13
ATOM     13  C   UNL     1      27.136  34.527  53.183  1.00  0.00    -0.000 C 
BRANCH  13  14
ATOM     14  C   UNL     1      25.782  33.809  53.077  1.00  0.00    -0.000 C 
BRANCH  14  15
ATOM     15  C   UNL     1      25.500  33.379  51.632  1.00  0.00    -0.000 C 
BRANCH  15  16
ATOM     16  C   UNL     1      25.563  31.851  51.491  1.00  0.00    -0.000 C 
BRANCH  16  17
ATOM     17  C   UNL     1      24.999  31.118  52.719  1.00  0.00    -0.000 C 
BRANCH  17  18
ATOM     18  C   UNL     1      25.965  30.058  53.270  1.00  0.00    -0.003 C 
ATOM     19  C   UNL     1      26.550  30.495  54.610  1.00  0.00     0.004 C 
ENDBRANCH  17  18
ENDBRANCH  16  17
ENDBRANCH  15  16
ENDBRANCH  14  15
ENDBRANCH  13  14
ENDBRANCH  12  13
ENDBRANCH   1  12
TORSDOF 14
ENDMDL
MODEL 8
REMARK VINA RESULT:    -2.791      1.594      3.815
REMARK INTER + INTRA:          -7.836
REMARK INTER:                  -5.268
REMARK INTRA:                  -2.568
REMARK UNBOUND:                -2.761
REMARK SMILES CCCCCCCCCCCCCC[C@@H](C)C(=O)[O-]
REMARK SMILES IDX 9 1 10 2 11 3 12 4 13 5 14 6 15 7 16 8 17 9 18 10 19 11 8 12
REMARK SMILES IDX 7 13 6 14 5 15 4 16 3 17 2 18 1 19
REMARK H PARENT
REMARK Flexibility Score: inf
ROOT
ATOM      1  C   UNL     1      28.207  31.676  50.400  1.00  0.00     0.000 C 
ENDROOT
BRANCH   1   2
ATOM      2  C   UNL     1      27.357  32.897  50.024  1.00  0.00     0.000 C 
BRANCH   2   3
ATOM      3  C   UNL     1      25.931  32.766  50.579  1.00  0.00     0.000 C 
BRANCH   3   4
ATOM      4  C   UNL     1      25.676  33.693  51.778  1.00  0.00     0.000 C 
BRANCH   4   5
ATOM      5  C   UNL     1      25.552  32.923  53.104  1.00  0.00     0.001 C 
BRANCH   5   6
ATOM      6  C   UNL     1      25.351  31.409  52.903  1.00  0.00     0.009 C 
BRANCH   6   7
ATOM      7  C   UNL     1      26.040  30.516  53.960  1.00  0.00     0.032 C 
ATOM      8  C   UNL     1      27.437  31.026  54.340  1.00  0.00     0.014 C 
BRANCH   7   9
ATOM      9  C   UNL     1      25.177  30.443  55.191  1.00  0.00     0.044 C 
ATOM     10  O   UNL     1      23.925  30.534  55.093  1.00  0.00    -0.550 OA
ATOM     11  O   UNL     1      25.756  30.290  56.446  1.00  0.00    -0.550 OA
ENDBRANCH   7   9
ENDBRANCH   6   7
ENDBRANCH   5   6
ENDBRANCH   4   5
ENDBRANCH   3   4
ENDBRANCH   2   3
ENDBRANCH   1   2
BRANCH   1  12
ATOM     12  C   UNL     1      29.346  32.072  51.352  1.00  0.00     0.000 C 
BRANCH  12  13
ATOM     13  C   UNL     1      29.427  33.589  51.582  1.00  0.00    -0.000 C 
BRANCH  13  14
ATOM     14  C   UNL     1      29.349  33.967  53.069  1.00  0.00    -0.000 C 
BRANCH  14  15
ATOM     15  C   UNL     1      30.726  33.854  53.736  1.00  0.00    -0.000 C 
BRANCH  15  16
ATOM     16  C   UNL     1      30.665  32.945  54.972  1.00  0.00    -0.000 C 
BRANCH  16  17
ATOM     17  C   UNL     1      31.389  31.606  54.759  1.00  0.00    -0.000 C 
BRANCH  17  18
ATOM     18  C   UNL     1      32.382  31.650  53.588  1.00  0.00    -0.003 C 
ATOM     19  C   UNL     1      32.306  30.374  52.755  1.00  0.00     0.004 C 
ENDBRANCH  17  18
ENDBRANCH  16  17
ENDBRANCH  15  16
ENDBRANCH  14  15
ENDBRANCH  13  14
ENDBRANCH  12  13
ENDBRANCH   1  12
TORSDOF 14
ENDMDL
MODEL 9
REMARK VINA RESULT:    -2.771     16.105     19.010
REMARK INTER + INTRA:          -7.800
REMARK INTER:                  -5.106
REMARK INTRA:                  -2.694
REMARK UNBOUND:                -2.761
REMARK SMILES CCCCCCCCCCCCCC[C@@H](C)C(=O)[O-]
REMARK SMILES IDX 9 1 10 2 11 3 12 4 13 5 14 6 15 7 16 8 17 9 18 10 19 11 8 12
REMARK SMILES IDX 7 13 6 14 5 15 4 16 3 17 2 18 1 19
REMARK H PARENT
REMARK Flexibility Score: inf
ROOT
ATOM      1  C   UNL     1      17.810  21.465  50.373  1.00  0.00     0.000 C 
ENDROOT
BRANCH   1   2
ATOM      2  C   UNL     1      16.608  20.966  51.185  1.00  0.00     0.000 C 
BRANCH   2   3
ATOM      3  C   UNL     1      15.404  20.690  50.272  1.00  0.00     0.000 C 
BRANCH   3   4
ATOM      4  C   UNL     1      14.778  19.309  50.524  1.00  0.00     0.000 C 
BRANCH   4   5
ATOM      5  C   UNL     1      15.775  18.158  50.306  1.00  0.00     0.001 C 
BRANCH   5   6
ATOM      6  C   UNL     1      15.894  17.227  51.528  1.00  0.00     0.009 C 
BRANCH   6   7
ATOM      7  C   UNL     1      17.309  17.140  52.144  1.00  0.00     0.032 C 
ATOM      8  C   UNL     1      18.411  17.505  51.139  1.00  0.00     0.014 C 
BRANCH   7   9
ATOM      9  C   UNL     1      17.392  18.054  53.336  1.00  0.00     0.044 C 
ATOM     10  O   UNL     1      18.476  18.630  53.618  1.00  0.00    -0.550 OA
ATOM     11  O   UNL     1      16.279  18.256  54.145  1.00  0.00    -0.550 OA
ENDBRANCH   7   9
ENDBRANCH   6   7
ENDBRANCH   5   6
ENDBRANCH   4   5
ENDBRANCH   3   4
ENDBRANCH   2   3
ENDBRANCH   1   2
BRANCH   1  12
ATOM     12  C   UNL     1      17.632  21.152  48.880  1.00  0.00     0.000 C 
BRANCH  12  13
ATOM     13  C   UNL     1      18.479  19.955  48.420  1.00  0.00    -0.000 C 
BRANCH  13  14
ATOM     14  C   UNL     1      17.812  19.157  47.290  1.00  0.00    -0.000 C 
BRANCH  14  15
ATOM     15  C   UNL     1      17.232  20.096  46.224  1.00  0.00    -0.000 C 
BRANCH  15  16
ATOM     16  C   UNL     1      15.912  19.543  45.664  1.00  0.00    -0.000 C 
BRANCH  16  17
ATOM     17  C   UNL     1      14.761  19.617  46.680  1.00  0.00    -0.000 C 
BRANCH  17  18
ATOM     18  C   UNL     1      14.136  18.243  46.966  1.00  0.00    -0.003 C 
ATOM     19  C   UNL     1      14.664  17.188  45.998  1.00  0.00     0.004 C 
ENDBRANCH  17  18
ENDBRANCH  16  17
ENDBRANCH  15  16
ENDBRANCH  14  15
ENDBRANCH  13  14
ENDBRANCH  12  13
ENDBRANCH   1  12
TORSDOF 14
ENDMDL
