MODEL 1
REMARK VINA RESULT:    -5.184      0.000      0.000
REMARK INTER + INTRA:          -5.184
REMARK INTER:                  -5.184
REMARK INTRA:                   0.000
REMARK UNBOUND:                 0.000
REMARK SMILES CC(C)=C1CC[C@@H](C)CC1=O
REMARK SMILES IDX 8 1 7 2 6 3 5 4 4 5 2 6 1 7 3 8 10 9 11 10 9 11
REMARK H PARENT
REMARK Flexibility Score: inf
ROOT
ATOM      1  C   UNL     1     -23.552   9.875 -27.777  1.00  0.00     0.008 C 
ATOM      2  C   UNL     1     -24.625  10.946 -28.008  1.00  0.00    -0.006 C 
ATOM      3  C   UNL     1     -26.027  10.318 -28.001  1.00  0.00     0.008 C 
ATOM      4  C   UNL     1     -27.119  11.389 -28.128  1.00  0.00     0.039 C 
ATOM      5  C   UNL     1     -26.896  12.310 -29.320  1.00  0.00    -0.006 C 
ATOM      6  C   UNL     1     -27.946  12.861 -29.996  1.00  0.00    -0.070 C 
ATOM      7  C   UNL     1     -29.375  12.595 -29.579  1.00  0.00     0.039 C 
ATOM      8  C   UNL     1     -27.740  13.732 -31.215  1.00  0.00     0.039 C 
ATOM      9  C   UNL     1     -25.476  12.660 -29.622  1.00  0.00     0.159 C 
ATOM     10  O   UNL     1     -25.167  13.780 -30.111  1.00  0.00    -0.295 OA
ATOM     11  C   UNL     1     -24.381  11.672 -29.339  1.00  0.00     0.084 C 
ENDROOT
TORSDOF 0
ENDMDL
MODEL 2
REMARK VINA RESULT:    -5.026      1.190      4.220
REMARK INTER + INTRA:          -5.026
REMARK INTER:                  -5.026
REMARK INTRA:                   0.000
REMARK UNBOUND:                 0.000
REMARK SMILES CC(C)=C1CC[C@@H](C)CC1=O
REMARK SMILES IDX 8 1 7 2 6 3 5 4 4 5 2 6 1 7 3 8 10 9 11 10 9 11
REMARK H PARENT
REMARK Flexibility Score: inf
ROOT
ATOM      1  C   UNL     1     -29.742  14.387 -31.090  1.00  0.00     0.008 C 
ATOM      2  C   UNL     1     -28.898  13.170 -30.696  1.00  0.00    -0.006 C 
ATOM      3  C   UNL     1     -29.332  12.632 -29.324  1.00  0.00     0.008 C 
ATOM      4  C   UNL     1     -28.568  11.352 -28.960  1.00  0.00     0.039 C 
ATOM      5  C   UNL     1     -27.058  11.523 -29.069  1.00  0.00    -0.006 C 
ATOM      6  C   UNL     1     -26.206  10.841 -28.249  1.00  0.00    -0.070 C 
ATOM      7  C   UNL     1     -26.724   9.875 -27.208  1.00  0.00     0.039 C 
ATOM      8  C   UNL     1     -24.710  11.045 -28.311  1.00  0.00     0.039 C 
ATOM      9  C   UNL     1     -26.576  12.380 -30.193  1.00  0.00     0.159 C 
ATOM     10  O   UNL     1     -25.477  12.151 -30.766  1.00  0.00    -0.295 OA
ATOM     11  C   UNL     1     -27.407  13.536 -30.668  1.00  0.00     0.084 C 
ENDROOT
TORSDOF 0
ENDMDL
MODEL 3
REMARK VINA RESULT:    -4.864      1.829      3.028
REMARK INTER + INTRA:          -4.864
REMARK INTER:                  -4.864
REMARK INTRA:                   0.000
REMARK UNBOUND:                 0.000
REMARK SMILES CC(C)=C1CC[C@@H](C)CC1=O
REMARK SMILES IDX 8 1 7 2 6 3 5 4 4 5 2 6 1 7 3 8 10 9 11 10 9 11
REMARK H PARENT
REMARK Flexibility Score: inf
ROOT
ATOM      1  C   UNL     1     -23.078  13.624 -30.285  1.00  0.00     0.008 C 
ATOM      2  C   UNL     1     -24.511  13.117 -30.487  1.00  0.00    -0.006 C 
ATOM      3  C   UNL     1     -25.469  14.291 -30.738  1.00  0.00     0.008 C 
ATOM      4  C   UNL     1     -26.890  13.796 -31.044  1.00  0.00     0.039 C 
ATOM      5  C   UNL     1     -27.411  12.831 -29.988  1.00  0.00    -0.006 C 
ATOM      6  C   UNL     1     -28.739  12.767 -29.679  1.00  0.00    -0.070 C 
ATOM      7  C   UNL     1     -29.751  13.640 -30.385  1.00  0.00     0.039 C 
ATOM      8  C   UNL     1     -29.262  11.854 -28.594  1.00  0.00     0.039 C 
ATOM      9  C   UNL     1     -26.407  11.890 -29.407  1.00  0.00     0.159 C 
ATOM     10  O   UNL     1     -26.734  10.731 -29.033  1.00  0.00    -0.295 OA
ATOM     11  C   UNL     1     -24.974  12.314 -29.263  1.00  0.00     0.084 C 
ENDROOT
TORSDOF 0
ENDMDL
MODEL 4
REMARK VINA RESULT:    -4.816      2.369      3.986
REMARK INTER + INTRA:          -4.816
REMARK INTER:                  -4.816
REMARK INTRA:                   0.000
REMARK UNBOUND:                 0.000
REMARK SMILES CC(C)=C1CC[C@@H](C)CC1=O
REMARK SMILES IDX 8 1 7 2 6 3 5 4 4 5 2 6 1 7 3 8 10 9 11 10 9 11
REMARK H PARENT
REMARK Flexibility Score: inf
ROOT
ATOM      1  C   UNL     1     -29.551  10.275 -30.401  1.00  0.00     0.008 C 
ATOM      2  C   UNL     1     -28.434  11.204 -30.891  1.00  0.00    -0.006 C 
ATOM      3  C   UNL     1     -27.105  10.860 -30.203  1.00  0.00     0.008 C 
ATOM      4  C   UNL     1     -25.954  11.711 -30.756  1.00  0.00     0.039 C 
ATOM      5  C   UNL     1     -26.262  13.202 -30.720  1.00  0.00    -0.006 C 
ATOM      6  C   UNL     1     -25.274  14.127 -30.537  1.00  0.00    -0.070 C 
ATOM      7  C   UNL     1     -23.830  13.710 -30.380  1.00  0.00     0.039 C 
ATOM      8  C   UNL     1     -25.575  15.605 -30.444  1.00  0.00     0.039 C 
ATOM      9  C   UNL     1     -27.675  13.586 -31.012  1.00  0.00     0.159 C 
ATOM     10  O   UNL     1     -27.953  14.672 -31.590  1.00  0.00    -0.295 OA
ATOM     11  C   UNL     1     -28.800  12.671 -30.623  1.00  0.00     0.084 C 
ENDROOT
TORSDOF 0
ENDMDL
MODEL 5
REMARK VINA RESULT:    -4.804      1.704      2.493
REMARK INTER + INTRA:          -4.804
REMARK INTER:                  -4.804
REMARK INTRA:                   0.000
REMARK UNBOUND:                 0.000
REMARK SMILES CC(C)=C1CC[C@@H](C)CC1=O
REMARK SMILES IDX 8 1 7 2 6 3 5 4 4 5 2 6 1 7 3 8 10 9 11 10 9 11
REMARK H PARENT
REMARK Flexibility Score: inf
ROOT
ATOM      1  C   UNL     1     -22.870   9.997 -28.068  1.00  0.00     0.008 C 
ATOM      2  C   UNL     1     -24.257  10.251 -28.671  1.00  0.00    -0.006 C 
ATOM      3  C   UNL     1     -24.236  11.496 -29.571  1.00  0.00     0.008 C 
ATOM      4  C   UNL     1     -25.589  11.706 -30.264  1.00  0.00     0.039 C 
ATOM      5  C   UNL     1     -26.752  11.714 -29.281  1.00  0.00    -0.006 C 
ATOM      6  C   UNL     1     -27.867  12.470 -29.507  1.00  0.00    -0.070 C 
ATOM      7  C   UNL     1     -28.000  13.318 -30.751  1.00  0.00     0.039 C 
ATOM      8  C   UNL     1     -29.003  12.529 -28.513  1.00  0.00     0.039 C 
ATOM      9  C   UNL     1     -26.647  10.765 -28.133  1.00  0.00     0.159 C 
ATOM     10  O   UNL     1     -27.671  10.230 -27.629  1.00  0.00    -0.295 OA
ATOM     11  C   UNL     1     -25.302  10.423 -27.560  1.00  0.00     0.084 C 
ENDROOT
TORSDOF 0
ENDMDL
MODEL 6
REMARK VINA RESULT:    -4.796     10.711     12.488
REMARK INTER + INTRA:          -4.796
REMARK INTER:                  -4.796
REMARK INTRA:                   0.000
REMARK UNBOUND:                 0.000
REMARK SMILES CC(C)=C1CC[C@@H](C)CC1=O
REMARK SMILES IDX 8 1 7 2 6 3 5 4 4 5 2 6 1 7 3 8 10 9 11 10 9 11
REMARK H PARENT
REMARK Flexibility Score: inf
ROOT
ATOM      1  C   UNL     1     -11.094  14.889 -32.655  1.00  0.00     0.008 C 
ATOM      2  C   UNL     1     -12.592  14.793 -32.341  1.00  0.00    -0.006 C 
ATOM      3  C   UNL     1     -12.856  15.123 -30.864  1.00  0.00     0.008 C 
ATOM      4  C   UNL     1     -14.360  15.132 -30.555  1.00  0.00     0.039 C 
ATOM      5  C   UNL     1     -15.054  13.853 -31.002  1.00  0.00    -0.006 C 
ATOM      6  C   UNL     1     -16.131  13.357 -30.324  1.00  0.00    -0.070 C 
ATOM      7  C   UNL     1     -16.690  14.066 -29.112  1.00  0.00     0.039 C 
ATOM      8  C   UNL     1     -16.794  12.059 -30.724  1.00  0.00     0.039 C 
ATOM      9  C   UNL     1     -14.563  13.251 -32.277  1.00  0.00     0.159 C 
ATOM     10  O   UNL     1     -15.340  12.627 -33.049  1.00  0.00    -0.295 OA
ATOM     11  C   UNL     1     -13.120  13.389 -32.667  1.00  0.00     0.084 C 
ENDROOT
TORSDOF 0
ENDMDL
MODEL 7
REMARK VINA RESULT:    -4.758      1.763      3.344
REMARK INTER + INTRA:          -4.758
REMARK INTER:                  -4.758
REMARK INTRA:                   0.000
REMARK UNBOUND:                 0.000
REMARK SMILES CC(C)=C1CC[C@@H](C)CC1=O
REMARK SMILES IDX 8 1 7 2 6 3 5 4 4 5 2 6 1 7 3 8 10 9 11 10 9 11
REMARK H PARENT
REMARK Flexibility Score: inf
ROOT
ATOM      1  C   UNL     1     -23.830  14.717 -31.071  1.00  0.00     0.008 C 
ATOM      2  C   UNL     1     -24.914  13.654 -30.857  1.00  0.00    -0.006 C 
ATOM      3  C   UNL     1     -26.242  14.310 -30.449  1.00  0.00     0.008 C 
ATOM      4  C   UNL     1     -27.365  13.271 -30.331  1.00  0.00     0.039 C 
ATOM      5  C   UNL     1     -26.987  12.104 -29.428  1.00  0.00    -0.006 C 
ATOM      6  C   UNL     1     -27.927  11.449 -28.684  1.00  0.00    -0.070 C 
ATOM      7  C   UNL     1     -29.385  11.844 -28.739  1.00  0.00     0.039 C 
ATOM      8  C   UNL     1     -27.556  10.327 -27.742  1.00  0.00     0.039 C 
ATOM      9  C   UNL     1     -25.565  11.654 -29.499  1.00  0.00     0.159 C 
ATOM     10  O   UNL     1     -25.251  10.445 -29.328  1.00  0.00    -0.295 OA
ATOM     11  C   UNL     1     -24.475  12.646 -29.785  1.00  0.00     0.084 C 
ENDROOT
TORSDOF 0
ENDMDL
MODEL 8
REMARK VINA RESULT:    -4.697      1.803      4.710
REMARK INTER + INTRA:          -4.697
REMARK INTER:                  -4.697
REMARK INTRA:                   0.000
REMARK UNBOUND:                 0.000
REMARK SMILES CC(C)=C1CC[C@@H](C)CC1=O
REMARK SMILES IDX 8 1 7 2 6 3 5 4 4 5 2 6 1 7 3 8 10 9 11 10 9 11
REMARK H PARENT
REMARK Flexibility Score: inf
ROOT
ATOM      1  C   UNL     1     -28.703  14.771 -32.042  1.00  0.00     0.008 C 
ATOM      2  C   UNL     1     -28.185  14.119 -30.755  1.00  0.00    -0.006 C 
ATOM      3  C   UNL     1     -26.735  13.646 -30.934  1.00  0.00     0.008 C 
ATOM      4  C   UNL     1     -26.166  13.083 -29.625  1.00  0.00     0.039 C 
ATOM      5  C   UNL     1     -27.059  12.011 -29.014  1.00  0.00    -0.006 C 
ATOM      6  C   UNL     1     -26.535  10.976 -28.295  1.00  0.00    -0.070 C 
ATOM      7  C   UNL     1     -25.046  10.859 -28.059  1.00  0.00     0.039 C 
ATOM      8  C   UNL     1     -27.406   9.876 -27.731  1.00  0.00     0.039 C 
ATOM      9  C   UNL     1     -28.530  12.228 -29.150  1.00  0.00     0.159 C 
ATOM     10  O   UNL     1     -29.336  11.834 -28.265  1.00  0.00    -0.295 OA
ATOM     11  C   UNL     1     -29.078  12.935 -30.357  1.00  0.00     0.084 C 
ENDROOT
TORSDOF 0
ENDMDL
MODEL 9
REMARK VINA RESULT:    -4.660      9.406     11.489
REMARK INTER + INTRA:          -4.660
REMARK INTER:                  -4.660
REMARK INTRA:                   0.000
REMARK UNBOUND:                 0.000
REMARK SMILES CC(C)=C1CC[C@@H](C)CC1=O
REMARK SMILES IDX 8 1 7 2 6 3 5 4 4 5 2 6 1 7 3 8 10 9 11 10 9 11
REMARK H PARENT
REMARK Flexibility Score: inf
ROOT
ATOM      1  C   UNL     1     -12.559  14.750 -31.876  1.00  0.00     0.008 C 
ATOM      2  C   UNL     1     -13.419  13.949 -30.891  1.00  0.00    -0.006 C 
ATOM      3  C   UNL     1     -13.470  12.468 -31.299  1.00  0.00     0.008 C 
ATOM      4  C   UNL     1     -14.240  11.632 -30.268  1.00  0.00     0.039 C 
ATOM      5  C   UNL     1     -15.620  12.204 -29.967  1.00  0.00    -0.006 C 
ATOM      6  C   UNL     1     -16.668  11.393 -29.640  1.00  0.00    -0.070 C 
ATOM      7  C   UNL     1     -16.500   9.893 -29.546  1.00  0.00     0.039 C 
ATOM      8  C   UNL     1     -18.054  11.943 -29.395  1.00  0.00     0.039 C 
ATOM      9  C   UNL     1     -15.719  13.693 -29.938  1.00  0.00     0.159 C 
ATOM     10  O   UNL     1     -16.529  14.281 -29.170  1.00  0.00    -0.295 OA
ATOM     11  C   UNL     1     -14.841  14.525 -30.827  1.00  0.00     0.084 C 
ENDROOT
TORSDOF 0
ENDMDL
