MODEL 1
REMARK VINA RESULT:    -3.499      0.000      0.000
REMARK INTER + INTRA:          -4.358
REMARK INTER:                  -4.317
REMARK INTRA:                  -0.041
REMARK UNBOUND:                -0.041
REMARK SMILES CCCCCC(=O)[O-]
REMARK SMILES IDX 4 1 5 2 6 3 7 4 8 5 3 6 2 7 1 8
REMARK H PARENT
REMARK Flexibility Score: inf
ROOT
ATOM      1  C   UNL     1      -3.407   4.211   2.950  1.00  0.00     0.006 C 
ENDROOT
BRANCH   1   2
ATOM      2  C   UNL     1      -3.577   2.681   2.902  1.00  0.00     0.053 C 
BRANCH   2   3
ATOM      3  C   UNL     1      -3.334   2.031   4.230  1.00  0.00     0.041 C 
ATOM      4  O   UNL     1      -3.944   2.433   5.256  1.00  0.00    -0.550 OA
ATOM      5  O   UNL     1      -2.402   1.006   4.344  1.00  0.00    -0.550 OA
ENDBRANCH   2   3
ENDBRANCH   1   2
BRANCH   1   6
ATOM      6  C   UNL     1      -3.734   4.922   1.622  1.00  0.00     0.000 C 
BRANCH   6   7
ATOM      7  C   UNL     1      -4.200   6.381   1.762  1.00  0.00    -0.003 C 
ATOM      8  C   UNL     1      -3.594   7.307   0.708  1.00  0.00     0.004 C 
ENDBRANCH   6   7
ENDBRANCH   1   6
TORSDOF 4
ENDMDL
MODEL 2
REMARK VINA RESULT:    -3.356      1.123      1.335
REMARK INTER + INTRA:          -4.182
REMARK INTER:                  -4.124
REMARK INTRA:                  -0.058
REMARK UNBOUND:                -0.041
REMARK SMILES CCCCCC(=O)[O-]
REMARK SMILES IDX 4 1 5 2 6 3 7 4 8 5 3 6 2 7 1 8
REMARK H PARENT
REMARK Flexibility Score: inf
ROOT
ATOM      1  C   UNL     1      -3.531   3.729   2.422  1.00  0.00     0.006 C 
ENDROOT
BRANCH   1   2
ATOM      2  C   UNL     1      -3.464   3.327   3.907  1.00  0.00     0.053 C 
BRANCH   2   3
ATOM      3  C   UNL     1      -3.249   1.856   4.098  1.00  0.00     0.041 C 
ATOM      4  O   UNL     1      -2.586   1.432   5.082  1.00  0.00    -0.550 OA
ATOM      5  O   UNL     1      -3.747   0.952   3.167  1.00  0.00    -0.550 OA
ENDBRANCH   2   3
ENDBRANCH   1   2
BRANCH   1   6
ATOM      6  C   UNL     1      -3.478   5.250   2.180  1.00  0.00     0.000 C 
BRANCH   6   7
ATOM      7  C   UNL     1      -4.103   5.721   0.856  1.00  0.00    -0.003 C 
ATOM      8  C   UNL     1      -5.459   6.401   1.042  1.00  0.00     0.004 C 
ENDBRANCH   6   7
ENDBRANCH   1   6
TORSDOF 4
ENDMDL
MODEL 3
REMARK VINA RESULT:    -3.194      3.020      4.917
REMARK INTER + INTRA:          -3.981
REMARK INTER:                  -3.892
REMARK INTRA:                  -0.089
REMARK UNBOUND:                -0.041
REMARK SMILES CCCCCC(=O)[O-]
REMARK SMILES IDX 4 1 5 2 6 3 7 4 8 5 3 6 2 7 1 8
REMARK H PARENT
REMARK Flexibility Score: inf
ROOT
ATOM      1  C   UNL     1      -4.043   3.693   2.847  1.00  0.00     0.006 C 
ENDROOT
BRANCH   1   2
ATOM      2  C   UNL     1      -3.409   4.877   2.094  1.00  0.00     0.053 C 
BRANCH   2   3
ATOM      3  C   UNL     1      -4.403   5.638   1.270  1.00  0.00     0.041 C 
ATOM      4  O   UNL     1      -4.025   6.295   0.264  1.00  0.00    -0.550 OA
ATOM      5  O   UNL     1      -5.744   5.655   1.636  1.00  0.00    -0.550 OA
ENDBRANCH   2   3
ENDBRANCH   1   2
BRANCH   1   6
ATOM      6  C   UNL     1      -3.189   2.410   2.835  1.00  0.00     0.000 C 
BRANCH   6   7
ATOM      7  C   UNL     1      -3.311   1.534   4.093  1.00  0.00    -0.003 C 
ATOM      8  C   UNL     1      -3.341   2.346   5.387  1.00  0.00     0.004 C 
ENDBRANCH   6   7
ENDBRANCH   1   6
TORSDOF 4
ENDMDL
MODEL 4
REMARK VINA RESULT:    -3.039      3.485      5.234
REMARK INTER + INTRA:          -3.790
REMARK INTER:                  -3.716
REMARK INTRA:                  -0.074
REMARK UNBOUND:                -0.041
REMARK SMILES CCCCCC(=O)[O-]
REMARK SMILES IDX 4 1 5 2 6 3 7 4 8 5 3 6 2 7 1 8
REMARK H PARENT
REMARK Flexibility Score: inf
ROOT
ATOM      1  C   UNL     1      -3.221   4.689   2.125  1.00  0.00     0.006 C 
ENDROOT
BRANCH   1   2
ATOM      2  C   UNL     1      -3.989   6.008   1.921  1.00  0.00     0.053 C 
BRANCH   2   3
ATOM      3  C   UNL     1      -4.359   6.246   0.489  1.00  0.00     0.041 C 
ATOM      4  O   UNL     1      -3.804   5.585  -0.430  1.00  0.00    -0.550 OA
ATOM      5  O   UNL     1      -5.289   7.226   0.162  1.00  0.00    -0.550 OA
ENDBRANCH   2   3
ENDBRANCH   1   2
BRANCH   1   6
ATOM      6  C   UNL     1      -4.046   3.579   2.806  1.00  0.00     0.000 C 
BRANCH   6   7
ATOM      7  C   UNL     1      -3.223   2.414   3.380  1.00  0.00    -0.003 C 
ATOM      8  C   UNL     1      -3.507   2.152   4.859  1.00  0.00     0.004 C 
ENDBRANCH   6   7
ENDBRANCH   1   6
TORSDOF 4
ENDMDL
MODEL 5
REMARK VINA RESULT:    -2.656      1.937      2.582
REMARK INTER + INTRA:          -3.318
REMARK INTER:                  -3.230
REMARK INTRA:                  -0.088
REMARK UNBOUND:                -0.041
REMARK SMILES CCCCCC(=O)[O-]
REMARK SMILES IDX 4 1 5 2 6 3 7 4 8 5 3 6 2 7 1 8
REMARK H PARENT
REMARK Flexibility Score: inf
ROOT
ATOM      1  C   UNL     1      -4.250   5.330   2.214  1.00  0.00     0.006 C 
ENDROOT
BRANCH   1   2
ATOM      2  C   UNL     1      -3.323   4.113   2.036  1.00  0.00     0.053 C 
BRANCH   2   3
ATOM      3  C   UNL     1      -3.581   3.037   3.046  1.00  0.00     0.041 C 
ATOM      4  O   UNL     1      -3.402   1.826   2.746  1.00  0.00    -0.550 OA
ATOM      5  O   UNL     1      -4.059   3.366   4.309  1.00  0.00    -0.550 OA
ENDBRANCH   2   3
ENDBRANCH   1   2
BRANCH   1   6
ATOM      6  C   UNL     1      -5.202   5.574   1.027  1.00  0.00     0.000 C 
BRANCH   6   7
ATOM      7  C   UNL     1      -6.608   4.971   1.183  1.00  0.00    -0.003 C 
ATOM      8  C   UNL     1      -7.627   5.962   1.744  1.00  0.00     0.004 C 
ENDBRANCH   6   7
ENDBRANCH   1   6
TORSDOF 4
ENDMDL
MODEL 6
REMARK VINA RESULT:    -2.577      5.927      7.259
REMARK INTER + INTRA:          -3.221
REMARK INTER:                  -3.034
REMARK INTRA:                  -0.186
REMARK UNBOUND:                -0.041
REMARK SMILES CCCCCC(=O)[O-]
REMARK SMILES IDX 4 1 5 2 6 3 7 4 8 5 3 6 2 7 1 8
REMARK H PARENT
REMARK Flexibility Score: inf
ROOT
ATOM      1  C   UNL     1      -1.859   7.664   8.692  1.00  0.00     0.006 C 
ENDROOT
BRANCH   1   2
ATOM      2  C   UNL     1      -2.334   8.116   7.298  1.00  0.00     0.053 C 
BRANCH   2   3
ATOM      3  C   UNL     1      -3.692   7.586   6.951  1.00  0.00     0.041 C 
ATOM      4  O   UNL     1      -3.975   7.295   5.758  1.00  0.00    -0.550 OA
ATOM      5  O   UNL     1      -4.662   7.453   7.937  1.00  0.00    -0.550 OA
ENDBRANCH   2   3
ENDBRANCH   1   2
BRANCH   1   6
ATOM      6  C   UNL     1      -0.761   6.582   8.662  1.00  0.00     0.000 C 
BRANCH   6   7
ATOM      7  C   UNL     1      -1.140   5.250   9.330  1.00  0.00    -0.003 C 
ATOM      8  C   UNL     1      -2.384   4.606   8.720  1.00  0.00     0.004 C 
ENDBRANCH   6   7
ENDBRANCH   1   6
TORSDOF 4
ENDMDL
MODEL 7
REMARK VINA RESULT:    -2.478      6.233      7.714
REMARK INTER + INTRA:          -3.099
REMARK INTER:                  -3.011
REMARK INTRA:                  -0.088
REMARK UNBOUND:                -0.041
REMARK SMILES CCCCCC(=O)[O-]
REMARK SMILES IDX 4 1 5 2 6 3 7 4 8 5 3 6 2 7 1 8
REMARK H PARENT
REMARK Flexibility Score: inf
ROOT
ATOM      1  C   UNL     1      -1.031   6.896   8.482  1.00  0.00     0.006 C 
ENDROOT
BRANCH   1   2
ATOM      2  C   UNL     1      -2.457   6.471   8.084  1.00  0.00     0.053 C 
BRANCH   2   3
ATOM      3  C   UNL     1      -3.169   7.516   7.280  1.00  0.00     0.041 C 
ATOM      4  O   UNL     1      -3.123   8.727   7.628  1.00  0.00    -0.550 OA
ATOM      5  O   UNL     1      -3.918   7.151   6.168  1.00  0.00    -0.550 OA
ENDBRANCH   2   3
ENDBRANCH   1   2
BRANCH   1   6
ATOM      6  C   UNL     1      -0.274   5.849   9.322  1.00  0.00     0.000 C 
BRANCH   6   7
ATOM      7  C   UNL     1      -1.043   4.543   9.584  1.00  0.00    -0.003 C 
ATOM      8  C   UNL     1      -0.144   3.407  10.071  1.00  0.00     0.004 C 
ENDBRANCH   6   7
ENDBRANCH   1   6
TORSDOF 4
ENDMDL
MODEL 8
REMARK VINA RESULT:    -2.411      6.642      7.164
REMARK INTER + INTRA:          -3.016
REMARK INTER:                  -2.877
REMARK INTRA:                  -0.139
REMARK UNBOUND:                -0.041
REMARK SMILES CCCCCC(=O)[O-]
REMARK SMILES IDX 4 1 5 2 6 3 7 4 8 5 3 6 2 7 1 8
REMARK H PARENT
REMARK Flexibility Score: inf
ROOT
ATOM      1  C   UNL     1      -1.014   4.668   9.464  1.00  0.00     0.006 C 
ENDROOT
BRANCH   1   2
ATOM      2  C   UNL     1      -2.452   4.598   8.918  1.00  0.00     0.053 C 
BRANCH   2   3
ATOM      3  C   UNL     1      -3.484   4.625  10.005  1.00  0.00     0.041 C 
ATOM      4  O   UNL     1      -4.710   4.564   9.720  1.00  0.00    -0.550 OA
ATOM      5  O   UNL     1      -3.095   4.759  11.332  1.00  0.00    -0.550 OA
ENDBRANCH   2   3
ENDBRANCH   1   2
BRANCH   1   6
ATOM      6  C   UNL     1      -0.328   6.033   9.258  1.00  0.00     0.000 C 
BRANCH   6   7
ATOM      7  C   UNL     1      -1.104   7.026   8.378  1.00  0.00    -0.003 C 
ATOM      8  C   UNL     1      -0.385   8.363   8.206  1.00  0.00     0.004 C 
ENDBRANCH   6   7
ENDBRANCH   1   6
TORSDOF 4
ENDMDL
MODEL 9
REMARK VINA RESULT:    -2.353      6.741      7.816
REMARK INTER + INTRA:          -2.944
REMARK INTER:                  -2.787
REMARK INTRA:                  -0.157
REMARK UNBOUND:                -0.041
REMARK SMILES CCCCCC(=O)[O-]
REMARK SMILES IDX 4 1 5 2 6 3 7 4 8 5 3 6 2 7 1 8
REMARK H PARENT
REMARK Flexibility Score: inf
ROOT
ATOM      1  C   UNL     1      -1.403   5.882   8.804  1.00  0.00     0.006 C 
ENDROOT
BRANCH   1   2
ATOM      2  C   UNL     1      -2.296   4.627   8.777  1.00  0.00     0.053 C 
BRANCH   2   3
ATOM      3  C   UNL     1      -3.388   4.672   9.803  1.00  0.00     0.041 C 
ATOM      4  O   UNL     1      -4.429   5.351   9.594  1.00  0.00    -0.550 OA
ATOM      5  O   UNL     1      -3.239   3.998  11.009  1.00  0.00    -0.550 OA
ENDBRANCH   2   3
ENDBRANCH   1   2
BRANCH   1   6
ATOM      6  C   UNL     1      -0.043   5.671   9.497  1.00  0.00     0.000 C 
BRANCH   6   7
ATOM      7  C   UNL     1       0.285   4.213   9.860  1.00  0.00    -0.003 C 
ATOM      8  C   UNL     1       1.768   3.876   9.703  1.00  0.00     0.004 C 
ENDBRANCH   6   7
ENDBRANCH   1   6
TORSDOF 4
ENDMDL
