MODEL 1
REMARK VINA RESULT:    -2.502      0.000      0.000
REMARK INTER + INTRA:          -2.502
REMARK INTER:                  -2.502
REMARK INTRA:                   0.000
REMARK UNBOUND:                 0.000
REMARK SMILES CC(=O)[O-]
REMARK SMILES IDX 1 1 2 2 3 3 4 4
REMARK H PARENT
REMARK Flexibility Score: inf
ROOT
ATOM      1  C   UNL     1     136.083 122.653 149.574  1.00  0.00     0.063 C 
ATOM      2  C   UNL     1     137.293 122.886 150.415  1.00  0.00     0.038 C 
ATOM      3  O   UNL     1     138.442 122.794 149.909  1.00  0.00    -0.550 OA
ATOM      4  O   UNL     1     137.154 123.260 151.745  1.00  0.00    -0.550 OA
ENDROOT
TORSDOF 0
ENDMDL
MODEL 2
REMARK VINA RESULT:    -2.381      1.359      1.729
REMARK INTER + INTRA:          -2.381
REMARK INTER:                  -2.381
REMARK INTRA:                   0.000
REMARK UNBOUND:                 0.000
REMARK SMILES CC(=O)[O-]
REMARK SMILES IDX 1 1 2 2 3 3 4 4
REMARK H PARENT
REMARK Flexibility Score: inf
ROOT
ATOM      1  C   UNL     1     136.952 123.888 151.430  1.00  0.00     0.063 C 
ATOM      2  C   UNL     1     137.256 122.973 150.292  1.00  0.00     0.038 C 
ATOM      3  O   UNL     1     138.451 122.760 149.955  1.00  0.00    -0.550 OA
ATOM      4  O   UNL     1     136.227 122.310 149.638  1.00  0.00    -0.550 OA
ENDROOT
TORSDOF 0
ENDMDL
MODEL 3
REMARK VINA RESULT:    -2.370      1.982      2.555
REMARK INTER + INTRA:          -2.370
REMARK INTER:                  -2.370
REMARK INTRA:                   0.000
REMARK UNBOUND:                 0.000
REMARK SMILES CC(=O)[O-]
REMARK SMILES IDX 1 1 2 2 3 3 4 4
REMARK H PARENT
REMARK Flexibility Score: inf
ROOT
ATOM      1  C   UNL     1     137.247 122.939 150.680  1.00  0.00     0.063 C 
ATOM      2  C   UNL     1     136.509 123.068 149.391  1.00  0.00     0.038 C 
ATOM      3  O   UNL     1     135.370 122.548 149.260  1.00  0.00    -0.550 OA
ATOM      4  O   UNL     1     137.053 123.808 148.349  1.00  0.00    -0.550 OA
ENDROOT
TORSDOF 0
ENDMDL
MODEL 4
REMARK VINA RESULT:    -2.312     11.977     12.324
REMARK INTER + INTRA:          -2.312
REMARK INTER:                  -2.312
REMARK INTRA:                   0.000
REMARK UNBOUND:                 0.000
REMARK SMILES CC(=O)[O-]
REMARK SMILES IDX 1 1 2 2 3 3 4 4
REMARK H PARENT
REMARK Flexibility Score: inf
ROOT
ATOM      1  C   UNL     1     135.335 130.142 139.931  1.00  0.00     0.063 C 
ATOM      2  C   UNL     1     134.459 130.338 141.122  1.00  0.00     0.038 C 
ATOM      3  O   UNL     1     133.206 130.335 140.992  1.00  0.00    -0.550 OA
ATOM      4  O   UNL     1     135.020 130.469 142.385  1.00  0.00    -0.550 OA
ENDROOT
TORSDOF 0
ENDMDL
MODEL 5
REMARK VINA RESULT:    -2.285      1.715      2.021
REMARK INTER + INTRA:          -2.285
REMARK INTER:                  -2.285
REMARK INTRA:                   0.000
REMARK UNBOUND:                 0.000
REMARK SMILES CC(=O)[O-]
REMARK SMILES IDX 1 1 2 2 3 3 4 4
REMARK H PARENT
REMARK Flexibility Score: inf
ROOT
ATOM      1  C   UNL     1     137.459 122.849 150.211  1.00  0.00     0.063 C 
ATOM      2  C   UNL     1     136.916 123.637 151.355  1.00  0.00     0.038 C 
ATOM      3  O   UNL     1     137.198 123.310 152.538  1.00  0.00    -0.550 OA
ATOM      4  O   UNL     1     136.144 124.767 151.117  1.00  0.00    -0.550 OA
ENDROOT
TORSDOF 0
ENDMDL
MODEL 6
REMARK VINA RESULT:    -2.227     15.520     15.792
REMARK INTER + INTRA:          -2.227
REMARK INTER:                  -2.227
REMARK INTRA:                   0.000
REMARK UNBOUND:                 0.000
REMARK SMILES CC(=O)[O-]
REMARK SMILES IDX 1 1 2 2 3 3 4 4
REMARK H PARENT
REMARK Flexibility Score: inf
ROOT
ATOM      1  C   UNL     1     125.534 130.508 141.065  1.00  0.00     0.063 C 
ATOM      2  C   UNL     1     126.850 130.849 141.676  1.00  0.00     0.038 C 
ATOM      3  O   UNL     1     127.869 130.157 141.411  1.00  0.00    -0.550 OA
ATOM      4  O   UNL     1     126.969 131.964 142.496  1.00  0.00    -0.550 OA
ENDROOT
TORSDOF 0
ENDMDL
MODEL 7
REMARK VINA RESULT:    -2.203     15.713     16.006
REMARK INTER + INTRA:          -2.203
REMARK INTER:                  -2.203
REMARK INTRA:                   0.000
REMARK UNBOUND:                 0.000
REMARK SMILES CC(=O)[O-]
REMARK SMILES IDX 1 1 2 2 3 3 4 4
REMARK H PARENT
REMARK Flexibility Score: inf
ROOT
ATOM      1  C   UNL     1     128.023 130.440 140.956  1.00  0.00     0.063 C 
ATOM      2  C   UNL     1     126.687 130.845 141.479  1.00  0.00     0.038 C 
ATOM      3  O   UNL     1     125.654 130.212 141.133  1.00  0.00    -0.550 OA
ATOM      4  O   UNL     1     126.583 131.886 142.392  1.00  0.00    -0.550 OA
ENDROOT
TORSDOF 0
ENDMDL
MODEL 8
REMARK VINA RESULT:    -2.203     12.447     12.624
REMARK INTER + INTRA:          -2.203
REMARK INTER:                  -2.203
REMARK INTRA:                   0.000
REMARK UNBOUND:                 0.000
REMARK SMILES CC(=O)[O-]
REMARK SMILES IDX 1 1 2 2 3 3 4 4
REMARK H PARENT
REMARK Flexibility Score: inf
ROOT
ATOM      1  C   UNL     1     132.649 135.836 150.783  1.00  0.00     0.063 C 
ATOM      2  C   UNL     1     133.071 134.681 149.939  1.00  0.00     0.038 C 
ATOM      3  O   UNL     1     134.072 134.784 149.182  1.00  0.00    -0.550 OA
ATOM      4  O   UNL     1     132.394 133.472 150.026  1.00  0.00    -0.550 OA
ENDROOT
TORSDOF 0
ENDMDL
MODEL 9
REMARK VINA RESULT:    -2.167     12.557     13.067
REMARK INTER + INTRA:          -2.167
REMARK INTER:                  -2.167
REMARK INTRA:                   0.000
REMARK UNBOUND:                 0.000
REMARK SMILES CC(=O)[O-]
REMARK SMILES IDX 1 1 2 2 3 3 4 4
REMARK H PARENT
REMARK Flexibility Score: inf
ROOT
ATOM      1  C   UNL     1     126.835 131.637 147.485  1.00  0.00     0.063 C 
ATOM      2  C   UNL     1     127.458 131.245 148.782  1.00  0.00     0.038 C 
ATOM      3  O   UNL     1     126.735 130.879 149.745  1.00  0.00    -0.550 OA
ATOM      4  O   UNL     1     128.840 131.231 148.913  1.00  0.00    -0.550 OA
ENDROOT
TORSDOF 0
ENDMDL
