MODEL 1
REMARK VINA RESULT:    -6.621      0.000      0.000
REMARK INTER + INTRA:          -6.621
REMARK INTER:                  -6.621
REMARK INTRA:                   0.000
REMARK UNBOUND:                 0.000
REMARK SMILES C=C1CCC[C@@]2(C)CC(=O)C(=C(C)C)C[C@H]12
REMARK SMILES IDX 13 1 12 2 11 3 15 4 16 5 2 6 1 7 3 8 4 9 5 10 6 11 8 12 9 13
REMARK SMILES IDX 10 14 7 15 14 16
REMARK H PARENT
REMARK Flexibility Score: inf
ROOT
ATOM      1  C   UNL     1      10.875 -31.250  21.160  1.00  0.00     0.039 C 
ATOM      2  C   UNL     1      11.673 -30.493  22.199  1.00  0.00    -0.070 C 
ATOM      3  C   UNL     1      12.955 -30.852  22.508  1.00  0.00    -0.006 C 
ATOM      4  C   UNL     1      13.640 -32.014  21.801  1.00  0.00     0.047 C 
ATOM      5  C   UNL     1      15.173 -31.827  21.689  1.00  0.00     0.025 C 
ATOM      6  C   UNL     1      15.921 -32.983  21.024  1.00  0.00    -0.073 C 
ATOM      7  C   UNL     1      15.328 -34.102  20.566  1.00  0.00     0.008 C 
ATOM      8  C   UNL     1      17.411 -32.802  20.848  1.00  0.00     0.031 C 
ATOM      9  C   UNL     1      18.064 -32.439  22.184  1.00  0.00     0.005 C 
ATOM     10  C   UNL     1      17.359 -31.249  22.858  1.00  0.00     0.008 C 
ATOM     11  C   UNL     1      15.832 -31.480  23.062  1.00  0.00    -0.018 C 
ATOM     12  C   UNL     1      15.212 -30.162  23.587  1.00  0.00     0.088 C 
ATOM     13  C   UNL     1      13.711 -30.218  23.626  1.00  0.00     0.159 C 
ATOM     14  O   UNL     1      13.116 -29.732  24.625  1.00  0.00    -0.295 OA
ATOM     15  C   UNL     1      15.611 -32.605  24.110  1.00  0.00     0.012 C 
ATOM     16  C   UNL     1      10.999 -29.306  22.847  1.00  0.00     0.039 C 
ENDROOT
TORSDOF 0
ENDMDL
MODEL 2
REMARK VINA RESULT:    -6.331      1.850      3.268
REMARK INTER + INTRA:          -6.331
REMARK INTER:                  -6.331
REMARK INTRA:                   0.000
REMARK UNBOUND:                 0.000
REMARK SMILES C=C1CCC[C@@]2(C)CC(=O)C(=C(C)C)C[C@H]12
REMARK SMILES IDX 13 1 12 2 11 3 15 4 16 5 2 6 1 7 3 8 4 9 5 10 6 11 8 12 9 13
REMARK SMILES IDX 10 14 7 15 14 16
REMARK H PARENT
REMARK Flexibility Score: inf
ROOT
ATOM      1  C   UNL     1      13.116 -29.470  24.161  1.00  0.00     0.039 C 
ATOM      2  C   UNL     1      12.949 -30.490  23.056  1.00  0.00    -0.070 C 
ATOM      3  C   UNL     1      13.962 -31.344  22.722  1.00  0.00    -0.006 C 
ATOM      4  C   UNL     1      15.292 -31.319  23.465  1.00  0.00     0.047 C 
ATOM      5  C   UNL     1      15.977 -32.707  23.513  1.00  0.00     0.025 C 
ATOM      6  C   UNL     1      17.337 -32.735  24.212  1.00  0.00    -0.073 C 
ATOM      7  C   UNL     1      17.933 -31.653  24.748  1.00  0.00     0.008 C 
ATOM      8  C   UNL     1      18.002 -34.087  24.325  1.00  0.00     0.031 C 
ATOM      9  C   UNL     1      18.092 -34.753  22.950  1.00  0.00     0.005 C 
ATOM     10  C   UNL     1      16.727 -34.779  22.239  1.00  0.00     0.008 C 
ATOM     11  C   UNL     1      16.084 -33.366  22.101  1.00  0.00    -0.018 C 
ATOM     12  C   UNL     1      14.656 -33.542  21.529  1.00  0.00     0.088 C 
ATOM     13  C   UNL     1      13.877 -32.257  21.546  1.00  0.00     0.159 C 
ATOM     14  O   UNL     1      13.169 -31.969  20.543  1.00  0.00    -0.295 OA
ATOM     15  C   UNL     1      16.927 -32.504  21.123  1.00  0.00     0.012 C 
ATOM     16  C   UNL     1      11.604 -30.541  22.370  1.00  0.00     0.039 C 
ENDROOT
TORSDOF 0
ENDMDL
MODEL 3
REMARK VINA RESULT:    -6.301      2.618      5.280
REMARK INTER + INTRA:          -6.301
REMARK INTER:                  -6.301
REMARK INTRA:                   0.000
REMARK UNBOUND:                 0.000
REMARK SMILES C=C1CCC[C@@]2(C)CC(=O)C(=C(C)C)C[C@H]12
REMARK SMILES IDX 13 1 12 2 11 3 15 4 16 5 2 6 1 7 3 8 4 9 5 10 6 11 8 12 9 13
REMARK SMILES IDX 10 14 7 15 14 16
REMARK H PARENT
REMARK Flexibility Score: inf
ROOT
ATOM      1  C   UNL     1      20.274 -33.123  20.527  1.00  0.00     0.039 C 
ATOM      2  C   UNL     1      19.799 -31.756  20.965  1.00  0.00    -0.070 C 
ATOM      3  C   UNL     1      18.534 -31.564  21.446  1.00  0.00    -0.006 C 
ATOM      4  C   UNL     1      17.559 -32.726  21.581  1.00  0.00     0.047 C 
ATOM      5  C   UNL     1      16.556 -32.534  22.746  1.00  0.00     0.025 C 
ATOM      6  C   UNL     1      15.525 -33.652  22.905  1.00  0.00    -0.073 C 
ATOM      7  C   UNL     1      15.453 -34.733  22.105  1.00  0.00     0.008 C 
ATOM      8  C   UNL     1      14.571 -33.520  24.070  1.00  0.00     0.031 C 
ATOM      9  C   UNL     1      13.882 -32.153  24.041  1.00  0.00     0.005 C 
ATOM     10  C   UNL     1      14.899 -31.005  23.926  1.00  0.00     0.008 C 
ATOM     11  C   UNL     1      15.843 -31.146  22.694  1.00  0.00    -0.018 C 
ATOM     12  C   UNL     1      16.917 -30.035  22.780  1.00  0.00     0.088 C 
ATOM     13  C   UNL     1      17.995 -30.207  21.747  1.00  0.00     0.159 C 
ATOM     14  O   UNL     1      18.415 -29.186  21.140  1.00  0.00    -0.295 OA
ATOM     15  C   UNL     1      15.022 -30.967  21.387  1.00  0.00     0.012 C 
ATOM     16  C   UNL     1      20.799 -30.625  20.881  1.00  0.00     0.039 C 
ENDROOT
TORSDOF 0
ENDMDL
MODEL 4
REMARK VINA RESULT:    -6.267      2.317      5.467
REMARK INTER + INTRA:          -6.267
REMARK INTER:                  -6.267
REMARK INTRA:                   0.000
REMARK UNBOUND:                 0.000
REMARK SMILES C=C1CCC[C@@]2(C)CC(=O)C(=C(C)C)C[C@H]12
REMARK SMILES IDX 13 1 12 2 11 3 15 4 16 5 2 6 1 7 3 8 4 9 5 10 6 11 8 12 9 13
REMARK SMILES IDX 10 14 7 15 14 16
REMARK H PARENT
REMARK Flexibility Score: inf
ROOT
ATOM      1  C   UNL     1      19.381 -33.549  20.398  1.00  0.00     0.039 C 
ATOM      2  C   UNL     1      17.978 -34.049  20.137  1.00  0.00    -0.070 C 
ATOM      3  C   UNL     1      16.917 -33.602  20.874  1.00  0.00    -0.006 C 
ATOM      4  C   UNL     1      17.103 -32.564  21.973  1.00  0.00     0.047 C 
ATOM      5  C   UNL     1      15.858 -31.664  22.164  1.00  0.00     0.025 C 
ATOM      6  C   UNL     1      15.971 -30.628  23.282  1.00  0.00    -0.073 C 
ATOM      7  C   UNL     1      17.052 -30.484  24.072  1.00  0.00     0.008 C 
ATOM      8  C   UNL     1      14.793 -29.697  23.452  1.00  0.00     0.031 C 
ATOM      9  C   UNL     1      13.497 -30.499  23.594  1.00  0.00     0.005 C 
ATOM     10  C   UNL     1      13.333 -31.521  22.456  1.00  0.00     0.008 C 
ATOM     11  C   UNL     1      14.545 -32.493  22.329  1.00  0.00    -0.018 C 
ATOM     12  C   UNL     1      14.341 -33.354  21.059  1.00  0.00     0.088 C 
ATOM     13  C   UNL     1      15.551 -34.184  20.736  1.00  0.00     0.159 C 
ATOM     14  O   UNL     1      15.381 -35.376  20.364  1.00  0.00    -0.295 OA
ATOM     15  C   UNL     1      14.600 -33.420  23.575  1.00  0.00     0.012 C 
ATOM     16  C   UNL     1      17.802 -35.034  19.004  1.00  0.00     0.039 C 
ENDROOT
TORSDOF 0
ENDMDL
MODEL 5
REMARK VINA RESULT:    -6.219      2.526      5.299
REMARK INTER + INTRA:          -6.219
REMARK INTER:                  -6.219
REMARK INTRA:                   0.000
REMARK UNBOUND:                 0.000
REMARK SMILES C=C1CCC[C@@]2(C)CC(=O)C(=C(C)C)C[C@H]12
REMARK SMILES IDX 13 1 12 2 11 3 15 4 16 5 2 6 1 7 3 8 4 9 5 10 6 11 8 12 9 13
REMARK SMILES IDX 10 14 7 15 14 16
REMARK H PARENT
REMARK Flexibility Score: inf
ROOT
ATOM      1  C   UNL     1      17.550 -34.404  19.043  1.00  0.00     0.039 C 
ATOM      2  C   UNL     1      17.229 -35.070  20.362  1.00  0.00    -0.070 C 
ATOM      3  C   UNL     1      16.676 -34.368  21.395  1.00  0.00    -0.006 C 
ATOM      4  C   UNL     1      16.337 -32.889  21.251  1.00  0.00     0.047 C 
ATOM      5  C   UNL     1      15.126 -32.465  22.117  1.00  0.00     0.025 C 
ATOM      6  C   UNL     1      14.764 -30.981  22.044  1.00  0.00    -0.073 C 
ATOM      7  C   UNL     1      15.432 -30.077  21.303  1.00  0.00     0.008 C 
ATOM      8  C   UNL     1      13.550 -30.550  22.834  1.00  0.00     0.031 C 
ATOM      9  C   UNL     1      13.675 -31.000  24.291  1.00  0.00     0.005 C 
ATOM     10  C   UNL     1      13.996 -32.501  24.398  1.00  0.00     0.008 C 
ATOM     11  C   UNL     1      15.275 -32.910  23.607  1.00  0.00    -0.018 C 
ATOM     12  C   UNL     1      15.396 -34.452  23.652  1.00  0.00     0.088 C 
ATOM     13  C   UNL     1      16.485 -34.962  22.750  1.00  0.00     0.159 C 
ATOM     14  O   UNL     1      17.232 -35.885  23.171  1.00  0.00    -0.295 OA
ATOM     15  C   UNL     1      16.525 -32.276  24.276  1.00  0.00     0.012 C 
ATOM     16  C   UNL     1      17.516 -36.550  20.468  1.00  0.00     0.039 C 
ENDROOT
TORSDOF 0
ENDMDL
MODEL 6
REMARK VINA RESULT:    -6.185      3.253      5.502
REMARK INTER + INTRA:          -6.185
REMARK INTER:                  -6.185
REMARK INTRA:                   0.000
REMARK UNBOUND:                 0.000
REMARK SMILES C=C1CCC[C@@]2(C)CC(=O)C(=C(C)C)C[C@H]12
REMARK SMILES IDX 13 1 12 2 11 3 15 4 16 5 2 6 1 7 3 8 4 9 5 10 6 11 8 12 9 13
REMARK SMILES IDX 10 14 7 15 14 16
REMARK H PARENT
REMARK Flexibility Score: inf
ROOT
ATOM      1  C   UNL     1      16.494 -33.883  25.342  1.00  0.00     0.039 C 
ATOM      2  C   UNL     1      15.662 -33.758  24.084  1.00  0.00    -0.070 C 
ATOM      3  C   UNL     1      16.058 -34.337  22.912  1.00  0.00    -0.006 C 
ATOM      4  C   UNL     1      17.342 -35.153  22.830  1.00  0.00     0.047 C 
ATOM      5  C   UNL     1      17.269 -36.283  21.774  1.00  0.00     0.025 C 
ATOM      6  C   UNL     1      18.545 -37.111  21.619  1.00  0.00    -0.073 C 
ATOM      7  C   UNL     1      19.674 -36.896  22.322  1.00  0.00     0.008 C 
ATOM      8  C   UNL     1      18.482 -38.257  20.638  1.00  0.00     0.031 C 
ATOM      9  C   UNL     1      17.994 -37.764  19.273  1.00  0.00     0.005 C 
ATOM     10  C   UNL     1      16.685 -36.964  19.393  1.00  0.00     0.008 C 
ATOM     11  C   UNL     1      16.791 -35.764  20.381  1.00  0.00    -0.018 C 
ATOM     12  C   UNL     1      15.381 -35.146  20.541  1.00  0.00     0.088 C 
ATOM     13  C   UNL     1      15.336 -34.109  21.627  1.00  0.00     0.159 C 
ATOM     14  O   UNL     1      14.690 -33.047  21.419  1.00  0.00    -0.295 OA
ATOM     15  C   UNL     1      17.757 -34.695  19.800  1.00  0.00     0.012 C 
ATOM     16  C   UNL     1      14.362 -32.996  24.197  1.00  0.00     0.039 C 
ENDROOT
TORSDOF 0
ENDMDL
MODEL 7
REMARK VINA RESULT:    -6.080      2.280      5.226
REMARK INTER + INTRA:          -6.080
REMARK INTER:                  -6.080
REMARK INTRA:                   0.000
REMARK UNBOUND:                 0.000
REMARK SMILES C=C1CCC[C@@]2(C)CC(=O)C(=C(C)C)C[C@H]12
REMARK SMILES IDX 13 1 12 2 11 3 15 4 16 5 2 6 1 7 3 8 4 9 5 10 6 11 8 12 9 13
REMARK SMILES IDX 10 14 7 15 14 16
REMARK H PARENT
REMARK Flexibility Score: inf
ROOT
ATOM      1  C   UNL     1      18.190 -34.355  19.355  1.00  0.00     0.039 C 
ATOM      2  C   UNL     1      18.702 -33.447  20.451  1.00  0.00    -0.070 C 
ATOM      3  C   UNL     1      17.864 -32.593  21.113  1.00  0.00    -0.006 C 
ATOM      4  C   UNL     1      16.377 -32.539  20.789  1.00  0.00     0.047 C 
ATOM      5  C   UNL     1      15.510 -32.155  22.013  1.00  0.00     0.025 C 
ATOM      6  C   UNL     1      14.010 -32.045  21.738  1.00  0.00    -0.073 C 
ATOM      7  C   UNL     1      13.447 -32.249  20.531  1.00  0.00     0.008 C 
ATOM      8  C   UNL     1      13.134 -31.729  22.928  1.00  0.00     0.031 C 
ATOM      9  C   UNL     1      13.641 -30.475  23.644  1.00  0.00     0.005 C 
ATOM     10  C   UNL     1      15.140 -30.575  23.974  1.00  0.00     0.008 C 
ATOM     11  C   UNL     1      16.023 -30.862  22.722  1.00  0.00    -0.018 C 
ATOM     12  C   UNL     1      17.475 -31.104  23.202  1.00  0.00     0.088 C 
ATOM     13  C   UNL     1      18.366 -31.587  22.093  1.00  0.00     0.159 C 
ATOM     14  O   UNL     1      19.530 -31.113  22.007  1.00  0.00    -0.295 OA
ATOM     15  C   UNL     1      15.995 -29.632  21.773  1.00  0.00     0.012 C 
ATOM     16  C   UNL     1      20.168 -33.556  20.802  1.00  0.00     0.039 C 
ENDROOT
TORSDOF 0
ENDMDL
MODEL 8
REMARK VINA RESULT:    -6.028      3.878      5.913
REMARK INTER + INTRA:          -6.028
REMARK INTER:                  -6.028
REMARK INTRA:                   0.000
REMARK UNBOUND:                 0.000
REMARK SMILES C=C1CCC[C@@]2(C)CC(=O)C(=C(C)C)C[C@H]12
REMARK SMILES IDX 13 1 12 2 11 3 15 4 16 5 2 6 1 7 3 8 4 9 5 10 6 11 8 12 9 13
REMARK SMILES IDX 10 14 7 15 14 16
REMARK H PARENT
REMARK Flexibility Score: inf
ROOT
ATOM      1  C   UNL     1      18.065 -29.099  21.494  1.00  0.00     0.039 C 
ATOM      2  C   UNL     1      19.215 -30.022  21.156  1.00  0.00    -0.070 C 
ATOM      3  C   UNL     1      19.038 -31.375  21.074  1.00  0.00    -0.006 C 
ATOM      4  C   UNL     1      17.669 -32.005  21.296  1.00  0.00     0.047 C 
ATOM      5  C   UNL     1      17.470 -33.308  20.483  1.00  0.00     0.025 C 
ATOM      6  C   UNL     1      16.127 -34.008  20.697  1.00  0.00    -0.073 C 
ATOM      7  C   UNL     1      15.168 -33.563  21.532  1.00  0.00     0.008 C 
ATOM      8  C   UNL     1      15.882 -35.250  19.872  1.00  0.00     0.031 C 
ATOM      9  C   UNL     1      17.037 -36.240  20.044  1.00  0.00     0.005 C 
ATOM     10  C   UNL     1      18.400 -35.573  19.790  1.00  0.00     0.008 C 
ATOM     11  C   UNL     1      18.642 -34.319  20.683  1.00  0.00    -0.018 C 
ATOM     12  C   UNL     1      19.959 -33.647  20.223  1.00  0.00     0.088 C 
ATOM     13  C   UNL     1      20.179 -32.317  20.886  1.00  0.00     0.159 C 
ATOM     14  O   UNL     1      21.338 -32.029  21.289  1.00  0.00    -0.295 OA
ATOM     15  C   UNL     1      18.781 -34.756  22.168  1.00  0.00     0.012 C 
ATOM     16  C   UNL     1      20.553 -29.376  20.879  1.00  0.00     0.039 C 
ENDROOT
TORSDOF 0
ENDMDL
MODEL 9
REMARK VINA RESULT:    -5.991      2.433      4.099
REMARK INTER + INTRA:          -5.991
REMARK INTER:                  -5.991
REMARK INTRA:                   0.000
REMARK UNBOUND:                 0.000
REMARK SMILES C=C1CCC[C@@]2(C)CC(=O)C(=C(C)C)C[C@H]12
REMARK SMILES IDX 13 1 12 2 11 3 15 4 16 5 2 6 1 7 3 8 4 9 5 10 6 11 8 12 9 13
REMARK SMILES IDX 10 14 7 15 14 16
REMARK H PARENT
REMARK Flexibility Score: inf
ROOT
ATOM      1  C   UNL     1      14.243 -29.970  23.667  1.00  0.00     0.039 C 
ATOM      2  C   UNL     1      14.730 -31.401  23.651  1.00  0.00    -0.070 C 
ATOM      3  C   UNL     1      15.873 -31.754  22.990  1.00  0.00    -0.006 C 
ATOM      4  C   UNL     1      16.716 -30.714  22.263  1.00  0.00     0.047 C 
ATOM      5  C   UNL     1      18.222 -31.073  22.240  1.00  0.00     0.025 C 
ATOM      6  C   UNL     1      19.114 -30.084  21.488  1.00  0.00    -0.073 C 
ATOM      7  C   UNL     1      18.659 -28.977  20.869  1.00  0.00     0.008 C 
ATOM      8  C   UNL     1      20.596 -30.379  21.498  1.00  0.00     0.031 C 
ATOM      9  C   UNL     1      20.858 -31.809  21.019  1.00  0.00     0.005 C 
ATOM     10  C   UNL     1      20.006 -32.832  21.789  1.00  0.00     0.008 C 
ATOM     11  C   UNL     1      18.479 -32.526  21.728  1.00  0.00    -0.018 C 
ATOM     12  C   UNL     1      17.751 -33.517  22.668  1.00  0.00     0.088 C 
ATOM     13  C   UNL     1      16.297 -33.176  22.835  1.00  0.00     0.159 C 
ATOM     14  O   UNL     1      15.454 -34.112  22.826  1.00  0.00    -0.295 OA
ATOM     15  C   UNL     1      17.966 -32.725  20.275  1.00  0.00     0.012 C 
ATOM     16  C   UNL     1      13.915 -32.410  24.426  1.00  0.00     0.039 C 
ENDROOT
TORSDOF 0
ENDMDL
