MODEL 1
REMARK VINA RESULT:    -3.412      0.000      0.000
REMARK INTER + INTRA:          -4.969
REMARK INTER:                  -4.410
REMARK INTRA:                  -0.560
REMARK UNBOUND:                -0.560
REMARK SMILES C=CC(=O)CCCCC
REMARK SMILES IDX 6 1 7 2 8 3 9 4 5 5 3 6 4 7 2 8 1 9
REMARK H PARENT
REMARK Flexibility Score: inf
ROOT
ATOM      1  C   UNL     1      10.131 116.710  20.107  1.00  0.00     0.008 C 
ENDROOT
BRANCH   1   2
ATOM      2  C   UNL     1      10.722 116.575  18.694  1.00  0.00     0.000 C 
BRANCH   2   3
ATOM      3  C   UNL     1      10.806 117.921  17.959  1.00  0.00    -0.003 C 
ATOM      4  C   UNL     1      10.302 117.841  16.518  1.00  0.00     0.004 C 
ENDBRANCH   2   3
ENDBRANCH   1   2
BRANCH   1   5
ATOM      5  C   UNL     1       9.507 118.092  20.352  1.00  0.00     0.080 C 
BRANCH   5   6
ATOM      6  C   UNL     1       8.009 118.013  20.514  1.00  0.00     0.155 C 
ATOM      7  O   UNL     1       7.550 117.641  21.628  1.00  0.00    -0.295 OA
BRANCH   6   8
ATOM      8  C   UNL     1       7.042 118.361  19.448  1.00  0.00     0.039 C 
ATOM      9  C   UNL     1       6.956 117.741  18.272  1.00  0.00     0.012 C 
ENDBRANCH   6   8
ENDBRANCH   5   6
ENDBRANCH   1   5
TORSDOF 5
ENDMDL
MODEL 2
REMARK VINA RESULT:    -3.398      2.948      3.690
REMARK INTER + INTRA:          -4.950
REMARK INTER:                  -4.698
REMARK INTRA:                  -0.253
REMARK UNBOUND:                -0.560
REMARK SMILES C=CC(=O)CCCCC
REMARK SMILES IDX 6 1 7 2 8 3 9 4 5 5 3 6 4 7 2 8 1 9
REMARK H PARENT
REMARK Flexibility Score: inf
ROOT
ATOM      1  C   UNL     1      10.868 115.359  19.253  1.00  0.00     0.008 C 
ENDROOT
BRANCH   1   2
ATOM      2  C   UNL     1      11.199 113.886  18.963  1.00  0.00     0.000 C 
BRANCH   2   3
ATOM      3  C   UNL     1      11.805 113.683  17.565  1.00  0.00    -0.003 C 
ATOM      4  C   UNL     1      11.520 112.295  16.993  1.00  0.00     0.004 C 
ENDBRANCH   2   3
ENDBRANCH   1   2
BRANCH   1   5
ATOM      5  C   UNL     1      11.189 116.278  18.065  1.00  0.00     0.080 C 
BRANCH   5   6
ATOM      6  C   UNL     1      10.064 117.243  17.780  1.00  0.00     0.155 C 
ATOM      7  O   UNL     1       9.951 117.695  16.609  1.00  0.00    -0.295 OA
BRANCH   6   8
ATOM      8  C   UNL     1       9.072 117.678  18.790  1.00  0.00     0.039 C 
ATOM      9  C   UNL     1       7.752 117.672  18.606  1.00  0.00     0.012 C 
ENDBRANCH   6   8
ENDBRANCH   5   6
ENDBRANCH   1   5
TORSDOF 5
ENDMDL
MODEL 3
REMARK VINA RESULT:    -3.324      2.117      3.974
REMARK INTER + INTRA:          -4.855
REMARK INTER:                  -4.349
REMARK INTRA:                  -0.506
REMARK UNBOUND:                -0.560
REMARK SMILES C=CC(=O)CCCCC
REMARK SMILES IDX 6 1 7 2 8 3 9 4 5 5 3 6 4 7 2 8 1 9
REMARK H PARENT
REMARK Flexibility Score: inf
ROOT
ATOM      1  C   UNL     1       9.381 119.107  19.204  1.00  0.00     0.008 C 
ENDROOT
BRANCH   1   2
ATOM      2  C   UNL     1       8.403 118.089  19.814  1.00  0.00     0.000 C 
BRANCH   2   3
ATOM      3  C   UNL     1       6.977 118.238  19.259  1.00  0.00    -0.003 C 
ATOM      4  C   UNL     1       6.808 117.595  17.883  1.00  0.00     0.004 C 
ENDBRANCH   2   3
ENDBRANCH   1   2
BRANCH   1   5
ATOM      5  C   UNL     1      10.734 118.477  18.845  1.00  0.00     0.080 C 
BRANCH   5   6
ATOM      6  C   UNL     1      10.595 117.408  17.788  1.00  0.00     0.155 C 
ATOM      7  O   UNL     1      10.146 117.744  16.659  1.00  0.00    -0.295 OA
BRANCH   6   8
ATOM      8  C   UNL     1      10.970 115.991  17.992  1.00  0.00     0.039 C 
ATOM      9  C   UNL     1      10.959 115.367  19.169  1.00  0.00     0.012 C 
ENDBRANCH   6   8
ENDBRANCH   5   6
ENDBRANCH   1   5
TORSDOF 5
ENDMDL
MODEL 4
REMARK VINA RESULT:    -3.314      1.778      3.690
REMARK INTER + INTRA:          -4.843
REMARK INTER:                  -4.413
REMARK INTRA:                  -0.430
REMARK UNBOUND:                -0.560
REMARK SMILES C=CC(=O)CCCCC
REMARK SMILES IDX 6 1 7 2 8 3 9 4 5 5 3 6 4 7 2 8 1 9
REMARK H PARENT
REMARK Flexibility Score: inf
ROOT
ATOM      1  C   UNL     1       9.029 118.201  20.301  1.00  0.00     0.008 C 
ENDROOT
BRANCH   1   2
ATOM      2  C   UNL     1       7.509 117.980  20.228  1.00  0.00     0.000 C 
BRANCH   2   3
ATOM      3  C   UNL     1       6.987 117.955  18.783  1.00  0.00    -0.003 C 
ATOM      4  C   UNL     1       5.980 119.070  18.499  1.00  0.00     0.004 C 
ENDBRANCH   2   3
ENDBRANCH   1   2
BRANCH   1   5
ATOM      5  C   UNL     1       9.816 116.883  20.269  1.00  0.00     0.080 C 
BRANCH   5   6
ATOM      6  C   UNL     1      10.494 116.665  18.937  1.00  0.00     0.155 C 
ATOM      7  O   UNL     1      10.912 115.508  18.666  1.00  0.00    -0.295 OA
BRANCH   6   8
ATOM      8  C   UNL     1      10.682 117.726  17.922  1.00  0.00     0.039 C 
ATOM      9  C   UNL     1      10.118 117.726  16.715  1.00  0.00     0.012 C 
ENDBRANCH   6   8
ENDBRANCH   5   6
ENDBRANCH   1   5
TORSDOF 5
ENDMDL
MODEL 5
REMARK VINA RESULT:    -3.210      1.611      2.533
REMARK INTER + INTRA:          -4.709
REMARK INTER:                  -4.251
REMARK INTRA:                  -0.458
REMARK UNBOUND:                -0.560
REMARK SMILES C=CC(=O)CCCCC
REMARK SMILES IDX 6 1 7 2 8 3 9 4 5 5 3 6 4 7 2 8 1 9
REMARK H PARENT
REMARK Flexibility Score: inf
ROOT
ATOM      1  C   UNL     1       9.591 118.451  18.481  1.00  0.00     0.008 C 
ENDROOT
BRANCH   1   2
ATOM      2  C   UNL     1      10.799 117.622  18.948  1.00  0.00     0.000 C 
BRANCH   2   3
ATOM      3  C   UNL     1      10.399 116.216  19.423  1.00  0.00    -0.003 C 
ATOM      4  C   UNL     1      11.209 115.111  18.745  1.00  0.00     0.004 C 
ENDBRANCH   2   3
ENDBRANCH   1   2
BRANCH   1   5
ATOM      5  C   UNL     1       8.269 117.677  18.593  1.00  0.00     0.080 C 
BRANCH   5   6
ATOM      6  C   UNL     1       7.298 118.354  19.529  1.00  0.00     0.155 C 
ATOM      7  O   UNL     1       6.224 118.803  19.048  1.00  0.00    -0.295 OA
BRANCH   6   8
ATOM      8  C   UNL     1       7.523 118.507  20.984  1.00  0.00     0.039 C 
ATOM      9  C   UNL     1       7.887 117.520  21.802  1.00  0.00     0.012 C 
ENDBRANCH   6   8
ENDBRANCH   5   6
ENDBRANCH   1   5
TORSDOF 5
ENDMDL
MODEL 6
REMARK VINA RESULT:    -3.210      7.338      8.849
REMARK INTER + INTRA:          -4.708
REMARK INTER:                  -4.466
REMARK INTRA:                  -0.242
REMARK UNBOUND:                -0.560
REMARK SMILES C=CC(=O)CCCCC
REMARK SMILES IDX 6 1 7 2 8 3 9 4 5 5 3 6 4 7 2 8 1 9
REMARK H PARENT
REMARK Flexibility Score: inf
ROOT
ATOM      1  C   UNL     1      13.234 111.223  18.966  1.00  0.00     0.008 C 
ENDROOT
BRANCH   1   2
ATOM      2  C   UNL     1      12.861 111.815  17.597  1.00  0.00     0.000 C 
BRANCH   2   3
ATOM      3  C   UNL     1      11.656 112.766  17.675  1.00  0.00    -0.003 C 
ATOM      4  C   UNL     1      11.167 112.983  19.107  1.00  0.00     0.004 C 
ENDBRANCH   2   3
ENDBRANCH   1   2
BRANCH   1   5
ATOM      5  C   UNL     1      13.967 109.879  18.843  1.00  0.00     0.080 C 
BRANCH   5   6
ATOM      6  C   UNL     1      13.838 109.051  20.099  1.00  0.00     0.155 C 
ATOM      7  O   UNL     1      14.291 107.875  20.084  1.00  0.00    -0.295 OA
BRANCH   6   8
ATOM      8  C   UNL     1      13.226 109.543  21.354  1.00  0.00     0.039 C 
ATOM      9  C   UNL     1      11.997 109.235  21.768  1.00  0.00     0.012 C 
ENDBRANCH   6   8
ENDBRANCH   5   6
ENDBRANCH   1   5
TORSDOF 5
ENDMDL
MODEL 7
REMARK VINA RESULT:    -3.195      1.931      2.958
REMARK INTER + INTRA:          -4.689
REMARK INTER:                  -4.183
REMARK INTRA:                  -0.506
REMARK UNBOUND:                -0.560
REMARK SMILES C=CC(=O)CCCCC
REMARK SMILES IDX 6 1 7 2 8 3 9 4 5 5 3 6 4 7 2 8 1 9
REMARK H PARENT
REMARK Flexibility Score: inf
ROOT
ATOM      1  C   UNL     1      10.952 116.443  19.784  1.00  0.00     0.008 C 
ENDROOT
BRANCH   1   2
ATOM      2  C   UNL     1      11.130 114.950  19.463  1.00  0.00     0.000 C 
BRANCH   2   3
ATOM      3  C   UNL     1      11.558 114.708  18.007  1.00  0.00    -0.003 C 
ATOM      4  C   UNL     1      13.021 115.068  17.753  1.00  0.00     0.004 C 
ENDBRANCH   2   3
ENDBRANCH   1   2
BRANCH   1   5
ATOM      5  C   UNL     1       9.478 116.872  19.779  1.00  0.00     0.080 C 
BRANCH   5   6
ATOM      6  C   UNL     1       9.125 117.658  18.539  1.00  0.00     0.155 C 
ATOM      7  O   UNL     1       7.908 117.769  18.232  1.00  0.00    -0.295 OA
BRANCH   6   8
ATOM      8  C   UNL     1      10.123 118.321  17.669  1.00  0.00     0.039 C 
ATOM      9  C   UNL     1      10.451 117.910  16.445  1.00  0.00     0.012 C 
ENDBRANCH   6   8
ENDBRANCH   5   6
ENDBRANCH   1   5
TORSDOF 5
ENDMDL
MODEL 8
REMARK VINA RESULT:    -3.173      6.430      7.958
REMARK INTER + INTRA:          -4.660
REMARK INTER:                  -4.337
REMARK INTRA:                  -0.324
REMARK UNBOUND:                -0.560
REMARK SMILES C=CC(=O)CCCCC
REMARK SMILES IDX 6 1 7 2 8 3 9 4 5 5 3 6 4 7 2 8 1 9
REMARK H PARENT
REMARK Flexibility Score: inf
ROOT
ATOM      1  C   UNL     1      13.458 110.969  19.871  1.00  0.00     0.008 C 
ENDROOT
BRANCH   1   2
ATOM      2  C   UNL     1      13.765 109.492  20.169  1.00  0.00     0.000 C 
BRANCH   2   3
ATOM      3  C   UNL     1      12.980 108.960  21.378  1.00  0.00    -0.003 C 
ATOM      4  C   UNL     1      11.958 109.964  21.908  1.00  0.00     0.004 C 
ENDBRANCH   2   3
ENDBRANCH   1   2
BRANCH   1   5
ATOM      5  C   UNL     1      13.282 111.241  18.370  1.00  0.00     0.080 C 
BRANCH   5   6
ATOM      6  C   UNL     1      12.056 112.076  18.089  1.00  0.00     0.155 C 
ATOM      7  O   UNL     1      11.659 112.167  16.896  1.00  0.00    -0.295 OA
BRANCH   6   8
ATOM      8  C   UNL     1      11.281 112.783  19.133  1.00  0.00     0.039 C 
ATOM      9  C   UNL     1      11.255 114.106  19.291  1.00  0.00     0.012 C 
ENDBRANCH   6   8
ENDBRANCH   5   6
ENDBRANCH   1   5
TORSDOF 5
ENDMDL
MODEL 9
REMARK VINA RESULT:    -3.131      1.418      2.652
REMARK INTER + INTRA:          -4.606
REMARK INTER:                  -4.006
REMARK INTRA:                  -0.599
REMARK UNBOUND:                -0.560
REMARK SMILES C=CC(=O)CCCCC
REMARK SMILES IDX 6 1 7 2 8 3 9 4 5 5 3 6 4 7 2 8 1 9
REMARK H PARENT
REMARK Flexibility Score: inf
ROOT
ATOM      1  C   UNL     1       8.202 117.632  18.582  1.00  0.00     0.008 C 
ENDROOT
BRANCH   1   2
ATOM      2  C   UNL     1       9.506 118.446  18.563  1.00  0.00     0.000 C 
BRANCH   2   3
ATOM      3  C   UNL     1      10.756 117.557  18.659  1.00  0.00    -0.003 C 
ATOM      4  C   UNL     1      10.453 116.171  19.227  1.00  0.00     0.004 C 
ENDBRANCH   2   3
ENDBRANCH   1   2
BRANCH   1   5
ATOM      5  C   UNL     1       7.076 118.346  19.344  1.00  0.00     0.080 C 
BRANCH   5   6
ATOM      6  C   UNL     1       7.473 118.666  20.764  1.00  0.00     0.155 C 
ATOM      7  O   UNL     1       7.512 119.877  21.113  1.00  0.00    -0.295 OA
BRANCH   6   8
ATOM      8  C   UNL     1       7.805 117.642  21.781  1.00  0.00     0.039 C 
ATOM      9  C   UNL     1       8.989 117.526  22.379  1.00  0.00     0.012 C 
ENDBRANCH   6   8
ENDBRANCH   5   6
ENDBRANCH   1   5
TORSDOF 5
ENDMDL
