MODEL 1
REMARK VINA RESULT:    -5.422      0.000      0.000
REMARK INTER + INTRA:         -11.539
REMARK INTER:                  -9.860
REMARK INTRA:                  -1.679
REMARK UNBOUND:                -1.679
REMARK SMILES CCCCCCCCCCCCCCCC(=O)[O-]
REMARK SMILES IDX 9 1 10 2 11 3 12 4 13 5 14 6 15 7 16 8 17 9 18 10 8 11 7 12
REMARK SMILES IDX 6 13 5 14 4 15 3 16 2 17 1 18
REMARK H PARENT
REMARK Flexibility Score: inf
ROOT
ATOM      1  C   UNL     1       8.127  -0.678 -38.417  1.00  0.00     0.000 C 
ENDROOT
BRANCH   1   2
ATOM      2  C   UNL     1       8.511  -1.894 -37.559  1.00  0.00     0.000 C 
BRANCH   2   3
ATOM      3  C   UNL     1       7.343  -2.400 -36.695  1.00  0.00     0.000 C 
BRANCH   3   4
ATOM      4  C   UNL     1       6.725  -1.291 -35.829  1.00  0.00     0.000 C 
BRANCH   4   5
ATOM      5  C   UNL     1       5.592  -1.804 -34.928  1.00  0.00     0.000 C 
BRANCH   5   6
ATOM      6  C   UNL     1       5.246  -0.778 -33.843  1.00  0.00     0.006 C 
BRANCH   6   7
ATOM      7  C   UNL     1       6.148   0.456 -33.946  1.00  0.00     0.053 C 
BRANCH   7   8
ATOM      8  C   UNL     1       6.522   0.946 -32.583  1.00  0.00     0.041 C 
ATOM      9  O   UNL     1       7.346   1.889 -32.453  1.00  0.00    -0.550 OA
ATOM     10  O   UNL     1       5.996   0.332 -31.454  1.00  0.00    -0.550 OA
ENDBRANCH   7   8
ENDBRANCH   6   7
ENDBRANCH   5   6
ENDBRANCH   4   5
ENDBRANCH   3   4
ENDBRANCH   2   3
ENDBRANCH   1   2
BRANCH   1  11
ATOM     11  C   UNL     1       8.947   0.577 -38.069  1.00  0.00     0.000 C 
BRANCH  11  12
ATOM     12  C   UNL     1       8.094   1.680 -37.422  1.00  0.00    -0.000 C 
BRANCH  12  13
ATOM     13  C   UNL     1       8.692   2.195 -36.105  1.00  0.00    -0.000 C 
BRANCH  13  14
ATOM     14  C   UNL     1       9.502   1.098 -35.402  1.00  0.00    -0.000 C 
BRANCH  14  15
ATOM     15  C   UNL     1      10.681   1.698 -34.622  1.00  0.00    -0.000 C 
BRANCH  15  16
ATOM     16  C   UNL     1      11.636   2.514 -35.513  1.00  0.00    -0.000 C 
BRANCH  16  17
ATOM     17  C   UNL     1      13.132   2.248 -35.271  1.00  0.00    -0.003 C 
ATOM     18  C   UNL     1      13.397   1.416 -34.016  1.00  0.00     0.004 C 
ENDBRANCH  16  17
ENDBRANCH  15  16
ENDBRANCH  14  15
ENDBRANCH  13  14
ENDBRANCH  12  13
ENDBRANCH  11  12
ENDBRANCH   1  11
TORSDOF 14
ENDMDL
MODEL 2
REMARK VINA RESULT:    -5.091      3.059      5.662
REMARK INTER + INTRA:         -10.937
REMARK INTER:                  -9.204
REMARK INTRA:                  -1.734
REMARK UNBOUND:                -1.679
REMARK SMILES CCCCCCCCCCCCCCCC(=O)[O-]
REMARK SMILES IDX 9 1 10 2 11 3 12 4 13 5 14 6 15 7 16 8 17 9 18 10 8 11 7 12
REMARK SMILES IDX 6 13 5 14 4 15 3 16 2 17 1 18
REMARK H PARENT
REMARK Flexibility Score: inf
ROOT
ATOM      1  C   UNL     1       8.702   0.432 -28.415  1.00  0.00     0.000 C 
ENDROOT
BRANCH   1   2
ATOM      2  C   UNL     1       7.614   0.313 -29.494  1.00  0.00     0.000 C 
BRANCH   2   3
ATOM      3  C   UNL     1       6.887   1.645 -29.750  1.00  0.00     0.000 C 
BRANCH   3   4
ATOM      4  C   UNL     1       7.158   2.205 -31.156  1.00  0.00     0.000 C 
BRANCH   4   5
ATOM      5  C   UNL     1       6.637   1.284 -32.270  1.00  0.00     0.000 C 
BRANCH   5   6
ATOM      6  C   UNL     1       7.017   1.828 -33.653  1.00  0.00     0.006 C 
BRANCH   6   7
ATOM      7  C   UNL     1       6.924   0.731 -34.718  1.00  0.00     0.053 C 
BRANCH   7   8
ATOM      8  C   UNL     1       7.800   1.060 -35.885  1.00  0.00     0.041 C 
ATOM      9  O   UNL     1       7.834   2.233 -36.341  1.00  0.00    -0.550 OA
ATOM     10  O   UNL     1       8.545   0.061 -36.499  1.00  0.00    -0.550 OA
ENDBRANCH   7   8
ENDBRANCH   6   7
ENDBRANCH   5   6
ENDBRANCH   4   5
ENDBRANCH   3   4
ENDBRANCH   2   3
ENDBRANCH   1   2
BRANCH   1  11
ATOM     11  C   UNL     1       9.739   1.524 -28.733  1.00  0.00     0.000 C 
BRANCH  11  12
ATOM     12  C   UNL     1      10.581   1.195 -29.976  1.00  0.00    -0.000 C 
BRANCH  12  13
ATOM     13  C   UNL     1      11.433   2.384 -30.444  1.00  0.00    -0.000 C 
BRANCH  13  14
ATOM     14  C   UNL     1      11.094   2.769 -31.889  1.00  0.00    -0.000 C 
BRANCH  14  15
ATOM     15  C   UNL     1      10.565   1.559 -32.673  1.00  0.00    -0.000 C 
BRANCH  15  16
ATOM     16  C   UNL     1      11.019   1.552 -34.144  1.00  0.00    -0.000 C 
BRANCH  16  17
ATOM     17  C   UNL     1      12.238   2.439 -34.449  1.00  0.00    -0.003 C 
ATOM     18  C   UNL     1      13.543   1.650 -34.547  1.00  0.00     0.004 C 
ENDBRANCH  16  17
ENDBRANCH  15  16
ENDBRANCH  14  15
ENDBRANCH  13  14
ENDBRANCH  12  13
ENDBRANCH  11  12
ENDBRANCH   1  11
TORSDOF 14
ENDMDL
MODEL 3
REMARK VINA RESULT:    -5.034      3.514      5.893
REMARK INTER + INTRA:         -10.834
REMARK INTER:                  -9.764
REMARK INTRA:                  -1.070
REMARK UNBOUND:                -1.679
REMARK SMILES CCCCCCCCCCCCCCCC(=O)[O-]
REMARK SMILES IDX 9 1 10 2 11 3 12 4 13 5 14 6 15 7 16 8 17 9 18 10 8 11 7 12
REMARK SMILES IDX 6 13 5 14 4 15 3 16 2 17 1 18
REMARK H PARENT
REMARK Flexibility Score: inf
ROOT
ATOM      1  C   UNL     1       6.632   1.588 -32.553  1.00  0.00     0.000 C 
ENDROOT
BRANCH   1   2
ATOM      2  C   UNL     1       7.685   2.023 -31.521  1.00  0.00     0.000 C 
BRANCH   2   3
ATOM      3  C   UNL     1       7.509   1.319 -30.164  1.00  0.00     0.000 C 
BRANCH   3   4
ATOM      4  C   UNL     1       6.262   0.420 -30.123  1.00  0.00     0.000 C 
BRANCH   4   5
ATOM      5  C   UNL     1       6.385  -0.715 -29.095  1.00  0.00     0.000 C 
BRANCH   5   6
ATOM      6  C   UNL     1       6.691  -0.160 -27.699  1.00  0.00     0.006 C 
BRANCH   6   7
ATOM      7  C   UNL     1       6.104  -1.062 -26.608  1.00  0.00     0.053 C 
BRANCH   7   8
ATOM      8  C   UNL     1       6.720  -2.424 -26.667  1.00  0.00     0.041 C 
ATOM      9  O   UNL     1       6.000  -3.437 -26.869  1.00  0.00    -0.550 OA
ATOM     10  O   UNL     1       8.083  -2.582 -26.453  1.00  0.00    -0.550 OA
ENDBRANCH   7   8
ENDBRANCH   6   7
ENDBRANCH   5   6
ENDBRANCH   4   5
ENDBRANCH   3   4
ENDBRANCH   2   3
ENDBRANCH   1   2
BRANCH   1  11
ATOM     11  C   UNL     1       7.256   1.115 -33.877  1.00  0.00     0.000 C 
BRANCH  11  12
ATOM     12  C   UNL     1       8.758   1.426 -33.967  1.00  0.00    -0.000 C 
BRANCH  12  13
ATOM     13  C   UNL     1       9.295   1.339 -35.403  1.00  0.00    -0.000 C 
BRANCH  13  14
ATOM     14  C   UNL     1       8.496   2.247 -36.346  1.00  0.00    -0.000 C 
BRANCH  14  15
ATOM     15  C   UNL     1       7.966   1.458 -37.553  1.00  0.00    -0.000 C 
BRANCH  15  16
ATOM     16  C   UNL     1       9.044   0.581 -38.215  1.00  0.00    -0.000 C 
BRANCH  16  17
ATOM     17  C   UNL     1       8.613  -0.867 -38.504  1.00  0.00    -0.003 C 
ATOM     18  C   UNL     1       8.015  -1.568 -37.284  1.00  0.00     0.004 C 
ENDBRANCH  16  17
ENDBRANCH  15  16
ENDBRANCH  14  15
ENDBRANCH  13  14
ENDBRANCH  12  13
ENDBRANCH  11  12
ENDBRANCH   1  11
TORSDOF 14
ENDMDL
MODEL 4
REMARK VINA RESULT:    -4.994      2.880      4.321
REMARK INTER + INTRA:         -10.760
REMARK INTER:                  -9.600
REMARK INTRA:                  -1.159
REMARK UNBOUND:                -1.679
REMARK SMILES CCCCCCCCCCCCCCCC(=O)[O-]
REMARK SMILES IDX 9 1 10 2 11 3 12 4 13 5 14 6 15 7 16 8 17 9 18 10 8 11 7 12
REMARK SMILES IDX 6 13 5 14 4 15 3 16 2 17 1 18
REMARK H PARENT
REMARK Flexibility Score: inf
ROOT
ATOM      1  C   UNL     1       6.089  -0.114 -34.673  1.00  0.00     0.000 C 
ENDROOT
BRANCH   1   2
ATOM      2  C   UNL     1       5.779   0.416 -33.264  1.00  0.00     0.000 C 
BRANCH   2   3
ATOM      3  C   UNL     1       6.971   1.161 -32.638  1.00  0.00     0.000 C 
BRANCH   3   4
ATOM      4  C   UNL     1       6.589   1.913 -31.353  1.00  0.00     0.000 C 
BRANCH   4   5
ATOM      5  C   UNL     1       7.276   1.341 -30.105  1.00  0.00     0.000 C 
BRANCH   5   6
ATOM      6  C   UNL     1       6.589   0.049 -29.644  1.00  0.00     0.006 C 
BRANCH   6   7
ATOM      7  C   UNL     1       7.448  -0.694 -28.616  1.00  0.00     0.053 C 
BRANCH   7   8
ATOM      8  C   UNL     1       6.962  -0.416 -27.229  1.00  0.00     0.041 C 
ATOM      9  O   UNL     1       7.743   0.069 -26.369  1.00  0.00    -0.550 OA
ATOM     10  O   UNL     1       5.659  -0.736 -26.871  1.00  0.00    -0.550 OA
ENDBRANCH   7   8
ENDBRANCH   6   7
ENDBRANCH   5   6
ENDBRANCH   4   5
ENDBRANCH   3   4
ENDBRANCH   2   3
ENDBRANCH   1   2
BRANCH   1  11
ATOM     11  C   UNL     1       6.808   0.923 -35.554  1.00  0.00     0.000 C 
BRANCH  11  12
ATOM     12  C   UNL     1       8.058   0.350 -36.241  1.00  0.00    -0.000 C 
BRANCH  12  13
ATOM     13  C   UNL     1       9.231   1.341 -36.258  1.00  0.00    -0.000 C 
BRANCH  13  14
ATOM     14  C   UNL     1       9.825   1.514 -34.854  1.00  0.00    -0.000 C 
BRANCH  14  15
ATOM     15  C   UNL     1      11.310   1.898 -34.928  1.00  0.00    -0.000 C 
BRANCH  15  16
ATOM     16  C   UNL     1      12.033   1.760 -33.576  1.00  0.00    -0.000 C 
BRANCH  16  17
ATOM     17  C   UNL     1      11.510   2.685 -32.465  1.00  0.00    -0.003 C 
ATOM     18  C   UNL     1      10.764   1.934 -31.362  1.00  0.00     0.004 C 
ENDBRANCH  16  17
ENDBRANCH  15  16
ENDBRANCH  14  15
ENDBRANCH  13  14
ENDBRANCH  12  13
ENDBRANCH  11  12
ENDBRANCH   1  11
TORSDOF 14
ENDMDL
MODEL 5
REMARK VINA RESULT:    -4.979      2.974      5.711
REMARK INTER + INTRA:         -10.733
REMARK INTER:                  -9.573
REMARK INTRA:                  -1.160
REMARK UNBOUND:                -1.679
REMARK SMILES CCCCCCCCCCCCCCCC(=O)[O-]
REMARK SMILES IDX 9 1 10 2 11 3 12 4 13 5 14 6 15 7 16 8 17 9 18 10 8 11 7 12
REMARK SMILES IDX 6 13 5 14 4 15 3 16 2 17 1 18
REMARK H PARENT
REMARK Flexibility Score: inf
ROOT
ATOM      1  C   UNL     1      10.424   2.026 -31.997  1.00  0.00     0.000 C 
ENDROOT
BRANCH   1   2
ATOM      2  C   UNL     1      11.468   2.695 -31.089  1.00  0.00     0.000 C 
BRANCH   2   3
ATOM      3  C   UNL     1      11.296   2.312 -29.609  1.00  0.00     0.000 C 
BRANCH   3   4
ATOM      4  C   UNL     1      10.425   1.059 -29.420  1.00  0.00     0.000 C 
BRANCH   4   5
ATOM      5  C   UNL     1       9.726   1.025 -28.053  1.00  0.00     0.000 C 
BRANCH   5   6
ATOM      6  C   UNL     1       8.248   1.412 -28.183  1.00  0.00     0.006 C 
BRANCH   6   7
ATOM      7  C   UNL     1       7.478   0.373 -29.004  1.00  0.00     0.053 C 
BRANCH   7   8
ATOM      8  C   UNL     1       6.778   1.027 -30.152  1.00  0.00     0.041 C 
ATOM      9  O   UNL     1       6.378   0.338 -31.127  1.00  0.00    -0.550 OA
ATOM     10  O   UNL     1       6.607   2.406 -30.169  1.00  0.00    -0.550 OA
ENDBRANCH   7   8
ENDBRANCH   6   7
ENDBRANCH   5   6
ENDBRANCH   4   5
ENDBRANCH   3   4
ENDBRANCH   2   3
ENDBRANCH   1   2
BRANCH   1  11
ATOM     11  C   UNL     1      11.039   1.439 -33.279  1.00  0.00     0.000 C 
BRANCH  11  12
ATOM     12  C   UNL     1      10.043   1.398 -34.448  1.00  0.00    -0.000 C 
BRANCH  12  13
ATOM     13  C   UNL     1       8.581   1.354 -33.979  1.00  0.00    -0.000 C 
BRANCH  13  14
ATOM     14  C   UNL     1       7.626   1.740 -35.115  1.00  0.00    -0.000 C 
BRANCH  14  15
ATOM     15  C   UNL     1       8.405   2.174 -36.366  1.00  0.00    -0.000 C 
BRANCH  15  16
ATOM     16  C   UNL     1       7.954   1.435 -37.639  1.00  0.00    -0.000 C 
BRANCH  16  17
ATOM     17  C   UNL     1       9.017   0.516 -38.266  1.00  0.00    -0.003 C 
ATOM     18  C   UNL     1       8.684  -0.969 -38.122  1.00  0.00     0.004 C 
ENDBRANCH  16  17
ENDBRANCH  15  16
ENDBRANCH  14  15
ENDBRANCH  13  14
ENDBRANCH  12  13
ENDBRANCH  11  12
ENDBRANCH   1  11
TORSDOF 14
ENDMDL
MODEL 6
REMARK VINA RESULT:    -4.941      3.712      6.957
REMARK INTER + INTRA:         -10.664
REMARK INTER:                  -9.605
REMARK INTRA:                  -1.059
REMARK UNBOUND:                -1.679
REMARK SMILES CCCCCCCCCCCCCCCC(=O)[O-]
REMARK SMILES IDX 9 1 10 2 11 3 12 4 13 5 14 6 15 7 16 8 17 9 18 10 8 11 7 12
REMARK SMILES IDX 6 13 5 14 4 15 3 16 2 17 1 18
REMARK H PARENT
REMARK Flexibility Score: inf
ROOT
ATOM      1  C   UNL     1      10.748   2.112 -31.793  1.00  0.00     0.000 C 
ENDROOT
BRANCH   1   2
ATOM      2  C   UNL     1      11.051   1.220 -33.008  1.00  0.00     0.000 C 
BRANCH   2   3
ATOM      3  C   UNL     1      11.554   2.023 -34.220  1.00  0.00     0.000 C 
BRANCH   3   4
ATOM      4  C   UNL     1      10.675   1.828 -35.465  1.00  0.00     0.000 C 
BRANCH   4   5
ATOM      5  C   UNL     1       9.236   1.417 -35.115  1.00  0.00     0.000 C 
BRANCH   5   6
ATOM      6  C   UNL     1       8.306   1.598 -36.321  1.00  0.00     0.006 C 
BRANCH   6   7
ATOM      7  C   UNL     1       7.815   0.244 -36.844  1.00  0.00     0.053 C 
BRANCH   7   8
ATOM      8  C   UNL     1       8.477  -0.087 -38.143  1.00  0.00     0.041 C 
ATOM      9  O   UNL     1       9.432   0.618 -38.565  1.00  0.00    -0.550 OA
ATOM     10  O   UNL     1       8.011  -1.146 -38.913  1.00  0.00    -0.550 OA
ENDBRANCH   7   8
ENDBRANCH   6   7
ENDBRANCH   5   6
ENDBRANCH   4   5
ENDBRANCH   3   4
ENDBRANCH   2   3
ENDBRANCH   1   2
BRANCH   1  11
ATOM     11  C   UNL     1       9.591   1.573 -30.934  1.00  0.00     0.000 C 
BRANCH  11  12
ATOM     12  C   UNL     1       8.213   1.846 -31.559  1.00  0.00    -0.000 C 
BRANCH  12  13
ATOM     13  C   UNL     1       7.074   1.779 -30.531  1.00  0.00    -0.000 C 
BRANCH  13  14
ATOM     14  C   UNL     1       6.377   0.413 -30.570  1.00  0.00    -0.000 C 
BRANCH  14  15
ATOM     15  C   UNL     1       6.303  -0.208 -29.168  1.00  0.00    -0.000 C 
BRANCH  15  16
ATOM     16  C   UNL     1       7.439   0.265 -28.242  1.00  0.00    -0.000 C 
BRANCH  16  17
ATOM     17  C   UNL     1       7.286  -0.146 -26.768  1.00  0.00    -0.003 C 
ATOM     18  C   UNL     1       6.120  -1.106 -26.532  1.00  0.00     0.004 C 
ENDBRANCH  16  17
ENDBRANCH  15  16
ENDBRANCH  14  15
ENDBRANCH  13  14
ENDBRANCH  12  13
ENDBRANCH  11  12
ENDBRANCH   1  11
TORSDOF 14
ENDMDL
MODEL 7
REMARK VINA RESULT:    -4.862      3.119      5.734
REMARK INTER + INTRA:         -10.520
REMARK INTER:                  -8.981
REMARK INTRA:                  -1.539
REMARK UNBOUND:                -1.679
REMARK SMILES CCCCCCCCCCCCCCCC(=O)[O-]
REMARK SMILES IDX 9 1 10 2 11 3 12 4 13 5 14 6 15 7 16 8 17 9 18 10 8 11 7 12
REMARK SMILES IDX 6 13 5 14 4 15 3 16 2 17 1 18
REMARK H PARENT
REMARK Flexibility Score: inf
ROOT
ATOM      1  C   UNL     1       5.488   0.557 -34.320  1.00  0.00     0.000 C 
ENDROOT
BRANCH   1   2
ATOM      2  C   UNL     1       6.145  -0.616 -35.066  1.00  0.00     0.000 C 
BRANCH   2   3
ATOM      3  C   UNL     1       7.321  -0.169 -35.951  1.00  0.00     0.000 C 
BRANCH   3   4
ATOM      4  C   UNL     1       7.201   1.298 -36.396  1.00  0.00     0.000 C 
BRANCH   4   5
ATOM      5  C   UNL     1       8.409   2.146 -35.971  1.00  0.00     0.000 C 
BRANCH   5   6
ATOM      6  C   UNL     1       9.626   1.259 -35.677  1.00  0.00     0.006 C 
BRANCH   6   7
ATOM      7  C   UNL     1      10.141   1.488 -34.253  1.00  0.00     0.053 C 
BRANCH   7   8
ATOM      8  C   UNL     1      11.553   1.980 -34.279  1.00  0.00     0.041 C 
ATOM      9  O   UNL     1      12.171   2.192 -33.203  1.00  0.00    -0.550 OA
ATOM     10  O   UNL     1      12.173   2.251 -35.492  1.00  0.00    -0.550 OA
ENDBRANCH   7   8
ENDBRANCH   6   7
ENDBRANCH   5   6
ENDBRANCH   4   5
ENDBRANCH   3   4
ENDBRANCH   2   3
ENDBRANCH   1   2
BRANCH   1  11
ATOM     11  C   UNL     1       5.852   0.590 -32.825  1.00  0.00     0.000 C 
BRANCH  11  12
ATOM     12  C   UNL     1       6.759   1.776 -32.464  1.00  0.00    -0.000 C 
BRANCH  12  13
ATOM     13  C   UNL     1       7.686   1.472 -31.277  1.00  0.00    -0.000 C 
BRANCH  13  14
ATOM     14  C   UNL     1       6.972   1.723 -29.943  1.00  0.00    -0.000 C 
BRANCH  14  15
ATOM     15  C   UNL     1       7.099   0.508 -29.013  1.00  0.00    -0.000 C 
BRANCH  15  16
ATOM     16  C   UNL     1       7.828   0.834 -27.697  1.00  0.00    -0.000 C 
BRANCH  16  17
ATOM     17  C   UNL     1       9.211   1.487 -27.868  1.00  0.00    -0.003 C 
ATOM     18  C   UNL     1      10.228   0.567 -28.543  1.00  0.00     0.004 C 
ENDBRANCH  16  17
ENDBRANCH  15  16
ENDBRANCH  14  15
ENDBRANCH  13  14
ENDBRANCH  12  13
ENDBRANCH  11  12
ENDBRANCH   1  11
TORSDOF 14
ENDMDL
MODEL 8
REMARK VINA RESULT:    -4.816      9.465     11.639
REMARK INTER + INTRA:         -10.437
REMARK INTER:                  -7.855
REMARK INTRA:                  -2.582
REMARK UNBOUND:                -1.679
REMARK SMILES CCCCCCCCCCCCCCCC(=O)[O-]
REMARK SMILES IDX 9 1 10 2 11 3 12 4 13 5 14 6 15 7 16 8 17 9 18 10 8 11 7 12
REMARK SMILES IDX 6 13 5 14 4 15 3 16 2 17 1 18
REMARK H PARENT
REMARK Flexibility Score: inf
ROOT
ATOM      1  C   UNL     1       7.409  -7.876 -33.719  1.00  0.00     0.000 C 
ENDROOT
BRANCH   1   2
ATOM      2  C   UNL     1       7.942  -9.146 -33.037  1.00  0.00     0.000 C 
BRANCH   2   3
ATOM      3  C   UNL     1       9.275  -8.909 -32.306  1.00  0.00     0.000 C 
BRANCH   3   4
ATOM      4  C   UNL     1       9.467  -9.853 -31.108  1.00  0.00     0.000 C 
BRANCH   4   5
ATOM      5  C   UNL     1       8.560 -11.091 -31.178  1.00  0.00     0.000 C 
BRANCH   5   6
ATOM      6  C   UNL     1       7.996 -11.437 -29.795  1.00  0.00     0.006 C 
BRANCH   6   7
ATOM      7  C   UNL     1       8.953 -10.992 -28.684  1.00  0.00     0.053 C 
BRANCH   7   8
ATOM      8  C   UNL     1       9.563 -12.181 -28.012  1.00  0.00     0.041 C 
ATOM      9  O   UNL     1      10.689 -12.609 -28.380  1.00  0.00    -0.550 OA
ATOM     10  O   UNL     1       8.869 -12.847 -27.010  1.00  0.00    -0.550 OA
ENDBRANCH   7   8
ENDBRANCH   6   7
ENDBRANCH   5   6
ENDBRANCH   4   5
ENDBRANCH   3   4
ENDBRANCH   2   3
ENDBRANCH   1   2
BRANCH   1  11
ATOM     11  C   UNL     1       7.955  -6.585 -33.083  1.00  0.00     0.000 C 
BRANCH  11  12
ATOM     12  C   UNL     1       7.041  -6.039 -31.975  1.00  0.00    -0.000 C 
BRANCH  12  13
ATOM     13  C   UNL     1       7.815  -5.655 -30.706  1.00  0.00    -0.000 C 
BRANCH  13  14
ATOM     14  C   UNL     1       7.122  -6.203 -29.452  1.00  0.00    -0.000 C 
BRANCH  14  15
ATOM     15  C   UNL     1       7.175  -7.737 -29.419  1.00  0.00    -0.000 C 
BRANCH  15  16
ATOM     16  C   UNL     1       5.779  -8.384 -29.364  1.00  0.00    -0.000 C 
BRANCH  16  17
ATOM     17  C   UNL     1       5.355  -9.118 -30.648  1.00  0.00    -0.003 C 
ATOM     18  C   UNL     1       4.362  -8.320 -31.493  1.00  0.00     0.004 C 
ENDBRANCH  16  17
ENDBRANCH  15  16
ENDBRANCH  14  15
ENDBRANCH  13  14
ENDBRANCH  12  13
ENDBRANCH  11  12
ENDBRANCH   1  11
TORSDOF 14
ENDMDL
MODEL 9
REMARK VINA RESULT:    -4.773      9.635     11.505
REMARK INTER + INTRA:         -10.359
REMARK INTER:                  -7.980
REMARK INTRA:                  -2.379
REMARK UNBOUND:                -1.679
REMARK SMILES CCCCCCCCCCCCCCCC(=O)[O-]
REMARK SMILES IDX 9 1 10 2 11 3 12 4 13 5 14 6 15 7 16 8 17 9 18 10 8 11 7 12
REMARK SMILES IDX 6 13 5 14 4 15 3 16 2 17 1 18
REMARK H PARENT
REMARK Flexibility Score: inf
ROOT
ATOM      1  C   UNL     1       4.969  -9.069 -32.463  1.00  0.00     0.000 C 
ENDROOT
BRANCH   1   2
ATOM      2  C   UNL     1       5.043  -8.727 -30.966  1.00  0.00     0.000 C 
BRANCH   2   3
ATOM      3  C   UNL     1       5.885  -9.738 -30.169  1.00  0.00     0.000 C 
BRANCH   3   4
ATOM      4  C   UNL     1       6.818 -10.567 -31.067  1.00  0.00     0.000 C 
BRANCH   4   5
ATOM      5  C   UNL     1       8.198 -10.797 -30.434  1.00  0.00     0.000 C 
BRANCH   5   6
ATOM      6  C   UNL     1       8.132 -10.655 -28.908  1.00  0.00     0.006 C 
BRANCH   6   7
ATOM      7  C   UNL     1       9.471 -11.027 -28.263  1.00  0.00     0.053 C 
BRANCH   7   8
ATOM      8  C   UNL     1       9.478 -12.468 -27.864  1.00  0.00     0.041 C 
ATOM      9  O   UNL     1       9.877 -13.347 -28.671  1.00  0.00    -0.550 OA
ATOM     10  O   UNL     1       9.000 -12.847 -26.616  1.00  0.00    -0.550 OA
ENDBRANCH   7   8
ENDBRANCH   6   7
ENDBRANCH   5   6
ENDBRANCH   4   5
ENDBRANCH   3   4
ENDBRANCH   2   3
ENDBRANCH   1   2
BRANCH   1  11
ATOM     11  C   UNL     1       5.455  -7.918 -33.361  1.00  0.00     0.000 C 
BRANCH  11  12
ATOM     12  C   UNL     1       6.893  -8.125 -33.862  1.00  0.00    -0.000 C 
BRANCH  12  13
ATOM     13  C   UNL     1       7.942  -7.514 -32.920  1.00  0.00    -0.000 C 
BRANCH  13  14
ATOM     14  C   UNL     1       7.570  -6.076 -32.542  1.00  0.00    -0.000 C 
BRANCH  14  15
ATOM     15  C   UNL     1       7.504  -5.906 -31.017  1.00  0.00    -0.000 C 
BRANCH  15  16
ATOM     16  C   UNL     1       8.261  -7.011 -30.258  1.00  0.00    -0.000 C 
BRANCH  16  17
ATOM     17  C   UNL     1       7.993  -7.057 -28.744  1.00  0.00    -0.003 C 
ATOM     18  C   UNL     1       9.250  -6.826 -27.906  1.00  0.00     0.004 C 
ENDBRANCH  16  17
ENDBRANCH  15  16
ENDBRANCH  14  15
ENDBRANCH  13  14
ENDBRANCH  12  13
ENDBRANCH  11  12
ENDBRANCH   1  11
TORSDOF 14
ENDMDL
