MODEL 1
REMARK VINA RESULT:    -3.392      0.000      0.000
REMARK INTER + INTRA:          -7.246
REMARK INTER:                  -6.168
REMARK INTRA:                  -1.078
REMARK UNBOUND:                -1.078
REMARK SMILES CCCCCCCCCCCCCC[C@@H](C)C(=O)[O-]
REMARK SMILES IDX 9 1 10 2 11 3 12 4 13 5 14 6 15 7 16 8 17 9 18 10 19 11 8 12
REMARK SMILES IDX 7 13 6 14 5 15 4 16 3 17 2 18 1 19
REMARK H PARENT
REMARK Flexibility Score: inf
ROOT
ATOM      1  C   UNL     1     -15.883  10.232   8.704  1.00  0.00     0.000 C 
ENDROOT
BRANCH   1   2
ATOM      2  C   UNL     1     -15.559   8.738   8.519  1.00  0.00     0.000 C 
BRANCH   2   3
ATOM      3  C   UNL     1     -16.787   7.842   8.782  1.00  0.00     0.000 C 
BRANCH   3   4
ATOM      4  C   UNL     1     -16.763   7.152  10.158  1.00  0.00     0.000 C 
BRANCH   4   5
ATOM      5  C   UNL     1     -15.338   6.890  10.669  1.00  0.00     0.001 C 
BRANCH   5   6
ATOM      6  C   UNL     1     -15.250   6.826  12.207  1.00  0.00     0.009 C 
BRANCH   6   7
ATOM      7  C   UNL     1     -14.844   5.451  12.787  1.00  0.00     0.032 C 
ATOM      8  C   UNL     1     -15.337   4.280  11.926  1.00  0.00     0.014 C 
BRANCH   7   9
ATOM      9  C   UNL     1     -13.347   5.385  12.913  1.00  0.00     0.044 C 
ATOM     10  O   UNL     1     -12.682   6.435  13.122  1.00  0.00    -0.550 OA
ATOM     11  O   UNL     1     -12.684   4.168  12.793  1.00  0.00    -0.550 OA
ENDBRANCH   7   9
ENDBRANCH   6   7
ENDBRANCH   5   6
ENDBRANCH   4   5
ENDBRANCH   3   4
ENDBRANCH   2   3
ENDBRANCH   1   2
BRANCH   1  12
ATOM     12  C   UNL     1     -16.040  10.976   7.369  1.00  0.00     0.000 C 
BRANCH  12  13
ATOM     13  C   UNL     1     -16.018  12.503   7.535  1.00  0.00    -0.000 C 
BRANCH  13  14
ATOM     14  C   UNL     1     -14.785  13.110   6.847  1.00  0.00    -0.000 C 
BRANCH  14  15
ATOM     15  C   UNL     1     -13.721  13.592   7.848  1.00  0.00    -0.000 C 
BRANCH  15  16
ATOM     16  C   UNL     1     -14.010  13.241   9.319  1.00  0.00    -0.000 C 
BRANCH  16  17
ATOM     17  C   UNL     1     -14.098  14.470  10.248  1.00  0.00    -0.000 C 
BRANCH  17  18
ATOM     18  C   UNL     1     -14.535  14.095  11.673  1.00  0.00    -0.003 C 
ATOM     19  C   UNL     1     -15.266  12.755  11.689  1.00  0.00     0.004 C 
ENDBRANCH  17  18
ENDBRANCH  16  17
ENDBRANCH  15  16
ENDBRANCH  14  15
ENDBRANCH  13  14
ENDBRANCH  12  13
ENDBRANCH   1  12
TORSDOF 14
ENDMDL
MODEL 2
REMARK VINA RESULT:    -3.365      1.029      1.877
REMARK INTER + INTRA:          -7.197
REMARK INTER:                  -5.647
REMARK INTRA:                  -1.550
REMARK UNBOUND:                -1.078
REMARK SMILES CCCCCCCCCCCCCC[C@@H](C)C(=O)[O-]
REMARK SMILES IDX 9 1 10 2 11 3 12 4 13 5 14 6 15 7 16 8 17 9 18 10 19 11 8 12
REMARK SMILES IDX 7 13 6 14 5 15 4 16 3 17 2 18 1 19
REMARK H PARENT
REMARK Flexibility Score: inf
ROOT
ATOM      1  C   UNL     1     -16.950  11.112   8.359  1.00  0.00     0.000 C 
ENDROOT
BRANCH   1   2
ATOM      2  C   UNL     1     -15.997  10.211   7.552  1.00  0.00     0.000 C 
BRANCH   2   3
ATOM      3  C   UNL     1     -15.580   8.954   8.343  1.00  0.00     0.000 C 
BRANCH   3   4
ATOM      4  C   UNL     1     -16.758   8.031   8.703  1.00  0.00     0.000 C 
BRANCH   4   5
ATOM      5  C   UNL     1     -16.691   7.516  10.150  1.00  0.00     0.001 C 
BRANCH   5   6
ATOM      6  C   UNL     1     -15.258   7.174  10.605  1.00  0.00     0.009 C 
BRANCH   6   7
ATOM      7  C   UNL     1     -15.162   6.209  11.809  1.00  0.00     0.032 C 
ATOM      8  C   UNL     1     -16.017   4.949  11.623  1.00  0.00     0.014 C 
BRANCH   7   9
ATOM      9  C   UNL     1     -13.726   5.813  12.017  1.00  0.00     0.044 C 
ATOM     10  O   UNL     1     -12.938   6.584  12.628  1.00  0.00    -0.550 OA
ATOM     11  O   UNL     1     -13.254   4.599  11.531  1.00  0.00    -0.550 OA
ENDBRANCH   7   9
ENDBRANCH   6   7
ENDBRANCH   5   6
ENDBRANCH   4   5
ENDBRANCH   3   4
ENDBRANCH   2   3
ENDBRANCH   1   2
BRANCH   1  12
ATOM     12  C   UNL     1     -16.265  12.382   8.883  1.00  0.00     0.000 C 
BRANCH  12  13
ATOM     13  C   UNL     1     -14.743  12.365   8.672  1.00  0.00    -0.000 C 
BRANCH  13  14
ATOM     14  C   UNL     1     -14.112  13.688   9.133  1.00  0.00    -0.000 C 
BRANCH  14  15
ATOM     15  C   UNL     1     -14.571  14.110  10.538  1.00  0.00    -0.000 C 
BRANCH  15  16
ATOM     16  C   UNL     1     -13.592  13.755  11.673  1.00  0.00    -0.000 C 
BRANCH  16  17
ATOM     17  C   UNL     1     -14.217  12.892  12.790  1.00  0.00    -0.000 C 
BRANCH  17  18
ATOM     18  C   UNL     1     -15.697  12.577  12.525  1.00  0.00    -0.003 C 
ATOM     19  C   UNL     1     -15.916  11.078  12.339  1.00  0.00     0.004 C 
ENDBRANCH  17  18
ENDBRANCH  16  17
ENDBRANCH  15  16
ENDBRANCH  14  15
ENDBRANCH  13  14
ENDBRANCH  12  13
ENDBRANCH   1  12
TORSDOF 14
ENDMDL
MODEL 3
REMARK VINA RESULT:    -3.332      3.014      6.947
REMARK INTER + INTRA:          -7.137
REMARK INTER:                  -5.923
REMARK INTRA:                  -1.214
REMARK UNBOUND:                -1.078
REMARK SMILES CCCCCCCCCCCCCC[C@@H](C)C(=O)[O-]
REMARK SMILES IDX 9 1 10 2 11 3 12 4 13 5 14 6 15 7 16 8 17 9 18 10 19 11 8 12
REMARK SMILES IDX 7 13 6 14 5 15 4 16 3 17 2 18 1 19
REMARK H PARENT
REMARK Flexibility Score: inf
ROOT
ATOM      1  C   UNL     1     -16.010  10.630   7.127  1.00  0.00     0.000 C 
ENDROOT
BRANCH   1   2
ATOM      2  C   UNL     1     -16.202  12.149   7.288  1.00  0.00     0.000 C 
BRANCH   2   3
ATOM      3  C   UNL     1     -14.884  12.925   7.088  1.00  0.00     0.000 C 
BRANCH   3   4
ATOM      4  C   UNL     1     -14.151  13.247   8.402  1.00  0.00     0.000 C 
BRANCH   4   5
ATOM      5  C   UNL     1     -15.109  13.422   9.591  1.00  0.00     0.001 C 
BRANCH   5   6
ATOM      6  C   UNL     1     -14.902  12.365  10.694  1.00  0.00     0.009 C 
BRANCH   6   7
ATOM      7  C   UNL     1     -15.455  12.748  12.087  1.00  0.00     0.032 C 
ATOM      8  C   UNL     1     -15.277  11.627  13.119  1.00  0.00     0.014 C 
BRANCH   7   9
ATOM      9  C   UNL     1     -14.763  13.992  12.573  1.00  0.00     0.044 C 
ATOM     10  O   UNL     1     -15.420  15.050  12.763  1.00  0.00    -0.550 OA
ATOM     11  O   UNL     1     -13.393  13.987  12.810  1.00  0.00    -0.550 OA
ENDBRANCH   7   9
ENDBRANCH   6   7
ENDBRANCH   5   6
ENDBRANCH   4   5
ENDBRANCH   3   4
ENDBRANCH   2   3
ENDBRANCH   1   2
BRANCH   1  12
ATOM     12  C   UNL     1     -17.100   9.815   7.840  1.00  0.00     0.000 C 
BRANCH  12  13
ATOM     13  C   UNL     1     -16.721   9.457   9.286  1.00  0.00    -0.000 C 
BRANCH  13  14
ATOM     14  C   UNL     1     -15.560   8.452   9.314  1.00  0.00    -0.000 C 
BRANCH  14  15
ATOM     15  C   UNL     1     -15.884   7.190  10.131  1.00  0.00    -0.000 C 
BRANCH  15  16
ATOM     16  C   UNL     1     -15.208   7.124  11.514  1.00  0.00    -0.000 C 
BRANCH  16  17
ATOM     17  C   UNL     1     -13.965   6.210  11.558  1.00  0.00    -0.000 C 
BRANCH  17  18
ATOM     18  C   UNL     1     -14.335   4.730  11.747  1.00  0.00    -0.003 C 
ATOM     19  C   UNL     1     -13.089   3.876  11.963  1.00  0.00     0.004 C 
ENDBRANCH  17  18
ENDBRANCH  16  17
ENDBRANCH  15  16
ENDBRANCH  14  15
ENDBRANCH  13  14
ENDBRANCH  12  13
ENDBRANCH   1  12
TORSDOF 14
ENDMDL
MODEL 4
REMARK VINA RESULT:    -3.282      3.064      6.870
REMARK INTER + INTRA:          -7.047
REMARK INTER:                  -5.123
REMARK INTRA:                  -1.924
REMARK UNBOUND:                -1.078
REMARK SMILES CCCCCCCCCCCCCC[C@@H](C)C(=O)[O-]
REMARK SMILES IDX 9 1 10 2 11 3 12 4 13 5 14 6 15 7 16 8 17 9 18 10 19 11 8 12
REMARK SMILES IDX 7 13 6 14 5 15 4 16 3 17 2 18 1 19
REMARK H PARENT
REMARK Flexibility Score: inf
ROOT
ATOM      1  C   UNL     1     -15.784  10.420   7.949  1.00  0.00     0.000 C 
ENDROOT
BRANCH   1   2
ATOM      2  C   UNL     1     -14.877  11.602   8.340  1.00  0.00     0.000 C 
BRANCH   2   3
ATOM      3  C   UNL     1     -15.628  12.948   8.295  1.00  0.00     0.000 C 
BRANCH   3   4
ATOM      4  C   UNL     1     -17.048  12.884   8.886  1.00  0.00     0.000 C 
BRANCH   4   5
ATOM      5  C   UNL     1     -17.060  12.989  10.420  1.00  0.00     0.001 C 
BRANCH   5   6
ATOM      6  C   UNL     1     -16.227  14.172  10.951  1.00  0.00     0.009 C 
BRANCH   6   7
ATOM      7  C   UNL     1     -15.197  13.813  12.048  1.00  0.00     0.032 C 
ATOM      8  C   UNL     1     -15.265  12.336  12.457  1.00  0.00     0.014 C 
BRANCH   7   9
ATOM      9  C   UNL     1     -13.812  14.133  11.555  1.00  0.00     0.044 C 
ATOM     10  O   UNL     1     -12.805  13.780  12.225  1.00  0.00    -0.550 OA
ATOM     11  O   UNL     1     -13.632  14.826  10.364  1.00  0.00    -0.550 OA
ENDBRANCH   7   9
ENDBRANCH   6   7
ENDBRANCH   5   6
ENDBRANCH   4   5
ENDBRANCH   3   4
ENDBRANCH   2   3
ENDBRANCH   1   2
BRANCH   1  12
ATOM     12  C   UNL     1     -15.272   9.076   8.489  1.00  0.00     0.000 C 
BRANCH  12  13
ATOM     13  C   UNL     1     -16.292   8.376   9.400  1.00  0.00    -0.000 C 
BRANCH  13  14
ATOM     14  C   UNL     1     -16.735   9.306  10.540  1.00  0.00    -0.000 C 
BRANCH  14  15
ATOM     15  C   UNL     1     -16.284   8.809  11.924  1.00  0.00    -0.000 C 
BRANCH  15  16
ATOM     16  C   UNL     1     -16.670   7.352  12.246  1.00  0.00    -0.000 C 
BRANCH  16  17
ATOM     17  C   UNL     1     -15.504   6.506  12.800  1.00  0.00    -0.000 C 
BRANCH  17  18
ATOM     18  C   UNL     1     -14.214   6.686  11.985  1.00  0.00    -0.003 C 
ATOM     19  C   UNL     1     -13.648   5.338  11.546  1.00  0.00     0.004 C 
ENDBRANCH  17  18
ENDBRANCH  16  17
ENDBRANCH  15  16
ENDBRANCH  14  15
ENDBRANCH  13  14
ENDBRANCH  12  13
ENDBRANCH   1  12
TORSDOF 14
ENDMDL
MODEL 5
REMARK VINA RESULT:    -3.223      1.397      2.477
REMARK INTER + INTRA:          -6.939
REMARK INTER:                  -5.121
REMARK INTRA:                  -1.818
REMARK UNBOUND:                -1.078
REMARK SMILES CCCCCCCCCCCCCC[C@@H](C)C(=O)[O-]
REMARK SMILES IDX 9 1 10 2 11 3 12 4 13 5 14 6 15 7 16 8 17 9 18 10 19 11 8 12
REMARK SMILES IDX 7 13 6 14 5 15 4 16 3 17 2 18 1 19
REMARK H PARENT
REMARK Flexibility Score: inf
ROOT
ATOM      1  C   UNL     1     -15.457  11.089   8.808  1.00  0.00     0.000 C 
ENDROOT
BRANCH   1   2
ATOM      2  C   UNL     1     -15.539   9.673   8.207  1.00  0.00     0.000 C 
BRANCH   2   3
ATOM      3  C   UNL     1     -16.950   9.065   8.348  1.00  0.00     0.000 C 
BRANCH   3   4
ATOM      4  C   UNL     1     -16.966   7.700   9.058  1.00  0.00     0.000 C 
BRANCH   4   5
ATOM      5  C   UNL     1     -15.646   7.389   9.781  1.00  0.00     0.001 C 
BRANCH   5   6
ATOM      6  C   UNL     1     -15.768   7.455  11.317  1.00  0.00     0.009 C 
BRANCH   6   7
ATOM      7  C   UNL     1     -15.439   6.140  12.062  1.00  0.00     0.032 C 
ATOM      8  C   UNL     1     -16.211   4.938  11.501  1.00  0.00     0.014 C 
BRANCH   7   9
ATOM      9  C   UNL     1     -13.961   5.873  11.973  1.00  0.00     0.044 C 
ATOM     10  O   UNL     1     -13.135   6.784  12.246  1.00  0.00    -0.550 OA
ATOM     11  O   UNL     1     -13.496   4.623  11.581  1.00  0.00    -0.550 OA
ENDBRANCH   7   9
ENDBRANCH   6   7
ENDBRANCH   5   6
ENDBRANCH   4   5
ENDBRANCH   3   4
ENDBRANCH   2   3
ENDBRANCH   1   2
BRANCH   1  12
ATOM     12  C   UNL     1     -16.645  11.414   9.725  1.00  0.00     0.000 C 
BRANCH  12  13
ATOM     13  C   UNL     1     -16.364  11.081  11.199  1.00  0.00    -0.000 C 
BRANCH  13  14
ATOM     14  C   UNL     1     -16.756  12.255  12.109  1.00  0.00    -0.000 C 
BRANCH  14  15
ATOM     15  C   UNL     1     -17.084  13.535  11.322  1.00  0.00    -0.000 C 
BRANCH  15  16
ATOM     16  C   UNL     1     -16.050  14.668  11.468  1.00  0.00    -0.000 C 
BRANCH  16  17
ATOM     17  C   UNL     1     -14.823  14.286  12.323  1.00  0.00    -0.000 C 
BRANCH  17  18
ATOM     18  C   UNL     1     -13.613  13.892  11.463  1.00  0.00    -0.003 C 
ATOM     19  C   UNL     1     -13.834  14.263   9.999  1.00  0.00     0.004 C 
ENDBRANCH  17  18
ENDBRANCH  16  17
ENDBRANCH  15  16
ENDBRANCH  14  15
ENDBRANCH  13  14
ENDBRANCH  12  13
ENDBRANCH   1  12
TORSDOF 14
ENDMDL
MODEL 6
REMARK VINA RESULT:    -3.180      3.675      7.730
REMARK INTER + INTRA:          -6.862
REMARK INTER:                  -5.511
REMARK INTRA:                  -1.351
REMARK UNBOUND:                -1.078
REMARK SMILES CCCCCCCCCCCCCC[C@@H](C)C(=O)[O-]
REMARK SMILES IDX 9 1 10 2 11 3 12 4 13 5 14 6 15 7 16 8 17 9 18 10 19 11 8 12
REMARK SMILES IDX 7 13 6 14 5 15 4 16 3 17 2 18 1 19
REMARK H PARENT
REMARK Flexibility Score: inf
ROOT
ATOM      1  C   UNL     1     -14.900  11.593  12.837  1.00  0.00     0.000 C 
ENDROOT
BRANCH   1   2
ATOM      2  C   UNL     1     -15.112  13.091  13.125  1.00  0.00     0.000 C 
BRANCH   2   3
ATOM      3  C   UNL     1     -16.527  13.562  12.732  1.00  0.00     0.000 C 
BRANCH   3   4
ATOM      4  C   UNL     1     -16.560  14.426  11.459  1.00  0.00     0.000 C 
BRANCH   4   5
ATOM      5  C   UNL     1     -16.280  13.618  10.183  1.00  0.00     0.001 C 
BRANCH   5   6
ATOM      6  C   UNL     1     -14.788  13.597   9.796  1.00  0.00     0.009 C 
BRANCH   6   7
ATOM      7  C   UNL     1     -14.400  12.553   8.722  1.00  0.00     0.032 C 
ATOM      8  C   UNL     1     -15.432  11.425   8.599  1.00  0.00     0.014 C 
BRANCH   7   9
ATOM      9  C   UNL     1     -14.246  13.239   7.392  1.00  0.00     0.044 C 
ATOM     10  O   UNL     1     -13.169  13.825   7.103  1.00  0.00    -0.550 OA
ATOM     11  O   UNL     1     -15.292  13.239   6.476  1.00  0.00    -0.550 OA
ENDBRANCH   7   9
ENDBRANCH   6   7
ENDBRANCH   5   6
ENDBRANCH   4   5
ENDBRANCH   3   4
ENDBRANCH   2   3
ENDBRANCH   1   2
BRANCH   1  12
ATOM     12  C   UNL     1     -16.196  10.777  12.952  1.00  0.00     0.000 C 
BRANCH  12  13
ATOM     13  C   UNL     1     -16.423   9.853  11.746  1.00  0.00    -0.000 C 
BRANCH  13  14
ATOM     14  C   UNL     1     -16.028   8.407  12.082  1.00  0.00    -0.000 C 
BRANCH  14  15
ATOM     15  C   UNL     1     -15.446   7.652  10.876  1.00  0.00    -0.000 C 
BRANCH  15  16
ATOM     16  C   UNL     1     -14.607   6.411  11.232  1.00  0.00    -0.000 C 
BRANCH  16  17
ATOM     17  C   UNL     1     -13.717   6.597  12.479  1.00  0.00    -0.000 C 
BRANCH  17  18
ATOM     18  C   UNL     1     -13.001   5.299  12.884  1.00  0.00    -0.003 C 
ATOM     19  C   UNL     1     -13.441   4.131  12.006  1.00  0.00     0.004 C 
ENDBRANCH  17  18
ENDBRANCH  16  17
ENDBRANCH  15  16
ENDBRANCH  14  15
ENDBRANCH  13  14
ENDBRANCH  12  13
ENDBRANCH   1  12
TORSDOF 14
ENDMDL
MODEL 7
REMARK VINA RESULT:    -3.085      3.027      7.735
REMARK INTER + INTRA:          -6.688
REMARK INTER:                  -5.605
REMARK INTRA:                  -1.083
REMARK UNBOUND:                -1.078
REMARK SMILES CCCCCCCCCCCCCC[C@@H](C)C(=O)[O-]
REMARK SMILES IDX 9 1 10 2 11 3 12 4 13 5 14 6 15 7 16 8 17 9 18 10 19 11 8 12
REMARK SMILES IDX 7 13 6 14 5 15 4 16 3 17 2 18 1 19
REMARK H PARENT
REMARK Flexibility Score: inf
ROOT
ATOM      1  C   UNL     1     -16.739   9.136  10.038  1.00  0.00     0.000 C 
ENDROOT
BRANCH   1   2
ATOM      2  C   UNL     1     -16.656   9.433  11.546  1.00  0.00     0.000 C 
BRANCH   2   3
ATOM      3  C   UNL     1     -16.970  10.910  11.865  1.00  0.00     0.000 C 
BRANCH   3   4
ATOM      4  C   UNL     1     -15.848  11.627  12.636  1.00  0.00     0.000 C 
BRANCH   4   5
ATOM      5  C   UNL     1     -15.813  13.140  12.367  1.00  0.00     0.001 C 
BRANCH   5   6
ATOM      6  C   UNL     1     -15.973  13.493  10.875  1.00  0.00     0.009 C 
BRANCH   6   7
ATOM      7  C   UNL     1     -14.698  14.032  10.185  1.00  0.00     0.032 C 
ATOM      8  C   UNL     1     -13.491  14.076  11.132  1.00  0.00     0.014 C 
BRANCH   7   9
ATOM      9  C   UNL     1     -14.371  13.169   8.997  1.00  0.00     0.044 C 
ATOM     10  O   UNL     1     -14.766  11.973   8.956  1.00  0.00    -0.550 OA
ATOM     11  O   UNL     1     -13.625  13.680   7.941  1.00  0.00    -0.550 OA
ENDBRANCH   7   9
ENDBRANCH   6   7
ENDBRANCH   5   6
ENDBRANCH   4   5
ENDBRANCH   3   4
ENDBRANCH   2   3
ENDBRANCH   1   2
BRANCH   1  12
ATOM     12  C   UNL     1     -15.993   7.853   9.643  1.00  0.00     0.000 C 
BRANCH  12  13
ATOM     13  C   UNL     1     -16.849   6.590   9.823  1.00  0.00    -0.000 C 
BRANCH  13  14
ATOM     14  C   UNL     1     -16.802   6.101  11.279  1.00  0.00    -0.000 C 
BRANCH  14  15
ATOM     15  C   UNL     1     -16.548   4.588  11.391  1.00  0.00    -0.000 C 
BRANCH  15  16
ATOM     16  C   UNL     1     -15.526   4.182  12.471  1.00  0.00    -0.000 C 
BRANCH  16  17
ATOM     17  C   UNL     1     -14.073   4.102  11.956  1.00  0.00    -0.000 C 
BRANCH  17  18
ATOM     18  C   UNL     1     -13.133   5.054  12.711  1.00  0.00    -0.003 C 
ATOM     19  C   UNL     1     -13.395   6.507  12.325  1.00  0.00     0.004 C 
ENDBRANCH  17  18
ENDBRANCH  16  17
ENDBRANCH  15  16
ENDBRANCH  14  15
ENDBRANCH  13  14
ENDBRANCH  12  13
ENDBRANCH   1  12
TORSDOF 14
ENDMDL
MODEL 8
REMARK VINA RESULT:    -3.028      3.584      7.107
REMARK INTER + INTRA:          -6.584
REMARK INTER:                  -5.104
REMARK INTRA:                  -1.480
REMARK UNBOUND:                -1.078
REMARK SMILES CCCCCCCCCCCCCC[C@@H](C)C(=O)[O-]
REMARK SMILES IDX 9 1 10 2 11 3 12 4 13 5 14 6 15 7 16 8 17 9 18 10 19 11 8 12
REMARK SMILES IDX 7 13 6 14 5 15 4 16 3 17 2 18 1 19
REMARK H PARENT
REMARK Flexibility Score: inf
ROOT
ATOM      1  C   UNL     1     -15.651   9.735   8.142  1.00  0.00     0.000 C 
ENDROOT
BRANCH   1   2
ATOM      2  C   UNL     1     -16.730  10.705   8.659  1.00  0.00     0.000 C 
BRANCH   2   3
ATOM      3  C   UNL     1     -16.237  11.533   9.863  1.00  0.00     0.000 C 
BRANCH   3   4
ATOM      4  C   UNL     1     -17.125  11.396  11.113  1.00  0.00     0.000 C 
BRANCH   4   5
ATOM      5  C   UNL     1     -16.646  12.270  12.283  1.00  0.00     0.001 C 
BRANCH   5   6
ATOM      6  C   UNL     1     -15.112  12.294  12.431  1.00  0.00     0.009 C 
BRANCH   6   7
ATOM      7  C   UNL     1     -14.490  13.696  12.629  1.00  0.00     0.032 C 
ATOM      8  C   UNL     1     -12.988  13.635  12.934  1.00  0.00     0.014 C 
BRANCH   7   9
ATOM      9  C   UNL     1     -14.717  14.521  11.391  1.00  0.00     0.044 C 
ATOM     10  O   UNL     1     -15.825  15.091  11.204  1.00  0.00    -0.550 OA
ATOM     11  O   UNL     1     -13.710  14.655  10.442  1.00  0.00    -0.550 OA
ENDBRANCH   7   9
ENDBRANCH   6   7
ENDBRANCH   5   6
ENDBRANCH   4   5
ENDBRANCH   3   4
ENDBRANCH   2   3
ENDBRANCH   1   2
BRANCH   1  12
ATOM     12  C   UNL     1     -15.524   8.472   9.007  1.00  0.00     0.000 C 
BRANCH  12  13
ATOM     13  C   UNL     1     -16.757   7.562   8.911  1.00  0.00    -0.000 C 
BRANCH  13  14
ATOM     14  C   UNL     1     -17.124   6.990  10.289  1.00  0.00    -0.000 C 
BRANCH  14  15
ATOM     15  C   UNL     1     -16.466   7.759  11.447  1.00  0.00    -0.000 C 
BRANCH  15  16
ATOM     16  C   UNL     1     -15.798   6.873  12.516  1.00  0.00    -0.000 C 
BRANCH  16  17
ATOM     17  C   UNL     1     -15.261   5.534  11.969  1.00  0.00    -0.000 C 
BRANCH  17  18
ATOM     18  C   UNL     1     -13.758   5.591  11.656  1.00  0.00    -0.003 C 
ATOM     19  C   UNL     1     -13.026   6.498  12.641  1.00  0.00     0.004 C 
ENDBRANCH  17  18
ENDBRANCH  16  17
ENDBRANCH  15  16
ENDBRANCH  14  15
ENDBRANCH  13  14
ENDBRANCH  12  13
ENDBRANCH   1  12
TORSDOF 14
ENDMDL
