MODEL 1
REMARK VINA RESULT:    11.026      0.000      0.000
REMARK INTER + INTRA:          19.709
REMARK INTER:                  20.694
REMARK INTRA:                  -0.985
REMARK UNBOUND:                -0.985
REMARK SMILES CCCCCCCCC=CCCCCCCCC(=O)[O-]
REMARK SMILES IDX 10 1 9 2 11 3 12 4 13 5 14 6 15 7 16 8 17 9 18 10 19 11
REMARK SMILES IDX 20 12 8 13 7 14 6 15 5 16 4 17 3 18 2 19 1 20
REMARK H PARENT
REMARK Flexibility Score: inf
ROOT
ATOM      1  C   UNL     1     -27.898  31.419  -2.957  1.00  0.00    -0.031 C 
ATOM      2  C   UNL     1     -26.762  31.028  -3.564  1.00  0.00    -0.031 C 
ENDROOT
BRANCH   1   3
ATOM      3  C   UNL     1     -28.861  32.441  -3.510  1.00  0.00     0.027 C 
BRANCH   3   4
ATOM      4  C   UNL     1     -29.997  32.763  -2.525  1.00  0.00     0.004 C 
BRANCH   4   5
ATOM      5  C   UNL     1     -29.933  31.976  -1.202  1.00  0.00     0.000 C 
BRANCH   5   6
ATOM      6  C   UNL     1     -31.058  30.940  -1.069  1.00  0.00     0.000 C 
BRANCH   6   7
ATOM      7  C   UNL     1     -31.936  30.914  -2.328  1.00  0.00     0.000 C 
BRANCH   7   8
ATOM      8  C   UNL     1     -32.826  29.661  -2.418  1.00  0.00     0.006 C 
BRANCH   8   9
ATOM      9  C   UNL     1     -34.295  29.909  -2.024  1.00  0.00     0.053 C 
BRANCH   9  10
ATOM     10  C   UNL     1     -35.168  30.216  -3.202  1.00  0.00     0.041 C 
ATOM     11  O   UNL     1     -36.420  30.273  -3.069  1.00  0.00    -0.550 OA
ATOM     12  O   UNL     1     -34.602  30.408  -4.456  1.00  0.00    -0.550 OA
ENDBRANCH   9  10
ENDBRANCH   8   9
ENDBRANCH   7   8
ENDBRANCH   6   7
ENDBRANCH   5   6
ENDBRANCH   4   5
ENDBRANCH   3   4
ENDBRANCH   1   3
BRANCH   2  13
ATOM     13  C   UNL     1     -26.326  31.479  -4.935  1.00  0.00     0.027 C 
BRANCH  13  14
ATOM     14  C   UNL     1     -26.630  30.398  -5.983  1.00  0.00     0.004 C 
BRANCH  14  15
ATOM     15  C   UNL     1     -27.398  30.947  -7.195  1.00  0.00     0.000 C 
BRANCH  15  16
ATOM     16  C   UNL     1     -26.635  30.756  -8.516  1.00  0.00     0.000 C 
BRANCH  16  17
ATOM     17  C   UNL     1     -25.112  30.909  -8.352  1.00  0.00    -0.000 C 
BRANCH  17  18
ATOM     18  C   UNL     1     -24.517  32.080  -9.161  1.00  0.00    -0.000 C 
BRANCH  18  19
ATOM     19  C   UNL     1     -22.984  32.134  -9.060  1.00  0.00    -0.003 C 
ATOM     20  C   UNL     1     -22.493  33.567  -8.880  1.00  0.00     0.004 C 
ENDBRANCH  18  19
ENDBRANCH  17  18
ENDBRANCH  16  17
ENDBRANCH  15  16
ENDBRANCH  14  15
ENDBRANCH  13  14
ENDBRANCH   2  13
TORSDOF 15
ENDMDL
MODEL 2
REMARK VINA RESULT:    11.337     12.667     14.620
REMARK INTER + INTRA:          20.293
REMARK INTER:                  19.278
REMARK INTRA:                   1.015
REMARK UNBOUND:                -0.985
REMARK SMILES CCCCCCCCC=CCCCCCCCC(=O)[O-]
REMARK SMILES IDX 10 1 9 2 11 3 12 4 13 5 14 6 15 7 16 8 17 9 18 10 19 11
REMARK SMILES IDX 20 12 8 13 7 14 6 15 5 16 4 17 3 18 2 19 1 20
REMARK H PARENT
REMARK Flexibility Score: inf
ROOT
ATOM      1  C   UNL     1     -33.408  23.705   4.914  1.00  0.00    -0.031 C 
ATOM      2  C   UNL     1     -32.721  24.814   5.245  1.00  0.00    -0.031 C 
ENDROOT
BRANCH   1   3
ATOM      3  C   UNL     1     -34.832  23.421   5.328  1.00  0.00     0.027 C 
BRANCH   3   4
ATOM      4  C   UNL     1     -34.968  23.228   6.848  1.00  0.00     0.004 C 
BRANCH   4   5
ATOM      5  C   UNL     1     -36.361  22.757   7.305  1.00  0.00     0.000 C 
BRANCH   5   6
ATOM      6  C   UNL     1     -37.446  23.827   7.111  1.00  0.00     0.000 C 
BRANCH   6   7
ATOM      7  C   UNL     1     -38.835  23.187   6.979  1.00  0.00     0.000 C 
BRANCH   7   8
ATOM      8  C   UNL     1     -38.828  21.897   6.138  1.00  0.00     0.006 C 
BRANCH   8   9
ATOM      9  C   UNL     1     -39.125  22.124   4.644  1.00  0.00     0.053 C 
BRANCH   9  10
ATOM     10  C   UNL     1     -38.640  23.454   4.151  1.00  0.00     0.041 C 
ATOM     11  O   UNL     1     -37.773  23.517   3.240  1.00  0.00    -0.550 OA
ATOM     12  O   UNL     1     -39.124  24.625   4.720  1.00  0.00    -0.550 OA
ENDBRANCH   9  10
ENDBRANCH   8   9
ENDBRANCH   7   8
ENDBRANCH   6   7
ENDBRANCH   5   6
ENDBRANCH   4   5
ENDBRANCH   3   4
ENDBRANCH   1   3
BRANCH   2  13
ATOM     13  C   UNL     1     -33.298  25.986   5.997  1.00  0.00     0.027 C 
BRANCH  13  14
ATOM     14  C   UNL     1     -33.204  25.757   7.513  1.00  0.00     0.004 C 
BRANCH  14  15
ATOM     15  C   UNL     1     -32.378  24.512   7.874  1.00  0.00     0.000 C 
BRANCH  15  16
ATOM     16  C   UNL     1     -30.870  24.803   7.946  1.00  0.00     0.000 C 
BRANCH  16  17
ATOM     17  C   UNL     1     -30.011  23.602   7.516  1.00  0.00    -0.000 C 
BRANCH  17  18
ATOM     18  C   UNL     1     -28.635  23.998   6.939  1.00  0.00    -0.000 C 
BRANCH  18  19
ATOM     19  C   UNL     1     -28.276  25.459   7.249  1.00  0.00    -0.003 C 
ATOM     20  C   UNL     1     -27.058  25.909   6.450  1.00  0.00     0.004 C 
ENDBRANCH  18  19
ENDBRANCH  17  18
ENDBRANCH  16  17
ENDBRANCH  15  16
ENDBRANCH  14  15
ENDBRANCH  13  14
ENDBRANCH   2  13
TORSDOF 15
ENDMDL
MODEL 3
REMARK VINA RESULT:    11.815      4.491      9.657
REMARK INTER + INTRA:          21.191
REMARK INTER:                  21.396
REMARK INTRA:                  -0.205
REMARK UNBOUND:                -0.985
REMARK SMILES CCCCCCCCC=CCCCCCCCC(=O)[O-]
REMARK SMILES IDX 10 1 9 2 11 3 12 4 13 5 14 6 15 7 16 8 17 9 18 10 19 11
REMARK SMILES IDX 20 12 8 13 7 14 6 15 5 16 4 17 3 18 2 19 1 20
REMARK H PARENT
REMARK Flexibility Score: inf
ROOT
ATOM      1  C   UNL     1     -28.648  32.306  -3.353  1.00  0.00    -0.031 C 
ATOM      2  C   UNL     1     -29.564  32.658  -2.433  1.00  0.00    -0.031 C 
ENDROOT
BRANCH   1   3
ATOM      3  C   UNL     1     -27.593  31.245  -3.153  1.00  0.00     0.027 C 
BRANCH   3   4
ATOM      4  C   UNL     1     -26.537  31.256  -4.272  1.00  0.00     0.004 C 
BRANCH   4   5
ATOM      5  C   UNL     1     -27.087  31.639  -5.660  1.00  0.00     0.000 C 
BRANCH   5   6
ATOM      6  C   UNL     1     -27.022  30.481  -6.667  1.00  0.00     0.000 C 
BRANCH   6   7
ATOM      7  C   UNL     1     -26.691  30.993  -8.075  1.00  0.00     0.000 C 
BRANCH   7   8
ATOM      8  C   UNL     1     -25.182  30.986  -8.381  1.00  0.00     0.006 C 
BRANCH   8   9
ATOM      9  C   UNL     1     -24.721  32.150  -9.279  1.00  0.00     0.053 C 
BRANCH   9  10
ATOM     10  C   UNL     1     -23.265  32.466  -9.118  1.00  0.00     0.041 C 
ATOM     11  O   UNL     1     -22.395  31.574  -9.303  1.00  0.00    -0.550 OA
ATOM     12  O   UNL     1     -22.869  33.741  -8.730  1.00  0.00    -0.550 OA
ENDBRANCH   9  10
ENDBRANCH   8   9
ENDBRANCH   7   8
ENDBRANCH   6   7
ENDBRANCH   5   6
ENDBRANCH   4   5
ENDBRANCH   3   4
ENDBRANCH   1   3
BRANCH   2  13
ATOM     13  C   UNL     1     -29.741  31.981  -1.098  1.00  0.00     0.027 C 
BRANCH  13  14
ATOM     14  C   UNL     1     -31.062  31.199  -1.056  1.00  0.00     0.004 C 
BRANCH  14  15
ATOM     15  C   UNL     1     -31.643  30.942  -2.456  1.00  0.00     0.000 C 
BRANCH  15  16
ATOM     16  C   UNL     1     -32.803  29.933  -2.439  1.00  0.00     0.000 C 
BRANCH  16  17
ATOM     17  C   UNL     1     -33.534  29.844  -3.790  1.00  0.00    -0.000 C 
BRANCH  17  18
ATOM     18  C   UNL     1     -34.862  30.628  -3.830  1.00  0.00    -0.000 C 
BRANCH  18  19
ATOM     19  C   UNL     1     -35.749  30.329  -2.612  1.00  0.00    -0.003 C 
ATOM     20  C   UNL     1     -35.563  28.892  -2.134  1.00  0.00     0.004 C 
ENDBRANCH  18  19
ENDBRANCH  17  18
ENDBRANCH  16  17
ENDBRANCH  15  16
ENDBRANCH  14  15
ENDBRANCH  13  14
ENDBRANCH   2  13
TORSDOF 15
ENDMDL
MODEL 4
REMARK VINA RESULT:    12.249      7.205     10.237
REMARK INTER + INTRA:          22.006
REMARK INTER:                  22.990
REMARK INTRA:                  -0.985
REMARK UNBOUND:                -0.985
REMARK SMILES CCCCCCCCC=CCCCCCCCC(=O)[O-]
REMARK SMILES IDX 10 1 9 2 11 3 12 4 13 5 14 6 15 7 16 8 17 9 18 10 19 11
REMARK SMILES IDX 20 12 8 13 7 14 6 15 5 16 4 17 3 18 2 19 1 20
REMARK H PARENT
REMARK Flexibility Score: inf
ROOT
ATOM      1  C   UNL     1     -26.011  26.765  -7.656  1.00  0.00    -0.031 C 
ATOM      2  C   UNL     1     -27.234  27.175  -7.271  1.00  0.00    -0.031 C 
ENDROOT
BRANCH   1   3
ATOM      3  C   UNL     1     -24.756  27.596  -7.559  1.00  0.00     0.027 C 
BRANCH   3   4
ATOM      4  C   UNL     1     -23.528  26.753  -7.174  1.00  0.00     0.004 C 
BRANCH   4   5
ATOM      5  C   UNL     1     -22.273  27.578  -6.833  1.00  0.00     0.000 C 
BRANCH   5   6
ATOM      6  C   UNL     1     -21.187  26.749  -6.129  1.00  0.00     0.000 C 
BRANCH   6   7
ATOM      7  C   UNL     1     -19.890  26.731  -6.949  1.00  0.00     0.000 C 
BRANCH   7   8
ATOM      8  C   UNL     1     -18.946  25.578  -6.561  1.00  0.00     0.006 C 
BRANCH   8   9
ATOM      9  C   UNL     1     -19.438  24.744  -5.363  1.00  0.00     0.053 C 
BRANCH   9  10
ATOM     10  C   UNL     1     -19.676  23.307  -5.714  1.00  0.00     0.041 C 
ATOM     11  O   UNL     1     -19.548  22.913  -6.904  1.00  0.00    -0.550 OA
ATOM     12  O   UNL     1     -20.071  22.407  -4.732  1.00  0.00    -0.550 OA
ENDBRANCH   9  10
ENDBRANCH   8   9
ENDBRANCH   7   8
ENDBRANCH   6   7
ENDBRANCH   5   6
ENDBRANCH   4   5
ENDBRANCH   3   4
ENDBRANCH   1   3
BRANCH   2  13
ATOM     13  C   UNL     1     -27.521  28.490  -6.592  1.00  0.00     0.027 C 
BRANCH  13  14
ATOM     14  C   UNL     1     -27.959  29.546  -7.619  1.00  0.00     0.004 C 
BRANCH  14  15
ATOM     15  C   UNL     1     -27.251  30.895  -7.420  1.00  0.00     0.000 C 
BRANCH  15  16
ATOM     16  C   UNL     1     -25.756  30.838  -7.774  1.00  0.00     0.000 C 
BRANCH  16  17
ATOM     17  C   UNL     1     -25.456  31.379  -9.183  1.00  0.00    -0.000 C 
BRANCH  17  18
ATOM     18  C   UNL     1     -24.453  32.551  -9.196  1.00  0.00    -0.000 C 
BRANCH  18  19
ATOM     19  C   UNL     1     -22.996  32.068  -9.129  1.00  0.00    -0.003 C 
ATOM     20  C   UNL     1     -22.025  33.244  -9.124  1.00  0.00     0.004 C 
ENDBRANCH  18  19
ENDBRANCH  17  18
ENDBRANCH  16  17
ENDBRANCH  15  16
ENDBRANCH  14  15
ENDBRANCH  13  14
ENDBRANCH   2  13
TORSDOF 15
ENDMDL
MODEL 5
REMARK VINA RESULT:    12.335      6.510      9.355
REMARK INTER + INTRA:          22.167
REMARK INTER:                  22.846
REMARK INTRA:                  -0.678
REMARK UNBOUND:                -0.985
REMARK SMILES CCCCCCCCC=CCCCCCCCC(=O)[O-]
REMARK SMILES IDX 10 1 9 2 11 3 12 4 13 5 14 6 15 7 16 8 17 9 18 10 19 11
REMARK SMILES IDX 20 12 8 13 7 14 6 15 5 16 4 17 3 18 2 19 1 20
REMARK H PARENT
REMARK Flexibility Score: inf
ROOT
ATOM      1  C   UNL     1     -25.657  27.781  -8.210  1.00  0.00    -0.031 C 
ATOM      2  C   UNL     1     -24.343  27.517  -8.093  1.00  0.00    -0.031 C 
ENDROOT
BRANCH   1   3
ATOM      3  C   UNL     1     -26.725  27.254  -7.283  1.00  0.00     0.027 C 
BRANCH   3   4
ATOM      4  C   UNL     1     -27.665  28.366  -6.786  1.00  0.00     0.004 C 
BRANCH   4   5
ATOM      5  C   UNL     1     -27.566  29.682  -7.580  1.00  0.00     0.000 C 
BRANCH   5   6
ATOM      6  C   UNL     1     -26.707  30.742  -6.874  1.00  0.00     0.000 C 
BRANCH   6   7
ATOM      7  C   UNL     1     -25.483  31.113  -7.723  1.00  0.00     0.000 C 
BRANCH   7   8
ATOM      8  C   UNL     1     -25.845  31.503  -9.167  1.00  0.00     0.006 C 
BRANCH   8   9
ATOM      9  C   UNL     1     -24.708  32.211  -9.928  1.00  0.00     0.053 C 
BRANCH   9  10
ATOM     10  C   UNL     1     -23.415  32.210  -9.171  1.00  0.00     0.041 C 
ATOM     11  O   UNL     1     -22.802  31.130  -8.961  1.00  0.00    -0.550 OA
ATOM     12  O   UNL     1     -22.901  33.400  -8.670  1.00  0.00    -0.550 OA
ENDBRANCH   9  10
ENDBRANCH   8   9
ENDBRANCH   7   8
ENDBRANCH   6   7
ENDBRANCH   5   6
ENDBRANCH   4   5
ENDBRANCH   3   4
ENDBRANCH   1   3
BRANCH   2  13
ATOM     13  C   UNL     1     -23.724  26.735  -6.963  1.00  0.00     0.027 C 
BRANCH  13  14
ATOM     14  C   UNL     1     -22.445  27.423  -6.464  1.00  0.00     0.004 C 
BRANCH  14  15
ATOM     15  C   UNL     1     -21.423  26.430  -5.888  1.00  0.00     0.000 C 
BRANCH  15  16
ATOM     16  C   UNL     1     -20.092  26.440  -6.657  1.00  0.00     0.000 C 
BRANCH  16  17
ATOM     17  C   UNL     1     -19.016  25.558  -5.997  1.00  0.00    -0.000 C 
BRANCH  17  18
ATOM     18  C   UNL     1     -19.500  24.130  -5.673  1.00  0.00    -0.000 C 
BRANCH  18  19
ATOM     19  C   UNL     1     -19.978  23.381  -6.926  1.00  0.00    -0.003 C 
ATOM     20  C   UNL     1     -18.875  22.493  -7.494  1.00  0.00     0.004 C 
ENDBRANCH  18  19
ENDBRANCH  17  18
ENDBRANCH  16  17
ENDBRANCH  15  16
ENDBRANCH  14  15
ENDBRANCH  13  14
ENDBRANCH   2  13
TORSDOF 15
ENDMDL
MODEL 6
REMARK VINA RESULT:    13.127     12.843     16.419
REMARK INTER + INTRA:          23.654
REMARK INTER:                  24.920
REMARK INTRA:                  -1.266
REMARK UNBOUND:                -0.985
REMARK SMILES CCCCCCCCC=CCCCCCCCC(=O)[O-]
REMARK SMILES IDX 10 1 9 2 11 3 12 4 13 5 14 6 15 7 16 8 17 9 18 10 19 11
REMARK SMILES IDX 20 12 8 13 7 14 6 15 5 16 4 17 3 18 2 19 1 20
REMARK H PARENT
REMARK Flexibility Score: inf
ROOT
ATOM      1  C   UNL     1     -34.317  23.501   4.874  1.00  0.00    -0.031 C 
ATOM      2  C   UNL     1     -35.253  22.946   5.665  1.00  0.00    -0.031 C 
ENDROOT
BRANCH   1   3
ATOM      3  C   UNL     1     -33.511  24.728   5.226  1.00  0.00     0.027 C 
BRANCH   3   4
ATOM      4  C   UNL     1     -32.197  24.375   5.943  1.00  0.00     0.004 C 
BRANCH   4   5
ATOM      5  C   UNL     1     -31.989  25.107   7.283  1.00  0.00     0.000 C 
BRANCH   5   6
ATOM      6  C   UNL     1     -30.849  24.508   8.119  1.00  0.00     0.000 C 
BRANCH   6   7
ATOM      7  C   UNL     1     -30.049  23.481   7.305  1.00  0.00     0.000 C 
BRANCH   7   8
ATOM      8  C   UNL     1     -28.638  23.973   6.934  1.00  0.00     0.006 C 
BRANCH   8   9
ATOM      9  C   UNL     1     -28.294  25.366   7.493  1.00  0.00     0.053 C 
BRANCH   9  10
ATOM     10  C   UNL     1     -27.595  26.237   6.494  1.00  0.00     0.041 C 
ATOM     11  O   UNL     1     -28.225  27.144   5.889  1.00  0.00    -0.550 OA
ATOM     12  O   UNL     1     -26.252  26.025   6.206  1.00  0.00    -0.550 OA
ENDBRANCH   9  10
ENDBRANCH   8   9
ENDBRANCH   7   8
ENDBRANCH   6   7
ENDBRANCH   5   6
ENDBRANCH   4   5
ENDBRANCH   3   4
ENDBRANCH   1   3
BRANCH   2  13
ATOM     13  C   UNL     1     -35.573  23.406   7.065  1.00  0.00     0.027 C 
BRANCH  13  14
ATOM     14  C   UNL     1     -36.444  22.370   7.791  1.00  0.00     0.004 C 
BRANCH  14  15
ATOM     15  C   UNL     1     -37.945  22.682   7.691  1.00  0.00     0.000 C 
BRANCH  15  16
ATOM     16  C   UNL     1     -38.743  21.548   7.028  1.00  0.00     0.000 C 
BRANCH  16  17
ATOM     17  C   UNL     1     -38.325  21.299   5.568  1.00  0.00    -0.000 C 
BRANCH  17  18
ATOM     18  C   UNL     1     -39.124  22.131   4.544  1.00  0.00    -0.000 C 
BRANCH  18  19
ATOM     19  C   UNL     1     -38.822  23.633   4.655  1.00  0.00    -0.003 C 
ATOM     20  C   UNL     1     -38.662  24.268   3.277  1.00  0.00     0.004 C 
ENDBRANCH  18  19
ENDBRANCH  17  18
ENDBRANCH  16  17
ENDBRANCH  15  16
ENDBRANCH  14  15
ENDBRANCH  13  14
ENDBRANCH   2  13
TORSDOF 15
ENDMDL
MODEL 7
REMARK VINA RESULT:    13.186      6.693      9.276
REMARK INTER + INTRA:          23.763
REMARK INTER:                  24.446
REMARK INTRA:                  -0.683
REMARK UNBOUND:                -0.985
REMARK SMILES CCCCCCCCC=CCCCCCCCC(=O)[O-]
REMARK SMILES IDX 10 1 9 2 11 3 12 4 13 5 14 6 15 7 16 8 17 9 18 10 19 11
REMARK SMILES IDX 20 12 8 13 7 14 6 15 5 16 4 17 3 18 2 19 1 20
REMARK H PARENT
REMARK Flexibility Score: inf
ROOT
ATOM      1  C   UNL     1     -23.682  28.251  -7.507  1.00  0.00    -0.031 C 
ATOM      2  C   UNL     1     -22.341  28.233  -7.390  1.00  0.00    -0.031 C 
ENDROOT
BRANCH   1   3
ATOM      3  C   UNL     1     -24.561  27.024  -7.517  1.00  0.00     0.027 C 
BRANCH   3   4
ATOM      4  C   UNL     1     -25.981  27.329  -8.023  1.00  0.00     0.004 C 
BRANCH   4   5
ATOM      5  C   UNL     1     -26.932  27.885  -6.947  1.00  0.00     0.000 C 
BRANCH   5   6
ATOM      6  C   UNL     1     -27.879  28.966  -7.489  1.00  0.00     0.000 C 
BRANCH   6   7
ATOM      7  C   UNL     1     -27.449  30.362  -7.017  1.00  0.00     0.000 C 
BRANCH   7   8
ATOM      8  C   UNL     1     -26.024  30.738  -7.462  1.00  0.00     0.006 C 
BRANCH   8   9
ATOM      9  C   UNL     1     -25.968  31.926  -8.442  1.00  0.00     0.053 C 
BRANCH   9  10
ATOM     10  C   UNL     1     -24.919  31.758  -9.499  1.00  0.00     0.041 C 
ATOM     11  O   UNL     1     -25.250  31.592 -10.703  1.00  0.00    -0.550 OA
ATOM     12  O   UNL     1     -23.575  31.752  -9.149  1.00  0.00    -0.550 OA
ENDBRANCH   9  10
ENDBRANCH   8   9
ENDBRANCH   7   8
ENDBRANCH   6   7
ENDBRANCH   5   6
ENDBRANCH   4   5
ENDBRANCH   3   4
ENDBRANCH   1   3
BRANCH   2  13
ATOM     13  C   UNL     1     -21.520  26.991  -7.151  1.00  0.00     0.027 C 
BRANCH  13  14
ATOM     14  C   UNL     1     -21.667  26.514  -5.699  1.00  0.00     0.004 C 
BRANCH  14  15
ATOM     15  C   UNL     1     -20.317  26.400  -4.973  1.00  0.00     0.000 C 
BRANCH  15  16
ATOM     16  C   UNL     1     -19.126  26.345  -5.943  1.00  0.00     0.000 C 
BRANCH  16  17
ATOM     17  C   UNL     1     -18.949  24.961  -6.593  1.00  0.00    -0.000 C 
BRANCH  17  18
ATOM     18  C   UNL     1     -19.674  23.826  -5.840  1.00  0.00    -0.000 C 
BRANCH  18  19
ATOM     19  C   UNL     1     -19.568  22.482  -6.578  1.00  0.00    -0.003 C 
ATOM     20  C   UNL     1     -18.875  22.646  -7.927  1.00  0.00     0.004 C 
ENDBRANCH  18  19
ENDBRANCH  17  18
ENDBRANCH  16  17
ENDBRANCH  15  16
ENDBRANCH  14  15
ENDBRANCH  13  14
ENDBRANCH   2  13
TORSDOF 15
ENDMDL
MODEL 8
REMARK VINA RESULT:    13.217     11.656     14.250
REMARK INTER + INTRA:          23.821
REMARK INTER:                  24.671
REMARK INTRA:                  -0.850
REMARK UNBOUND:                -0.985
REMARK SMILES CCCCCCCCC=CCCCCCCCC(=O)[O-]
REMARK SMILES IDX 10 1 9 2 11 3 12 4 13 5 14 6 15 7 16 8 17 9 18 10 19 11
REMARK SMILES IDX 20 12 8 13 7 14 6 15 5 16 4 17 3 18 2 19 1 20
REMARK H PARENT
REMARK Flexibility Score: inf
ROOT
ATOM      1  C   UNL     1     -33.292  25.160   6.076  1.00  0.00    -0.031 C 
ATOM      2  C   UNL     1     -32.084  24.728   6.484  1.00  0.00    -0.031 C 
ENDROOT
BRANCH   1   3
ATOM      3  C   UNL     1     -34.571  25.007   6.862  1.00  0.00     0.027 C 
BRANCH   3   4
ATOM      4  C   UNL     1     -35.298  23.690   6.540  1.00  0.00     0.004 C 
BRANCH   4   5
ATOM      5  C   UNL     1     -36.412  23.320   7.537  1.00  0.00     0.000 C 
BRANCH   5   6
ATOM      6  C   UNL     1     -36.521  21.806   7.774  1.00  0.00     0.000 C 
BRANCH   6   7
ATOM      7  C   UNL     1     -37.990  21.362   7.830  1.00  0.00     0.000 C 
BRANCH   7   8
ATOM      8  C   UNL     1     -38.957  22.399   7.231  1.00  0.00     0.006 C 
BRANCH   8   9
ATOM      9  C   UNL     1     -39.066  22.338   5.695  1.00  0.00     0.053 C 
BRANCH   9  10
ATOM     10  C   UNL     1     -38.982  23.689   5.053  1.00  0.00     0.041 C 
ATOM     11  O   UNL     1     -39.125  24.732   5.745  1.00  0.00    -0.550 OA
ATOM     12  O   UNL     1     -38.779  23.797   3.683  1.00  0.00    -0.550 OA
ENDBRANCH   9  10
ENDBRANCH   8   9
ENDBRANCH   7   8
ENDBRANCH   6   7
ENDBRANCH   5   6
ENDBRANCH   4   5
ENDBRANCH   3   4
ENDBRANCH   1   3
BRANCH   2  13
ATOM     13  C   UNL     1     -31.806  24.113   7.831  1.00  0.00     0.027 C 
BRANCH  13  14
ATOM     14  C   UNL     1     -30.294  24.016   8.081  1.00  0.00     0.004 C 
BRANCH  14  15
ATOM     15  C   UNL     1     -29.466  24.239   6.806  1.00  0.00     0.000 C 
BRANCH  15  16
ATOM     16  C   UNL     1     -28.029  24.694   7.105  1.00  0.00     0.000 C 
BRANCH  16  17
ATOM     17  C   UNL     1     -27.864  26.223   7.052  1.00  0.00    -0.000 C 
BRANCH  17  18
ATOM     18  C   UNL     1     -27.285  26.739   5.719  1.00  0.00    -0.000 C 
BRANCH  18  19
ATOM     19  C   UNL     1     -25.868  26.203   5.457  1.00  0.00    -0.003 C 
ATOM     20  C   UNL     1     -24.897  27.339   5.151  1.00  0.00     0.004 C 
ENDBRANCH  18  19
ENDBRANCH  17  18
ENDBRANCH  16  17
ENDBRANCH  15  16
ENDBRANCH  14  15
ENDBRANCH  13  14
ENDBRANCH   2  13
TORSDOF 15
ENDMDL
MODEL 9
REMARK VINA RESULT:    13.446      7.220     10.761
REMARK INTER + INTRA:          24.252
REMARK INTER:                  24.907
REMARK INTRA:                  -0.655
REMARK UNBOUND:                -0.985
REMARK SMILES CCCCCCCCC=CCCCCCCCC(=O)[O-]
REMARK SMILES IDX 10 1 9 2 11 3 12 4 13 5 14 6 15 7 16 8 17 9 18 10 19 11
REMARK SMILES IDX 20 12 8 13 7 14 6 15 5 16 4 17 3 18 2 19 1 20
REMARK H PARENT
REMARK Flexibility Score: inf
ROOT
ATOM      1  C   UNL     1     -22.920  30.804  -8.503  1.00  0.00    -0.031 C 
ATOM      2  C   UNL     1     -23.822  31.660  -9.017  1.00  0.00    -0.031 C 
ENDROOT
BRANCH   1   3
ATOM      3  C   UNL     1     -23.232  29.402  -8.039  1.00  0.00     0.027 C 
BRANCH   3   4
ATOM      4  C   UNL     1     -21.972  28.646  -7.583  1.00  0.00     0.004 C 
BRANCH   4   5
ATOM      5  C   UNL     1     -22.213  27.642  -6.440  1.00  0.00     0.000 C 
BRANCH   5   6
ATOM      6  C   UNL     1     -21.326  26.392  -6.547  1.00  0.00     0.000 C 
BRANCH   6   7
ATOM      7  C   UNL     1     -20.614  26.107  -5.217  1.00  0.00     0.000 C 
BRANCH   7   8
ATOM      8  C   UNL     1     -19.176  25.588  -5.402  1.00  0.00     0.006 C 
BRANCH   8   9
ATOM      9  C   UNL     1     -18.921  24.929  -6.771  1.00  0.00     0.053 C 
BRANCH   9  10
ATOM     10  C   UNL     1     -19.284  23.475  -6.791  1.00  0.00     0.041 C 
ATOM     11  O   UNL     1     -19.839  22.943  -5.793  1.00  0.00    -0.550 OA
ATOM     12  O   UNL     1     -18.982  22.698  -7.903  1.00  0.00    -0.550 OA
ENDBRANCH   9  10
ENDBRANCH   8   9
ENDBRANCH   7   8
ENDBRANCH   6   7
ENDBRANCH   5   6
ENDBRANCH   4   5
ENDBRANCH   3   4
ENDBRANCH   1   3
BRANCH   2  13
ATOM     13  C   UNL     1     -25.263  31.317  -9.298  1.00  0.00     0.027 C 
BRANCH  13  14
ATOM     14  C   UNL     1     -26.202  32.152  -8.415  1.00  0.00     0.004 C 
BRANCH  14  15
ATOM     15  C   UNL     1     -27.091  31.284  -7.510  1.00  0.00     0.000 C 
BRANCH  15  16
ATOM     16  C   UNL     1     -26.861  29.779  -7.720  1.00  0.00     0.000 C 
BRANCH  16  17
ATOM     17  C   UNL     1     -27.551  28.915  -6.651  1.00  0.00    -0.000 C 
BRANCH  17  18
ATOM     18  C   UNL     1     -27.951  27.511  -7.151  1.00  0.00    -0.000 C 
BRANCH  18  19
ATOM     19  C   UNL     1     -26.780  26.518  -7.088  1.00  0.00    -0.003 C 
ATOM     20  C   UNL     1     -25.610  26.990  -7.946  1.00  0.00     0.004 C 
ENDBRANCH  18  19
ENDBRANCH  17  18
ENDBRANCH  16  17
ENDBRANCH  15  16
ENDBRANCH  14  15
ENDBRANCH  13  14
ENDBRANCH   2  13
TORSDOF 15
ENDMDL
