MODEL 1
REMARK VINA RESULT:    20.071      0.000      0.000
REMARK INTER + INTRA:          51.763
REMARK INTER:                  52.926
REMARK INTRA:                  -1.163
REMARK UNBOUND:                -1.163
REMARK SMILES CCCCCCCCCCCCCCCCCCCCCCCCCCCCCC(=O)[O-]
REMARK SMILES IDX 16 1 17 2 18 3 19 4 20 5 21 6 22 7 23 8 24 9 25 10 26 11
REMARK SMILES IDX 27 12 28 13 29 14 30 15 31 16 32 17 15 18 14 19 13 20 12 21
REMARK SMILES IDX 11 22 10 23 9 24 8 25 7 26 6 27 5 28 4 29 3 30 2 31 1 32
REMARK H PARENT
REMARK Flexibility Score: inf
ROOT
ATOM      1  C   UNL     1      -3.122 -10.594   9.389  1.00  0.00     0.000 C 
ENDROOT
BRANCH   1   2
ATOM      2  C   UNL     1      -4.067  -9.484   9.875  1.00  0.00     0.000 C 
BRANCH   2   3
ATOM      3  C   UNL     1      -3.665  -8.913  11.245  1.00  0.00     0.000 C 
BRANCH   3   4
ATOM      4  C   UNL     1      -4.598  -7.764  11.655  1.00  0.00     0.000 C 
BRANCH   4   5
ATOM      5  C   UNL     1      -4.541  -7.457  13.160  1.00  0.00     0.000 C 
BRANCH   5   6
ATOM      6  C   UNL     1      -3.629  -8.427  13.933  1.00  0.00     0.000 C 
BRANCH   6   7
ATOM      7  C   UNL     1      -2.539  -7.695  14.742  1.00  0.00     0.000 C 
BRANCH   7   8
ATOM      8  C   UNL     1      -3.027  -7.142  16.094  1.00  0.00     0.000 C 
BRANCH   8   9
ATOM      9  C   UNL     1      -2.306  -7.768  17.296  1.00  0.00     0.000 C 
BRANCH   9  10
ATOM     10  C   UNL     1      -2.554  -6.952  18.572  1.00  0.00     0.000 C 
BRANCH  10  11
ATOM     11  C   UNL     1      -2.559  -7.817  19.847  1.00  0.00     0.000 C 
BRANCH  11  12
ATOM     12  C   UNL     1      -1.322  -7.657  20.753  1.00  0.00     0.000 C 
BRANCH  12  13
ATOM     13  C   UNL     1      -1.628  -7.335  22.230  1.00  0.00     0.006 C 
BRANCH  13  14
ATOM     14  C   UNL     1      -1.088  -5.980  22.710  1.00  0.00     0.053 C 
BRANCH  14  15
ATOM     15  C   UNL     1      -1.970  -5.361  23.751  1.00  0.00     0.041 C 
ATOM     16  O   UNL     1      -1.731  -4.199  24.174  1.00  0.00    -0.550 OA
ATOM     17  O   UNL     1      -3.043  -6.075  24.272  1.00  0.00    -0.550 OA
ENDBRANCH  14  15
ENDBRANCH  13  14
ENDBRANCH  12  13
ENDBRANCH  11  12
ENDBRANCH  10  11
ENDBRANCH   9  10
ENDBRANCH   8   9
ENDBRANCH   7   8
ENDBRANCH   6   7
ENDBRANCH   5   6
ENDBRANCH   4   5
ENDBRANCH   3   4
ENDBRANCH   2   3
ENDBRANCH   1   2
BRANCH   1  18
ATOM     18  C   UNL     1      -3.362 -10.979   7.919  1.00  0.00     0.000 C 
BRANCH  18  19
ATOM     19  C   UNL     1      -4.329 -12.166   7.763  1.00  0.00     0.000 C 
BRANCH  19  20
ATOM     20  C   UNL     1      -4.433 -12.746   6.338  1.00  0.00     0.000 C 
BRANCH  20  21
ATOM     21  C   UNL     1      -5.819 -13.304   5.960  1.00  0.00     0.000 C 
BRANCH  21  22
ATOM     22  C   UNL     1      -6.611 -13.921   7.131  1.00  0.00     0.000 C 
BRANCH  22  23
ATOM     23  C   UNL     1      -6.288 -15.399   7.432  1.00  0.00     0.000 C 
BRANCH  23  24
ATOM     24  C   UNL     1      -5.775 -16.213   6.229  1.00  0.00    -0.000 C 
BRANCH  24  25
ATOM     25  C   UNL     1      -4.453 -16.942   6.527  1.00  0.00    -0.000 C 
BRANCH  25  26
ATOM     26  C   UNL     1      -3.495 -16.106   7.394  1.00  0.00    -0.000 C 
BRANCH  26  27
ATOM     27  C   UNL     1      -2.360 -15.465   6.576  1.00  0.00    -0.000 C 
BRANCH  27  28
ATOM     28  C   UNL     1      -1.957 -14.074   7.097  1.00  0.00    -0.000 C 
BRANCH  28  29
ATOM     29  C   UNL     1      -1.046 -14.074   8.339  1.00  0.00    -0.000 C 
BRANCH  29  30
ATOM     30  C   UNL     1       0.426 -13.775   8.004  1.00  0.00    -0.000 C 
BRANCH  30  31
ATOM     31  C   UNL     1       1.396 -14.758   8.679  1.00  0.00    -0.003 C 
ATOM     32  C   UNL     1       1.348 -14.691  10.205  1.00  0.00     0.004 C 
ENDBRANCH  30  31
ENDBRANCH  29  30
ENDBRANCH  28  29
ENDBRANCH  27  28
ENDBRANCH  26  27
ENDBRANCH  25  26
ENDBRANCH  24  25
ENDBRANCH  23  24
ENDBRANCH  22  23
ENDBRANCH  21  22
ENDBRANCH  20  21
ENDBRANCH  19  20
ENDBRANCH  18  19
ENDBRANCH   1  18
TORSDOF 28
ENDMDL
MODEL 2
REMARK VINA RESULT:    20.149      4.612     14.152
REMARK INTER + INTRA:          51.969
REMARK INTER:                  51.856
REMARK INTRA:                   0.112
REMARK UNBOUND:                -1.163
REMARK SMILES CCCCCCCCCCCCCCCCCCCCCCCCCCCCCC(=O)[O-]
REMARK SMILES IDX 16 1 17 2 18 3 19 4 20 5 21 6 22 7 23 8 24 9 25 10 26 11
REMARK SMILES IDX 27 12 28 13 29 14 30 15 31 16 32 17 15 18 14 19 13 20 12 21
REMARK SMILES IDX 11 22 10 23 9 24 8 25 7 26 6 27 5 28 4 29 3 30 2 31 1 32
REMARK H PARENT
REMARK Flexibility Score: inf
ROOT
ATOM      1  C   UNL     1      -2.607  -8.871  13.211  1.00  0.00     0.000 C 
ENDROOT
BRANCH   1   2
ATOM      2  C   UNL     1      -2.334  -9.446  11.813  1.00  0.00     0.000 C 
BRANCH   2   3
ATOM      3  C   UNL     1      -3.492  -9.208  10.830  1.00  0.00     0.000 C 
BRANCH   3   4
ATOM      4  C   UNL     1      -3.076  -9.568   9.396  1.00  0.00     0.000 C 
BRANCH   4   5
ATOM      5  C   UNL     1      -3.436 -11.013   9.014  1.00  0.00     0.000 C 
BRANCH   5   6
ATOM      6  C   UNL     1      -4.197 -11.104   7.679  1.00  0.00     0.000 C 
BRANCH   6   7
ATOM      7  C   UNL     1      -4.781 -12.509   7.427  1.00  0.00     0.000 C 
BRANCH   7   8
ATOM      8  C   UNL     1      -5.760 -12.578   6.242  1.00  0.00     0.000 C 
BRANCH   8   9
ATOM      9  C   UNL     1      -6.465 -13.936   6.121  1.00  0.00     0.000 C 
BRANCH   9  10
ATOM     10  C   UNL     1      -6.007 -14.894   7.230  1.00  0.00     0.000 C 
BRANCH  10  11
ATOM     11  C   UNL     1      -5.260 -16.127   6.688  1.00  0.00     0.000 C 
BRANCH  11  12
ATOM     12  C   UNL     1      -3.722 -16.055   6.779  1.00  0.00     0.000 C 
BRANCH  12  13
ATOM     13  C   UNL     1      -3.102 -14.708   6.351  1.00  0.00     0.006 C 
BRANCH  13  14
ATOM     14  C   UNL     1      -1.578 -14.627   6.521  1.00  0.00     0.053 C 
BRANCH  14  15
ATOM     15  C   UNL     1      -1.190 -14.098   7.867  1.00  0.00     0.041 C 
ATOM     16  O   UNL     1       0.000 -14.196   8.266  1.00  0.00    -0.550 OA
ATOM     17  O   UNL     1      -2.147 -13.517   8.691  1.00  0.00    -0.550 OA
ENDBRANCH  14  15
ENDBRANCH  13  14
ENDBRANCH  12  13
ENDBRANCH  11  12
ENDBRANCH  10  11
ENDBRANCH   9  10
ENDBRANCH   8   9
ENDBRANCH   7   8
ENDBRANCH   6   7
ENDBRANCH   5   6
ENDBRANCH   4   5
ENDBRANCH   3   4
ENDBRANCH   2   3
ENDBRANCH   1   2
BRANCH   1  18
ATOM     18  C   UNL     1      -1.349  -8.829  14.095  1.00  0.00     0.000 C 
BRANCH  18  19
ATOM     19  C   UNL     1      -0.766  -7.411  14.236  1.00  0.00     0.000 C 
BRANCH  19  20
ATOM     20  C   UNL     1      -0.790  -6.830  15.664  1.00  0.00     0.000 C 
BRANCH  20  21
ATOM     21  C   UNL     1      -2.089  -7.091  16.452  1.00  0.00     0.000 C 
BRANCH  21  22
ATOM     22  C   UNL     1      -2.845  -5.822  16.894  1.00  0.00     0.000 C 
BRANCH  22  23
ATOM     23  C   UNL     1      -3.132  -5.725  18.407  1.00  0.00     0.000 C 
BRANCH  23  24
ATOM     24  C   UNL     1      -3.285  -7.077  19.129  1.00  0.00    -0.000 C 
BRANCH  24  25
ATOM     25  C   UNL     1      -1.938  -7.792  19.340  1.00  0.00    -0.000 C 
BRANCH  25  26
ATOM     26  C   UNL     1      -1.794  -8.382  20.754  1.00  0.00    -0.000 C 
BRANCH  26  27
ATOM     27  C   UNL     1      -0.935  -7.502  21.679  1.00  0.00    -0.000 C 
BRANCH  27  28
ATOM     28  C   UNL     1      -1.566  -7.299  23.068  1.00  0.00    -0.000 C 
BRANCH  28  29
ATOM     29  C   UNL     1      -1.291  -5.931  23.724  1.00  0.00    -0.000 C 
BRANCH  29  30
ATOM     30  C   UNL     1      -2.505  -4.988  23.676  1.00  0.00    -0.000 C 
BRANCH  30  31
ATOM     31  C   UNL     1      -3.607  -5.392  24.669  1.00  0.00    -0.003 C 
ATOM     32  C   UNL     1      -3.664  -4.484  25.897  1.00  0.00     0.004 C 
ENDBRANCH  30  31
ENDBRANCH  29  30
ENDBRANCH  28  29
ENDBRANCH  27  28
ENDBRANCH  26  27
ENDBRANCH  25  26
ENDBRANCH  24  25
ENDBRANCH  23  24
ENDBRANCH  22  23
ENDBRANCH  21  22
ENDBRANCH  20  21
ENDBRANCH  19  20
ENDBRANCH  18  19
ENDBRANCH   1  18
TORSDOF 28
ENDMDL
MODEL 3
REMARK VINA RESULT:    20.382      4.747     14.440
REMARK INTER + INTRA:          52.581
REMARK INTER:                  52.771
REMARK INTRA:                  -0.190
REMARK UNBOUND:                -1.163
REMARK SMILES CCCCCCCCCCCCCCCCCCCCCCCCCCCCCC(=O)[O-]
REMARK SMILES IDX 16 1 17 2 18 3 19 4 20 5 21 6 22 7 23 8 24 9 25 10 26 11
REMARK SMILES IDX 27 12 28 13 29 14 30 15 31 16 32 17 15 18 14 19 13 20 12 21
REMARK SMILES IDX 11 22 10 23 9 24 8 25 7 26 6 27 5 28 4 29 3 30 2 31 1 32
REMARK H PARENT
REMARK Flexibility Score: inf
ROOT
ATOM      1  C   UNL     1      -3.130  -8.294  14.115  1.00  0.00     0.000 C 
ENDROOT
BRANCH   1   2
ATOM      2  C   UNL     1      -4.382  -8.125  13.240  1.00  0.00     0.000 C 
BRANCH   2   3
ATOM      3  C   UNL     1      -4.051  -7.932  11.751  1.00  0.00     0.000 C 
BRANCH   3   4
ATOM      4  C   UNL     1      -3.529  -9.237  11.133  1.00  0.00     0.000 C 
BRANCH   4   5
ATOM      5  C   UNL     1      -3.500  -9.201   9.596  1.00  0.00     0.000 C 
BRANCH   5   6
ATOM      6  C   UNL     1      -2.764 -10.407   8.985  1.00  0.00     0.000 C 
BRANCH   6   7
ATOM      7  C   UNL     1      -3.681 -11.635   8.816  1.00  0.00     0.000 C 
BRANCH   7   8
ATOM      8  C   UNL     1      -3.957 -12.015   7.350  1.00  0.00     0.000 C 
BRANCH   8   9
ATOM      9  C   UNL     1      -5.441 -12.290   7.069  1.00  0.00     0.000 C 
BRANCH   9  10
ATOM     10  C   UNL     1      -5.613 -13.551   6.209  1.00  0.00     0.000 C 
BRANCH  10  11
ATOM     11  C   UNL     1      -5.366 -14.852   6.995  1.00  0.00     0.000 C 
BRANCH  11  12
ATOM     12  C   UNL     1      -4.139 -15.669   6.542  1.00  0.00     0.000 C 
BRANCH  12  13
ATOM     13  C   UNL     1      -2.819 -14.875   6.456  1.00  0.00     0.006 C 
BRANCH  13  14
ATOM     14  C   UNL     1      -1.877 -15.078   7.652  1.00  0.00     0.053 C 
BRANCH  14  15
ATOM     15  C   UNL     1      -0.823 -14.016   7.722  1.00  0.00     0.041 C 
ATOM     16  O   UNL     1       0.013 -14.015   8.664  1.00  0.00    -0.550 OA
ATOM     17  O   UNL     1      -0.777 -13.013   6.761  1.00  0.00    -0.550 OA
ENDBRANCH  14  15
ENDBRANCH  13  14
ENDBRANCH  12  13
ENDBRANCH  11  12
ENDBRANCH  10  11
ENDBRANCH   9  10
ENDBRANCH   8   9
ENDBRANCH   7   8
ENDBRANCH   6   7
ENDBRANCH   5   6
ENDBRANCH   4   5
ENDBRANCH   3   4
ENDBRANCH   2   3
ENDBRANCH   1   2
BRANCH   1  18
ATOM     18  C   UNL     1      -2.548  -6.950  14.588  1.00  0.00     0.000 C 
BRANCH  18  19
ATOM     19  C   UNL     1      -1.866  -7.048  15.964  1.00  0.00     0.000 C 
BRANCH  19  20
ATOM     20  C   UNL     1      -2.725  -7.678  17.079  1.00  0.00     0.000 C 
BRANCH  20  21
ATOM     21  C   UNL     1      -3.066  -6.736  18.251  1.00  0.00     0.000 C 
BRANCH  21  22
ATOM     22  C   UNL     1      -3.803  -7.406  19.428  1.00  0.00     0.000 C 
BRANCH  22  23
ATOM     23  C   UNL     1      -2.966  -8.422  20.231  1.00  0.00     0.000 C 
BRANCH  23  24
ATOM     24  C   UNL     1      -1.493  -8.543  19.795  1.00  0.00    -0.000 C 
BRANCH  24  25
ATOM     25  C   UNL     1      -0.511  -8.122  20.903  1.00  0.00    -0.000 C 
BRANCH  25  26
ATOM     26  C   UNL     1      -1.215  -7.811  22.235  1.00  0.00    -0.000 C 
BRANCH  26  27
ATOM     27  C   UNL     1      -1.416  -6.302  22.461  1.00  0.00    -0.000 C 
BRANCH  27  28
ATOM     28  C   UNL     1      -2.516  -5.991  23.492  1.00  0.00    -0.000 C 
BRANCH  28  29
ATOM     29  C   UNL     1      -2.153  -4.922  24.541  1.00  0.00    -0.000 C 
BRANCH  29  30
ATOM     30  C   UNL     1      -3.122  -4.901  25.736  1.00  0.00    -0.000 C 
BRANCH  30  31
ATOM     31  C   UNL     1      -4.591  -4.767  25.303  1.00  0.00    -0.003 C 
ATOM     32  C   UNL     1      -4.992  -5.783  24.234  1.00  0.00     0.004 C 
ENDBRANCH  30  31
ENDBRANCH  29  30
ENDBRANCH  28  29
ENDBRANCH  27  28
ENDBRANCH  26  27
ENDBRANCH  25  26
ENDBRANCH  24  25
ENDBRANCH  23  24
ENDBRANCH  22  23
ENDBRANCH  21  22
ENDBRANCH  20  21
ENDBRANCH  19  20
ENDBRANCH  18  19
ENDBRANCH   1  18
TORSDOF 28
ENDMDL
MODEL 4
REMARK VINA RESULT:    20.620      2.318      4.375
REMARK INTER + INTRA:          53.211
REMARK INTER:                  52.963
REMARK INTRA:                   0.248
REMARK UNBOUND:                -1.163
REMARK SMILES CCCCCCCCCCCCCCCCCCCCCCCCCCCCCC(=O)[O-]
REMARK SMILES IDX 16 1 17 2 18 3 19 4 20 5 21 6 22 7 23 8 24 9 25 10 26 11
REMARK SMILES IDX 27 12 28 13 29 14 30 15 31 16 32 17 15 18 14 19 13 20 12 21
REMARK SMILES IDX 11 22 10 23 9 24 8 25 7 26 6 27 5 28 4 29 3 30 2 31 1 32
REMARK H PARENT
REMARK Flexibility Score: inf
ROOT
ATOM      1  C   UNL     1       1.075 -13.239  10.050  1.00  0.00     0.000 C 
ENDROOT
BRANCH   1   2
ATOM      2  C   UNL     1       0.896 -11.725  10.250  1.00  0.00     0.000 C 
BRANCH   2   3
ATOM      3  C   UNL     1       1.891 -11.133  11.261  1.00  0.00     0.000 C 
BRANCH   3   4
ATOM      4  C   UNL     1       1.189 -10.146  12.206  1.00  0.00     0.000 C 
BRANCH   4   5
ATOM      5  C   UNL     1       1.804  -8.738  12.162  1.00  0.00     0.000 C 
BRANCH   5   6
ATOM      6  C   UNL     1       1.662  -7.985  13.498  1.00  0.00     0.000 C 
BRANCH   6   7
ATOM      7  C   UNL     1       0.190  -7.816  13.927  1.00  0.00     0.000 C 
BRANCH   7   8
ATOM      8  C   UNL     1       0.006  -7.044  15.246  1.00  0.00     0.000 C 
BRANCH   8   9
ATOM      9  C   UNL     1      -1.444  -6.600  15.486  1.00  0.00     0.000 C 
BRANCH   9  10
ATOM     10  C   UNL     1      -2.089  -7.414  16.617  1.00  0.00     0.000 C 
BRANCH  10  11
ATOM     11  C   UNL     1      -2.410  -6.564  17.861  1.00  0.00     0.000 C 
BRANCH  11  12
ATOM     12  C   UNL     1      -3.786  -6.834  18.502  1.00  0.00     0.000 C 
BRANCH  12  13
ATOM     13  C   UNL     1      -3.746  -7.588  19.848  1.00  0.00     0.006 C 
BRANCH  13  14
ATOM     14  C   UNL     1      -2.663  -8.673  19.935  1.00  0.00     0.053 C 
BRANCH  14  15
ATOM     15  C   UNL     1      -1.449  -8.196  20.673  1.00  0.00     0.041 C 
ATOM     16  O   UNL     1      -1.572  -7.440  21.672  1.00  0.00    -0.550 OA
ATOM     17  O   UNL     1      -0.181  -8.568  20.243  1.00  0.00    -0.550 OA
ENDBRANCH  14  15
ENDBRANCH  13  14
ENDBRANCH  12  13
ENDBRANCH  11  12
ENDBRANCH  10  11
ENDBRANCH   9  10
ENDBRANCH   8   9
ENDBRANCH   7   8
ENDBRANCH   6   7
ENDBRANCH   5   6
ENDBRANCH   4   5
ENDBRANCH   3   4
ENDBRANCH   2   3
ENDBRANCH   1   2
BRANCH   1  18
ATOM     18  C   UNL     1       0.895 -13.672   8.585  1.00  0.00     0.000 C 
BRANCH  18  19
ATOM     19  C   UNL     1      -0.562 -14.033   8.245  1.00  0.00     0.000 C 
BRANCH  19  20
ATOM     20  C   UNL     1      -0.843 -14.288   6.750  1.00  0.00     0.000 C 
BRANCH  20  21
ATOM     21  C   UNL     1      -2.278 -14.748   6.426  1.00  0.00     0.000 C 
BRANCH  21  22
ATOM     22  C   UNL     1      -2.675 -16.112   7.028  1.00  0.00     0.000 C 
BRANCH  22  23
ATOM     23  C   UNL     1      -3.987 -16.711   6.482  1.00  0.00     0.000 C 
BRANCH  23  24
ATOM     24  C   UNL     1      -5.213 -16.542   7.400  1.00  0.00    -0.000 C 
BRANCH  24  25
ATOM     25  C   UNL     1      -6.411 -15.901   6.677  1.00  0.00    -0.000 C 
BRANCH  25  26
ATOM     26  C   UNL     1      -6.832 -14.559   7.301  1.00  0.00    -0.000 C 
BRANCH  26  27
ATOM     27  C   UNL     1      -6.863 -13.412   6.275  1.00  0.00    -0.000 C 
BRANCH  27  28
ATOM     28  C   UNL     1      -5.608 -12.523   6.331  1.00  0.00    -0.000 C 
BRANCH  28  29
ATOM     29  C   UNL     1      -4.318 -13.231   6.788  1.00  0.00    -0.000 C 
BRANCH  29  30
ATOM     30  C   UNL     1      -3.947 -12.918   8.248  1.00  0.00    -0.000 C 
BRANCH  30  31
ATOM     31  C   UNL     1      -2.970 -11.737   8.369  1.00  0.00    -0.003 C 
ATOM     32  C   UNL     1      -3.640 -10.383   8.135  1.00  0.00     0.004 C 
ENDBRANCH  30  31
ENDBRANCH  29  30
ENDBRANCH  28  29
ENDBRANCH  27  28
ENDBRANCH  26  27
ENDBRANCH  25  26
ENDBRANCH  24  25
ENDBRANCH  23  24
ENDBRANCH  22  23
ENDBRANCH  21  22
ENDBRANCH  20  21
ENDBRANCH  19  20
ENDBRANCH  18  19
ENDBRANCH   1  18
TORSDOF 28
ENDMDL
MODEL 5
REMARK VINA RESULT:    20.758      2.409      3.198
REMARK INTER + INTRA:          53.574
REMARK INTER:                  54.349
REMARK INTRA:                  -0.774
REMARK UNBOUND:                -1.163
REMARK SMILES CCCCCCCCCCCCCCCCCCCCCCCCCCCCCC(=O)[O-]
REMARK SMILES IDX 16 1 17 2 18 3 19 4 20 5 21 6 22 7 23 8 24 9 25 10 26 11
REMARK SMILES IDX 27 12 28 13 29 14 30 15 31 16 32 17 15 18 14 19 13 20 12 21
REMARK SMILES IDX 11 22 10 23 9 24 8 25 7 26 6 27 5 28 4 29 3 30 2 31 1 32
REMARK H PARENT
REMARK Flexibility Score: inf
ROOT
ATOM      1  C   UNL     1      -3.497  -9.140  11.039  1.00  0.00     0.000 C 
ENDROOT
BRANCH   1   2
ATOM      2  C   UNL     1      -4.826  -8.378  10.914  1.00  0.00     0.000 C 
BRANCH   2   3
ATOM      3  C   UNL     1      -5.259  -7.710  12.228  1.00  0.00     0.000 C 
BRANCH   3   4
ATOM      4  C   UNL     1      -4.038  -7.337  13.082  1.00  0.00     0.000 C 
BRANCH   4   5
ATOM      5  C   UNL     1      -3.444  -8.540  13.832  1.00  0.00     0.000 C 
BRANCH   5   6
ATOM      6  C   UNL     1      -3.091  -8.215  15.295  1.00  0.00     0.000 C 
BRANCH   6   7
ATOM      7  C   UNL     1      -2.156  -6.994  15.420  1.00  0.00     0.000 C 
BRANCH   7   8
ATOM      8  C   UNL     1      -1.716  -6.686  16.862  1.00  0.00     0.000 C 
BRANCH   8   9
ATOM      9  C   UNL     1      -2.856  -6.150  17.739  1.00  0.00     0.000 C 
BRANCH   9  10
ATOM     10  C   UNL     1      -3.411  -7.252  18.653  1.00  0.00     0.000 C 
BRANCH  10  11
ATOM     11  C   UNL     1      -2.557  -7.470  19.917  1.00  0.00     0.000 C 
BRANCH  11  12
ATOM     12  C   UNL     1      -1.821  -8.824  19.986  1.00  0.00     0.000 C 
BRANCH  12  13
ATOM     13  C   UNL     1      -2.707 -10.064  19.748  1.00  0.00     0.006 C 
BRANCH  13  14
ATOM     14  C   UNL     1      -3.856 -10.227  20.753  1.00  0.00     0.053 C 
BRANCH  14  15
ATOM     15  C   UNL     1      -4.449 -11.602  20.710  1.00  0.00     0.041 C 
ATOM     16  O   UNL     1      -4.347 -12.302  19.669  1.00  0.00    -0.550 OA
ATOM     17  O   UNL     1      -5.134 -12.101  21.811  1.00  0.00    -0.550 OA
ENDBRANCH  14  15
ENDBRANCH  13  14
ENDBRANCH  12  13
ENDBRANCH  11  12
ENDBRANCH  10  11
ENDBRANCH   9  10
ENDBRANCH   8   9
ENDBRANCH   7   8
ENDBRANCH   6   7
ENDBRANCH   5   6
ENDBRANCH   4   5
ENDBRANCH   3   4
ENDBRANCH   2   3
ENDBRANCH   1   2
BRANCH   1  18
ATOM     18  C   UNL     1      -2.946  -9.605   9.680  1.00  0.00     0.000 C 
BRANCH  18  19
ATOM     19  C   UNL     1      -3.925 -10.520   8.922  1.00  0.00     0.000 C 
BRANCH  19  20
ATOM     20  C   UNL     1      -3.314 -11.828   8.379  1.00  0.00     0.000 C 
BRANCH  20  21
ATOM     21  C   UNL     1      -3.876 -12.296   7.023  1.00  0.00     0.000 C 
BRANCH  21  22
ATOM     22  C   UNL     1      -5.411 -12.230   6.898  1.00  0.00     0.000 C 
BRANCH  22  23
ATOM     23  C   UNL     1      -6.074 -13.486   6.297  1.00  0.00     0.000 C 
BRANCH  23  24
ATOM     24  C   UNL     1      -6.724 -14.435   7.322  1.00  0.00    -0.000 C 
BRANCH  24  25
ATOM     25  C   UNL     1      -6.452 -15.918   7.013  1.00  0.00    -0.000 C 
BRANCH  25  26
ATOM     26  C   UNL     1      -5.114 -16.137   6.286  1.00  0.00    -0.000 C 
BRANCH  26  27
ATOM     27  C   UNL     1      -3.928 -16.281   7.256  1.00  0.00    -0.000 C 
BRANCH  27  28
ATOM     28  C   UNL     1      -2.709 -15.436   6.843  1.00  0.00    -0.000 C 
BRANCH  28  29
ATOM     29  C   UNL     1      -2.030 -14.655   7.984  1.00  0.00    -0.000 C 
BRANCH  29  30
ATOM     30  C   UNL     1      -0.633 -14.135   7.607  1.00  0.00    -0.000 C 
BRANCH  30  31
ATOM     31  C   UNL     1       0.297 -14.003   8.824  1.00  0.00    -0.003 C 
ATOM     32  C   UNL     1       1.673 -14.627   8.593  1.00  0.00     0.004 C 
ENDBRANCH  30  31
ENDBRANCH  29  30
ENDBRANCH  28  29
ENDBRANCH  27  28
ENDBRANCH  26  27
ENDBRANCH  25  26
ENDBRANCH  24  25
ENDBRANCH  23  24
ENDBRANCH  22  23
ENDBRANCH  21  22
ENDBRANCH  20  21
ENDBRANCH  19  20
ENDBRANCH  18  19
ENDBRANCH   1  18
TORSDOF 28
ENDMDL
MODEL 6
REMARK VINA RESULT:    20.937      4.578     12.611
REMARK INTER + INTRA:          54.046
REMARK INTER:                  55.993
REMARK INTRA:                  -1.948
REMARK UNBOUND:                -1.163
REMARK SMILES CCCCCCCCCCCCCCCCCCCCCCCCCCCCCC(=O)[O-]
REMARK SMILES IDX 16 1 17 2 18 3 19 4 20 5 21 6 22 7 23 8 24 9 25 10 26 11
REMARK SMILES IDX 27 12 28 13 29 14 30 15 31 16 32 17 15 18 14 19 13 20 12 21
REMARK SMILES IDX 11 22 10 23 9 24 8 25 7 26 6 27 5 28 4 29 3 30 2 31 1 32
REMARK H PARENT
REMARK Flexibility Score: inf
ROOT
ATOM      1  C   UNL     1      -3.157 -11.227   8.805  1.00  0.00     0.000 C 
ENDROOT
BRANCH   1   2
ATOM      2  C   UNL     1      -3.903 -11.315   7.464  1.00  0.00     0.000 C 
BRANCH   2   3
ATOM      3  C   UNL     1      -4.643 -12.649   7.277  1.00  0.00     0.000 C 
BRANCH   3   4
ATOM      4  C   UNL     1      -5.691 -12.542   6.159  1.00  0.00     0.000 C 
BRANCH   4   5
ATOM      5  C   UNL     1      -6.531 -13.819   6.003  1.00  0.00     0.000 C 
BRANCH   5   6
ATOM      6  C   UNL     1      -6.800 -14.523   7.346  1.00  0.00     0.000 C 
BRANCH   6   7
ATOM      7  C   UNL     1      -6.710 -16.059   7.236  1.00  0.00     0.000 C 
BRANCH   7   8
ATOM      8  C   UNL     1      -5.459 -16.563   6.495  1.00  0.00     0.000 C 
BRANCH   8   9
ATOM      9  C   UNL     1      -4.154 -16.263   7.245  1.00  0.00     0.000 C 
BRANCH   9  10
ATOM     10  C   UNL     1      -3.168 -15.498   6.350  1.00  0.00     0.000 C 
BRANCH  10  11
ATOM     11  C   UNL     1      -1.760 -15.387   6.965  1.00  0.00     0.000 C 
BRANCH  11  12
ATOM     12  C   UNL     1      -1.479 -14.077   7.728  1.00  0.00     0.000 C 
BRANCH  12  13
ATOM     13  C   UNL     1       0.013 -13.714   7.879  1.00  0.00     0.006 C 
BRANCH  13  14
ATOM     14  C   UNL     1       0.529 -13.739   9.325  1.00  0.00     0.053 C 
BRANCH  14  15
ATOM     15  C   UNL     1       1.439 -14.902   9.576  1.00  0.00     0.041 C 
ATOM     16  O   UNL     1       2.119 -15.388   8.634  1.00  0.00    -0.550 OA
ATOM     17  O   UNL     1       1.519 -15.465  10.844  1.00  0.00    -0.550 OA
ENDBRANCH  14  15
ENDBRANCH  13  14
ENDBRANCH  12  13
ENDBRANCH  11  12
ENDBRANCH  10  11
ENDBRANCH   9  10
ENDBRANCH   8   9
ENDBRANCH   7   8
ENDBRANCH   6   7
ENDBRANCH   5   6
ENDBRANCH   4   5
ENDBRANCH   3   4
ENDBRANCH   2   3
ENDBRANCH   1   2
BRANCH   1  18
ATOM     18  C   UNL     1      -3.048  -9.787   9.333  1.00  0.00     0.000 C 
BRANCH  18  19
ATOM     19  C   UNL     1      -3.988  -9.515  10.522  1.00  0.00     0.000 C 
BRANCH  19  20
ATOM     20  C   UNL     1      -3.721  -8.201  11.283  1.00  0.00     0.000 C 
BRANCH  20  21
ATOM     21  C   UNL     1      -4.287  -8.150  12.715  1.00  0.00     0.000 C 
BRANCH  21  22
ATOM     22  C   UNL     1      -3.408  -8.830  13.785  1.00  0.00     0.000 C 
BRANCH  22  23
ATOM     23  C   UNL     1      -3.258  -8.045  15.104  1.00  0.00     0.000 C 
BRANCH  23  24
ATOM     24  C   UNL     1      -2.079  -7.054  15.141  1.00  0.00    -0.000 C 
BRANCH  24  25
ATOM     25  C   UNL     1      -1.717  -6.618  16.572  1.00  0.00    -0.000 C 
BRANCH  25  26
ATOM     26  C   UNL     1      -2.885  -5.928  17.297  1.00  0.00    -0.000 C 
BRANCH  26  27
ATOM     27  C   UNL     1      -2.870  -6.174  18.816  1.00  0.00    -0.000 C 
BRANCH  27  28
ATOM     28  C   UNL     1      -3.056  -7.657  19.185  1.00  0.00    -0.000 C 
BRANCH  28  29
ATOM     29  C   UNL     1      -1.757  -8.433  19.475  1.00  0.00    -0.000 C 
BRANCH  29  30
ATOM     30  C   UNL     1      -1.387  -8.447  20.968  1.00  0.00    -0.000 C 
BRANCH  30  31
ATOM     31  C   UNL     1      -1.031  -7.050  21.502  1.00  0.00    -0.003 C 
ATOM     32  C   UNL     1      -1.834  -6.664  22.744  1.00  0.00     0.004 C 
ENDBRANCH  30  31
ENDBRANCH  29  30
ENDBRANCH  28  29
ENDBRANCH  27  28
ENDBRANCH  26  27
ENDBRANCH  25  26
ENDBRANCH  24  25
ENDBRANCH  23  24
ENDBRANCH  22  23
ENDBRANCH  21  22
ENDBRANCH  20  21
ENDBRANCH  19  20
ENDBRANCH  18  19
ENDBRANCH   1  18
TORSDOF 28
ENDMDL
MODEL 7
REMARK VINA RESULT:    21.027      2.444      2.856
REMARK INTER + INTRA:          54.283
REMARK INTER:                  55.555
REMARK INTRA:                  -1.272
REMARK UNBOUND:                -1.163
REMARK SMILES CCCCCCCCCCCCCCCCCCCCCCCCCCCCCC(=O)[O-]
REMARK SMILES IDX 16 1 17 2 18 3 19 4 20 5 21 6 22 7 23 8 24 9 25 10 26 11
REMARK SMILES IDX 27 12 28 13 29 14 30 15 31 16 32 17 15 18 14 19 13 20 12 21
REMARK SMILES IDX 11 22 10 23 9 24 8 25 7 26 6 27 5 28 4 29 3 30 2 31 1 32
REMARK H PARENT
REMARK Flexibility Score: inf
ROOT
ATOM      1  C   UNL     1      -2.963 -11.370   8.897  1.00  0.00     0.000 C 
ENDROOT
BRANCH   1   2
ATOM      2  C   UNL     1      -3.569  -9.988   9.186  1.00  0.00     0.000 C 
BRANCH   2   3
ATOM      3  C   UNL     1      -3.231  -9.467  10.592  1.00  0.00     0.000 C 
BRANCH   3   4
ATOM      4  C   UNL     1      -4.245  -8.404  11.041  1.00  0.00     0.000 C 
BRANCH   4   5
ATOM      5  C   UNL     1      -4.256  -8.195  12.564  1.00  0.00     0.000 C 
BRANCH   5   6
ATOM      6  C   UNL     1      -3.063  -8.870  13.267  1.00  0.00     0.000 C 
BRANCH   6   7
ATOM      7  C   UNL     1      -2.921  -8.432  14.739  1.00  0.00     0.000 C 
BRANCH   7   8
ATOM      8  C   UNL     1      -2.136  -7.121  14.930  1.00  0.00     0.000 C 
BRANCH   8   9
ATOM      9  C   UNL     1      -1.845  -6.803  16.403  1.00  0.00     0.000 C 
BRANCH   9  10
ATOM     10  C   UNL     1      -2.845  -7.514  17.327  1.00  0.00     0.000 C 
BRANCH  10  11
ATOM     11  C   UNL     1      -3.003  -6.816  18.691  1.00  0.00     0.000 C 
BRANCH  11  12
ATOM     12  C   UNL     1      -2.434  -7.594  19.896  1.00  0.00     0.000 C 
BRANCH  12  13
ATOM     13  C   UNL     1      -2.393  -9.127  19.726  1.00  0.00     0.006 C 
BRANCH  13  14
ATOM     14  C   UNL     1      -3.432  -9.887  20.563  1.00  0.00     0.053 C 
BRANCH  14  15
ATOM     15  C   UNL     1      -3.926 -11.116  19.864  1.00  0.00     0.041 C 
ATOM     16  O   UNL     1      -4.565 -11.993  20.502  1.00  0.00    -0.550 OA
ATOM     17  O   UNL     1      -3.662 -11.304  18.512  1.00  0.00    -0.550 OA
ENDBRANCH  14  15
ENDBRANCH  13  14
ENDBRANCH  12  13
ENDBRANCH  11  12
ENDBRANCH  10  11
ENDBRANCH   9  10
ENDBRANCH   8   9
ENDBRANCH   7   8
ENDBRANCH   6   7
ENDBRANCH   5   6
ENDBRANCH   4   5
ENDBRANCH   3   4
ENDBRANCH   2   3
ENDBRANCH   1   2
BRANCH   1  18
ATOM     18  C   UNL     1      -3.998 -12.376   8.365  1.00  0.00     0.000 C 
BRANCH  18  19
ATOM     19  C   UNL     1      -4.551 -11.986   6.981  1.00  0.00     0.000 C 
BRANCH  19  20
ATOM     20  C   UNL     1      -5.034 -13.164   6.112  1.00  0.00     0.000 C 
BRANCH  20  21
ATOM     21  C   UNL     1      -6.530 -13.506   6.249  1.00  0.00     0.000 C 
BRANCH  21  22
ATOM     22  C   UNL     1      -6.866 -14.512   7.368  1.00  0.00     0.000 C 
BRANCH  22  23
ATOM     23  C   UNL     1      -6.291 -15.929   7.167  1.00  0.00     0.000 C 
BRANCH  23  24
ATOM     24  C   UNL     1      -4.958 -15.989   6.396  1.00  0.00    -0.000 C 
BRANCH  24  25
ATOM     25  C   UNL     1      -3.822 -16.614   7.224  1.00  0.00    -0.000 C 
BRANCH  25  26
ATOM     26  C   UNL     1      -2.428 -16.156   6.762  1.00  0.00    -0.000 C 
BRANCH  26  27
ATOM     27  C   UNL     1      -2.433 -14.728   6.188  1.00  0.00    -0.000 C 
BRANCH  27  28
ATOM     28  C   UNL     1      -1.256 -13.874   6.693  1.00  0.00    -0.000 C 
BRANCH  28  29
ATOM     29  C   UNL     1      -0.888 -14.069   8.177  1.00  0.00    -0.000 C 
BRANCH  29  30
ATOM     30  C   UNL     1       0.603 -14.382   8.389  1.00  0.00    -0.000 C 
BRANCH  30  31
ATOM     31  C   UNL     1       0.963 -14.561   9.873  1.00  0.00    -0.003 C 
ATOM     32  C   UNL     1       2.459 -14.775  10.101  1.00  0.00     0.004 C 
ENDBRANCH  30  31
ENDBRANCH  29  30
ENDBRANCH  28  29
ENDBRANCH  27  28
ENDBRANCH  26  27
ENDBRANCH  25  26
ENDBRANCH  24  25
ENDBRANCH  23  24
ENDBRANCH  22  23
ENDBRANCH  21  22
ENDBRANCH  20  21
ENDBRANCH  19  20
ENDBRANCH  18  19
ENDBRANCH   1  18
TORSDOF 28
ENDMDL
MODEL 8
REMARK VINA RESULT:    21.074      1.644      3.562
REMARK INTER + INTRA:          54.406
REMARK INTER:                  56.121
REMARK INTRA:                  -1.714
REMARK UNBOUND:                -1.163
REMARK SMILES CCCCCCCCCCCCCCCCCCCCCCCCCCCCCC(=O)[O-]
REMARK SMILES IDX 16 1 17 2 18 3 19 4 20 5 21 6 22 7 23 8 24 9 25 10 26 11
REMARK SMILES IDX 27 12 28 13 29 14 30 15 31 16 32 17 15 18 14 19 13 20 12 21
REMARK SMILES IDX 11 22 10 23 9 24 8 25 7 26 6 27 5 28 4 29 3 30 2 31 1 32
REMARK H PARENT
REMARK Flexibility Score: inf
ROOT
ATOM      1  C   UNL     1      -0.193  -9.725  11.987  1.00  0.00     0.000 C 
ENDROOT
BRANCH   1   2
ATOM      2  C   UNL     1       0.903  -9.425  13.023  1.00  0.00     0.000 C 
BRANCH   2   3
ATOM      3  C   UNL     1       0.990  -7.934  13.387  1.00  0.00     0.000 C 
BRANCH   3   4
ATOM      4  C   UNL     1       0.375  -7.672  14.770  1.00  0.00     0.000 C 
BRANCH   4   5
ATOM      5  C   UNL     1      -0.730  -6.603  14.740  1.00  0.00     0.000 C 
BRANCH   5   6
ATOM      6  C   UNL     1      -1.531  -6.538  16.054  1.00  0.00     0.000 C 
BRANCH   6   7
ATOM      7  C   UNL     1      -2.380  -7.804  16.290  1.00  0.00     0.000 C 
BRANCH   7   8
ATOM      8  C   UNL     1      -3.328  -7.706  17.499  1.00  0.00     0.000 C 
BRANCH   8   9
ATOM      9  C   UNL     1      -2.691  -7.010  18.709  1.00  0.00     0.000 C 
BRANCH   9  10
ATOM     10  C   UNL     1      -3.097  -7.701  20.019  1.00  0.00     0.000 C 
BRANCH  10  11
ATOM     11  C   UNL     1      -1.903  -7.958  20.957  1.00  0.00     0.000 C 
BRANCH  11  12
ATOM     12  C   UNL     1      -1.269  -6.693  21.573  1.00  0.00     0.000 C 
BRANCH  12  13
ATOM     13  C   UNL     1      -1.297  -6.630  23.114  1.00  0.00     0.006 C 
BRANCH  13  14
ATOM     14  C   UNL     1      -1.774  -5.287  23.686  1.00  0.00     0.053 C 
BRANCH  14  15
ATOM     15  C   UNL     1      -3.072  -5.419  24.422  1.00  0.00     0.041 C 
ATOM     16  O   UNL     1      -4.026  -6.063  23.911  1.00  0.00    -0.550 OA
ATOM     17  O   UNL     1      -3.237  -4.812  25.661  1.00  0.00    -0.550 OA
ENDBRANCH  14  15
ENDBRANCH  13  14
ENDBRANCH  12  13
ENDBRANCH  11  12
ENDBRANCH  10  11
ENDBRANCH   9  10
ENDBRANCH   8   9
ENDBRANCH   7   8
ENDBRANCH   6   7
ENDBRANCH   5   6
ENDBRANCH   4   5
ENDBRANCH   3   4
ENDBRANCH   2   3
ENDBRANCH   1   2
BRANCH   1  18
ATOM     18  C   UNL     1      -1.612  -9.511  12.542  1.00  0.00     0.000 C 
BRANCH  18  19
ATOM     19  C   UNL     1      -2.644  -9.217  11.438  1.00  0.00     0.000 C 
BRANCH  19  20
ATOM     20  C   UNL     1      -2.359  -9.885  10.078  1.00  0.00     0.000 C 
BRANCH  20  21
ATOM     21  C   UNL     1      -3.608 -10.358   9.308  1.00  0.00     0.000 C 
BRANCH  21  22
ATOM     22  C   UNL     1      -3.316 -11.063   7.968  1.00  0.00     0.000 C 
BRANCH  22  23
ATOM     23  C   UNL     1      -4.111 -12.363   7.727  1.00  0.00     0.000 C 
BRANCH  23  24
ATOM     24  C   UNL     1      -5.441 -12.182   6.970  1.00  0.00    -0.000 C 
BRANCH  24  25
ATOM     25  C   UNL     1      -5.825 -13.421   6.142  1.00  0.00    -0.000 C 
BRANCH  25  26
ATOM     26  C   UNL     1      -6.138 -14.647   7.017  1.00  0.00    -0.000 C 
BRANCH  26  27
ATOM     27  C   UNL     1      -5.460 -15.930   6.505  1.00  0.00    -0.000 C 
BRANCH  27  28
ATOM     28  C   UNL     1      -4.132 -16.234   7.222  1.00  0.00    -0.000 C 
BRANCH  28  29
ATOM     29  C   UNL     1      -2.859 -15.868   6.434  1.00  0.00    -0.000 C 
BRANCH  29  30
ATOM     30  C   UNL     1      -2.267 -14.510   6.848  1.00  0.00    -0.000 C 
BRANCH  30  31
ATOM     31  C   UNL     1      -1.009 -14.656   7.720  1.00  0.00    -0.003 C 
ATOM     32  C   UNL     1      -0.181 -13.373   7.790  1.00  0.00     0.004 C 
ENDBRANCH  30  31
ENDBRANCH  29  30
ENDBRANCH  28  29
ENDBRANCH  27  28
ENDBRANCH  26  27
ENDBRANCH  25  26
ENDBRANCH  24  25
ENDBRANCH  23  24
ENDBRANCH  22  23
ENDBRANCH  21  22
ENDBRANCH  20  21
ENDBRANCH  19  20
ENDBRANCH  18  19
ENDBRANCH   1  18
TORSDOF 28
ENDMDL
MODEL 9
REMARK VINA RESULT:    21.120      4.615     13.700
REMARK INTER + INTRA:          54.529
REMARK INTER:                  55.480
REMARK INTRA:                  -0.951
REMARK UNBOUND:                -1.163
REMARK SMILES CCCCCCCCCCCCCCCCCCCCCCCCCCCCCC(=O)[O-]
REMARK SMILES IDX 16 1 17 2 18 3 19 4 20 5 21 6 22 7 23 8 24 9 25 10 26 11
REMARK SMILES IDX 27 12 28 13 29 14 30 15 31 16 32 17 15 18 14 19 13 20 12 21
REMARK SMILES IDX 11 22 10 23 9 24 8 25 7 26 6 27 5 28 4 29 3 30 2 31 1 32
REMARK H PARENT
REMARK Flexibility Score: inf
ROOT
ATOM      1  C   UNL     1      -3.332  -9.434  10.971  1.00  0.00     0.000 C 
ENDROOT
BRANCH   1   2
ATOM      2  C   UNL     1      -3.258  -9.356   9.438  1.00  0.00     0.000 C 
BRANCH   2   3
ATOM      3  C   UNL     1      -3.439 -10.724   8.759  1.00  0.00     0.000 C 
BRANCH   3   4
ATOM      4  C   UNL     1      -4.788 -10.797   8.027  1.00  0.00     0.000 C 
BRANCH   4   5
ATOM      5  C   UNL     1      -4.844 -11.931   6.991  1.00  0.00     0.000 C 
BRANCH   5   6
ATOM      6  C   UNL     1      -6.270 -12.196   6.475  1.00  0.00     0.000 C 
BRANCH   6   7
ATOM      7  C   UNL     1      -6.475 -13.659   6.030  1.00  0.00     0.000 C 
BRANCH   7   8
ATOM      8  C   UNL     1      -6.602 -14.656   7.196  1.00  0.00     0.000 C 
BRANCH   8   9
ATOM      9  C   UNL     1      -5.371 -15.559   7.353  1.00  0.00     0.000 C 
BRANCH   9  10
ATOM     10  C   UNL     1      -4.417 -15.401   6.160  1.00  0.00     0.000 C 
BRANCH  10  11
ATOM     11  C   UNL     1      -3.055 -14.802   6.555  1.00  0.00     0.000 C 
BRANCH  11  12
ATOM     12  C   UNL     1      -3.055 -13.971   7.855  1.00  0.00     0.000 C 
BRANCH  12  13
ATOM     13  C   UNL     1      -1.660 -13.659   8.434  1.00  0.00     0.006 C 
BRANCH  13  14
ATOM     14  C   UNL     1      -0.521 -14.494   7.831  1.00  0.00     0.053 C 
BRANCH  14  15
ATOM     15  C   UNL     1       0.773 -14.283   8.555  1.00  0.00     0.041 C 
ATOM     16  O   UNL     1       1.602 -13.432   8.136  1.00  0.00    -0.550 OA
ATOM     17  O   UNL     1       1.076 -15.043   9.679  1.00  0.00    -0.550 OA
ENDBRANCH  14  15
ENDBRANCH  13  14
ENDBRANCH  12  13
ENDBRANCH  11  12
ENDBRANCH  10  11
ENDBRANCH   9  10
ENDBRANCH   8   9
ENDBRANCH   7   8
ENDBRANCH   6   7
ENDBRANCH   5   6
ENDBRANCH   4   5
ENDBRANCH   3   4
ENDBRANCH   2   3
ENDBRANCH   1   2
BRANCH   1  18
ATOM     18  C   UNL     1      -4.516  -8.643  11.552  1.00  0.00     0.000 C 
BRANCH  18  19
ATOM     19  C   UNL     1      -4.099  -7.706  12.701  1.00  0.00     0.000 C 
BRANCH  19  20
ATOM     20  C   UNL     1      -4.325  -8.268  14.120  1.00  0.00     0.000 C 
BRANCH  20  21
ATOM     21  C   UNL     1      -3.043  -8.687  14.866  1.00  0.00     0.000 C 
BRANCH  21  22
ATOM     22  C   UNL     1      -2.591  -7.715  15.976  1.00  0.00     0.000 C 
BRANCH  22  23
ATOM     23  C   UNL     1      -3.371  -7.828  17.302  1.00  0.00     0.000 C 
BRANCH  23  24
ATOM     24  C   UNL     1      -2.689  -7.172  18.517  1.00  0.00    -0.000 C 
BRANCH  24  25
ATOM     25  C   UNL     1      -2.578  -8.125  19.721  1.00  0.00    -0.000 C 
BRANCH  25  26
ATOM     26  C   UNL     1      -1.181  -8.106  20.366  1.00  0.00    -0.000 C 
BRANCH  26  27
ATOM     27  C   UNL     1      -1.199  -7.553  21.802  1.00  0.00    -0.000 C 
BRANCH  27  28
ATOM     28  C   UNL     1      -1.386  -6.026  21.854  1.00  0.00    -0.000 C 
BRANCH  28  29
ATOM     29  C   UNL     1      -1.249  -5.392  23.252  1.00  0.00    -0.000 C 
BRANCH  29  30
ATOM     30  C   UNL     1      -2.295  -5.914  24.252  1.00  0.00    -0.000 C 
BRANCH  30  31
ATOM     31  C   UNL     1      -3.188  -4.794  24.812  1.00  0.00    -0.003 C 
ATOM     32  C   UNL     1      -4.637  -5.233  25.018  1.00  0.00     0.004 C 
ENDBRANCH  30  31
ENDBRANCH  29  30
ENDBRANCH  28  29
ENDBRANCH  27  28
ENDBRANCH  26  27
ENDBRANCH  25  26
ENDBRANCH  24  25
ENDBRANCH  23  24
ENDBRANCH  22  23
ENDBRANCH  21  22
ENDBRANCH  20  21
ENDBRANCH  19  20
ENDBRANCH  18  19
ENDBRANCH   1  18
TORSDOF 28
ENDMDL
