MODEL 1
REMARK VINA RESULT:    -3.408      0.000      0.000
REMARK INTER + INTRA:          -3.815
REMARK INTER:                  -3.806
REMARK INTRA:                  -0.009
REMARK UNBOUND:                -0.009
REMARK SMILES CCCC(=O)[O-]
REMARK SMILES IDX 3 1 4 2 5 3 6 4 2 5 1 6
REMARK H PARENT
REMARK Flexibility Score: inf
ROOT
ATOM      1  C   UNL     1      14.434   1.528  27.379  1.00  0.00     0.052 C 
ENDROOT
BRANCH   1   2
ATOM      2  C   UNL     1      13.866   0.522  28.330  1.00  0.00     0.041 C 
ATOM      3  O   UNL     1      13.002   0.868  29.177  1.00  0.00    -0.550 OA
ATOM      4  O   UNL     1      14.326  -0.789  28.312  1.00  0.00    -0.550 OA
ENDBRANCH   1   2
BRANCH   1   5
ATOM      5  C   UNL     1      15.004   0.831  26.141  1.00  0.00     0.003 C 
ATOM      6  C   UNL     1      15.610   1.841  25.171  1.00  0.00     0.004 C 
ENDBRANCH   1   5
TORSDOF 2
ENDMDL
MODEL 2
REMARK VINA RESULT:    -3.404      0.141      1.322
REMARK INTER + INTRA:          -3.811
REMARK INTER:                  -3.799
REMARK INTRA:                  -0.012
REMARK UNBOUND:                -0.009
REMARK SMILES CCCC(=O)[O-]
REMARK SMILES IDX 3 1 4 2 5 3 6 4 2 5 1 6
REMARK H PARENT
REMARK Flexibility Score: inf
ROOT
ATOM      1  C   UNL     1      14.458   1.558  27.320  1.00  0.00     0.052 C 
ENDROOT
BRANCH   1   2
ATOM      2  C   UNL     1      13.914   0.542  28.273  1.00  0.00     0.041 C 
ATOM      3  O   UNL     1      14.191  -0.678  28.124  1.00  0.00    -0.550 OA
ATOM      4  O   UNL     1      13.063   0.935  29.298  1.00  0.00    -0.550 OA
ENDBRANCH   1   2
BRANCH   1   5
ATOM      5  C   UNL     1      15.092   0.870  26.108  1.00  0.00     0.003 C 
ATOM      6  C   UNL     1      15.593   1.893  25.092  1.00  0.00     0.004 C 
ENDBRANCH   1   5
TORSDOF 2
ENDMDL
MODEL 3
REMARK VINA RESULT:    -3.372      2.687      3.067
REMARK INTER + INTRA:          -3.775
REMARK INTER:                  -3.757
REMARK INTRA:                  -0.018
REMARK UNBOUND:                -0.009
REMARK SMILES CCCC(=O)[O-]
REMARK SMILES IDX 3 1 4 2 5 3 6 4 2 5 1 6
REMARK H PARENT
REMARK Flexibility Score: inf
ROOT
ATOM      1  C   UNL     1      13.283  -1.530  26.305  1.00  0.00     0.052 C 
ENDROOT
BRANCH   1   2
ATOM      2  C   UNL     1      12.361  -0.490  26.859  1.00  0.00     0.041 C 
ATOM      3  O   UNL     1      12.727   0.231  27.825  1.00  0.00    -0.550 OA
ATOM      4  O   UNL     1      11.080  -0.348  26.340  1.00  0.00    -0.550 OA
ENDBRANCH   1   2
BRANCH   1   5
ATOM      5  C   UNL     1      14.737  -1.059  26.398  1.00  0.00     0.003 C 
ATOM      6  C   UNL     1      15.692  -2.242  26.527  1.00  0.00     0.004 C 
ENDBRANCH   1   5
TORSDOF 2
ENDMDL
MODEL 4
REMARK VINA RESULT:    -3.359      2.826      3.533
REMARK INTER + INTRA:          -3.761
REMARK INTER:                  -3.736
REMARK INTRA:                  -0.025
REMARK UNBOUND:                -0.009
REMARK SMILES CCCC(=O)[O-]
REMARK SMILES IDX 3 1 4 2 5 3 6 4 2 5 1 6
REMARK H PARENT
REMARK Flexibility Score: inf
ROOT
ATOM      1  C   UNL     1      13.218  -1.500  26.294  1.00  0.00     0.052 C 
ENDROOT
BRANCH   1   2
ATOM      2  C   UNL     1      14.690  -1.232  26.270  1.00  0.00     0.041 C 
ATOM      3  O   UNL     1      15.118  -0.051  26.184  1.00  0.00    -0.550 OA
ATOM      4  O   UNL     1      15.590  -2.291  26.296  1.00  0.00    -0.550 OA
ENDBRANCH   1   2
BRANCH   1   5
ATOM      5  C   UNL     1      12.475  -0.338  26.960  1.00  0.00     0.003 C 
ATOM      6  C   UNL     1      11.164  -0.038  26.239  1.00  0.00     0.004 C 
ENDBRANCH   1   5
TORSDOF 2
ENDMDL
MODEL 5
REMARK VINA RESULT:    -3.324      2.088      2.466
REMARK INTER + INTRA:          -3.721
REMARK INTER:                  -3.700
REMARK INTRA:                  -0.021
REMARK UNBOUND:                -0.009
REMARK SMILES CCCC(=O)[O-]
REMARK SMILES IDX 3 1 4 2 5 3 6 4 2 5 1 6
REMARK H PARENT
REMARK Flexibility Score: inf
ROOT
ATOM      1  C   UNL     1      13.429   0.778  26.158  1.00  0.00     0.052 C 
ENDROOT
BRANCH   1   2
ATOM      2  C   UNL     1      12.856  -0.598  26.283  1.00  0.00     0.041 C 
ATOM      3  O   UNL     1      13.602  -1.608  26.177  1.00  0.00    -0.550 OA
ATOM      4  O   UNL     1      11.490  -0.769  26.471  1.00  0.00    -0.550 OA
ENDBRANCH   1   2
BRANCH   1   5
ATOM      5  C   UNL     1      14.958   0.718  26.123  1.00  0.00     0.003 C 
ATOM      6  C   UNL     1      15.530   1.787  25.195  1.00  0.00     0.004 C 
ENDBRANCH   1   5
TORSDOF 2
ENDMDL
MODEL 6
REMARK VINA RESULT:    -3.298      2.160      2.591
REMARK INTER + INTRA:          -3.693
REMARK INTER:                  -3.665
REMARK INTRA:                  -0.027
REMARK UNBOUND:                -0.009
REMARK SMILES CCCC(=O)[O-]
REMARK SMILES IDX 3 1 4 2 5 3 6 4 2 5 1 6
REMARK H PARENT
REMARK Flexibility Score: inf
ROOT
ATOM      1  C   UNL     1      14.354  -0.759  28.327  1.00  0.00     0.052 C 
ENDROOT
BRANCH   1   2
ATOM      2  C   UNL     1      13.940   0.678  28.388  1.00  0.00     0.041 C 
ATOM      3  O   UNL     1      14.484   1.527  27.633  1.00  0.00    -0.550 OA
ATOM      4  O   UNL     1      12.986   1.088  29.311  1.00  0.00    -0.550 OA
ENDBRANCH   1   2
BRANCH   1   5
ATOM      5  C   UNL     1      14.262  -1.281  26.890  1.00  0.00     0.003 C 
ATOM      6  C   UNL     1      15.504  -2.083  26.515  1.00  0.00     0.004 C 
ENDBRANCH   1   5
TORSDOF 2
ENDMDL
MODEL 7
REMARK VINA RESULT:    -3.290      1.991      3.459
REMARK INTER + INTRA:          -3.684
REMARK INTER:                  -3.670
REMARK INTRA:                  -0.014
REMARK UNBOUND:                -0.009
REMARK SMILES CCCC(=O)[O-]
REMARK SMILES IDX 3 1 4 2 5 3 6 4 2 5 1 6
REMARK H PARENT
REMARK Flexibility Score: inf
ROOT
ATOM      1  C   UNL     1      14.391   1.235  27.760  1.00  0.00     0.052 C 
ENDROOT
BRANCH   1   2
ATOM      2  C   UNL     1      14.734   0.695  26.408  1.00  0.00     0.041 C 
ATOM      3  O   UNL     1      15.046  -0.518  26.270  1.00  0.00    -0.550 OA
ATOM      4  O   UNL     1      14.757   1.541  25.306  1.00  0.00    -0.550 OA
ENDBRANCH   1   2
BRANCH   1   5
ATOM      5  C   UNL     1      13.192   0.484  28.346  1.00  0.00     0.003 C 
ATOM      6  C   UNL     1      13.227   0.498  29.872  1.00  0.00     0.004 C 
ENDBRANCH   1   5
TORSDOF 2
ENDMDL
MODEL 8
REMARK VINA RESULT:    -3.278      2.027      3.304
REMARK INTER + INTRA:          -3.671
REMARK INTER:                  -3.660
REMARK INTRA:                  -0.011
REMARK UNBOUND:                -0.009
REMARK SMILES CCCC(=O)[O-]
REMARK SMILES IDX 3 1 4 2 5 3 6 4 2 5 1 6
REMARK H PARENT
REMARK Flexibility Score: inf
ROOT
ATOM      1  C   UNL     1      14.371   1.154  27.782  1.00  0.00     0.052 C 
ENDROOT
BRANCH   1   2
ATOM      2  C   UNL     1      14.777   0.649  26.433  1.00  0.00     0.041 C 
ATOM      3  O   UNL     1      14.828   1.437  25.451  1.00  0.00    -0.550 OA
ATOM      4  O   UNL     1      15.052  -0.700  26.249  1.00  0.00    -0.550 OA
ENDBRANCH   1   2
BRANCH   1   5
ATOM      5  C   UNL     1      13.239   0.297  28.355  1.00  0.00     0.003 C 
ATOM      6  C   UNL     1      13.173   0.418  29.875  1.00  0.00     0.004 C 
ENDBRANCH   1   5
TORSDOF 2
ENDMDL
MODEL 9
REMARK VINA RESULT:    -3.255      2.569      3.146
REMARK INTER + INTRA:          -3.645
REMARK INTER:                  -3.627
REMARK INTRA:                  -0.018
REMARK UNBOUND:                -0.009
REMARK SMILES CCCC(=O)[O-]
REMARK SMILES IDX 3 1 4 2 5 3 6 4 2 5 1 6
REMARK H PARENT
REMARK Flexibility Score: inf
ROOT
ATOM      1  C   UNL     1      13.053   0.780  25.898  1.00  0.00     0.052 C 
ENDROOT
BRANCH   1   2
ATOM      2  C   UNL     1      14.207   1.151  26.774  1.00  0.00     0.041 C 
ATOM      3  O   UNL     1      14.055   1.236  28.022  1.00  0.00    -0.550 OA
ATOM      4  O   UNL     1      15.442   1.450  26.210  1.00  0.00    -0.550 OA
ENDBRANCH   1   2
BRANCH   1   5
ATOM      5  C   UNL     1      12.038  -0.059  26.679  1.00  0.00     0.003 C 
ATOM      6  C   UNL     1      10.628   0.126  26.124  1.00  0.00     0.004 C 
ENDBRANCH   1   5
TORSDOF 2
ENDMDL
