MODEL 1
REMARK VINA RESULT:    -2.449      0.000      0.000
REMARK INTER + INTRA:          -4.408
REMARK INTER:                  -3.595
REMARK INTRA:                  -0.814
REMARK UNBOUND:                -0.814
REMARK SMILES O=C([O-])CCCCCCCC(=O)[O-]
REMARK SMILES IDX 7 1 6 2 5 3 4 4 2 5 1 6 3 7 8 8 9 9 10 10 11 11 12 12 13 13
REMARK H PARENT
REMARK Flexibility Score: inf
ROOT
ATOM      1  C   UNL     1       4.480  24.239   4.952  1.00  0.00     0.000 C 
ENDROOT
BRANCH   1   2
ATOM      2  C   UNL     1       5.907  24.472   5.476  1.00  0.00     0.000 C 
BRANCH   2   3
ATOM      3  C   UNL     1       5.982  24.458   7.010  1.00  0.00     0.006 C 
BRANCH   3   4
ATOM      4  C   UNL     1       6.921  23.353   7.502  1.00  0.00     0.053 C 
BRANCH   4   5
ATOM      5  C   UNL     1       6.218  22.033   7.508  1.00  0.00     0.041 C 
ATOM      6  O   UNL     1       6.575  21.121   6.717  1.00  0.00    -0.550 OA
ATOM      7  O   UNL     1       5.199  21.791   8.422  1.00  0.00    -0.550 OA
ENDBRANCH   4   5
ENDBRANCH   3   4
ENDBRANCH   2   3
ENDBRANCH   1   2
BRANCH   1   8
ATOM      8  C   UNL     1       4.254  22.795   4.474  1.00  0.00     0.000 C 
BRANCH   8   9
ATOM      9  C   UNL     1       3.197  22.043   5.303  1.00  0.00     0.006 C 
BRANCH   9  10
ATOM     10  C   UNL     1       2.515  22.910   6.376  1.00  0.00     0.053 C 
BRANCH  10  11
ATOM     11  C   UNL     1       1.028  22.737   6.397  1.00  0.00     0.041 C 
ATOM     12  O   UNL     1       0.338  23.060   5.393  1.00  0.00    -0.550 OA
ATOM     13  O   UNL     1       0.396  22.251   7.535  1.00  0.00    -0.550 OA
ENDBRANCH  10  11
ENDBRANCH   9  10
ENDBRANCH   8   9
ENDBRANCH   1   8
TORSDOF 8
ENDMDL
MODEL 2
REMARK VINA RESULT:    -2.420     23.969     25.046
REMARK INTER + INTRA:          -4.366
REMARK INTER:                  -3.851
REMARK INTRA:                  -0.515
REMARK UNBOUND:                -0.814
REMARK SMILES O=C([O-])CCCCCCCC(=O)[O-]
REMARK SMILES IDX 7 1 6 2 5 3 4 4 2 5 1 6 3 7 8 8 9 9 10 10 11 11 12 12 13 13
REMARK H PARENT
REMARK Flexibility Score: inf
ROOT
ATOM      1  C   UNL     1      -8.259  39.331  18.730  1.00  0.00     0.000 C 
ENDROOT
BRANCH   1   2
ATOM      2  C   UNL     1      -8.407  39.841  20.172  1.00  0.00     0.000 C 
BRANCH   2   3
ATOM      3  C   UNL     1      -9.853  39.751  20.685  1.00  0.00     0.006 C 
BRANCH   3   4
ATOM      4  C   UNL     1     -10.653  38.717  19.888  1.00  0.00     0.053 C 
BRANCH   4   5
ATOM      5  C   UNL     1     -11.293  37.728  20.809  1.00  0.00     0.041 C 
ATOM      6  O   UNL     1     -10.915  37.641  22.007  1.00  0.00    -0.550 OA
ATOM      7  O   UNL     1     -12.342  36.936  20.359  1.00  0.00    -0.550 OA
ENDBRANCH   4   5
ENDBRANCH   3   4
ENDBRANCH   2   3
ENDBRANCH   1   2
BRANCH   1   8
ATOM      8  C   UNL     1      -7.394  40.258  17.859  1.00  0.00     0.000 C 
BRANCH   8   9
ATOM      9  C   UNL     1      -8.188  40.937  16.728  1.00  0.00     0.006 C 
BRANCH   9  10
ATOM     10  C   UNL     1      -8.888  39.949  15.779  1.00  0.00     0.053 C 
BRANCH  10  11
ATOM     11  C   UNL     1     -10.349  40.239  15.622  1.00  0.00     0.041 C 
ATOM     12  O   UNL     1     -11.161  39.911  16.529  1.00  0.00    -0.550 OA
ATOM     13  O   UNL     1     -10.823  40.838  14.462  1.00  0.00    -0.550 OA
ENDBRANCH  10  11
ENDBRANCH   9  10
ENDBRANCH   8   9
ENDBRANCH   1   8
TORSDOF 8
ENDMDL
MODEL 3
REMARK VINA RESULT:    -2.386     23.954     25.094
REMARK INTER + INTRA:          -4.316
REMARK INTER:                  -3.856
REMARK INTRA:                  -0.459
REMARK UNBOUND:                -0.814
REMARK SMILES O=C([O-])CCCCCCCC(=O)[O-]
REMARK SMILES IDX 7 1 6 2 5 3 4 4 2 5 1 6 3 7 8 8 9 9 10 10 11 11 12 12 13 13
REMARK H PARENT
REMARK Flexibility Score: inf
ROOT
ATOM      1  C   UNL     1      -8.263  39.405  18.569  1.00  0.00     0.000 C 
ENDROOT
BRANCH   1   2
ATOM      2  C   UNL     1      -7.431  40.377  17.716  1.00  0.00     0.000 C 
BRANCH   2   3
ATOM      3  C   UNL     1      -8.252  41.028  16.593  1.00  0.00     0.006 C 
BRANCH   3   4
ATOM      4  C   UNL     1      -8.916  39.964  15.713  1.00  0.00     0.053 C 
BRANCH   4   5
ATOM      5  C   UNL     1     -10.368  40.267  15.530  1.00  0.00     0.041 C 
ATOM      6  O   UNL     1     -10.774  40.812  14.470  1.00  0.00    -0.550 OA
ATOM      7  O   UNL     1     -11.284  39.903  16.510  1.00  0.00    -0.550 OA
ENDBRANCH   4   5
ENDBRANCH   3   4
ENDBRANCH   2   3
ENDBRANCH   1   2
BRANCH   1   8
ATOM      8  C   UNL     1      -8.300  39.803  20.054  1.00  0.00     0.000 C 
BRANCH   8   9
ATOM      9  C   UNL     1      -9.649  39.492  20.728  1.00  0.00     0.006 C 
BRANCH   9  10
ATOM     10  C   UNL     1     -10.674  38.829  19.793  1.00  0.00     0.053 C 
BRANCH  10  11
ATOM     11  C   UNL     1     -11.693  38.021  20.537  1.00  0.00     0.041 C 
ATOM     12  O   UNL     1     -12.776  38.550  20.904  1.00  0.00    -0.550 OA
ATOM     13  O   UNL     1     -11.435  36.694  20.857  1.00  0.00    -0.550 OA
ENDBRANCH  10  11
ENDBRANCH   9  10
ENDBRANCH   8   9
ENDBRANCH   1   8
TORSDOF 8
ENDMDL
MODEL 4
REMARK VINA RESULT:    -2.366      2.030      5.118
REMARK INTER + INTRA:          -4.286
REMARK INTER:                  -3.637
REMARK INTRA:                  -0.649
REMARK UNBOUND:                -0.814
REMARK SMILES O=C([O-])CCCCCCCC(=O)[O-]
REMARK SMILES IDX 7 1 6 2 5 3 4 4 2 5 1 6 3 7 8 8 9 9 10 10 11 11 12 12 13 13
REMARK H PARENT
REMARK Flexibility Score: inf
ROOT
ATOM      1  C   UNL     1       5.070  22.338   7.561  1.00  0.00     0.000 C 
ENDROOT
BRANCH   1   2
ATOM      2  C   UNL     1       3.801  21.935   6.791  1.00  0.00     0.000 C 
BRANCH   2   3
ATOM      3  C   UNL     1       2.940  23.145   6.398  1.00  0.00     0.006 C 
BRANCH   3   4
ATOM      4  C   UNL     1       1.486  22.948   6.838  1.00  0.00     0.053 C 
BRANCH   4   5
ATOM      5  C   UNL     1       0.600  22.753   5.650  1.00  0.00     0.041 C 
ATOM      6  O   UNL     1       1.089  22.752   4.489  1.00  0.00    -0.550 OA
ATOM      7  O   UNL     1      -0.759  22.523   5.824  1.00  0.00    -0.550 OA
ENDBRANCH   4   5
ENDBRANCH   3   4
ENDBRANCH   2   3
ENDBRANCH   1   2
BRANCH   1   8
ATOM      8  C   UNL     1       5.423  23.824   7.382  1.00  0.00     0.000 C 
BRANCH   8   9
ATOM      9  C   UNL     1       6.802  24.042   6.732  1.00  0.00     0.006 C 
BRANCH   9  10
ATOM     10  C   UNL     1       6.756  24.869   5.436  1.00  0.00     0.053 C 
BRANCH  10  11
ATOM     11  C   UNL     1       5.900  24.238   4.381  1.00  0.00     0.041 C 
ATOM     12  O   UNL     1       6.124  23.056   4.006  1.00  0.00    -0.550 OA
ATOM     13  O   UNL     1       4.877  24.964   3.784  1.00  0.00    -0.550 OA
ENDBRANCH  10  11
ENDBRANCH   9  10
ENDBRANCH   8   9
ENDBRANCH   1   8
TORSDOF 8
ENDMDL
MODEL 5
REMARK VINA RESULT:    -2.347     22.797     23.868
REMARK INTER + INTRA:          -4.259
REMARK INTER:                  -4.002
REMARK INTRA:                  -0.256
REMARK UNBOUND:                -0.814
REMARK SMILES O=C([O-])CCCCCCCC(=O)[O-]
REMARK SMILES IDX 7 1 6 2 5 3 4 4 2 5 1 6 3 7 8 8 9 9 10 10 11 11 12 12 13 13
REMARK H PARENT
REMARK Flexibility Score: inf
ROOT
ATOM      1  C   UNL     1      -7.434  39.562  19.117  1.00  0.00     0.000 C 
ENDROOT
BRANCH   1   2
ATOM      2  C   UNL     1      -6.773  40.674  18.286  1.00  0.00     0.000 C 
BRANCH   2   3
ATOM      3  C   UNL     1      -5.412  41.104  18.852  1.00  0.00     0.006 C 
BRANCH   3   4
ATOM      4  C   UNL     1      -4.266  40.400  18.119  1.00  0.00     0.053 C 
BRANCH   4   5
ATOM      5  C   UNL     1      -2.949  40.787  18.711  1.00  0.00     0.041 C 
ATOM      6  O   UNL     1      -2.784  40.765  19.959  1.00  0.00    -0.550 OA
ATOM      7  O   UNL     1      -1.886  41.125  17.883  1.00  0.00    -0.550 OA
ENDBRANCH   4   5
ENDBRANCH   3   4
ENDBRANCH   2   3
ENDBRANCH   1   2
BRANCH   1   8
ATOM      8  C   UNL     1      -8.889  39.295  18.697  1.00  0.00     0.000 C 
BRANCH   8   9
ATOM      9  C   UNL     1      -9.201  39.772  17.267  1.00  0.00     0.006 C 
BRANCH   9  10
ATOM     10  C   UNL     1     -10.585  40.427  17.117  1.00  0.00     0.053 C 
BRANCH  10  11
ATOM     11  C   UNL     1     -11.161  40.249  15.745  1.00  0.00     0.041 C 
ATOM     12  O   UNL     1     -12.249  39.633  15.590  1.00  0.00    -0.550 OA
ATOM     13  O   UNL     1     -10.481  40.730  14.634  1.00  0.00    -0.550 OA
ENDBRANCH  10  11
ENDBRANCH   9  10
ENDBRANCH   8   9
ENDBRANCH   1   8
TORSDOF 8
ENDMDL
MODEL 6
REMARK VINA RESULT:    -2.319      2.293      4.912
REMARK INTER + INTRA:          -4.217
REMARK INTER:                  -3.661
REMARK INTRA:                  -0.556
REMARK UNBOUND:                -0.814
REMARK SMILES O=C([O-])CCCCCCCC(=O)[O-]
REMARK SMILES IDX 7 1 6 2 5 3 4 4 2 5 1 6 3 7 8 8 9 9 10 10 11 11 12 12 13 13
REMARK H PARENT
REMARK Flexibility Score: inf
ROOT
ATOM      1  C   UNL     1       5.087  23.472   7.382  1.00  0.00     0.000 C 
ENDROOT
BRANCH   1   2
ATOM      2  C   UNL     1       4.852  22.010   6.972  1.00  0.00     0.000 C 
BRANCH   2   3
ATOM      3  C   UNL     1       3.385  21.726   6.613  1.00  0.00     0.006 C 
BRANCH   3   4
ATOM      4  C   UNL     1       2.553  23.012   6.652  1.00  0.00     0.053 C 
BRANCH   4   5
ATOM      5  C   UNL     1       1.102  22.702   6.470  1.00  0.00     0.041 C 
ATOM      6  O   UNL     1       0.524  22.989   5.388  1.00  0.00    -0.550 OA
ATOM      7  O   UNL     1       0.397  22.051   7.474  1.00  0.00    -0.550 OA
ENDBRANCH   4   5
ENDBRANCH   3   4
ENDBRANCH   2   3
ENDBRANCH   1   2
BRANCH   1   8
ATOM      8  C   UNL     1       6.517  23.950   7.076  1.00  0.00     0.000 C 
BRANCH   8   9
ATOM      9  C   UNL     1       6.575  25.000   5.952  1.00  0.00     0.006 C 
BRANCH   9  10
ATOM     10  C   UNL     1       6.615  24.396   4.537  1.00  0.00     0.053 C 
BRANCH  10  11
ATOM     11  C   UNL     1       5.437  24.801   3.705  1.00  0.00     0.041 C 
ATOM     12  O   UNL     1       4.266  24.599   4.124  1.00  0.00    -0.550 OA
ATOM     13  O   UNL     1       5.628  25.369   2.452  1.00  0.00    -0.550 OA
ENDBRANCH  10  11
ENDBRANCH   9  10
ENDBRANCH   8   9
ENDBRANCH   1   8
TORSDOF 8
ENDMDL
MODEL 7
REMARK VINA RESULT:    -2.318      2.564      4.084
REMARK INTER + INTRA:          -4.215
REMARK INTER:                  -3.591
REMARK INTRA:                  -0.625
REMARK UNBOUND:                -0.814
REMARK SMILES O=C([O-])CCCCCCCC(=O)[O-]
REMARK SMILES IDX 7 1 6 2 5 3 4 4 2 5 1 6 3 7 8 8 9 9 10 10 11 11 12 12 13 13
REMARK H PARENT
REMARK Flexibility Score: inf
ROOT
ATOM      1  C   UNL     1       6.098  24.604   6.751  1.00  0.00     0.000 C 
ENDROOT
BRANCH   1   2
ATOM      2  C   UNL     1       6.513  23.319   7.485  1.00  0.00     0.000 C 
BRANCH   2   3
ATOM      3  C   UNL     1       5.313  22.433   7.851  1.00  0.00     0.006 C 
BRANCH   3   4
ATOM      4  C   UNL     1       4.651  21.860   6.594  1.00  0.00     0.053 C 
BRANCH   4   5
ATOM      5  C   UNL     1       3.176  22.101   6.622  1.00  0.00     0.041 C 
ATOM      6  O   UNL     1       2.374  21.130   6.603  1.00  0.00    -0.550 OA
ATOM      7  O   UNL     1       2.685  23.397   6.721  1.00  0.00    -0.550 OA
ENDBRANCH   4   5
ENDBRANCH   3   4
ENDBRANCH   2   3
ENDBRANCH   1   2
BRANCH   1   8
ATOM      8  C   UNL     1       7.082  24.992   5.634  1.00  0.00     0.000 C 
BRANCH   8   9
ATOM      9  C   UNL     1       6.483  24.843   4.224  1.00  0.00     0.006 C 
BRANCH   9  10
ATOM     10  C   UNL     1       4.960  24.628   4.213  1.00  0.00     0.053 C 
BRANCH  10  11
ATOM     11  C   UNL     1       4.331  25.027   2.914  1.00  0.00     0.041 C 
ATOM     12  O   UNL     1       4.989  25.692   2.069  1.00  0.00    -0.550 OA
ATOM     13  O   UNL     1       3.008  24.698   2.647  1.00  0.00    -0.550 OA
ENDBRANCH  10  11
ENDBRANCH   9  10
ENDBRANCH   8   9
ENDBRANCH   1   8
TORSDOF 8
ENDMDL
MODEL 8
REMARK VINA RESULT:    -2.317      0.792      4.949
REMARK INTER + INTRA:          -4.214
REMARK INTER:                  -3.481
REMARK INTRA:                  -0.732
REMARK UNBOUND:                -0.814
REMARK SMILES O=C([O-])CCCCCCCC(=O)[O-]
REMARK SMILES IDX 7 1 6 2 5 3 4 4 2 5 1 6 3 7 8 8 9 9 10 10 11 11 12 12 13 13
REMARK H PARENT
REMARK Flexibility Score: inf
ROOT
ATOM      1  C   UNL     1       4.458  24.251   4.875  1.00  0.00     0.000 C 
ENDROOT
BRANCH   1   2
ATOM      2  C   UNL     1       4.081  22.888   4.272  1.00  0.00     0.000 C 
BRANCH   2   3
ATOM      3  C   UNL     1       3.445  21.943   5.303  1.00  0.00     0.006 C 
BRANCH   3   4
ATOM      4  C   UNL     1       2.690  22.732   6.377  1.00  0.00     0.053 C 
BRANCH   4   5
ATOM      5  C   UNL     1       1.213  22.592   6.187  1.00  0.00     0.041 C 
ATOM      6  O   UNL     1       0.465  22.376   7.177  1.00  0.00    -0.550 OA
ATOM      7  O   UNL     1       0.655  22.751   4.925  1.00  0.00    -0.550 OA
ENDBRANCH   4   5
ENDBRANCH   3   4
ENDBRANCH   2   3
ENDBRANCH   1   2
BRANCH   1   8
ATOM      8  C   UNL     1       5.927  24.626   4.617  1.00  0.00     0.000 C 
BRANCH   8   9
ATOM      9  C   UNL     1       6.744  24.789   5.912  1.00  0.00     0.006 C 
BRANCH   9  10
ATOM     10  C   UNL     1       6.127  24.082   7.131  1.00  0.00     0.053 C 
BRANCH  10  11
ATOM     11  C   UNL     1       6.740  22.739   7.388  1.00  0.00     0.041 C 
ATOM     12  O   UNL     1       7.125  22.430   8.547  1.00  0.00    -0.550 OA
ATOM     13  O   UNL     1       6.920  21.841   6.344  1.00  0.00    -0.550 OA
ENDBRANCH  10  11
ENDBRANCH   9  10
ENDBRANCH   8   9
ENDBRANCH   1   8
TORSDOF 8
ENDMDL
MODEL 9
REMARK VINA RESULT:    -2.309      2.377      3.668
REMARK INTER + INTRA:          -4.202
REMARK INTER:                  -3.554
REMARK INTRA:                  -0.648
REMARK UNBOUND:                -0.814
REMARK SMILES O=C([O-])CCCCCCCC(=O)[O-]
REMARK SMILES IDX 7 1 6 2 5 3 4 4 2 5 1 6 3 7 8 8 9 9 10 10 11 11 12 12 13 13
REMARK H PARENT
REMARK Flexibility Score: inf
ROOT
ATOM      1  C   UNL     1       1.554  21.170   6.959  1.00  0.00     0.000 C 
ENDROOT
BRANCH   1   2
ATOM      2  C   UNL     1       2.860  21.613   6.280  1.00  0.00     0.000 C 
BRANCH   2   3
ATOM      3  C   UNL     1       3.153  23.108   6.483  1.00  0.00     0.006 C 
BRANCH   3   4
ATOM      4  C   UNL     1       4.601  23.326   6.930  1.00  0.00     0.053 C 
BRANCH   4   5
ATOM      5  C   UNL     1       5.304  24.256   5.994  1.00  0.00     0.041 C 
ATOM      6  O   UNL     1       4.857  24.443   4.831  1.00  0.00    -0.550 OA
ATOM      7  O   UNL     1       6.426  24.957   6.420  1.00  0.00    -0.550 OA
ENDBRANCH   4   5
ENDBRANCH   3   4
ENDBRANCH   2   3
ENDBRANCH   1   2
BRANCH   1   8
ATOM      8  C   UNL     1       0.543  22.320   7.106  1.00  0.00     0.000 C 
BRANCH   8   9
ATOM      9  C   UNL     1      -0.764  22.077   6.331  1.00  0.00     0.006 C 
BRANCH   9  10
ATOM     10  C   UNL     1      -0.561  21.855   4.822  1.00  0.00     0.053 C 
BRANCH  10  11
ATOM     11  C   UNL     1      -0.028  23.071   4.128  1.00  0.00     0.041 C 
ATOM     12  O   UNL     1       1.094  23.034   3.557  1.00  0.00    -0.550 OA
ATOM     13  O   UNL     1      -0.752  24.257   4.142  1.00  0.00    -0.550 OA
ENDBRANCH  10  11
ENDBRANCH   9  10
ENDBRANCH   8   9
ENDBRANCH   1   8
TORSDOF 8
ENDMDL
