MODEL 1
REMARK VINA RESULT:     1.975      0.000      0.000
REMARK INTER + INTRA:           2.649
REMARK INTER:                   3.014
REMARK INTRA:                  -0.364
REMARK UNBOUND:                -0.364
REMARK SMILES CCCCCCCCCCC(=O)[O-]
REMARK SMILES IDX 7 1 8 2 9 3 10 4 11 5 12 6 13 7 6 8 5 9 4 10 3 11 2 12 1 13
REMARK H PARENT
REMARK Flexibility Score: inf
ROOT
ATOM      1  C   UNL     1      17.115  21.343  49.761  1.00  0.00     0.000 C 
ENDROOT
BRANCH   1   2
ATOM      2  C   UNL     1      17.174  19.955  50.427  1.00  0.00     0.000 C 
BRANCH   2   3
ATOM      3  C   UNL     1      16.561  19.879  51.841  1.00  0.00     0.006 C 
BRANCH   3   4
ATOM      4  C   UNL     1      15.025  19.894  51.872  1.00  0.00     0.053 C 
BRANCH   4   5
ATOM      5  C   UNL     1      14.496  20.200  53.241  1.00  0.00     0.041 C 
ATOM      6  O   UNL     1      15.282  20.552  54.159  1.00  0.00    -0.550 OA
ATOM      7  O   UNL     1      13.140  20.061  53.509  1.00  0.00    -0.550 OA
ENDBRANCH   4   5
ENDBRANCH   3   4
ENDBRANCH   2   3
ENDBRANCH   1   2
BRANCH   1   8
ATOM      8  C   UNL     1      18.377  21.666  48.941  1.00  0.00     0.000 C 
BRANCH   8   9
ATOM      9  C   UNL     1      19.109  20.401  48.465  1.00  0.00    -0.000 C 
BRANCH   9  10
ATOM     10  C   UNL     1      20.114  19.875  49.506  1.00  0.00    -0.000 C 
BRANCH  10  11
ATOM     11  C   UNL     1      20.769  21.005  50.316  1.00  0.00    -0.000 C 
BRANCH  11  12
ATOM     12  C   UNL     1      21.235  20.545  51.706  1.00  0.00    -0.003 C 
ATOM     13  C   UNL     1      20.068  19.996  52.522  1.00  0.00     0.004 C 
ENDBRANCH  11  12
ENDBRANCH  10  11
ENDBRANCH   9  10
ENDBRANCH   8   9
ENDBRANCH   1   8
TORSDOF 9
ENDMDL
MODEL 2
REMARK VINA RESULT:     2.026     17.105     18.269
REMARK INTER + INTRA:           2.728
REMARK INTER:                   3.086
REMARK INTRA:                  -0.358
REMARK UNBOUND:                -0.364
REMARK SMILES CCCCCCCCCCC(=O)[O-]
REMARK SMILES IDX 7 1 8 2 9 3 10 4 11 5 12 6 13 7 6 8 5 9 4 10 3 11 2 12 1 13
REMARK H PARENT
REMARK Flexibility Score: inf
ROOT
ATOM      1  C   UNL     1      14.912  39.930  47.058  1.00  0.00     0.000 C 
ENDROOT
BRANCH   1   2
ATOM      2  C   UNL     1      13.508  39.399  46.713  1.00  0.00     0.000 C 
BRANCH   2   3
ATOM      3  C   UNL     1      13.396  37.865  46.602  1.00  0.00     0.006 C 
BRANCH   3   4
ATOM      4  C   UNL     1      13.075  37.150  47.924  1.00  0.00     0.053 C 
BRANCH   4   5
ATOM      5  C   UNL     1      13.720  35.800  48.001  1.00  0.00     0.041 C 
ATOM      6  O   UNL     1      14.829  35.660  48.580  1.00  0.00    -0.550 OA
ATOM      7  O   UNL     1      13.111  34.703  47.404  1.00  0.00    -0.550 OA
ENDBRANCH   4   5
ENDBRANCH   3   4
ENDBRANCH   2   3
ENDBRANCH   1   2
BRANCH   1   8
ATOM      8  C   UNL     1      15.934  38.804  47.297  1.00  0.00     0.000 C 
BRANCH   8   9
ATOM      9  C   UNL     1      16.906  38.632  46.118  1.00  0.00    -0.000 C 
BRANCH   9  10
ATOM     10  C   UNL     1      17.964  37.545  46.381  1.00  0.00    -0.000 C 
BRANCH  10  11
ATOM     11  C   UNL     1      19.287  38.124  46.907  1.00  0.00    -0.000 C 
BRANCH  11  12
ATOM     12  C   UNL     1      19.344  39.656  46.809  1.00  0.00    -0.003 C 
ATOM     13  C   UNL     1      20.721  40.125  46.346  1.00  0.00     0.004 C 
ENDBRANCH  11  12
ENDBRANCH  10  11
ENDBRANCH   9  10
ENDBRANCH   8   9
ENDBRANCH   1   8
TORSDOF 9
ENDMDL
MODEL 3
REMARK VINA RESULT:     2.212     16.904     18.087
REMARK INTER + INTRA:           3.012
REMARK INTER:                   2.467
REMARK INTRA:                   0.544
REMARK UNBOUND:                -0.364
REMARK SMILES CCCCCCCCCCC(=O)[O-]
REMARK SMILES IDX 7 1 8 2 9 3 10 4 11 5 12 6 13 7 6 8 5 9 4 10 3 11 2 12 1 13
REMARK H PARENT
REMARK Flexibility Score: inf
ROOT
ATOM      1  C   UNL     1      14.139  40.016  46.451  1.00  0.00     0.000 C 
ENDROOT
BRANCH   1   2
ATOM      2  C   UNL     1      13.367  38.686  46.388  1.00  0.00     0.000 C 
BRANCH   2   3
ATOM      3  C   UNL     1      13.693  37.684  47.515  1.00  0.00     0.006 C 
BRANCH   3   4
ATOM      4  C   UNL     1      12.678  36.540  47.667  1.00  0.00     0.053 C 
BRANCH   4   5
ATOM      5  C   UNL     1      13.350  35.204  47.760  1.00  0.00     0.041 C 
ATOM      6  O   UNL     1      12.839  34.198  47.203  1.00  0.00    -0.550 OA
ATOM      7  O   UNL     1      14.523  35.065  48.492  1.00  0.00    -0.550 OA
ENDBRANCH   4   5
ENDBRANCH   3   4
ENDBRANCH   2   3
ENDBRANCH   1   2
BRANCH   1   8
ATOM      8  C   UNL     1      15.392  39.938  47.341  1.00  0.00     0.000 C 
BRANCH   8   9
ATOM      9  C   UNL     1      16.130  38.596  47.202  1.00  0.00    -0.000 C 
BRANCH   9  10
ATOM     10  C   UNL     1      17.213  38.631  46.109  1.00  0.00    -0.000 C 
BRANCH  10  11
ATOM     11  C   UNL     1      18.319  37.588  46.341  1.00  0.00    -0.000 C 
BRANCH  11  12
ATOM     12  C   UNL     1      19.530  38.165  47.090  1.00  0.00    -0.003 C 
ATOM     13  C   UNL     1      19.747  39.633  46.734  1.00  0.00     0.004 C 
ENDBRANCH  11  12
ENDBRANCH  10  11
ENDBRANCH   9  10
ENDBRANCH   8   9
ENDBRANCH   1   8
TORSDOF 9
ENDMDL
MODEL 4
REMARK VINA RESULT:     2.389     17.094     18.344
REMARK INTER + INTRA:           3.281
REMARK INTER:                   3.320
REMARK INTRA:                  -0.039
REMARK UNBOUND:                -0.364
REMARK SMILES CCCCCCCCCCC(=O)[O-]
REMARK SMILES IDX 7 1 8 2 9 3 10 4 11 5 12 6 13 7 6 8 5 9 4 10 3 11 2 12 1 13
REMARK H PARENT
REMARK Flexibility Score: inf
ROOT
ATOM      1  C   UNL     1      17.629  37.850  46.352  1.00  0.00     0.000 C 
ENDROOT
BRANCH   1   2
ATOM      2  C   UNL     1      16.312  38.644  46.255  1.00  0.00     0.000 C 
BRANCH   2   3
ATOM      3  C   UNL     1      15.925  39.430  47.525  1.00  0.00     0.006 C 
BRANCH   3   4
ATOM      4  C   UNL     1      14.498  39.999  47.514  1.00  0.00     0.053 C 
BRANCH   4   5
ATOM      5  C   UNL     1      13.584  39.201  46.636  1.00  0.00     0.041 C 
ATOM      6  O   UNL     1      13.059  39.729  45.621  1.00  0.00    -0.550 OA
ATOM      7  O   UNL     1      13.284  37.883  46.959  1.00  0.00    -0.550 OA
ENDBRANCH   4   5
ENDBRANCH   3   4
ENDBRANCH   2   3
ENDBRANCH   1   2
BRANCH   1   8
ATOM      8  C   UNL     1      18.825  38.726  46.766  1.00  0.00     0.000 C 
BRANCH   8   9
ATOM      9  C   UNL     1      20.067  37.894  47.124  1.00  0.00    -0.000 C 
BRANCH   9  10
ATOM     10  C   UNL     1      19.918  36.414  46.730  1.00  0.00    -0.000 C 
BRANCH  10  11
ATOM     11  C   UNL     1      20.179  36.172  45.234  1.00  0.00    -0.000 C 
BRANCH  11  12
ATOM     12  C   UNL     1      20.653  34.741  44.940  1.00  0.00    -0.003 C 
ATOM     13  C   UNL     1      21.217  34.629  43.526  1.00  0.00     0.004 C 
ENDBRANCH  11  12
ENDBRANCH  10  11
ENDBRANCH   9  10
ENDBRANCH   8   9
ENDBRANCH   1   8
TORSDOF 9
ENDMDL
MODEL 5
REMARK VINA RESULT:     2.547     17.419     18.978
REMARK INTER + INTRA:           3.522
REMARK INTER:                   3.353
REMARK INTRA:                   0.169
REMARK UNBOUND:                -0.364
REMARK SMILES CCCCCCCCCCC(=O)[O-]
REMARK SMILES IDX 7 1 8 2 9 3 10 4 11 5 12 6 13 7 6 8 5 9 4 10 3 11 2 12 1 13
REMARK H PARENT
REMARK Flexibility Score: inf
ROOT
ATOM      1  C   UNL     1      14.977  40.125  47.601  1.00  0.00     0.000 C 
ENDROOT
BRANCH   1   2
ATOM      2  C   UNL     1      16.062  39.031  47.589  1.00  0.00     0.000 C 
BRANCH   2   3
ATOM      3  C   UNL     1      16.782  38.836  46.238  1.00  0.00     0.006 C 
BRANCH   3   4
ATOM      4  C   UNL     1      17.903  37.785  46.258  1.00  0.00     0.053 C 
BRANCH   4   5
ATOM      5  C   UNL     1      19.182  38.341  46.805  1.00  0.00     0.041 C 
ATOM      6  O   UNL     1      20.080  37.566  47.228  1.00  0.00    -0.550 OA
ATOM      7  O   UNL     1      19.367  39.715  46.880  1.00  0.00    -0.550 OA
ENDBRANCH   4   5
ENDBRANCH   3   4
ENDBRANCH   2   3
ENDBRANCH   1   2
BRANCH   1   8
ATOM      8  C   UNL     1      13.970  39.980  46.446  1.00  0.00     0.000 C 
BRANCH   8   9
ATOM      9  C   UNL     1      13.372  38.566  46.360  1.00  0.00    -0.000 C 
BRANCH   9  10
ATOM     10  C   UNL     1      13.567  37.765  47.660  1.00  0.00    -0.000 C 
BRANCH  10  11
ATOM     11  C   UNL     1      12.935  36.365  47.591  1.00  0.00    -0.000 C 
BRANCH  11  12
ATOM     12  C   UNL     1      13.849  35.273  48.165  1.00  0.00    -0.003 C 
ATOM     13  C   UNL     1      15.087  35.881  48.819  1.00  0.00     0.004 C 
ENDBRANCH  11  12
ENDBRANCH  10  11
ENDBRANCH   9  10
ENDBRANCH   8   9
ENDBRANCH   1   8
TORSDOF 9
ENDMDL
MODEL 6
REMARK VINA RESULT:     2.884      2.301      5.190
REMARK INTER + INTRA:           4.037
REMARK INTER:                   2.856
REMARK INTRA:                   1.182
REMARK UNBOUND:                -0.364
REMARK SMILES CCCCCCCCCCC(=O)[O-]
REMARK SMILES IDX 7 1 8 2 9 3 10 4 11 5 12 6 13 7 6 8 5 9 4 10 3 11 2 12 1 13
REMARK H PARENT
REMARK Flexibility Score: inf
ROOT
ATOM      1  C   UNL     1      17.933  20.812  49.159  1.00  0.00     0.000 C 
ENDROOT
BRANCH   1   2
ATOM      2  C   UNL     1      19.312  20.345  48.655  1.00  0.00     0.000 C 
BRANCH   2   3
ATOM      3  C   UNL     1      20.287  19.876  49.754  1.00  0.00     0.006 C 
BRANCH   3   4
ATOM      4  C   UNL     1      20.552  20.913  50.857  1.00  0.00     0.053 C 
BRANCH   4   5
ATOM      5  C   UNL     1      20.486  20.304  52.224  1.00  0.00     0.041 C 
ATOM      6  O   UNL     1      19.371  20.078  52.764  1.00  0.00    -0.550 OA
ATOM      7  O   UNL     1      21.656  20.018  52.916  1.00  0.00    -0.550 OA
ENDBRANCH   4   5
ENDBRANCH   3   4
ENDBRANCH   2   3
ENDBRANCH   1   2
BRANCH   1   8
ATOM      8  C   UNL     1      17.338  19.875  50.225  1.00  0.00     0.000 C 
BRANCH   8   9
ATOM      9  C   UNL     1      17.226  20.549  51.603  1.00  0.00    -0.000 C 
BRANCH   9  10
ATOM     10  C   UNL     1      15.934  21.372  51.752  1.00  0.00    -0.000 C 
BRANCH  10  11
ATOM     11  C   UNL     1      14.667  20.522  51.562  1.00  0.00    -0.000 C 
BRANCH  11  12
ATOM     12  C   UNL     1      14.131  19.954  52.884  1.00  0.00    -0.003 C 
ATOM     13  C   UNL     1      15.180  20.049  53.988  1.00  0.00     0.004 C 
ENDBRANCH  11  12
ENDBRANCH  10  11
ENDBRANCH   9  10
ENDBRANCH   8   9
ENDBRANCH   1   8
TORSDOF 9
ENDMDL
MODEL 7
REMARK VINA RESULT:     3.592     16.643     17.854
REMARK INTER + INTRA:           5.118
REMARK INTER:                   5.404
REMARK INTRA:                  -0.286
REMARK UNBOUND:                -0.364
REMARK SMILES CCCCCCCCCCC(=O)[O-]
REMARK SMILES IDX 7 1 8 2 9 3 10 4 11 5 12 6 13 7 6 8 5 9 4 10 3 11 2 12 1 13
REMARK H PARENT
REMARK Flexibility Score: inf
ROOT
ATOM      1  C   UNL     1      16.173  38.782  46.001  1.00  0.00     0.000 C 
ENDROOT
BRANCH   1   2
ATOM      2  C   UNL     1      15.663  39.656  47.162  1.00  0.00     0.000 C 
BRANCH   2   3
ATOM      3  C   UNL     1      14.205  39.391  47.592  1.00  0.00     0.006 C 
BRANCH   3   4
ATOM      4  C   UNL     1      13.564  38.153  46.946  1.00  0.00     0.053 C 
BRANCH   4   5
ATOM      5  C   UNL     1      13.798  36.915  47.756  1.00  0.00     0.041 C 
ATOM      6  O   UNL     1      14.820  36.818  48.485  1.00  0.00    -0.550 OA
ATOM      7  O   UNL     1      12.904  35.854  47.680  1.00  0.00    -0.550 OA
ENDBRANCH   4   5
ENDBRANCH   3   4
ENDBRANCH   2   3
ENDBRANCH   1   2
BRANCH   1   8
ATOM      8  C   UNL     1      17.409  37.948  46.380  1.00  0.00     0.000 C 
BRANCH   8   9
ATOM      9  C   UNL     1      18.678  38.805  46.518  1.00  0.00    -0.000 C 
BRANCH   9  10
ATOM     10  C   UNL     1      19.883  37.996  47.029  1.00  0.00    -0.000 C 
BRANCH  10  11
ATOM     11  C   UNL     1      19.797  36.508  46.652  1.00  0.00    -0.000 C 
BRANCH  11  12
ATOM     12  C   UNL     1      20.238  36.237  45.206  1.00  0.00    -0.003 C 
ATOM     13  C   UNL     1      20.609  34.769  45.011  1.00  0.00     0.004 C 
ENDBRANCH  11  12
ENDBRANCH  10  11
ENDBRANCH   9  10
ENDBRANCH   8   9
ENDBRANCH   1   8
TORSDOF 9
ENDMDL
MODEL 8
REMARK VINA RESULT:     3.912      2.845      5.112
REMARK INTER + INTRA:           5.606
REMARK INTER:                   4.907
REMARK INTRA:                   0.699
REMARK UNBOUND:                -0.364
REMARK SMILES CCCCCCCCCCC(=O)[O-]
REMARK SMILES IDX 7 1 8 2 9 3 10 4 11 5 12 6 13 7 6 8 5 9 4 10 3 11 2 12 1 13
REMARK H PARENT
REMARK Flexibility Score: inf
ROOT
ATOM      1  C   UNL     1      17.040  22.652  49.050  1.00  0.00     0.000 C 
ENDROOT
BRANCH   1   2
ATOM      2  C   UNL     1      18.384  22.040  48.612  1.00  0.00     0.000 C 
BRANCH   2   3
ATOM      3  C   UNL     1      18.465  20.502  48.705  1.00  0.00     0.006 C 
BRANCH   3   4
ATOM      4  C   UNL     1      18.679  19.959  50.126  1.00  0.00     0.053 C 
BRANCH   4   5
ATOM      5  C   UNL     1      20.106  20.084  50.564  1.00  0.00     0.041 C 
ATOM      6  O   UNL     1      21.006  20.348  49.725  1.00  0.00    -0.550 OA
ATOM      7  O   UNL     1      20.446  19.875  51.895  1.00  0.00    -0.550 OA
ENDBRANCH   4   5
ENDBRANCH   3   4
ENDBRANCH   2   3
ENDBRANCH   1   2
BRANCH   1   8
ATOM      8  C   UNL     1      16.824  22.589  50.573  1.00  0.00     0.000 C 
BRANCH   8   9
ATOM      9  C   UNL     1      15.640  21.687  50.961  1.00  0.00    -0.000 C 
BRANCH   9  10
ATOM     10  C   UNL     1      16.066  20.228  51.202  1.00  0.00    -0.000 C 
BRANCH  10  11
ATOM     11  C   UNL     1      16.336  19.929  52.686  1.00  0.00    -0.000 C 
BRANCH  11  12
ATOM     12  C   UNL     1      15.182  20.368  53.599  1.00  0.00    -0.003 C 
ATOM     13  C   UNL     1      13.839  19.886  53.057  1.00  0.00     0.004 C 
ENDBRANCH  11  12
ENDBRANCH  10  11
ENDBRANCH   9  10
ENDBRANCH   8   9
ENDBRANCH   1   8
TORSDOF 9
ENDMDL
MODEL 9
REMARK VINA RESULT:     4.176      2.993      4.337
REMARK INTER + INTRA:           6.009
REMARK INTER:                   3.917
REMARK INTRA:                   2.093
REMARK UNBOUND:                -0.364
REMARK SMILES CCCCCCCCCCC(=O)[O-]
REMARK SMILES IDX 7 1 8 2 9 3 10 4 11 5 12 6 13 7 6 8 5 9 4 10 3 11 2 12 1 13
REMARK H PARENT
REMARK Flexibility Score: inf
ROOT
ATOM      1  C   UNL     1      15.469  21.595  51.527  1.00  0.00     0.000 C 
ENDROOT
BRANCH   1   2
ATOM      2  C   UNL     1      16.407  22.577  50.800  1.00  0.00     0.000 C 
BRANCH   2   3
ATOM      3  C   UNL     1      17.047  22.036  49.505  1.00  0.00     0.006 C 
BRANCH   3   4
ATOM      4  C   UNL     1      17.317  20.523  49.509  1.00  0.00     0.053 C 
BRANCH   4   5
ATOM      5  C   UNL     1      18.613  20.184  48.840  1.00  0.00     0.041 C 
ATOM      6  O   UNL     1      19.672  20.102  49.515  1.00  0.00    -0.550 OA
ATOM      7  O   UNL     1      18.657  19.993  47.465  1.00  0.00    -0.550 OA
ENDBRANCH   4   5
ENDBRANCH   3   4
ENDBRANCH   2   3
ENDBRANCH   1   2
BRANCH   1   8
ATOM      8  C   UNL     1      16.085  20.195  51.696  1.00  0.00     0.000 C 
BRANCH   8   9
ATOM      9  C   UNL     1      17.113  20.139  52.839  1.00  0.00    -0.000 C 
BRANCH   9  10
ATOM     10  C   UNL     1      18.542  19.875  52.332  1.00  0.00    -0.000 C 
BRANCH  10  11
ATOM     11  C   UNL     1      19.603  20.083  53.425  1.00  0.00    -0.000 C 
BRANCH  11  12
ATOM     12  C   UNL     1      21.035  19.888  52.905  1.00  0.00    -0.003 C 
ATOM     13  C   UNL     1      21.255  20.652  51.602  1.00  0.00     0.004 C 
ENDBRANCH  11  12
ENDBRANCH  10  11
ENDBRANCH   9  10
ENDBRANCH   8   9
ENDBRANCH   1   8
TORSDOF 9
ENDMDL
