MODEL 1
REMARK VINA RESULT:    -3.320      0.000      0.000
REMARK INTER + INTRA:          -5.180
REMARK INTER:                  -5.066
REMARK INTRA:                  -0.113
REMARK UNBOUND:                -0.113
REMARK SMILES CC1=CCC[C@H](C)C(=O)C[C@@H](C(C)C)C(=O)C1
REMARK SMILES IDX 8 1 9 2 6 3 7 4 5 5 4 6 3 7 2 8 1 9 10 11 11 12 15 13 16 14
REMARK SMILES IDX 17 15 12 17 13 18 14 19
REMARK H PARENT
REMARK Flexibility Score: 70.00
ROOT
ATOM      1  C   UNL     1      16.925  52.875  36.041  1.00  0.00     0.136 C 
ATOM      2  O   UNL     1      17.484  53.691  36.763  1.00  0.00    -0.299 OA
ENDROOT
BRANCH   1   3
ATOM      3  C   UNL     1      15.447  52.598  36.239  1.00  0.00     0.053 C 
ATOM      4  C   UNL     1      15.177  52.357  37.731  1.00  0.00     0.016 C 
BRANCH   3   5
ATOM      5  C   UNL     1      14.587  53.776  35.705  1.00  0.00     0.015 C 
BRANCH   5   6
ATOM      6  C   UNL     1      14.135  53.693  34.224  1.00  0.00     0.028 C 
BRANCH   6   7
ATOM      7  C   UNL     1      13.965  52.313  33.628  1.00  0.00    -0.028 C 
ATOM      8  C   UNL     1      14.669  51.818  32.586  1.00  0.00    -0.070 CG0
ATOM      9  C   UNL     1      14.185  50.532  31.961  1.00  0.00     0.039 C 
ATOM     10  G   UNL     1      15.829  52.564  31.956  1.00  0.00     0.000 G0
ENDBRANCH   6   7
ENDBRANCH   5   6
ENDBRANCH   3   5
ENDBRANCH   1   3
BRANCH   1  11
ATOM     11  C   UNL     1      17.741  52.094  35.039  1.00  0.00     0.087 C 
BRANCH  11  12
ATOM     12  C   UNL     1      17.896  52.810  33.664  1.00  0.00     0.066 C 
BRANCH  12  13
ATOM     13  C   UNL     1      17.182  52.110  32.497  1.00  0.00     0.140 C 
ATOM     14  O   UNL     1      17.756  51.196  31.923  1.00  0.00    -0.299 OA
BRANCH  13  15
ATOM     15  C   UNL     1      15.846  52.547  31.935  1.00  0.00     0.106 CG0
ATOM     16  G   UNL     1      14.679  51.823  32.577  1.00  0.00     0.000 G0
ENDBRANCH  13  15
ENDBRANCH  12  13
BRANCH  12  17
ATOM     17  C   UNL     1      19.399  53.093  33.318  1.00  0.00    -0.006 C 
ATOM     18  C   UNL     1      20.101  53.981  34.358  1.00  0.00     0.008 C 
ATOM     19  C   UNL     1      19.587  53.673  31.906  1.00  0.00     0.008 C 
ENDBRANCH  12  17
ENDBRANCH  11  12
ENDBRANCH   1  11
TORSDOF 1
ENDMDL
MODEL 2
REMARK VINA RESULT:    -3.172     13.512     15.205
REMARK INTER + INTRA:          -4.955
REMARK INTER:                  -4.686
REMARK INTRA:                  -0.269
REMARK UNBOUND:                -0.113
REMARK SMILES CC1=CCC[C@H](C)C(=O)C[C@@H](C(C)C)C(=O)C1
REMARK SMILES IDX 8 1 9 2 6 3 7 4 5 5 4 6 3 7 2 8 1 9 10 11 11 12 15 13 16 14
REMARK SMILES IDX 17 15 12 17 13 18 14 19
REMARK H PARENT
REMARK Flexibility Score: 70.00
ROOT
ATOM      1  C   UNL     1      14.580  61.898  20.813  1.00  0.00     0.136 C 
ATOM      2  O   UNL     1      15.030  61.120  19.982  1.00  0.00    -0.299 OA
ENDROOT
BRANCH   1   3
ATOM      3  C   UNL     1      13.089  62.174  20.841  1.00  0.00     0.053 C 
ATOM      4  C   UNL     1      12.582  62.339  19.402  1.00  0.00     0.016 C 
BRANCH   3   5
ATOM      5  C   UNL     1      12.328  61.031  21.567  1.00  0.00     0.015 C 
BRANCH   5   6
ATOM      6  C   UNL     1      12.199  61.149  23.107  1.00  0.00     0.028 C 
BRANCH   6   7
ATOM      7  C   UNL     1      11.969  62.530  23.679  1.00  0.00    -0.028 C 
ATOM      8  C   UNL     1      12.730  63.122  24.626  1.00  0.00    -0.070 CG0
ATOM      9  C   UNL     1      12.200  64.384  25.263  1.00  0.00     0.039 C 
ATOM     10  G   UNL     1      14.011  62.503  25.149  1.00  0.00     0.000 G0
ENDBRANCH   6   7
ENDBRANCH   5   6
ENDBRANCH   3   5
ENDBRANCH   1   3
BRANCH   1  11
ATOM     11  C   UNL     1      15.530  62.638  21.723  1.00  0.00     0.087 C 
BRANCH  11  12
ATOM     12  C   UNL     1      15.703  61.972  23.122  1.00  0.00     0.066 C 
BRANCH  12  13
ATOM     13  C   UNL     1      15.232  62.837  24.301  1.00  0.00     0.140 C 
ATOM     14  O   UNL     1      15.907  63.804  24.625  1.00  0.00    -0.299 OA
BRANCH  13  15
ATOM     15  C   UNL     1      14.033  62.511  25.167  1.00  0.00     0.106 CG0
ATOM     16  G   UNL     1      12.749  63.116  24.635  1.00  0.00     0.000 G0
ENDBRANCH  13  15
ENDBRANCH  12  13
BRANCH  12  17
ATOM     17  C   UNL     1      17.167  61.457  23.348  1.00  0.00    -0.006 C 
ATOM     18  C   UNL     1      17.826  60.928  22.064  1.00  0.00     0.008 C 
ATOM     19  C   UNL     1      17.263  60.408  24.469  1.00  0.00     0.008 C 
ENDBRANCH  12  17
ENDBRANCH  11  12
ENDBRANCH   1  11
TORSDOF 1
ENDMDL
MODEL 3
REMARK VINA RESULT:    -2.996     13.109     15.026
REMARK INTER + INTRA:          -4.685
REMARK INTER:                  -5.011
REMARK INTRA:                   0.326
REMARK UNBOUND:                -0.113
REMARK SMILES CC1=CCC[C@H](C)C(=O)C[C@@H](C(C)C)C(=O)C1
REMARK SMILES IDX 8 1 9 2 6 3 7 4 5 5 4 6 3 7 2 8 1 9 10 11 11 12 15 13 16 14
REMARK SMILES IDX 17 15 12 17 13 18 14 19
REMARK H PARENT
REMARK Flexibility Score: 70.00
ROOT
ATOM      1  C   UNL     1      16.150  61.471  20.747  1.00  0.00     0.136 C 
ATOM      2  O   UNL     1      15.889  61.437  19.551  1.00  0.00    -0.299 OA
ENDROOT
BRANCH   1   3
ATOM      3  C   UNL     1      16.858  60.291  21.385  1.00  0.00     0.053 C 
ATOM      4  C   UNL     1      17.771  60.803  22.509  1.00  0.00     0.016 C 
BRANCH   3   5
ATOM      5  C   UNL     1      15.834  59.260  21.932  1.00  0.00     0.015 C 
BRANCH   5   6
ATOM      6  C   UNL     1      15.792  59.067  23.469  1.00  0.00     0.028 C 
BRANCH   6   7
ATOM      7  C   UNL     1      14.442  59.166  24.144  1.00  0.00    -0.028 C 
ATOM      8  C   UNL     1      13.844  60.313  24.533  1.00  0.00    -0.070 CG0
ATOM      9  C   UNL     1      12.629  60.203  25.423  1.00  0.00     0.039 C 
ATOM     10  G   UNL     1      14.416  61.681  24.218  1.00  0.00     0.000 G0
ENDBRANCH   6   7
ENDBRANCH   5   6
ENDBRANCH   3   5
ENDBRANCH   1   3
BRANCH   1  11
ATOM     11  C   UNL     1      15.673  62.639  21.575  1.00  0.00     0.087 C 
BRANCH  11  12
ATOM     12  C   UNL     1      14.123  62.701  21.736  1.00  0.00     0.066 C 
BRANCH  12  13
ATOM     13  C   UNL     1      13.621  62.443  23.164  1.00  0.00     0.140 C 
ATOM     14  O   UNL     1      12.554  62.934  23.508  1.00  0.00    -0.299 OA
BRANCH  13  15
ATOM     15  C   UNL     1      14.412  61.703  24.222  1.00  0.00     0.106 CG0
ATOM     16  G   UNL     1      13.839  60.332  24.525  1.00  0.00     0.000 G0
ENDBRANCH  13  15
ENDBRANCH  12  13
BRANCH  12  17
ATOM     17  C   UNL     1      13.391  61.776  20.703  1.00  0.00    -0.006 C 
ATOM     18  C   UNL     1      12.576  62.560  19.662  1.00  0.00     0.008 C 
ATOM     19  C   UNL     1      12.511  60.709  21.378  1.00  0.00     0.008 C 
ENDBRANCH  12  17
ENDBRANCH  11  12
ENDBRANCH   1  11
TORSDOF 1
ENDMDL
MODEL 4
REMARK VINA RESULT:    -2.991      1.982      4.536
REMARK INTER + INTRA:          -4.678
REMARK INTER:                  -4.684
REMARK INTRA:                   0.006
REMARK UNBOUND:                -0.113
REMARK SMILES CC1=CCC[C@H](C)C(=O)C[C@@H](C(C)C)C(=O)C1
REMARK SMILES IDX 8 1 9 2 6 3 7 4 5 5 4 6 3 7 2 8 1 9 10 11 11 12 15 13 16 14
REMARK SMILES IDX 17 15 12 17 13 18 14 19
REMARK H PARENT
REMARK Flexibility Score: 70.00
ROOT
ATOM      1  C   UNL     1      18.503  53.020  32.986  1.00  0.00     0.136 C 
ATOM      2  O   UNL     1      18.366  53.851  32.099  1.00  0.00    -0.299 OA
ENDROOT
BRANCH   1   3
ATOM      3  C   UNL     1      19.766  53.032  33.826  1.00  0.00     0.053 C 
ATOM      4  C   UNL     1      20.719  54.106  33.283  1.00  0.00     0.016 C 
BRANCH   3   5
ATOM      5  C   UNL     1      19.435  53.291  35.321  1.00  0.00     0.015 C 
BRANCH   5   6
ATOM      6  C   UNL     1      18.109  54.036  35.622  1.00  0.00     0.028 C 
BRANCH   6   7
ATOM      7  C   UNL     1      17.154  53.382  36.595  1.00  0.00    -0.028 C 
ATOM      8  C   UNL     1      15.825  53.231  36.405  1.00  0.00    -0.070 CG0
ATOM      9  C   UNL     1      14.992  52.799  37.588  1.00  0.00     0.039 C 
ATOM     10  G   UNL     1      15.138  53.595  35.103  1.00  0.00     0.000 G0
ENDBRANCH   6   7
ENDBRANCH   5   6
ENDBRANCH   3   5
ENDBRANCH   1   3
BRANCH   1  11
ATOM     11  C   UNL     1      17.459  51.943  33.159  1.00  0.00     0.087 C 
BRANCH  11  12
ATOM     12  C   UNL     1      16.007  52.425  32.861  1.00  0.00     0.066 C 
BRANCH  12  13
ATOM     13  C   UNL     1      15.094  52.496  34.095  1.00  0.00     0.140 C 
ATOM     14  O   UNL     1      14.221  51.649  34.227  1.00  0.00    -0.299 OA
BRANCH  13  15
ATOM     15  C   UNL     1      15.131  53.613  35.116  1.00  0.00     0.106 CG0
ATOM     16  G   UNL     1      15.825  53.205  36.401  1.00  0.00     0.000 G0
ENDBRANCH  13  15
ENDBRANCH  12  13
BRANCH  12  17
ATOM     17  C   UNL     1      15.340  51.595  31.710  1.00  0.00    -0.006 C 
ATOM     18  C   UNL     1      16.358  50.833  30.847  1.00  0.00     0.008 C 
ATOM     19  C   UNL     1      14.416  52.445  30.821  1.00  0.00     0.008 C 
ENDBRANCH  12  17
ENDBRANCH  11  12
ENDBRANCH   1  11
TORSDOF 1
ENDMDL
MODEL 5
REMARK VINA RESULT:    -2.944      1.873      4.140
REMARK INTER + INTRA:          -4.607
REMARK INTER:                  -4.320
REMARK INTRA:                  -0.287
REMARK UNBOUND:                -0.113
REMARK SMILES CC1=CCC[C@H](C)C(=O)C[C@@H](C(C)C)C(=O)C1
REMARK SMILES IDX 8 1 9 2 6 3 7 4 5 5 4 6 3 7 2 8 1 9 10 11 11 12 15 13 16 14
REMARK SMILES IDX 17 15 12 17 13 18 14 19
REMARK H PARENT
REMARK Flexibility Score: 70.00
ROOT
ATOM      1  C   UNL     1      14.812  52.156  34.814  1.00  0.00     0.136 C 
ATOM      2  O   UNL     1      14.009  51.242  34.939  1.00  0.00    -0.299 OA
ENDROOT
BRANCH   1   3
ATOM      3  C   UNL     1      15.729  52.502  35.972  1.00  0.00     0.053 C 
ATOM      4  C   UNL     1      15.232  51.786  37.236  1.00  0.00     0.016 C 
BRANCH   3   5
ATOM      5  C   UNL     1      17.196  52.106  35.653  1.00  0.00     0.015 C 
BRANCH   5   6
ATOM      6  C   UNL     1      18.173  53.262  35.318  1.00  0.00     0.028 C 
BRANCH   6   7
ATOM      7  C   UNL     1      19.115  53.056  34.153  1.00  0.00    -0.028 C 
ATOM      8  C   UNL     1      18.860  53.395  32.870  1.00  0.00    -0.070 CG0
ATOM      9  C   UNL     1      19.799  52.877  31.808  1.00  0.00     0.039 C 
ATOM     10  G   UNL     1      17.616  54.157  32.458  1.00  0.00     0.000 G0
ENDBRANCH   6   7
ENDBRANCH   5   6
ENDBRANCH   3   5
ENDBRANCH   1   3
BRANCH   1  11
ATOM     11  C   UNL     1      14.804  52.980  33.549  1.00  0.00     0.087 C 
BRANCH  11  12
ATOM     12  C   UNL     1      15.623  52.347  32.384  1.00  0.00     0.066 C 
BRANCH  12  13
ATOM     13  C   UNL     1      16.602  53.310  31.696  1.00  0.00     0.140 C 
ATOM     14  O   UNL     1      16.637  53.338  30.474  1.00  0.00    -0.299 OA
BRANCH  13  15
ATOM     15  C   UNL     1      17.614  54.162  32.434  1.00  0.00     0.106 CG0
ATOM     16  G   UNL     1      18.837  53.375  32.862  1.00  0.00     0.000 G0
ENDBRANCH  13  15
ENDBRANCH  12  13
BRANCH  12  17
ATOM     17  C   UNL     1      14.696  51.639  31.335  1.00  0.00    -0.006 C 
ATOM     18  C   UNL     1      13.274  52.221  31.297  1.00  0.00     0.008 C 
ATOM     19  C   UNL     1      14.644  50.112  31.520  1.00  0.00     0.008 C 
ENDBRANCH  12  17
ENDBRANCH  11  12
ENDBRANCH   1  11
TORSDOF 1
ENDMDL
MODEL 6
REMARK VINA RESULT:    -2.837      1.710      4.138
REMARK INTER + INTRA:          -4.442
REMARK INTER:                  -4.104
REMARK INTRA:                  -0.339
REMARK UNBOUND:                -0.113
REMARK SMILES CC1=CCC[C@H](C)C(=O)C[C@@H](C(C)C)C(=O)C1
REMARK SMILES IDX 8 1 9 2 6 3 7 4 5 5 4 6 3 7 2 8 1 9 10 11 11 12 15 13 16 14
REMARK SMILES IDX 17 15 12 17 13 18 14 19
REMARK H PARENT
REMARK Flexibility Score: 70.00
ROOT
ATOM      1  C   UNL     1      16.222  53.737  35.464  1.00  0.00     0.136 C 
ATOM      2  O   UNL     1      15.478  53.526  36.413  1.00  0.00    -0.299 OA
ENDROOT
BRANCH   1   3
ATOM      3  C   UNL     1      17.646  54.191  35.724  1.00  0.00     0.053 C 
ATOM      4  C   UNL     1      18.526  52.961  35.983  1.00  0.00     0.016 C 
BRANCH   3   5
ATOM      5  C   UNL     1      18.190  55.017  34.526  1.00  0.00     0.015 C 
BRANCH   5   6
ATOM      6  C   UNL     1      19.280  54.344  33.653  1.00  0.00     0.028 C 
BRANCH   6   7
ATOM      7  C   UNL     1      18.992  54.198  32.176  1.00  0.00    -0.028 C 
ATOM      8  C   UNL     1      18.441  53.113  31.589  1.00  0.00    -0.070 CG0
ATOM      9  C   UNL     1      18.473  53.039  30.081  1.00  0.00     0.039 C 
ATOM     10  G   UNL     1      17.918  51.932  32.382  1.00  0.00     0.000 G0
ENDBRANCH   6   7
ENDBRANCH   5   6
ENDBRANCH   3   5
ENDBRANCH   1   3
BRANCH   1  11
ATOM     11  C   UNL     1      15.677  53.635  34.060  1.00  0.00     0.087 C 
BRANCH  11  12
ATOM     12  C   UNL     1      15.510  52.169  33.558  1.00  0.00     0.066 C 
BRANCH  12  13
ATOM     13  C   UNL     1      16.406  51.798  32.366  1.00  0.00     0.140 C 
ATOM     14  O   UNL     1      15.888  51.298  31.377  1.00  0.00    -0.299 OA
BRANCH  13  15
ATOM     15  C   UNL     1      17.915  51.914  32.370  1.00  0.00     0.106 CG0
ATOM     16  G   UNL     1      18.411  53.107  31.576  1.00  0.00     0.000 G0
ENDBRANCH  13  15
ENDBRANCH  12  13
BRANCH  12  17
ATOM     17  C   UNL     1      14.010  51.816  33.269  1.00  0.00    -0.006 C 
ATOM     18  C   UNL     1      13.105  53.055  33.182  1.00  0.00     0.008 C 
ATOM     19  C   UNL     1      13.432  50.802  34.272  1.00  0.00     0.008 C 
ENDBRANCH  12  17
ENDBRANCH  11  12
ENDBRANCH   1  11
TORSDOF 1
ENDMDL
MODEL 7
REMARK VINA RESULT:    -2.725     13.039     14.749
REMARK INTER + INTRA:          -4.272
REMARK INTER:                  -4.078
REMARK INTRA:                  -0.194
REMARK UNBOUND:                -0.113
REMARK SMILES CC1=CCC[C@H](C)C(=O)C[C@@H](C(C)C)C(=O)C1
REMARK SMILES IDX 8 1 9 2 6 3 7 4 5 5 4 6 3 7 2 8 1 9 10 11 11 12 15 13 16 14
REMARK SMILES IDX 17 15 12 17 13 18 14 19
REMARK H PARENT
REMARK Flexibility Score: 70.00
ROOT
ATOM      1  C   UNL     1      13.715  62.841  23.033  1.00  0.00     0.136 C 
ATOM      2  O   UNL     1      12.832  62.044  22.744  1.00  0.00    -0.299 OA
ENDROOT
BRANCH   1   3
ATOM      3  C   UNL     1      13.457  63.878  24.109  1.00  0.00     0.053 C 
ATOM      4  C   UNL     1      11.946  64.131  24.210  1.00  0.00     0.016 C 
BRANCH   3   5
ATOM      5  C   UNL     1      14.032  63.414  25.475  1.00  0.00     0.015 C 
BRANCH   5   6
ATOM      6  C   UNL     1      15.311  64.133  25.974  1.00  0.00     0.028 C 
BRANCH   6   7
ATOM      7  C   UNL     1      16.481  63.264  26.380  1.00  0.00    -0.028 C 
ATOM      8  C   UNL     1      17.469  62.847  25.559  1.00  0.00    -0.070 CG0
ATOM      9  C   UNL     1      18.401  61.776  26.071  1.00  0.00     0.039 C 
ATOM     10  G   UNL     1      17.592  63.318  24.123  1.00  0.00     0.000 G0
ENDBRANCH   6   7
ENDBRANCH   5   6
ENDBRANCH   3   5
ENDBRANCH   1   3
BRANCH   1  11
ATOM     11  C   UNL     1      15.003  62.835  22.244  1.00  0.00     0.087 C 
BRANCH  11  12
ATOM     12  C   UNL     1      15.983  61.695  22.654  1.00  0.00     0.066 C 
BRANCH  12  13
ATOM     13  C   UNL     1      17.367  62.179  23.113  1.00  0.00     0.140 C 
ATOM     14  O   UNL     1      18.357  61.574  22.728  1.00  0.00    -0.299 OA
BRANCH  13  15
ATOM     15  C   UNL     1      17.587  63.301  24.106  1.00  0.00     0.106 CG0
ATOM     16  G   UNL     1      17.461  62.840  25.545  1.00  0.00     0.000 G0
ENDBRANCH  13  15
ENDBRANCH  12  13
BRANCH  12  17
ATOM     17  C   UNL     1      16.109  60.602  21.536  1.00  0.00    -0.006 C 
ATOM     18  C   UNL     1      15.879  61.157  20.121  1.00  0.00     0.008 C 
ATOM     19  C   UNL     1      15.201  59.385  21.787  1.00  0.00     0.008 C 
ENDBRANCH  12  17
ENDBRANCH  11  12
ENDBRANCH   1  11
TORSDOF 1
ENDMDL
MODEL 8
REMARK VINA RESULT:    -2.709      2.601      4.428
REMARK INTER + INTRA:          -4.248
REMARK INTER:                  -3.947
REMARK INTRA:                  -0.301
REMARK UNBOUND:                -0.113
REMARK SMILES CC1=CCC[C@H](C)C(=O)C[C@@H](C(C)C)C(=O)C1
REMARK SMILES IDX 8 1 9 2 6 3 7 4 5 5 4 6 3 7 2 8 1 9 10 11 11 12 15 13 16 14
REMARK SMILES IDX 17 15 12 17 13 18 14 19
REMARK H PARENT
REMARK Flexibility Score: 70.00
ROOT
ATOM      1  C   UNL     1      14.847  52.466  35.276  1.00  0.00     0.136 C 
ATOM      2  O   UNL     1      14.280  51.402  35.483  1.00  0.00    -0.299 OA
ENDROOT
BRANCH   1   3
ATOM      3  C   UNL     1      15.910  52.943  36.247  1.00  0.00     0.053 C 
ATOM      4  C   UNL     1      15.511  52.530  37.670  1.00  0.00     0.016 C 
BRANCH   3   5
ATOM      5  C   UNL     1      17.302  52.362  35.873  1.00  0.00     0.015 C 
BRANCH   5   6
ATOM      6  C   UNL     1      18.321  53.345  35.243  1.00  0.00     0.028 C 
BRANCH   6   7
ATOM      7  C   UNL     1      18.055  54.824  35.416  1.00  0.00    -0.028 C 
ATOM      8  C   UNL     1      17.729  55.682  34.424  1.00  0.00    -0.070 CG0
ATOM      9  C   UNL     1      17.761  57.158  34.736  1.00  0.00     0.039 C 
ATOM     10  G   UNL     1      17.462  55.226  33.003  1.00  0.00     0.000 G0
ENDBRANCH   6   7
ENDBRANCH   5   6
ENDBRANCH   3   5
ENDBRANCH   1   3
BRANCH   1  11
ATOM     11  C   UNL     1      14.406  53.324  34.115  1.00  0.00     0.087 C 
BRANCH  11  12
ATOM     12  C   UNL     1      15.465  53.430  32.976  1.00  0.00     0.066 C 
BRANCH  12  13
ATOM     13  C   UNL     1      16.018  54.845  32.749  1.00  0.00     0.140 C 
ATOM     14  O   UNL     1      15.280  55.691  32.264  1.00  0.00    -0.299 OA
BRANCH  13  15
ATOM     15  C   UNL     1      17.459  55.243  32.990  1.00  0.00     0.106 CG0
ATOM     16  G   UNL     1      17.711  55.681  34.420  1.00  0.00     0.000 G0
ENDBRANCH  13  15
ENDBRANCH  12  13
BRANCH  12  17
ATOM     17  C   UNL     1      14.947  52.804  31.635  1.00  0.00    -0.006 C 
ATOM     18  C   UNL     1      13.413  52.744  31.550  1.00  0.00     0.008 C 
ATOM     19  C   UNL     1      15.551  51.417  31.352  1.00  0.00     0.008 C 
ENDBRANCH  12  17
ENDBRANCH  11  12
ENDBRANCH   1  11
TORSDOF 1
ENDMDL
MODEL 9
REMARK VINA RESULT:    -2.707      2.985      4.364
REMARK INTER + INTRA:          -4.244
REMARK INTER:                  -3.976
REMARK INTRA:                  -0.268
REMARK UNBOUND:                -0.113
REMARK SMILES CC1=CCC[C@H](C)C(=O)C[C@@H](C(C)C)C(=O)C1
REMARK SMILES IDX 8 1 9 2 6 3 7 4 5 5 4 6 3 7 2 8 1 9 10 11 11 12 15 13 16 14
REMARK SMILES IDX 17 15 12 17 13 18 14 19
REMARK H PARENT
REMARK Flexibility Score: 70.00
ROOT
ATOM      1  C   UNL     1      18.758  55.121  33.961  1.00  0.00     0.136 C 
ATOM      2  O   UNL     1      19.833  55.693  34.089  1.00  0.00    -0.299 OA
ENDROOT
BRANCH   1   3
ATOM      3  C   UNL     1      18.652  53.651  34.320  1.00  0.00     0.053 C 
ATOM      4  C   UNL     1      19.974  52.953  33.974  1.00  0.00     0.016 C 
BRANCH   3   5
ATOM      5  C   UNL     1      18.309  53.472  35.824  1.00  0.00     0.015 C 
BRANCH   5   6
ATOM      6  C   UNL     1      17.071  52.601  36.158  1.00  0.00     0.028 C 
BRANCH   6   7
ATOM      7  C   UNL     1      16.146  52.245  35.014  1.00  0.00    -0.028 C 
ATOM      8  C   UNL     1      15.088  52.977  34.606  1.00  0.00    -0.070 CG0
ATOM      9  C   UNL     1      14.128  52.340  33.630  1.00  0.00     0.039 C 
ATOM     10  G   UNL     1      14.768  54.344  35.180  1.00  0.00     0.000 G0
ENDBRANCH   6   7
ENDBRANCH   5   6
ENDBRANCH   3   5
ENDBRANCH   1   3
BRANCH   1  11
ATOM     11  C   UNL     1      17.592  55.866  33.357  1.00  0.00     0.087 C 
BRANCH  11  12
ATOM     12  C   UNL     1      16.496  56.259  34.393  1.00  0.00     0.066 C 
BRANCH  12  13
ATOM     13  C   UNL     1      15.181  55.477  34.256  1.00  0.00     0.140 C 
ATOM     14  O   UNL     1      14.374  55.830  33.406  1.00  0.00    -0.299 OA
BRANCH  13  15
ATOM     15  C   UNL     1      14.762  54.352  35.179  1.00  0.00     0.106 CG0
ATOM     16  G   UNL     1      15.098  52.984  34.620  1.00  0.00     0.000 G0
ENDBRANCH  13  15
ENDBRANCH  12  13
BRANCH  12  17
ATOM     17  C   UNL     1      16.235  57.805  34.410  1.00  0.00    -0.006 C 
ATOM     18  C   UNL     1      17.495  58.633  34.109  1.00  0.00     0.008 C 
ATOM     19  C   UNL     1      15.580  58.285  35.717  1.00  0.00     0.008 C 
ENDBRANCH  12  17
ENDBRANCH  11  12
ENDBRANCH   1  11
TORSDOF 1
ENDMDL
