MODEL 1
REMARK VINA RESULT:    -3.016      0.000      0.000
REMARK INTER + INTRA:          -5.088
REMARK INTER:                  -4.426
REMARK INTRA:                  -0.662
REMARK UNBOUND:                -0.662
REMARK SMILES O=C([O-])CCCCCCCC(=O)[O-]
REMARK SMILES IDX 7 1 6 2 5 3 4 4 2 5 1 6 3 7 8 8 9 9 10 10 11 11 12 12 13 13
REMARK H PARENT
REMARK Flexibility Score: inf
ROOT
ATOM      1  C   UNL     1     -14.907 -10.099   2.486  1.00  0.00     0.000 C 
ENDROOT
BRANCH   1   2
ATOM      2  C   UNL     1     -15.716 -10.867   3.551  1.00  0.00     0.000 C 
BRANCH   2   3
ATOM      3  C   UNL     1     -16.157 -12.286   3.141  1.00  0.00     0.006 C 
BRANCH   3   4
ATOM      4  C   UNL     1     -17.620 -12.390   2.684  1.00  0.00     0.053 C 
BRANCH   4   5
ATOM      5  C   UNL     1     -17.732 -12.542   1.199  1.00  0.00     0.041 C 
ATOM      6  O   UNL     1     -18.848 -12.777   0.666  1.00  0.00    -0.550 OA
ATOM      7  O   UNL     1     -16.595 -12.457   0.405  1.00  0.00    -0.550 OA
ENDBRANCH   4   5
ENDBRANCH   3   4
ENDBRANCH   2   3
ENDBRANCH   1   2
BRANCH   1   8
ATOM      8  C   UNL     1     -13.728 -10.877   1.874  1.00  0.00     0.000 C 
BRANCH   8   9
ATOM      9  C   UNL     1     -12.555 -11.051   2.855  1.00  0.00     0.006 C 
BRANCH   9  10
ATOM     10  C   UNL     1     -12.329 -12.521   3.231  1.00  0.00     0.053 C 
BRANCH  10  11
ATOM     11  C   UNL     1     -12.291 -12.715   4.716  1.00  0.00     0.041 C 
ATOM     12  O   UNL     1     -11.228 -12.504   5.358  1.00  0.00    -0.550 OA
ATOM     13  O   UNL     1     -13.439 -13.102   5.396  1.00  0.00    -0.550 OA
ENDBRANCH  10  11
ENDBRANCH   9  10
ENDBRANCH   8   9
ENDBRANCH   1   8
TORSDOF 8
ENDMDL
MODEL 2
REMARK VINA RESULT:    -2.946     15.865     17.552
REMARK INTER + INTRA:          -4.985
REMARK INTER:                  -4.569
REMARK INTRA:                  -0.416
REMARK UNBOUND:                -0.662
REMARK SMILES O=C([O-])CCCCCCCC(=O)[O-]
REMARK SMILES IDX 7 1 6 2 5 3 4 4 2 5 1 6 3 7 8 8 9 9 10 10 11 11 12 12 13 13
REMARK H PARENT
REMARK Flexibility Score: inf
ROOT
ATOM      1  C   UNL     1     -23.535   2.091   2.147  1.00  0.00     0.000 C 
ENDROOT
BRANCH   1   2
ATOM      2  C   UNL     1     -22.878   0.735   2.477  1.00  0.00     0.000 C 
BRANCH   2   3
ATOM      3  C   UNL     1     -22.020   0.131   1.348  1.00  0.00     0.006 C 
BRANCH   3   4
ATOM      4  C   UNL     1     -20.506   0.313   1.533  1.00  0.00     0.053 C 
BRANCH   4   5
ATOM      5  C   UNL     1     -19.974   1.441   0.704  1.00  0.00     0.041 C 
ATOM      6  O   UNL     1     -20.735   2.066  -0.080  1.00  0.00    -0.550 OA
ATOM      7  O   UNL     1     -18.629   1.782   0.775  1.00  0.00    -0.550 OA
ENDBRANCH   4   5
ENDBRANCH   3   4
ENDBRANCH   2   3
ENDBRANCH   1   2
BRANCH   1   8
ATOM      8  C   UNL     1     -24.937   2.300   2.746  1.00  0.00     0.000 C 
BRANCH   8   9
ATOM      9  C   UNL     1     -25.099   3.673   3.422  1.00  0.00     0.006 C 
BRANCH   9  10
ATOM     10  C   UNL     1     -23.757   4.399   3.585  1.00  0.00     0.053 C 
BRANCH  10  11
ATOM     11  C   UNL     1     -23.838   5.826   3.137  1.00  0.00     0.041 C 
ATOM     12  O   UNL     1     -24.545   6.140   2.143  1.00  0.00    -0.550 OA
ATOM     13  O   UNL     1     -23.156   6.814   3.836  1.00  0.00    -0.550 OA
ENDBRANCH  10  11
ENDBRANCH   9  10
ENDBRANCH   8   9
ENDBRANCH   1   8
TORSDOF 8
ENDMDL
MODEL 3
REMARK VINA RESULT:    -2.912     15.633     17.038
REMARK INTER + INTRA:          -4.935
REMARK INTER:                  -4.524
REMARK INTRA:                  -0.411
REMARK UNBOUND:                -0.662
REMARK SMILES O=C([O-])CCCCCCCC(=O)[O-]
REMARK SMILES IDX 7 1 6 2 5 3 4 4 2 5 1 6 3 7 8 8 9 9 10 10 11 11 12 12 13 13
REMARK H PARENT
REMARK Flexibility Score: inf
ROOT
ATOM      1  C   UNL     1     -22.934   1.684   1.867  1.00  0.00     0.000 C 
ENDROOT
BRANCH   1   2
ATOM      2  C   UNL     1     -24.323   1.778   2.531  1.00  0.00     0.000 C 
BRANCH   2   3
ATOM      3  C   UNL     1     -24.859   3.211   2.726  1.00  0.00     0.006 C 
BRANCH   3   4
ATOM      4  C   UNL     1     -23.866   4.175   3.392  1.00  0.00     0.053 C 
BRANCH   4   5
ATOM      5  C   UNL     1     -23.538   5.337   2.507  1.00  0.00     0.041 C 
ATOM      6  O   UNL     1     -23.627   5.227   1.255  1.00  0.00    -0.550 OA
ATOM      7  O   UNL     1     -23.101   6.533   3.063  1.00  0.00    -0.550 OA
ENDBRANCH   4   5
ENDBRANCH   3   4
ENDBRANCH   2   3
ENDBRANCH   1   2
BRANCH   1   8
ATOM      8  C   UNL     1     -21.973   0.664   2.505  1.00  0.00     0.000 C 
BRANCH   8   9
ATOM      9  C   UNL     1     -20.745   0.370   1.626  1.00  0.00     0.006 C 
BRANCH   9  10
ATOM     10  C   UNL     1     -20.763   1.174   0.320  1.00  0.00     0.053 C 
BRANCH  10  11
ATOM     11  C   UNL     1     -19.674   2.203   0.284  1.00  0.00     0.041 C 
ATOM     12  O   UNL     1     -19.916   3.369  -0.124  1.00  0.00    -0.550 OA
ATOM     13  O   UNL     1     -18.399   1.881   0.731  1.00  0.00    -0.550 OA
ENDBRANCH  10  11
ENDBRANCH   9  10
ENDBRANCH   8   9
ENDBRANCH   1   8
TORSDOF 8
ENDMDL
MODEL 4
REMARK VINA RESULT:    -2.885     15.457     17.195
REMARK INTER + INTRA:          -4.897
REMARK INTER:                  -4.490
REMARK INTRA:                  -0.407
REMARK UNBOUND:                -0.662
REMARK SMILES O=C([O-])CCCCCCCC(=O)[O-]
REMARK SMILES IDX 7 1 6 2 5 3 4 4 2 5 1 6 3 7 8 8 9 9 10 10 11 11 12 12 13 13
REMARK H PARENT
REMARK Flexibility Score: inf
ROOT
ATOM      1  C   UNL     1     -22.713   1.357   2.524  1.00  0.00     0.000 C 
ENDROOT
BRANCH   1   2
ATOM      2  C   UNL     1     -21.873   0.102   2.210  1.00  0.00     0.000 C 
BRANCH   2   3
ATOM      3  C   UNL     1     -20.527   0.374   1.508  1.00  0.00     0.006 C 
BRANCH   3   4
ATOM      4  C   UNL     1     -20.619   1.325   0.305  1.00  0.00     0.053 C 
BRANCH   4   5
ATOM      5  C   UNL     1     -19.483   2.301   0.278  1.00  0.00     0.041 C 
ATOM      6  O   UNL     1     -18.333   1.947   0.649  1.00  0.00    -0.550 OA
ATOM      7  O   UNL     1     -19.704   3.611  -0.125  1.00  0.00    -0.550 OA
ENDBRANCH   4   5
ENDBRANCH   3   4
ENDBRANCH   2   3
ENDBRANCH   1   2
BRANCH   1   8
ATOM      8  C   UNL     1     -24.135   1.357   1.933  1.00  0.00     0.000 C 
BRANCH   8   9
ATOM      9  C   UNL     1     -24.742   2.768   1.839  1.00  0.00     0.006 C 
BRANCH   9  10
ATOM     10  C   UNL     1     -25.432   3.189   3.142  1.00  0.00     0.053 C 
BRANCH  10  11
ATOM     11  C   UNL     1     -24.771   4.382   3.762  1.00  0.00     0.041 C 
ATOM     12  O   UNL     1     -23.618   4.731   3.394  1.00  0.00    -0.550 OA
ATOM     13  O   UNL     1     -25.441   5.126   4.725  1.00  0.00    -0.550 OA
ENDBRANCH  10  11
ENDBRANCH   9  10
ENDBRANCH   8   9
ENDBRANCH   1   8
TORSDOF 8
ENDMDL
MODEL 5
REMARK VINA RESULT:    -2.874     15.667     17.125
REMARK INTER + INTRA:          -4.879
REMARK INTER:                  -4.240
REMARK INTRA:                  -0.639
REMARK UNBOUND:                -0.662
REMARK SMILES O=C([O-])CCCCCCCC(=O)[O-]
REMARK SMILES IDX 7 1 6 2 5 3 4 4 2 5 1 6 3 7 8 8 9 9 10 10 11 11 12 12 13 13
REMARK H PARENT
REMARK Flexibility Score: inf
ROOT
ATOM      1  C   UNL     1     -25.267   1.899   1.756  1.00  0.00     0.000 C 
ENDROOT
BRANCH   1   2
ATOM      2  C   UNL     1     -25.321   2.442   3.199  1.00  0.00     0.000 C 
BRANCH   2   3
ATOM      3  C   UNL     1     -25.375   3.979   3.318  1.00  0.00     0.006 C 
BRANCH   3   4
ATOM      4  C   UNL     1     -24.037   4.634   3.693  1.00  0.00     0.053 C 
BRANCH   4   5
ATOM      5  C   UNL     1     -23.496   5.475   2.578  1.00  0.00     0.041 C 
ATOM      6  O   UNL     1     -23.456   6.729   2.690  1.00  0.00    -0.550 OA
ATOM      7  O   UNL     1     -23.067   4.875   1.401  1.00  0.00    -0.550 OA
ENDBRANCH   4   5
ENDBRANCH   3   4
ENDBRANCH   2   3
ENDBRANCH   1   2
BRANCH   1   8
ATOM      8  C   UNL     1     -23.885   1.399   1.297  1.00  0.00     0.000 C 
BRANCH   8   9
ATOM      9  C   UNL     1     -22.821   1.486   2.405  1.00  0.00     0.006 C 
BRANCH   9  10
ATOM     10  C   UNL     1     -22.214   0.116   2.733  1.00  0.00     0.053 C 
BRANCH  10  11
ATOM     11  C   UNL     1     -21.367  -0.400   1.611  1.00  0.00     0.041 C 
ATOM     12  O   UNL     1     -20.281   0.169   1.322  1.00  0.00    -0.550 OA
ATOM     13  O   UNL     1     -21.761  -1.529   0.904  1.00  0.00    -0.550 OA
ENDBRANCH  10  11
ENDBRANCH   9  10
ENDBRANCH   8   9
ENDBRANCH   1   8
TORSDOF 8
ENDMDL
MODEL 6
REMARK VINA RESULT:    -2.857     15.485     16.998
REMARK INTER + INTRA:          -4.855
REMARK INTER:                  -4.280
REMARK INTRA:                  -0.575
REMARK UNBOUND:                -0.662
REMARK SMILES O=C([O-])CCCCCCCC(=O)[O-]
REMARK SMILES IDX 7 1 6 2 5 3 4 4 2 5 1 6 3 7 8 8 9 9 10 10 11 11 12 12 13 13
REMARK H PARENT
REMARK Flexibility Score: inf
ROOT
ATOM      1  C   UNL     1     -24.762   2.985   2.868  1.00  0.00     0.000 C 
ENDROOT
BRANCH   1   2
ATOM      2  C   UNL     1     -23.694   4.032   3.244  1.00  0.00     0.000 C 
BRANCH   2   3
ATOM      3  C   UNL     1     -23.781   5.363   2.469  1.00  0.00     0.006 C 
BRANCH   3   4
ATOM      4  C   UNL     1     -23.617   5.224   0.948  1.00  0.00     0.053 C 
BRANCH   4   5
ATOM      5  C   UNL     1     -22.199   4.934   0.564  1.00  0.00     0.041 C 
ATOM      6  O   UNL     1     -21.885   3.810   0.091  1.00  0.00    -0.550 OA
ATOM      7  O   UNL     1     -21.216   5.897   0.759  1.00  0.00    -0.550 OA
ENDBRANCH   4   5
ENDBRANCH   3   4
ENDBRANCH   2   3
ENDBRANCH   1   2
BRANCH   1   8
ATOM      8  C   UNL     1     -24.213   1.684   2.253  1.00  0.00     0.000 C 
BRANCH   8   9
ATOM      9  C   UNL     1     -22.709   1.490   2.512  1.00  0.00     0.006 C 
BRANCH   9  10
ATOM     10  C   UNL     1     -22.334   0.010   2.662  1.00  0.00     0.053 C 
BRANCH  10  11
ATOM     11  C   UNL     1     -21.445  -0.454   1.549  1.00  0.00     0.041 C 
ATOM     12  O   UNL     1     -20.333   0.102   1.351  1.00  0.00    -0.550 OA
ATOM     13  O   UNL     1     -21.832  -1.522   0.749  1.00  0.00    -0.550 OA
ENDBRANCH  10  11
ENDBRANCH   9  10
ENDBRANCH   8   9
ENDBRANCH   1   8
TORSDOF 8
ENDMDL
MODEL 7
REMARK VINA RESULT:    -2.837     15.302     16.710
REMARK INTER + INTRA:          -4.825
REMARK INTER:                  -4.298
REMARK INTRA:                  -0.527
REMARK UNBOUND:                -0.662
REMARK SMILES O=C([O-])CCCCCCCC(=O)[O-]
REMARK SMILES IDX 7 1 6 2 5 3 4 4 2 5 1 6 3 7 8 8 9 9 10 10 11 11 12 12 13 13
REMARK H PARENT
REMARK Flexibility Score: inf
ROOT
ATOM      1  C   UNL     1     -21.632   0.690   2.467  1.00  0.00     0.000 C 
ENDROOT
BRANCH   1   2
ATOM      2  C   UNL     1     -23.074   0.455   1.976  1.00  0.00     0.000 C 
BRANCH   2   3
ATOM      3  C   UNL     1     -23.940   1.725   1.855  1.00  0.00     0.006 C 
BRANCH   3   4
ATOM      4  C   UNL     1     -23.383   2.947   2.601  1.00  0.00     0.053 C 
BRANCH   4   5
ATOM      5  C   UNL     1     -23.464   4.191   1.772  1.00  0.00     0.041 C 
ATOM      6  O   UNL     1     -23.600   5.315   2.324  1.00  0.00    -0.550 OA
ATOM      7  O   UNL     1     -23.423   4.106   0.386  1.00  0.00    -0.550 OA
ENDBRANCH   4   5
ENDBRANCH   3   4
ENDBRANCH   2   3
ENDBRANCH   1   2
BRANCH   1   8
ATOM      8  C   UNL     1     -20.549   0.616   1.375  1.00  0.00     0.000 C 
BRANCH   8   9
ATOM      9  C   UNL     1     -20.566   1.835   0.435  1.00  0.00     0.006 C 
BRANCH   9  10
ATOM     10  C   UNL     1     -19.152   2.272   0.030  1.00  0.00     0.053 C 
BRANCH  10  11
ATOM     11  C   UNL     1     -19.008   3.763   0.034  1.00  0.00     0.041 C 
ATOM     12  O   UNL     1     -17.871   4.290   0.156  1.00  0.00    -0.550 OA
ATOM     13  O   UNL     1     -20.127   4.570  -0.125  1.00  0.00    -0.550 OA
ENDBRANCH  10  11
ENDBRANCH   9  10
ENDBRANCH   8   9
ENDBRANCH   1   8
TORSDOF 8
ENDMDL
MODEL 8
REMARK VINA RESULT:    -2.815     16.145     17.805
REMARK INTER + INTRA:          -4.794
REMARK INTER:                  -4.257
REMARK INTRA:                  -0.537
REMARK UNBOUND:                -0.662
REMARK SMILES O=C([O-])CCCCCCCC(=O)[O-]
REMARK SMILES IDX 7 1 6 2 5 3 4 4 2 5 1 6 3 7 8 8 9 9 10 10 11 11 12 12 13 13
REMARK H PARENT
REMARK Flexibility Score: inf
ROOT
ATOM      1  C   UNL     1     -25.247   2.474   2.023  1.00  0.00     0.000 C 
ENDROOT
BRANCH   1   2
ATOM      2  C   UNL     1     -24.199   1.348   1.910  1.00  0.00     0.000 C 
BRANCH   2   3
ATOM      3  C   UNL     1     -22.784   1.719   2.398  1.00  0.00     0.006 C 
BRANCH   3   4
ATOM      4  C   UNL     1     -21.774   0.562   2.355  1.00  0.00     0.053 C 
BRANCH   4   5
ATOM      5  C   UNL     1     -20.918   0.614   1.127  1.00  0.00     0.041 C 
ATOM      6  O   UNL     1     -19.705   0.941   1.211  1.00  0.00    -0.550 OA
ATOM      7  O   UNL     1     -21.470   0.332  -0.116  1.00  0.00    -0.550 OA
ENDBRANCH   4   5
ENDBRANCH   3   4
ENDBRANCH   2   3
ENDBRANCH   1   2
BRANCH   1   8
ATOM      8  C   UNL     1     -25.603   2.893   3.461  1.00  0.00     0.000 C 
BRANCH   8   9
ATOM      9  C   UNL     1     -25.457   4.406   3.695  1.00  0.00     0.006 C 
BRANCH   9  10
ATOM     10  C   UNL     1     -23.997   4.818   3.926  1.00  0.00     0.053 C 
BRANCH  10  11
ATOM     11  C   UNL     1     -23.538   5.826   2.916  1.00  0.00     0.041 C 
ATOM     12  O   UNL     1     -23.440   5.508   1.701  1.00  0.00    -0.550 OA
ATOM     13  O   UNL     1     -23.246   7.124   3.314  1.00  0.00    -0.550 OA
ENDBRANCH  10  11
ENDBRANCH   9  10
ENDBRANCH   8   9
ENDBRANCH   1   8
TORSDOF 8
ENDMDL
MODEL 9
REMARK VINA RESULT:    -2.779      1.392      5.566
REMARK INTER + INTRA:          -4.740
REMARK INTER:                  -4.193
REMARK INTRA:                  -0.546
REMARK UNBOUND:                -0.662
REMARK SMILES O=C([O-])CCCCCCCC(=O)[O-]
REMARK SMILES IDX 7 1 6 2 5 3 4 4 2 5 1 6 3 7 8 8 9 9 10 10 11 11 12 12 13 13
REMARK H PARENT
REMARK Flexibility Score: inf
ROOT
ATOM      1  C   UNL     1     -15.885 -10.828   2.605  1.00  0.00     0.000 C 
ENDROOT
BRANCH   1   2
ATOM      2  C   UNL     1     -14.477 -10.204   2.528  1.00  0.00     0.000 C 
BRANCH   2   3
ATOM      3  C   UNL     1     -13.376 -11.137   1.985  1.00  0.00     0.006 C 
BRANCH   3   4
ATOM      4  C   UNL     1     -13.355 -12.534   2.624  1.00  0.00     0.053 C 
BRANCH   4   5
ATOM      5  C   UNL     1     -12.936 -12.484   4.060  1.00  0.00     0.041 C 
ATOM      6  O   UNL     1     -11.745 -12.210   4.366  1.00  0.00    -0.550 OA
ATOM      7  O   UNL     1     -13.854 -12.773   5.062  1.00  0.00    -0.550 OA
ENDBRANCH   4   5
ENDBRANCH   3   4
ENDBRANCH   2   3
ENDBRANCH   1   2
BRANCH   1   8
ATOM      8  C   UNL     1     -16.405 -11.432   1.288  1.00  0.00     0.000 C 
BRANCH   8   9
ATOM      9  C   UNL     1     -17.060 -12.811   1.482  1.00  0.00     0.006 C 
BRANCH   9  10
ATOM     10  C   UNL     1     -17.709 -12.954   2.865  1.00  0.00     0.053 C 
BRANCH  10  11
ATOM     11  C   UNL     1     -19.177 -12.658   2.823  1.00  0.00     0.041 C 
ATOM     12  O   UNL     1     -19.802 -12.392   3.883  1.00  0.00    -0.550 OA
ATOM     13  O   UNL     1     -19.850 -12.649   1.607  1.00  0.00    -0.550 OA
ENDBRANCH  10  11
ENDBRANCH   9  10
ENDBRANCH   8   9
ENDBRANCH   1   8
TORSDOF 8
ENDMDL
