MODEL 1
REMARK VINA RESULT:    27.851      0.000      0.000
REMARK INTER + INTRA:          27.851
REMARK INTER:                  27.851
REMARK INTRA:                   0.000
REMARK UNBOUND:                 0.000
REMARK SMILES C=C1CCC[C@]2(C)C=C3OC(=O)C(C)=C3C[C@@H]12
REMARK SMILES IDX 14 1 13 2 15 3 16 4 17 5 2 6 1 7 3 8 4 9 5 10 6 11 8 12 9 13
REMARK SMILES IDX 10 14 11 15 12 16 7 17
REMARK H PARENT
REMARK Flexibility Score: inf
ROOT
ATOM      1  C   UNL     1      13.088   4.501  18.948  1.00  0.00     0.053 C 
ATOM      2  C   UNL     1      12.066   3.527  19.443  1.00  0.00     0.041 C 
ATOM      3  C   UNL     1      11.535   2.520  18.757  1.00  0.00     0.005 C 
ATOM      4  C   UNL     1      11.849   2.046  17.368  1.00  0.00     0.049 C 
ATOM      5  C   UNL     1      10.645   1.212  16.844  1.00  0.00     0.029 C 
ATOM      6  C   UNL     1      10.819   0.576  15.471  1.00  0.00    -0.073 C 
ATOM      7  C   UNL     1      11.931   0.701  14.723  1.00  0.00     0.008 C 
ATOM      8  C   UNL     1       9.618  -0.162  14.925  1.00  0.00     0.031 C 
ATOM      9  C   UNL     1       9.088  -1.177  15.946  1.00  0.00     0.005 C 
ATOM     10  C   UNL     1       8.882  -0.551  17.339  1.00  0.00     0.012 C 
ATOM     11  C   UNL     1      10.163   0.136  17.885  1.00  0.00    -0.004 C 
ATOM     12  C   UNL     1       9.836   0.810  19.212  1.00  0.00     0.027 C 
ATOM     13  C   UNL     1      10.534   1.878  19.596  1.00  0.00     0.131 C 
ATOM     14  O   UNL     1      10.428   2.543  20.808  1.00  0.00    -0.423 OA
ATOM     15  C   UNL     1      11.364   3.568  20.729  1.00  0.00     0.339 C 
ATOM     16  O   UNL     1      11.564   4.408  21.645  1.00  0.00    -0.246 OA
ATOM     17  C   UNL     1      11.262  -0.922  18.159  1.00  0.00     0.016 C 
ENDROOT
TORSDOF 0
ENDMDL
