MODEL 1
REMARK VINA RESULT:    -5.987      0.000      0.000
REMARK INTER + INTRA:          -7.318
REMARK INTER:                  -7.037
REMARK INTRA:                  -0.281
REMARK UNBOUND:                -0.281
REMARK SMILES O=c1cc(-c2ccc(O)c(O)c2)oc2cc(O)cc(O)c12
REMARK SMILES IDX 4 1 3 2 2 3 1 4 21 5 19 6 18 7 16 8 15 9 14 10 13 11 5 12
REMARK SMILES IDX 6 13 7 14 8 15 12 16 10 17 9 18 11 20 20 22 17 24
REMARK H PARENT 9 19 11 21 20 23 17 25
REMARK Flexibility Score: inf
ROOT
ATOM      1  C   UNL     1       8.033   4.629 -12.366  1.00  0.00     0.138 A 
ATOM      2  C   UNL     1       8.855   5.105 -13.400  1.00  0.00     0.100 A 
ATOM      3  C   UNL     1      10.189   5.415 -13.130  1.00  0.00     0.197 A 
ATOM      4  O   UNL     1      10.919   5.840 -14.066  1.00  0.00    -0.289 OA
ATOM      5  C   UNL     1      10.693   5.242 -11.825  1.00  0.00     0.107 A 
ATOM      6  C   UNL     1      12.030   5.532 -11.466  1.00  0.00     0.134 A 
ATOM      7  C   UNL     1      12.455   5.327 -10.146  1.00  0.00     0.093 A 
ATOM      8  C   UNL     1      11.572   4.838  -9.181  1.00  0.00     0.123 A 
ATOM      9  C   UNL     1      10.249   4.549  -9.530  1.00  0.00     0.094 A 
ATOM     10  C   UNL     1       9.805   4.748 -10.840  1.00  0.00     0.146 A 
ATOM     11  O   UNL     1       8.543   4.467 -11.146  1.00  0.00    -0.456 OA
ENDROOT
BRANCH   1  12
ATOM     12  C   UNL     1       6.607   4.283 -12.595  1.00  0.00     0.021 A 
ATOM     13  C   UNL     1       6.001   3.183 -11.960  1.00  0.00     0.016 A 
ATOM     14  C   UNL     1       4.661   2.875 -12.202  1.00  0.00     0.051 A 
ATOM     15  C   UNL     1       3.903   3.651 -13.084  1.00  0.00     0.157 A 
ATOM     16  C   UNL     1       5.844   5.053 -13.491  1.00  0.00     0.062 A 
ATOM     17  C   UNL     1       4.498   4.745 -13.733  1.00  0.00     0.158 A 
BRANCH  15  18
ATOM     18  O   UNL     1       2.566   3.320 -13.302  1.00  0.00    -0.504 OA
ATOM     19  H   UNL     1       2.231   2.367 -13.236  1.00  0.00     0.293 HD
ENDBRANCH  15  18
BRANCH  17  20
ATOM     20  O   UNL     1       3.749   5.522 -14.617  1.00  0.00    -0.504 OA
ATOM     21  H   UNL     1       3.056   6.183 -14.287  1.00  0.00     0.293 HD
ENDBRANCH  17  20
ENDBRANCH   1  12
BRANCH   6  22
ATOM     22  O   UNL     1      12.936   6.021 -12.409  1.00  0.00    -0.507 OA
ATOM     23  H   UNL     1      13.889   6.256 -12.160  1.00  0.00     0.293 HD
ENDBRANCH   6  22
BRANCH   8  24
ATOM     24  O   UNL     1      12.021   4.643  -7.876  1.00  0.00    -0.508 OA
ATOM     25  H   UNL     1      12.930   4.971  -7.574  1.00  0.00     0.293 HD
ENDBRANCH   8  24
TORSDOF 5
ENDMDL
MODEL 2
REMARK VINA RESULT:    -5.919      1.076      2.605
REMARK INTER + INTRA:          -7.239
REMARK INTER:                  -6.923
REMARK INTRA:                  -0.316
REMARK UNBOUND:                -0.281
REMARK SMILES O=c1cc(-c2ccc(O)c(O)c2)oc2cc(O)cc(O)c12
REMARK SMILES IDX 4 1 3 2 2 3 1 4 21 5 19 6 18 7 16 8 15 9 14 10 13 11 5 12
REMARK SMILES IDX 6 13 7 14 8 15 12 16 10 17 9 18 11 20 20 22 17 24
REMARK H PARENT 9 19 11 21 20 23 17 25
REMARK Flexibility Score: inf
ROOT
ATOM      1  C   UNL     1       8.040   4.202 -11.594  1.00  0.00     0.138 A 
ATOM      2  C   UNL     1       8.481   3.638 -10.387  1.00  0.00     0.100 A 
ATOM      3  C   UNL     1       9.798   3.846  -9.972  1.00  0.00     0.197 A 
ATOM      4  O   UNL     1      10.184   3.337  -8.886  1.00  0.00    -0.289 OA
ATOM      5  C   UNL     1      10.663   4.624 -10.769  1.00  0.00     0.107 A 
ATOM      6  C   UNL     1      12.010   4.883 -10.423  1.00  0.00     0.134 A 
ATOM      7  C   UNL     1      12.805   5.671 -11.268  1.00  0.00     0.093 A 
ATOM      8  C   UNL     1      12.280   6.204 -12.448  1.00  0.00     0.123 A 
ATOM      9  C   UNL     1      10.949   5.951 -12.795  1.00  0.00     0.094 A 
ATOM     10  C   UNL     1      10.141   5.167 -11.966  1.00  0.00     0.146 A 
ATOM     11  O   UNL     1       8.879   4.939 -12.319  1.00  0.00    -0.456 OA
ENDROOT
BRANCH   1  12
ATOM     12  C   UNL     1       6.651   4.014 -12.085  1.00  0.00     0.021 A 
ATOM     13  C   UNL     1       5.799   3.037 -11.538  1.00  0.00     0.016 A 
ATOM     14  C   UNL     1       4.500   2.875 -12.025  1.00  0.00     0.051 A 
ATOM     15  C   UNL     1       4.030   3.678 -13.070  1.00  0.00     0.157 A 
ATOM     16  C   UNL     1       6.177   4.810 -13.143  1.00  0.00     0.062 A 
ATOM     17  C   UNL     1       4.873   4.649 -13.633  1.00  0.00     0.158 A 
BRANCH  15  18
ATOM     18  O   UNL     1       2.728   3.494 -13.533  1.00  0.00    -0.504 OA
ATOM     19  H   UNL     1       1.937   3.975 -13.121  1.00  0.00     0.293 HD
ENDBRANCH  15  18
BRANCH  17  20
ATOM     20  O   UNL     1       4.413   5.451 -14.676  1.00  0.00    -0.504 OA
ATOM     21  H   UNL     1       5.051   5.909 -15.317  1.00  0.00     0.293 HD
ENDBRANCH  17  20
ENDBRANCH   1  12
BRANCH   6  22
ATOM     22  O   UNL     1      12.562   4.365  -9.251  1.00  0.00    -0.507 OA
ATOM     23  H   UNL     1      11.982   4.039  -8.487  1.00  0.00     0.293 HD
ENDBRANCH   6  22
BRANCH   8  24
ATOM     24  O   UNL     1      13.091   6.984 -13.269  1.00  0.00    -0.508 OA
ATOM     25  H   UNL     1      13.876   6.586 -13.771  1.00  0.00     0.293 HD
ENDBRANCH   8  24
TORSDOF 5
ENDMDL
MODEL 3
REMARK VINA RESULT:    -3.805      2.149      6.986
REMARK INTER + INTRA:          -4.754
REMARK INTER:                  -4.491
REMARK INTRA:                  -0.263
REMARK UNBOUND:                -0.281
REMARK SMILES O=c1cc(-c2ccc(O)c(O)c2)oc2cc(O)cc(O)c12
REMARK SMILES IDX 4 1 3 2 2 3 1 4 21 5 19 6 18 7 16 8 15 9 14 10 13 11 5 12
REMARK SMILES IDX 6 13 7 14 8 15 12 16 10 17 9 18 11 20 20 22 17 24
REMARK H PARENT 9 19 11 21 20 23 17 25
REMARK Flexibility Score: inf
ROOT
ATOM      1  C   UNL     1      11.173   5.817 -10.896  1.00  0.00     0.138 A 
ATOM      2  C   UNL     1      12.004   5.794 -12.028  1.00  0.00     0.100 A 
ATOM      3  C   UNL     1      11.465   5.452 -13.269  1.00  0.00     0.197 A 
ATOM      4  O   UNL     1      12.219   5.436 -14.280  1.00  0.00    -0.289 OA
ATOM      5  C   UNL     1      10.095   5.138 -13.369  1.00  0.00     0.107 A 
ATOM      6  C   UNL     1       9.470   4.780 -14.587  1.00  0.00     0.134 A 
ATOM      7  C   UNL     1       8.098   4.487 -14.604  1.00  0.00     0.093 A 
ATOM      8  C   UNL     1       7.343   4.545 -13.431  1.00  0.00     0.123 A 
ATOM      9  C   UNL     1       7.955   4.899 -12.224  1.00  0.00     0.094 A 
ATOM     10  C   UNL     1       9.321   5.193 -12.186  1.00  0.00     0.146 A 
ATOM     11  O   UNL     1       9.881   5.525 -11.027  1.00  0.00    -0.456 OA
ENDROOT
BRANCH   1  12
ATOM     12  C   UNL     1      11.691   6.174  -9.551  1.00  0.00     0.021 A 
ATOM     13  C   UNL     1      12.032   5.190  -8.604  1.00  0.00     0.016 A 
ATOM     14  C   UNL     1      12.508   5.555  -7.342  1.00  0.00     0.051 A 
ATOM     15  C   UNL     1      12.645   6.904  -7.000  1.00  0.00     0.157 A 
ATOM     16  C   UNL     1      11.820   7.529  -9.196  1.00  0.00     0.062 A 
ATOM     17  C   UNL     1      12.298   7.896  -7.930  1.00  0.00     0.158 A 
BRANCH  15  18
ATOM     18  O   UNL     1      13.125   7.236  -5.734  1.00  0.00    -0.504 OA
ATOM     19  H   UNL     1      13.087   6.588  -4.957  1.00  0.00     0.293 HD
ENDBRANCH  15  18
BRANCH  17  20
ATOM     20  O   UNL     1      12.430   9.244  -7.595  1.00  0.00    -0.504 OA
ATOM     21  H   UNL     1      13.269   9.766  -7.815  1.00  0.00     0.293 HD
ENDBRANCH  17  20
ENDBRANCH   1  12
BRANCH   6  22
ATOM     22  O   UNL     1      10.198   4.714 -15.776  1.00  0.00    -0.507 OA
ATOM     23  H   UNL     1      10.754   5.495 -16.105  1.00  0.00     0.293 HD
ENDBRANCH   6  22
BRANCH   8  24
ATOM     24  O   UNL     1       5.981   4.250 -13.475  1.00  0.00    -0.508 OA
ATOM     25  H   UNL     1       5.329   4.662 -12.820  1.00  0.00     0.293 HD
ENDBRANCH   8  24
TORSDOF 5
ENDMDL
MODEL 4
REMARK VINA RESULT:    -3.599      1.769      6.846
REMARK INTER + INTRA:          -4.512
REMARK INTER:                  -4.249
REMARK INTRA:                  -0.263
REMARK UNBOUND:                -0.281
REMARK SMILES O=c1cc(-c2ccc(O)c(O)c2)oc2cc(O)cc(O)c12
REMARK SMILES IDX 4 1 3 2 2 3 1 4 21 5 19 6 18 7 16 8 15 9 14 10 13 11 5 12
REMARK SMILES IDX 6 13 7 14 8 15 12 16 10 17 9 18 11 20 20 22 17 24
REMARK H PARENT 9 19 11 21 20 23 17 25
REMARK Flexibility Score: inf
ROOT
ATOM      1  C   UNL     1       9.045   4.317 -11.003  1.00  0.00     0.138 A 
ATOM      2  C   UNL     1       9.287   4.893 -12.261  1.00  0.00     0.100 A 
ATOM      3  C   UNL     1       8.244   4.993 -13.182  1.00  0.00     0.197 A 
ATOM      4  O   UNL     1       8.471   5.514 -14.308  1.00  0.00    -0.289 OA
ATOM      5  C   UNL     1       6.962   4.520 -12.836  1.00  0.00     0.107 A 
ATOM      6  C   UNL     1       5.851   4.583 -13.711  1.00  0.00     0.134 A 
ATOM      7  C   UNL     1       4.606   4.094 -13.288  1.00  0.00     0.093 A 
ATOM      8  C   UNL     1       4.451   3.546 -12.013  1.00  0.00     0.123 A 
ATOM      9  C   UNL     1       5.546   3.482 -11.144  1.00  0.00     0.094 A 
ATOM     10  C   UNL     1       6.795   3.962 -11.547  1.00  0.00     0.146 A 
ATOM     11  O   UNL     1       7.820   3.888 -10.704  1.00  0.00    -0.456 OA
ENDROOT
BRANCH   1  12
ATOM     12  C   UNL     1      10.116   4.184  -9.983  1.00  0.00     0.021 A 
ATOM     13  C   UNL     1      10.810   2.975  -9.792  1.00  0.00     0.016 A 
ATOM     14  C   UNL     1      11.806   2.875  -8.818  1.00  0.00     0.051 A 
ATOM     15  C   UNL     1      12.124   3.975  -8.014  1.00  0.00     0.157 A 
ATOM     16  C   UNL     1      10.432   5.283  -9.164  1.00  0.00     0.062 A 
ATOM     17  C   UNL     1      11.432   5.184  -8.186  1.00  0.00     0.158 A 
BRANCH  15  18
ATOM     18  O   UNL     1      13.125   3.845  -7.053  1.00  0.00    -0.504 OA
ATOM     19  H   UNL     1      13.596   2.964  -6.881  1.00  0.00     0.293 HD
ENDBRANCH  15  18
BRANCH  17  20
ATOM     20  O   UNL     1      11.741   6.284  -7.387  1.00  0.00    -0.504 OA
ATOM     21  H   UNL     1      11.936   7.194  -7.788  1.00  0.00     0.293 HD
ENDBRANCH  17  20
ENDBRANCH   1  12
BRANCH   6  22
ATOM     22  O   UNL     1       5.975   5.125 -14.990  1.00  0.00    -0.507 OA
ATOM     23  H   UNL     1       5.266   4.985 -15.700  1.00  0.00     0.293 HD
ENDBRANCH   6  22
BRANCH   8  24
ATOM     24  O   UNL     1       3.203   3.068 -11.618  1.00  0.00    -0.508 OA
ATOM     25  H   UNL     1       2.345   3.479 -11.965  1.00  0.00     0.293 HD
ENDBRANCH   8  24
TORSDOF 5
ENDMDL
