MODEL 1
REMARK VINA RESULT:    -2.408      0.000      0.000
REMARK INTER + INTRA:          -2.727
REMARK INTER:                  -2.690
REMARK INTRA:                  -0.038
REMARK UNBOUND:                -0.038
REMARK SMILES CCCC(=O)[O-]
REMARK SMILES IDX 3 1 4 2 5 3 6 4 2 5 1 6
REMARK H PARENT
REMARK Flexibility Score: inf
ROOT
ATOM      1  C   UNL     1      61.193  30.790  61.754  1.00  0.00     0.052 C 
ENDROOT
BRANCH   1   2
ATOM      2  C   UNL     1      62.379  29.882  61.658  1.00  0.00     0.041 C 
ATOM      3  O   UNL     1      62.228  28.633  61.699  1.00  0.00    -0.550 OA
ATOM      4  O   UNL     1      63.658  30.417  61.554  1.00  0.00    -0.550 OA
ENDBRANCH   1   2
BRANCH   1   5
ATOM      5  C   UNL     1      60.902  31.489  60.421  1.00  0.00     0.003 C 
ATOM      6  C   UNL     1      61.409  32.932  60.398  1.00  0.00     0.004 C 
ENDBRANCH   1   5
TORSDOF 2
ENDMDL
MODEL 2
REMARK VINA RESULT:    -2.336     11.593     12.180
REMARK INTER + INTRA:          -2.647
REMARK INTER:                  -2.608
REMARK INTRA:                  -0.039
REMARK UNBOUND:                -0.038
REMARK SMILES CCCC(=O)[O-]
REMARK SMILES IDX 3 1 4 2 5 3 6 4 2 5 1 6
REMARK H PARENT
REMARK Flexibility Score: inf
ROOT
ATOM      1  C   UNL     1      59.006  28.841  49.286  1.00  0.00     0.052 C 
ENDROOT
BRANCH   1   2
ATOM      2  C   UNL     1      59.832  27.611  49.502  1.00  0.00     0.041 C 
ATOM      3  O   UNL     1      61.086  27.695  49.579  1.00  0.00    -0.550 OA
ATOM      4  O   UNL     1      59.219  26.368  49.588  1.00  0.00    -0.550 OA
ENDBRANCH   1   2
BRANCH   1   5
ATOM      5  C   UNL     1      58.364  29.331  50.590  1.00  0.00     0.003 C 
ATOM      6  C   UNL     1      56.892  28.932  50.697  1.00  0.00     0.004 C 
ENDBRANCH   1   5
TORSDOF 2
ENDMDL
MODEL 3
REMARK VINA RESULT:    -2.331      3.690      4.294
REMARK INTER + INTRA:          -2.642
REMARK INTER:                  -2.632
REMARK INTRA:                  -0.009
REMARK UNBOUND:                -0.038
REMARK SMILES CCCC(=O)[O-]
REMARK SMILES IDX 3 1 4 2 5 3 6 4 2 5 1 6
REMARK H PARENT
REMARK Flexibility Score: inf
ROOT
ATOM      1  C   UNL     1      62.757  34.242  60.541  1.00  0.00     0.052 C 
ENDROOT
BRANCH   1   2
ATOM      2  C   UNL     1      64.165  33.893  60.910  1.00  0.00     0.041 C 
ATOM      3  O   UNL     1      64.639  32.766  60.611  1.00  0.00    -0.550 OA
ATOM      4  O   UNL     1      64.946  34.802  61.613  1.00  0.00    -0.550 OA
ENDBRANCH   1   2
BRANCH   1   5
ATOM      5  C   UNL     1      62.398  35.673  60.959  1.00  0.00     0.003 C 
ATOM      6  C   UNL     1      60.969  36.051  60.569  1.00  0.00     0.004 C 
ENDBRANCH   1   5
TORSDOF 2
ENDMDL
MODEL 4
REMARK VINA RESULT:    -2.321      1.572      1.885
REMARK INTER + INTRA:          -2.629
REMARK INTER:                  -2.610
REMARK INTRA:                  -0.020
REMARK UNBOUND:                -0.038
REMARK SMILES CCCC(=O)[O-]
REMARK SMILES IDX 3 1 4 2 5 3 6 4 2 5 1 6
REMARK H PARENT
REMARK Flexibility Score: inf
ROOT
ATOM      1  C   UNL     1      62.386  31.867  60.690  1.00  0.00     0.052 C 
ENDROOT
BRANCH   1   2
ATOM      2  C   UNL     1      61.693  30.813  61.497  1.00  0.00     0.041 C 
ATOM      3  O   UNL     1      60.500  30.979  61.866  1.00  0.00    -0.550 OA
ATOM      4  O   UNL     1      62.375  29.662  61.870  1.00  0.00    -0.550 OA
ENDBRANCH   1   2
BRANCH   1   5
ATOM      5  C   UNL     1      61.454  33.041  60.368  1.00  0.00     0.003 C 
ATOM      6  C   UNL     1      62.167  34.390  60.456  1.00  0.00     0.004 C 
ENDBRANCH   1   5
TORSDOF 2
ENDMDL
MODEL 5
REMARK VINA RESULT:    -2.292      2.067      2.665
REMARK INTER + INTRA:          -2.597
REMARK INTER:                  -2.585
REMARK INTRA:                  -0.013
REMARK UNBOUND:                -0.038
REMARK SMILES CCCC(=O)[O-]
REMARK SMILES IDX 3 1 4 2 5 3 6 4 2 5 1 6
REMARK H PARENT
REMARK Flexibility Score: inf
ROOT
ATOM      1  C   UNL     1      63.177  30.399  61.257  1.00  0.00     0.052 C 
ENDROOT
BRANCH   1   2
ATOM      2  C   UNL     1      64.477  31.003  60.825  1.00  0.00     0.041 C 
ATOM      3  O   UNL     1      64.595  32.253  60.728  1.00  0.00    -0.550 OA
ATOM      4  O   UNL     1      65.550  30.183  60.498  1.00  0.00    -0.550 OA
ENDBRANCH   1   2
BRANCH   1   5
ATOM      5  C   UNL     1      61.986  31.294  60.892  1.00  0.00     0.003 C 
ATOM      6  C   UNL     1      60.727  30.936  61.683  1.00  0.00     0.004 C 
ENDBRANCH   1   5
TORSDOF 2
ENDMDL
MODEL 6
REMARK VINA RESULT:    -2.266      2.220      2.930
REMARK INTER + INTRA:          -2.568
REMARK INTER:                  -2.504
REMARK INTRA:                  -0.064
REMARK UNBOUND:                -0.038
REMARK SMILES CCCC(=O)[O-]
REMARK SMILES IDX 3 1 4 2 5 3 6 4 2 5 1 6
REMARK H PARENT
REMARK Flexibility Score: inf
ROOT
ATOM      1  C   UNL     1      61.100  30.774  61.878  1.00  0.00     0.052 C 
ENDROOT
BRANCH   1   2
ATOM      2  C   UNL     1      60.789  31.548  60.635  1.00  0.00     0.041 C 
ATOM      3  O   UNL     1      60.220  30.986  59.663  1.00  0.00    -0.550 OA
ATOM      4  O   UNL     1      61.156  32.885  60.537  1.00  0.00    -0.550 OA
ENDBRANCH   1   2
BRANCH   1   5
ATOM      5  C   UNL     1      62.214  29.747  61.644  1.00  0.00     0.003 C 
ATOM      6  C   UNL     1      63.552  30.408  61.309  1.00  0.00     0.004 C 
ENDBRANCH   1   5
TORSDOF 2
ENDMDL
MODEL 7
REMARK VINA RESULT:    -2.227      1.395      1.926
REMARK INTER + INTRA:          -2.525
REMARK INTER:                  -2.487
REMARK INTRA:                  -0.038
REMARK UNBOUND:                -0.038
REMARK SMILES CCCC(=O)[O-]
REMARK SMILES IDX 3 1 4 2 5 3 6 4 2 5 1 6
REMARK H PARENT
REMARK Flexibility Score: inf
ROOT
ATOM      1  C   UNL     1      62.435  29.953  61.716  1.00  0.00     0.052 C 
ENDROOT
BRANCH   1   2
ATOM      2  C   UNL     1      62.256  28.621  61.056  1.00  0.00     0.041 C 
ATOM      3  O   UNL     1      62.179  28.539  59.802  1.00  0.00    -0.550 OA
ATOM      4  O   UNL     1      62.141  27.473  61.829  1.00  0.00    -0.550 OA
ENDBRANCH   1   2
BRANCH   1   5
ATOM      5  C   UNL     1      61.137  30.771  61.706  1.00  0.00     0.003 C 
ATOM      6  C   UNL     1      61.184  31.923  60.703  1.00  0.00     0.004 C 
ENDBRANCH   1   5
TORSDOF 2
ENDMDL
MODEL 8
REMARK VINA RESULT:    -2.220      1.861      2.116
REMARK INTER + INTRA:          -2.517
REMARK INTER:                  -2.502
REMARK INTRA:                  -0.015
REMARK UNBOUND:                -0.038
REMARK SMILES CCCC(=O)[O-]
REMARK SMILES IDX 3 1 4 2 5 3 6 4 2 5 1 6
REMARK H PARENT
REMARK Flexibility Score: inf
ROOT
ATOM      1  C   UNL     1      63.592  30.691  61.172  1.00  0.00     0.052 C 
ENDROOT
BRANCH   1   2
ATOM      2  C   UNL     1      62.367  29.984  61.664  1.00  0.00     0.041 C 
ATOM      3  O   UNL     1      62.349  28.728  61.746  1.00  0.00    -0.550 OA
ATOM      4  O   UNL     1      61.232  30.712  62.001  1.00  0.00    -0.550 OA
ENDBRANCH   1   2
BRANCH   1   5
ATOM      5  C   UNL     1      63.247  32.026  60.502  1.00  0.00     0.003 C 
ATOM      6  C   UNL     1      64.353  33.067  60.677  1.00  0.00     0.004 C 
ENDBRANCH   1   5
TORSDOF 2
ENDMDL
MODEL 9
REMARK VINA RESULT:    -2.207     12.083     12.321
REMARK INTER + INTRA:          -2.502
REMARK INTER:                  -2.487
REMARK INTRA:                  -0.016
REMARK UNBOUND:                -0.038
REMARK SMILES CCCC(=O)[O-]
REMARK SMILES IDX 3 1 4 2 5 3 6 4 2 5 1 6
REMARK H PARENT
REMARK Flexibility Score: inf
ROOT
ATOM      1  C   UNL     1      57.613  27.972  50.416  1.00  0.00     0.052 C 
ENDROOT
BRANCH   1   2
ATOM      2  C   UNL     1      58.854  28.371  49.679  1.00  0.00     0.041 C 
ATOM      3  O   UNL     1      59.044  29.575  49.363  1.00  0.00    -0.550 OA
ATOM      4  O   UNL     1      59.786  27.408  49.313  1.00  0.00    -0.550 OA
ENDBRANCH   1   2
BRANCH   1   5
ATOM      5  C   UNL     1      56.712  29.178  50.707  1.00  0.00     0.003 C 
ATOM      6  C   UNL     1      55.229  28.807  50.715  1.00  0.00     0.004 C 
ENDBRANCH   1   5
TORSDOF 2
ENDMDL
