MODEL 1
REMARK VINA RESULT:    -5.439      0.000      0.000
REMARK INTER + INTRA:         -10.947
REMARK INTER:                 -10.209
REMARK INTRA:                  -0.738
REMARK UNBOUND:                -0.738
REMARK SMILES O=C([O-])CCCCCCCCCCCCCCC(=O)[O-]
REMARK SMILES IDX 10 1 9 2 8 3 7 4 6 5 5 6 4 7 2 8 1 9 3 10 11 11 12 12 13 13
REMARK SMILES IDX 14 14 15 15 16 16 17 17 18 18 19 19 20 20
REMARK H PARENT
REMARK Flexibility Score: inf
ROOT
ATOM      1  C   UNL     1       5.496  55.694  20.695  1.00  0.00     0.000 C 
ENDROOT
BRANCH   1   2
ATOM      2  C   UNL     1       6.333  54.811  21.634  1.00  0.00     0.000 C 
BRANCH   2   3
ATOM      3  C   UNL     1       7.335  53.923  20.878  1.00  0.00     0.000 C 
BRANCH   3   4
ATOM      4  C   UNL     1       8.785  54.417  21.021  1.00  0.00     0.000 C 
BRANCH   4   5
ATOM      5  C   UNL     1       9.747  53.303  21.466  1.00  0.00     0.000 C 
BRANCH   5   6
ATOM      6  C   UNL     1      10.497  53.648  22.762  1.00  0.00     0.006 C 
BRANCH   6   7
ATOM      7  C   UNL     1       9.719  54.675  23.589  1.00  0.00     0.053 C 
BRANCH   7   8
ATOM      8  C   UNL     1       9.050  54.014  24.752  1.00  0.00     0.041 C 
ATOM      9  O   UNL     1       8.020  53.312  24.575  1.00  0.00    -0.550 OA
ATOM     10  O   UNL     1       9.536  54.212  26.038  1.00  0.00    -0.550 OA
ENDBRANCH   7   8
ENDBRANCH   6   7
ENDBRANCH   5   6
ENDBRANCH   4   5
ENDBRANCH   3   4
ENDBRANCH   2   3
ENDBRANCH   1   2
BRANCH   1  11
ATOM     11  C   UNL     1       5.043  56.974  21.406  1.00  0.00     0.000 C 
BRANCH  11  12
ATOM     12  C   UNL     1       4.187  57.846  20.480  1.00  0.00     0.000 C 
BRANCH  12  13
ATOM     13  C   UNL     1       3.098  58.586  21.271  1.00  0.00     0.000 C 
BRANCH  13  14
ATOM     14  C   UNL     1       2.701  59.923  20.627  1.00  0.00     0.000 C 
BRANCH  14  15
ATOM     15  C   UNL     1       3.045  59.985  19.131  1.00  0.00     0.000 C 
BRANCH  15  16
ATOM     16  C   UNL     1       1.936  59.339  18.286  1.00  0.00     0.006 C 
BRANCH  16  17
ATOM     17  C   UNL     1       1.974  59.803  16.824  1.00  0.00     0.053 C 
BRANCH  17  18
ATOM     18  C   UNL     1       0.732  59.409  16.084  1.00  0.00     0.041 C 
ATOM     19  O   UNL     1       0.756  58.447  15.271  1.00  0.00    -0.550 OA
ATOM     20  O   UNL     1      -0.460  60.084  16.317  1.00  0.00    -0.550 OA
ENDBRANCH  17  18
ENDBRANCH  16  17
ENDBRANCH  15  16
ENDBRANCH  14  15
ENDBRANCH  13  14
ENDBRANCH  12  13
ENDBRANCH  11  12
ENDBRANCH   1  11
TORSDOF 15
ENDMDL
MODEL 2
REMARK VINA RESULT:    -5.386      0.987     10.258
REMARK INTER + INTRA:         -10.848
REMARK INTER:                 -10.050
REMARK INTRA:                  -0.798
REMARK UNBOUND:                -0.738
REMARK SMILES O=C([O-])CCCCCCCCCCCCCCC(=O)[O-]
REMARK SMILES IDX 10 1 9 2 8 3 7 4 6 5 5 6 4 7 2 8 1 9 3 10 11 11 12 12 13 13
REMARK SMILES IDX 14 14 15 15 16 16 17 17 18 18 19 19 20 20
REMARK H PARENT
REMARK Flexibility Score: inf
ROOT
ATOM      1  C   UNL     1       4.007  58.086  20.468  1.00  0.00     0.000 C 
ENDROOT
BRANCH   1   2
ATOM      2  C   UNL     1       2.802  58.565  21.291  1.00  0.00     0.000 C 
BRANCH   2   3
ATOM      3  C   UNL     1       2.658  60.096  21.298  1.00  0.00     0.000 C 
BRANCH   3   4
ATOM      4  C   UNL     1       2.381  60.669  19.897  1.00  0.00     0.000 C 
BRANCH   4   5
ATOM      5  C   UNL     1       0.909  60.514  19.478  1.00  0.00     0.000 C 
BRANCH   5   6
ATOM      6  C   UNL     1       0.727  60.465  17.953  1.00  0.00     0.006 C 
BRANCH   6   7
ATOM      7  C   UNL     1       1.846  59.653  17.293  1.00  0.00     0.053 C 
BRANCH   7   8
ATOM      8  C   UNL     1       1.513  59.365  15.864  1.00  0.00     0.041 C 
ATOM      9  O   UNL     1       0.469  58.724  15.573  1.00  0.00    -0.550 OA
ATOM     10  O   UNL     1       2.381  59.762  14.854  1.00  0.00    -0.550 OA
ENDBRANCH   7   8
ENDBRANCH   6   7
ENDBRANCH   5   6
ENDBRANCH   4   5
ENDBRANCH   3   4
ENDBRANCH   2   3
ENDBRANCH   1   2
BRANCH   1  11
ATOM     11  C   UNL     1       4.800  57.017  21.228  1.00  0.00     0.000 C 
BRANCH  11  12
ATOM     12  C   UNL     1       6.125  56.705  20.521  1.00  0.00     0.000 C 
BRANCH  12  13
ATOM     13  C   UNL     1       6.719  55.381  21.024  1.00  0.00     0.000 C 
BRANCH  13  14
ATOM     14  C   UNL     1       8.196  55.509  21.427  1.00  0.00     0.000 C 
BRANCH  14  15
ATOM     15  C   UNL     1       9.022  54.268  21.054  1.00  0.00     0.000 C 
BRANCH  15  16
ATOM     16  C   UNL     1       9.597  53.594  22.308  1.00  0.00     0.006 C 
BRANCH  16  17
ATOM     17  C   UNL     1       9.772  54.579  23.470  1.00  0.00     0.053 C 
BRANCH  17  18
ATOM     18  C   UNL     1       9.140  54.071  24.730  1.00  0.00     0.041 C 
ATOM     19  O   UNL     1       7.989  53.561  24.702  1.00  0.00    -0.550 OA
ATOM     20  O   UNL     1       9.837  54.132  25.931  1.00  0.00    -0.550 OA
ENDBRANCH  17  18
ENDBRANCH  16  17
ENDBRANCH  15  16
ENDBRANCH  14  15
ENDBRANCH  13  14
ENDBRANCH  12  13
ENDBRANCH  11  12
ENDBRANCH   1  11
TORSDOF 15
ENDMDL
MODEL 3
REMARK VINA RESULT:    -5.368      1.346      1.663
REMARK INTER + INTRA:         -10.813
REMARK INTER:                 -10.022
REMARK INTRA:                  -0.792
REMARK UNBOUND:                -0.738
REMARK SMILES O=C([O-])CCCCCCCCCCCCCCC(=O)[O-]
REMARK SMILES IDX 10 1 9 2 8 3 7 4 6 5 5 6 4 7 2 8 1 9 3 10 11 11 12 12 13 13
REMARK SMILES IDX 14 14 15 15 16 16 17 17 18 18 19 19 20 20
REMARK H PARENT
REMARK Flexibility Score: inf
ROOT
ATOM      1  C   UNL     1       5.436  56.241  20.828  1.00  0.00     0.000 C 
ENDROOT
BRANCH   1   2
ATOM      2  C   UNL     1       6.597  56.801  19.992  1.00  0.00     0.000 C 
BRANCH   2   3
ATOM      3  C   UNL     1       7.885  55.973  20.134  1.00  0.00     0.000 C 
BRANCH   3   4
ATOM      4  C   UNL     1       7.655  54.475  19.866  1.00  0.00     0.000 C 
BRANCH   4   5
ATOM      5  C   UNL     1       8.134  53.588  21.028  1.00  0.00     0.000 C 
BRANCH   5   6
ATOM      6  C   UNL     1       9.623  53.786  21.353  1.00  0.00     0.006 C 
BRANCH   6   7
ATOM      7  C   UNL     1       9.944  53.295  22.768  1.00  0.00     0.053 C 
BRANCH   7   8
ATOM      8  C   UNL     1      10.128  54.454  23.696  1.00  0.00     0.041 C 
ATOM      9  O   UNL     1       9.476  55.517  23.520  1.00  0.00    -0.550 OA
ATOM     10  O   UNL     1      11.057  54.378  24.727  1.00  0.00    -0.550 OA
ENDBRANCH   7   8
ENDBRANCH   6   7
ENDBRANCH   5   6
ENDBRANCH   4   5
ENDBRANCH   3   4
ENDBRANCH   2   3
ENDBRANCH   1   2
BRANCH   1  11
ATOM     11  C   UNL     1       4.651  57.372  21.503  1.00  0.00     0.000 C 
BRANCH  11  12
ATOM     12  C   UNL     1       3.801  58.140  20.483  1.00  0.00     0.000 C 
BRANCH  12  13
ATOM     13  C   UNL     1       2.844  59.114  21.185  1.00  0.00     0.000 C 
BRANCH  13  14
ATOM     14  C   UNL     1       2.496  60.334  20.317  1.00  0.00     0.000 C 
BRANCH  14  15
ATOM     15  C   UNL     1       1.037  60.323  19.838  1.00  0.00     0.000 C 
BRANCH  15  16
ATOM     16  C   UNL     1       0.957  60.534  18.318  1.00  0.00     0.006 C 
BRANCH  16  17
ATOM     17  C   UNL     1       1.880  59.582  17.549  1.00  0.00     0.053 C 
BRANCH  17  18
ATOM     18  C   UNL     1       1.527  59.519  16.095  1.00  0.00     0.041 C 
ATOM     19  O   UNL     1       2.198  60.167  15.249  1.00  0.00    -0.550 OA
ATOM     20  O   UNL     1       0.474  58.717  15.670  1.00  0.00    -0.550 OA
ENDBRANCH  17  18
ENDBRANCH  16  17
ENDBRANCH  15  16
ENDBRANCH  14  15
ENDBRANCH  13  14
ENDBRANCH  12  13
ENDBRANCH  11  12
ENDBRANCH   1  11
TORSDOF 15
ENDMDL
MODEL 4
REMARK VINA RESULT:    -5.295      2.883      9.699
REMARK INTER + INTRA:         -10.676
REMARK INTER:                  -9.750
REMARK INTRA:                  -0.926
REMARK UNBOUND:                -0.738
REMARK SMILES O=C([O-])CCCCCCCCCCCCCCC(=O)[O-]
REMARK SMILES IDX 10 1 9 2 8 3 7 4 6 5 5 6 4 7 2 8 1 9 3 10 11 11 12 12 13 13
REMARK SMILES IDX 14 14 15 15 16 16 17 17 18 18 19 19 20 20
REMARK H PARENT
REMARK Flexibility Score: inf
ROOT
ATOM      1  C   UNL     1       5.363  56.421  20.881  1.00  0.00     0.000 C 
ENDROOT
BRANCH   1   2
ATOM      2  C   UNL     1       4.646  57.706  21.318  1.00  0.00     0.000 C 
BRANCH   2   3
ATOM      3  C   UNL     1       3.392  58.002  20.478  1.00  0.00     0.000 C 
BRANCH   3   4
ATOM      4  C   UNL     1       3.262  59.492  20.116  1.00  0.00     0.000 C 
BRANCH   4   5
ATOM      5  C   UNL     1       2.508  60.295  21.190  1.00  0.00     0.000 C 
BRANCH   5   6
ATOM      6  C   UNL     1       1.044  59.855  21.343  1.00  0.00     0.006 C 
BRANCH   6   7
ATOM      7  C   UNL     1       0.735  59.475  22.794  1.00  0.00     0.053 C 
BRANCH   7   8
ATOM      8  C   UNL     1      -0.569  60.066  23.225  1.00  0.00     0.041 C 
ATOM      9  O   UNL     1      -1.638  59.414  23.085  1.00  0.00    -0.550 OA
ATOM     10  O   UNL     1      -0.612  61.357  23.738  1.00  0.00    -0.550 OA
ENDBRANCH   7   8
ENDBRANCH   6   7
ENDBRANCH   5   6
ENDBRANCH   4   5
ENDBRANCH   3   4
ENDBRANCH   2   3
ENDBRANCH   1   2
BRANCH   1  11
ATOM     11  C   UNL     1       6.885  56.579  20.987  1.00  0.00     0.000 C 
BRANCH  11  12
ATOM     12  C   UNL     1       7.578  56.128  19.696  1.00  0.00     0.000 C 
BRANCH  12  13
ATOM     13  C   UNL     1       7.900  54.627  19.738  1.00  0.00     0.000 C 
BRANCH  13  14
ATOM     14  C   UNL     1       8.157  54.116  21.164  1.00  0.00     0.000 C 
BRANCH  14  15
ATOM     15  C   UNL     1       9.539  53.463  21.320  1.00  0.00     0.000 C 
BRANCH  15  16
ATOM     16  C   UNL     1      10.258  53.991  22.570  1.00  0.00     0.006 C 
BRANCH  16  17
ATOM     17  C   UNL     1       9.329  54.814  23.471  1.00  0.00     0.053 C 
BRANCH  17  18
ATOM     18  C   UNL     1       8.957  54.068  24.716  1.00  0.00     0.041 C 
ATOM     19  O   UNL     1       7.916  53.360  24.744  1.00  0.00    -0.550 OA
ATOM     20  O   UNL     1       9.779  54.128  25.834  1.00  0.00    -0.550 OA
ENDBRANCH  17  18
ENDBRANCH  16  17
ENDBRANCH  15  16
ENDBRANCH  14  15
ENDBRANCH  13  14
ENDBRANCH  12  13
ENDBRANCH  11  12
ENDBRANCH   1  11
TORSDOF 15
ENDMDL
MODEL 5
REMARK VINA RESULT:    -5.274      5.051     12.373
REMARK INTER + INTRA:         -10.637
REMARK INTER:                  -9.692
REMARK INTRA:                  -0.946
REMARK UNBOUND:                -0.738
REMARK SMILES O=C([O-])CCCCCCCCCCCCCCC(=O)[O-]
REMARK SMILES IDX 10 1 9 2 8 3 7 4 6 5 5 6 4 7 2 8 1 9 3 10 11 11 12 12 13 13
REMARK SMILES IDX 14 14 15 15 16 16 17 17 18 18 19 19 20 20
REMARK H PARENT
REMARK Flexibility Score: inf
ROOT
ATOM      1  C   UNL     1      10.529  52.311  22.018  1.00  0.00     0.000 C 
ENDROOT
BRANCH   1   2
ATOM      2  C   UNL     1       9.722  53.413  22.721  1.00  0.00     0.000 C 
BRANCH   2   3
ATOM      3  C   UNL     1       8.272  52.993  23.014  1.00  0.00     0.000 C 
BRANCH   3   4
ATOM      4  C   UNL     1       7.244  53.982  22.437  1.00  0.00     0.000 C 
BRANCH   4   5
ATOM      5  C   UNL     1       7.905  55.227  21.820  1.00  0.00     0.000 C 
BRANCH   5   6
ATOM      6  C   UNL     1       7.036  55.887  20.738  1.00  0.00     0.006 C 
BRANCH   6   7
ATOM      7  C   UNL     1       7.704  55.788  19.364  1.00  0.00     0.053 C 
BRANCH   7   8
ATOM      8  C   UNL     1       6.940  54.858  18.475  1.00  0.00     0.041 C 
ATOM      9  O   UNL     1       6.394  53.829  18.954  1.00  0.00    -0.550 OA
ATOM     10  O   UNL     1       6.871  55.102  17.109  1.00  0.00    -0.550 OA
ENDBRANCH   7   8
ENDBRANCH   6   7
ENDBRANCH   5   6
ENDBRANCH   4   5
ENDBRANCH   3   4
ENDBRANCH   2   3
ENDBRANCH   1   2
BRANCH   1  11
ATOM     11  C   UNL     1       9.885  50.937  22.235  1.00  0.00     0.000 C 
BRANCH  11  12
ATOM     12  C   UNL     1      10.916  49.914  22.727  1.00  0.00     0.000 C 
BRANCH  12  13
ATOM     13  C   UNL     1      10.488  48.484  22.370  1.00  0.00     0.000 C 
BRANCH  13  14
ATOM     14  C   UNL     1      11.475  47.423  22.883  1.00  0.00     0.000 C 
BRANCH  14  15
ATOM     15  C   UNL     1      12.622  48.029  23.705  1.00  0.00     0.000 C 
BRANCH  15  16
ATOM     16  C   UNL     1      13.049  47.079  24.834  1.00  0.00     0.006 C 
BRANCH  16  17
ATOM     17  C   UNL     1      12.313  47.370  26.148  1.00  0.00     0.053 C 
BRANCH  17  18
ATOM     18  C   UNL     1      13.211  48.022  27.155  1.00  0.00     0.041 C 
ATOM     19  O   UNL     1      14.406  48.289  26.862  1.00  0.00    -0.550 OA
ATOM     20  O   UNL     1      12.717  48.364  28.408  1.00  0.00    -0.550 OA
ENDBRANCH  17  18
ENDBRANCH  16  17
ENDBRANCH  15  16
ENDBRANCH  14  15
ENDBRANCH  13  14
ENDBRANCH  12  13
ENDBRANCH  11  12
ENDBRANCH   1  11
TORSDOF 15
ENDMDL
MODEL 6
REMARK VINA RESULT:    -5.224      2.821      3.608
REMARK INTER + INTRA:         -10.543
REMARK INTER:                  -9.793
REMARK INTRA:                  -0.749
REMARK UNBOUND:                -0.738
REMARK SMILES O=C([O-])CCCCCCCCCCCCCCC(=O)[O-]
REMARK SMILES IDX 10 1 9 2 8 3 7 4 6 5 5 6 4 7 2 8 1 9 3 10 11 11 12 12 13 13
REMARK SMILES IDX 14 14 15 15 16 16 17 17 18 18 19 19 20 20
REMARK H PARENT
REMARK Flexibility Score: inf
ROOT
ATOM      1  C   UNL     1       6.570  56.236  20.763  1.00  0.00     0.000 C 
ENDROOT
BRANCH   1   2
ATOM      2  C   UNL     1       6.368  54.741  20.476  1.00  0.00     0.000 C 
BRANCH   2   3
ATOM      3  C   UNL     1       7.696  53.986  20.299  1.00  0.00     0.000 C 
BRANCH   3   4
ATOM      4  C   UNL     1       8.837  54.595  21.133  1.00  0.00     0.000 C 
BRANCH   4   5
ATOM      5  C   UNL     1      10.029  53.636  21.291  1.00  0.00     0.000 C 
BRANCH   5   6
ATOM      6  C   UNL     1      10.194  53.127  22.732  1.00  0.00     0.006 C 
BRANCH   6   7
ATOM      7  C   UNL     1      10.252  54.293  23.722  1.00  0.00     0.053 C 
BRANCH   7   8
ATOM      8  C   UNL     1       9.311  54.061  24.861  1.00  0.00     0.041 C 
ATOM      9  O   UNL     1       8.101  53.792  24.640  1.00  0.00    -0.550 OA
ATOM     10  O   UNL     1       9.760  54.189  26.170  1.00  0.00    -0.550 OA
ENDBRANCH   7   8
ENDBRANCH   6   7
ENDBRANCH   5   6
ENDBRANCH   4   5
ENDBRANCH   3   4
ENDBRANCH   2   3
ENDBRANCH   1   2
BRANCH   1  11
ATOM     11  C   UNL     1       5.293  56.861  21.339  1.00  0.00     0.000 C 
BRANCH  11  12
ATOM     12  C   UNL     1       4.559  57.692  20.280  1.00  0.00     0.000 C 
BRANCH  12  13
ATOM     13  C   UNL     1       3.293  58.335  20.866  1.00  0.00     0.000 C 
BRANCH  13  14
ATOM     14  C   UNL     1       2.666  59.374  19.924  1.00  0.00     0.000 C 
BRANCH  14  15
ATOM     15  C   UNL     1       1.633  60.266  20.629  1.00  0.00     0.000 C 
BRANCH  15  16
ATOM     16  C   UNL     1       1.605  59.985  22.139  1.00  0.00     0.006 C 
BRANCH  16  17
ATOM     17  C   UNL     1       0.181  59.996  22.707  1.00  0.00     0.053 C 
BRANCH  17  18
ATOM     18  C   UNL     1      -0.108  58.763  23.508  1.00  0.00     0.041 C 
ATOM     19  O   UNL     1      -0.222  58.832  24.760  1.00  0.00    -0.550 OA
ATOM     20  O   UNL     1      -0.283  57.543  22.866  1.00  0.00    -0.550 OA
ENDBRANCH  17  18
ENDBRANCH  16  17
ENDBRANCH  15  16
ENDBRANCH  14  15
ENDBRANCH  13  14
ENDBRANCH  12  13
ENDBRANCH  11  12
ENDBRANCH   1  11
TORSDOF 15
ENDMDL
MODEL 7
REMARK VINA RESULT:    -5.140      5.169      7.613
REMARK INTER + INTRA:         -10.385
REMARK INTER:                  -9.498
REMARK INTRA:                  -0.888
REMARK UNBOUND:                -0.738
REMARK SMILES O=C([O-])CCCCCCCCCCCCCCC(=O)[O-]
REMARK SMILES IDX 10 1 9 2 8 3 7 4 6 5 5 6 4 7 2 8 1 9 3 10 11 11 12 12 13 13
REMARK SMILES IDX 14 14 15 15 16 16 17 17 18 18 19 19 20 20
REMARK H PARENT
REMARK Flexibility Score: inf
ROOT
ATOM      1  C   UNL     1       9.800  50.960  22.368  1.00  0.00     0.000 C 
ENDROOT
BRANCH   1   2
ATOM      2  C   UNL     1      10.962  49.957  22.432  1.00  0.00     0.000 C 
BRANCH   2   3
ATOM      3  C   UNL     1      10.495  48.525  22.740  1.00  0.00     0.000 C 
BRANCH   3   4
ATOM      4  C   UNL     1      11.656  47.514  22.744  1.00  0.00     0.000 C 
BRANCH   4   5
ATOM      5  C   UNL     1      12.802  47.938  23.678  1.00  0.00     0.000 C 
BRANCH   5   6
ATOM      6  C   UNL     1      12.776  47.199  25.025  1.00  0.00     0.006 C 
BRANCH   6   7
ATOM      7  C   UNL     1      12.708  48.188  26.191  1.00  0.00     0.053 C 
BRANCH   7   8
ATOM      8  C   UNL     1      12.693  47.460  27.497  1.00  0.00     0.041 C 
ATOM      9  O   UNL     1      13.057  46.256  27.557  1.00  0.00    -0.550 OA
ATOM     10  O   UNL     1      12.229  48.096  28.643  1.00  0.00    -0.550 OA
ENDBRANCH   7   8
ENDBRANCH   6   7
ENDBRANCH   5   6
ENDBRANCH   4   5
ENDBRANCH   3   4
ENDBRANCH   2   3
ENDBRANCH   1   2
BRANCH   1  11
ATOM     11  C   UNL     1      10.298  52.351  21.961  1.00  0.00     0.000 C 
BRANCH  11  12
ATOM     12  C   UNL     1      10.102  53.363  23.097  1.00  0.00     0.000 C 
BRANCH  12  13
ATOM     13  C   UNL     1       9.182  54.512  22.658  1.00  0.00     0.000 C 
BRANCH  13  14
ATOM     14  C   UNL     1       7.702  54.103  22.611  1.00  0.00     0.000 C 
BRANCH  14  15
ATOM     15  C   UNL     1       7.124  54.133  21.188  1.00  0.00     0.000 C 
BRANCH  15  16
ATOM     16  C   UNL     1       8.067  54.873  20.228  1.00  0.00     0.006 C 
BRANCH  16  17
ATOM     17  C   UNL     1       7.308  55.594  19.107  1.00  0.00     0.053 C 
BRANCH  17  18
ATOM     18  C   UNL     1       7.232  54.762  17.863  1.00  0.00     0.041 C 
ATOM     19  O   UNL     1       7.681  53.586  17.858  1.00  0.00    -0.550 OA
ATOM     20  O   UNL     1       6.635  55.277  16.718  1.00  0.00    -0.550 OA
ENDBRANCH  17  18
ENDBRANCH  16  17
ENDBRANCH  15  16
ENDBRANCH  14  15
ENDBRANCH  13  14
ENDBRANCH  12  13
ENDBRANCH  11  12
ENDBRANCH   1  11
TORSDOF 15
ENDMDL
MODEL 8
REMARK VINA RESULT:    -5.115      3.532      9.639
REMARK INTER + INTRA:         -10.338
REMARK INTER:                  -9.662
REMARK INTRA:                  -0.676
REMARK UNBOUND:                -0.738
REMARK SMILES O=C([O-])CCCCCCCCCCCCCCC(=O)[O-]
REMARK SMILES IDX 10 1 9 2 8 3 7 4 6 5 5 6 4 7 2 8 1 9 3 10 11 11 12 12 13 13
REMARK SMILES IDX 14 14 15 15 16 16 17 17 18 18 19 19 20 20
REMARK H PARENT
REMARK Flexibility Score: inf
ROOT
ATOM      1  C   UNL     1       4.648  57.577  20.342  1.00  0.00     0.000 C 
ENDROOT
BRANCH   1   2
ATOM      2  C   UNL     1       3.461  58.221  21.073  1.00  0.00     0.000 C 
BRANCH   2   3
ATOM      3  C   UNL     1       2.540  59.013  20.130  1.00  0.00     0.000 C 
BRANCH   3   4
ATOM      4  C   UNL     1       1.214  59.413  20.799  1.00  0.00     0.000 C 
BRANCH   4   5
ATOM      5  C   UNL     1       1.410  59.932  22.234  1.00  0.00     0.000 C 
BRANCH   5   6
ATOM      6  C   UNL     1       0.094  60.017  23.021  1.00  0.00     0.006 C 
BRANCH   6   7
ATOM      7  C   UNL     1      -0.370  58.628  23.466  1.00  0.00     0.053 C 
BRANCH   7   8
ATOM      8  C   UNL     1      -0.475  58.562  24.957  1.00  0.00     0.041 C 
ATOM      9  O   UNL     1      -1.161  59.412  25.582  1.00  0.00    -0.550 OA
ATOM     10  O   UNL     1       0.226  57.590  25.661  1.00  0.00    -0.550 OA
ENDBRANCH   7   8
ENDBRANCH   6   7
ENDBRANCH   5   6
ENDBRANCH   4   5
ENDBRANCH   3   4
ENDBRANCH   2   3
ENDBRANCH   1   2
BRANCH   1  11
ATOM     11  C   UNL     1       5.385  56.590  21.255  1.00  0.00     0.000 C 
BRANCH  11  12
ATOM     12  C   UNL     1       6.897  56.629  21.005  1.00  0.00     0.000 C 
BRANCH  12  13
ATOM     13  C   UNL     1       7.261  55.886  19.711  1.00  0.00     0.000 C 
BRANCH  13  14
ATOM     14  C   UNL     1       7.795  54.469  19.970  1.00  0.00     0.000 C 
BRANCH  14  15
ATOM     15  C   UNL     1       8.947  54.447  20.987  1.00  0.00     0.000 C 
BRANCH  15  16
ATOM     16  C   UNL     1       8.891  53.178  21.851  1.00  0.00     0.006 C 
BRANCH  16  17
ATOM     17  C   UNL     1      10.143  53.012  22.722  1.00  0.00     0.053 C 
BRANCH  17  18
ATOM     18  C   UNL     1      10.053  53.816  23.983  1.00  0.00     0.041 C 
ATOM     19  O   UNL     1      11.044  54.483  24.382  1.00  0.00    -0.550 OA
ATOM     20  O   UNL     1       8.863  53.856  24.699  1.00  0.00    -0.550 OA
ENDBRANCH  17  18
ENDBRANCH  16  17
ENDBRANCH  15  16
ENDBRANCH  14  15
ENDBRANCH  13  14
ENDBRANCH  12  13
ENDBRANCH  11  12
ENDBRANCH   1  11
TORSDOF 15
ENDMDL
MODEL 9
REMARK VINA RESULT:    -5.062      1.725     10.543
REMARK INTER + INTRA:         -10.239
REMARK INTER:                  -9.484
REMARK INTRA:                  -0.755
REMARK UNBOUND:                -0.738
REMARK SMILES O=C([O-])CCCCCCCCCCCCCCC(=O)[O-]
REMARK SMILES IDX 10 1 9 2 8 3 7 4 6 5 5 6 4 7 2 8 1 9 3 10 11 11 12 12 13 13
REMARK SMILES IDX 14 14 15 15 16 16 17 17 18 18 19 19 20 20
REMARK H PARENT
REMARK Flexibility Score: inf
ROOT
ATOM      1  C   UNL     1       3.351  58.495  21.439  1.00  0.00     0.000 C 
ENDROOT
BRANCH   1   2
ATOM      2  C   UNL     1       2.057  58.891  20.712  1.00  0.00     0.000 C 
BRANCH   2   3
ATOM      3  C   UNL     1       2.145  60.280  20.057  1.00  0.00     0.000 C 
BRANCH   3   4
ATOM      4  C   UNL     1       1.372  60.355  18.729  1.00  0.00     0.000 C 
BRANCH   4   5
ATOM      5  C   UNL     1       2.022  59.509  17.621  1.00  0.00     0.000 C 
BRANCH   5   6
ATOM      6  C   UNL     1       1.160  59.429  16.351  1.00  0.00     0.006 C 
BRANCH   6   7
ATOM      7  C   UNL     1       1.699  60.362  15.263  1.00  0.00     0.053 C 
BRANCH   7   8
ATOM      8  C   UNL     1       0.658  61.357  14.862  1.00  0.00     0.041 C 
ATOM      9  O   UNL     1      -0.545  61.184  15.190  1.00  0.00    -0.550 OA
ATOM     10  O   UNL     1       1.008  62.453  14.082  1.00  0.00    -0.550 OA
ENDBRANCH   7   8
ENDBRANCH   6   7
ENDBRANCH   5   6
ENDBRANCH   4   5
ENDBRANCH   3   4
ENDBRANCH   2   3
ENDBRANCH   1   2
BRANCH   1  11
ATOM     11  C   UNL     1       4.305  57.753  20.496  1.00  0.00     0.000 C 
BRANCH  11  12
ATOM     12  C   UNL     1       5.073  56.654  21.240  1.00  0.00     0.000 C 
BRANCH  12  13
ATOM     13  C   UNL     1       6.566  56.687  20.881  1.00  0.00     0.000 C 
BRANCH  13  14
ATOM     14  C   UNL     1       6.890  55.880  19.614  1.00  0.00     0.000 C 
BRANCH  14  15
ATOM     15  C   UNL     1       7.604  54.555  19.922  1.00  0.00     0.000 C 
BRANCH  15  16
ATOM     16  C   UNL     1       8.443  54.668  21.204  1.00  0.00     0.006 C 
BRANCH  16  17
ATOM     17  C   UNL     1       8.381  53.394  22.055  1.00  0.00     0.053 C 
BRANCH  17  18
ATOM     18  C   UNL     1       9.746  52.934  22.467  1.00  0.00     0.041 C 
ATOM     19  O   UNL     1      10.233  51.878  21.985  1.00  0.00    -0.550 OA
ATOM     20  O   UNL     1      10.494  53.692  23.360  1.00  0.00    -0.550 OA
ENDBRANCH  17  18
ENDBRANCH  16  17
ENDBRANCH  15  16
ENDBRANCH  14  15
ENDBRANCH  13  14
ENDBRANCH  12  13
ENDBRANCH  11  12
ENDBRANCH   1  11
TORSDOF 15
ENDMDL
