MODEL 1
REMARK VINA RESULT:    -3.918      0.000      0.000
REMARK INTER + INTRA:          -4.032
REMARK INTER:                  -4.032
REMARK INTRA:                   0.000
REMARK UNBOUND:                 0.000
REMARK SMILES O=c1ccc2ccc(O)cc2o1
REMARK SMILES IDX 6 1 7 2 8 3 10 4 11 5 5 6 4 7 3 8 2 9 1 10 12 11 9 12
REMARK H PARENT 9 13
REMARK Flexibility Score: inf
ROOT
ATOM      1  C   UNL     1     148.066 145.304 162.817  1.00  0.00     0.016 A 
ATOM      2  C   UNL     1     146.846 145.980 162.918  1.00  0.00     0.047 A 
ATOM      3  C   UNL     1     146.101 146.271 161.770  1.00  0.00     0.119 A 
ATOM      4  C   UNL     1     146.579 145.884 160.509  1.00  0.00     0.094 A 
ATOM      5  C   UNL     1     147.798 145.208 160.397  1.00  0.00     0.142 A 
ATOM      6  C   UNL     1     148.548 144.916 161.560  1.00  0.00     0.018 A 
ATOM      7  C   UNL     1     149.763 144.239 161.417  1.00  0.00     0.019 A 
ATOM      8  C   UNL     1     150.197 143.875 160.142  1.00  0.00     0.094 A 
ATOM      9  C   UNL     1     149.402 144.198 159.036  1.00  0.00     0.336 A 
ATOM     10  O   UNL     1     149.778 143.877 157.878  1.00  0.00    -0.246 OA
ATOM     11  O   UNL     1     148.250 144.842 159.200  1.00  0.00    -0.423 OA
ENDROOT
BRANCH   3  12
ATOM     12  O   UNL     1     144.887 146.944 161.892  1.00  0.00    -0.508 OA
ATOM     13  H   UNL     1     144.057 146.633 161.402  1.00  0.00     0.293 HD
ENDBRANCH   3  12
TORSDOF 1
ENDMDL
MODEL 2
REMARK VINA RESULT:    -3.479      1.721      4.355
REMARK INTER + INTRA:          -3.580
REMARK INTER:                  -3.580
REMARK INTRA:                   0.000
REMARK UNBOUND:                 0.000
REMARK SMILES O=c1ccc2ccc(O)cc2o1
REMARK SMILES IDX 6 1 7 2 8 3 10 4 11 5 5 6 4 7 3 8 2 9 1 10 12 11 9 12
REMARK H PARENT 9 13
REMARK Flexibility Score: inf
ROOT
ATOM      1  C   UNL     1     150.516 143.890 161.283  1.00  0.00     0.016 A 
ATOM      2  C   UNL     1     151.445 143.893 160.239  1.00  0.00     0.047 A 
ATOM      3  C   UNL     1     151.021 144.044 158.914  1.00  0.00     0.119 A 
ATOM      4  C   UNL     1     149.655 144.192 158.629  1.00  0.00     0.094 A 
ATOM      5  C   UNL     1     148.717 144.190 159.667  1.00  0.00     0.142 A 
ATOM      6  C   UNL     1     149.150 144.038 161.004  1.00  0.00     0.018 A 
ATOM      7  C   UNL     1     148.190 144.041 162.020  1.00  0.00     0.019 A 
ATOM      8  C   UNL     1     146.843 144.191 161.687  1.00  0.00     0.094 A 
ATOM      9  C   UNL     1     146.488 144.336 160.341  1.00  0.00     0.336 A 
ATOM     10  O   UNL     1     145.278 144.474 160.023  1.00  0.00    -0.246 OA
ATOM     11  O   UNL     1     147.422 144.331 159.395  1.00  0.00    -0.423 OA
ENDROOT
BRANCH   3  12
ATOM     12  O   UNL     1     151.963 144.044 157.887  1.00  0.00    -0.508 OA
ATOM     13  H   UNL     1     152.802 144.611 157.938  1.00  0.00     0.293 HD
ENDBRANCH   3  12
TORSDOF 1
ENDMDL
MODEL 3
REMARK VINA RESULT:    -3.121     14.811     16.169
REMARK INTER + INTRA:          -3.212
REMARK INTER:                  -3.212
REMARK INTRA:                   0.000
REMARK UNBOUND:                 0.000
REMARK SMILES O=c1ccc2ccc(O)cc2o1
REMARK SMILES IDX 6 1 7 2 8 3 10 4 11 5 5 6 4 7 3 8 2 9 1 10 12 11 9 12
REMARK H PARENT 9 13
REMARK Flexibility Score: inf
ROOT
ATOM      1  C   UNL     1     146.713 162.669 160.884  1.00  0.00     0.016 A 
ATOM      2  C   UNL     1     147.842 163.374 160.457  1.00  0.00     0.047 A 
ATOM      3  C   UNL     1     149.070 162.719 160.308  1.00  0.00     0.119 A 
ATOM      4  C   UNL     1     149.171 161.349 160.589  1.00  0.00     0.094 A 
ATOM      5  C   UNL     1     148.046 160.635 161.017  1.00  0.00     0.142 A 
ATOM      6  C   UNL     1     146.808 161.300 161.166  1.00  0.00     0.018 A 
ATOM      7  C   UNL     1     145.702 160.560 161.595  1.00  0.00     0.019 A 
ATOM      8  C   UNL     1     145.851 159.199 161.861  1.00  0.00     0.094 A 
ATOM      9  C   UNL     1     147.108 158.608 161.692  1.00  0.00     0.336 A 
ATOM     10  O   UNL     1     147.262 157.381 161.927  1.00  0.00    -0.246 OA
ATOM     11  O   UNL     1     148.144 159.335 161.282  1.00  0.00    -0.423 OA
ENDROOT
BRANCH   3  12
ATOM     12  O   UNL     1     150.184 163.439 159.882  1.00  0.00    -0.508 OA
ATOM     13  H   UNL     1     151.116 163.042 159.913  1.00  0.00     0.293 HD
ENDBRANCH   3  12
TORSDOF 1
ENDMDL
MODEL 4
REMARK VINA RESULT:    -3.120     14.422     15.874
REMARK INTER + INTRA:          -3.211
REMARK INTER:                  -3.211
REMARK INTRA:                   0.000
REMARK UNBOUND:                 0.000
REMARK SMILES O=c1ccc2ccc(O)cc2o1
REMARK SMILES IDX 6 1 7 2 8 3 10 4 11 5 5 6 4 7 3 8 2 9 1 10 12 11 9 12
REMARK H PARENT 9 13
REMARK Flexibility Score: inf
ROOT
ATOM      1  C   UNL     1     148.273 158.954 160.874  1.00  0.00     0.016 A 
ATOM      2  C   UNL     1     147.503 158.109 161.677  1.00  0.00     0.047 A 
ATOM      3  C   UNL     1     146.367 158.597 162.335  1.00  0.00     0.119 A 
ATOM      4  C   UNL     1     145.999 159.942 162.189  1.00  0.00     0.094 A 
ATOM      5  C   UNL     1     146.764 160.797 161.387  1.00  0.00     0.142 A 
ATOM      6  C   UNL     1     147.909 160.300 160.725  1.00  0.00     0.018 A 
ATOM      7  C   UNL     1     148.654 161.177 159.931  1.00  0.00     0.019 A 
ATOM      8  C   UNL     1     148.248 162.507 159.816  1.00  0.00     0.094 A 
ATOM      9  C   UNL     1     147.102 162.929 160.501  1.00  0.00     0.336 A 
ATOM     10  O   UNL     1     146.721 164.125 160.409  1.00  0.00    -0.246 OA
ATOM     11  O   UNL     1     146.413 162.073 161.250  1.00  0.00    -0.423 OA
ENDROOT
BRANCH   3  12
ATOM     12  O   UNL     1     145.613 157.737 163.131  1.00  0.00    -0.508 OA
ATOM     13  H   UNL     1     144.700 157.409 162.838  1.00  0.00     0.293 HD
ENDBRANCH   3  12
TORSDOF 1
ENDMDL
MODEL 5
REMARK VINA RESULT:    -2.985     14.084     15.686
REMARK INTER + INTRA:          -3.072
REMARK INTER:                  -3.072
REMARK INTRA:                   0.000
REMARK UNBOUND:                 0.000
REMARK SMILES O=c1ccc2ccc(O)cc2o1
REMARK SMILES IDX 6 1 7 2 8 3 10 4 11 5 5 6 4 7 3 8 2 9 1 10 12 11 9 12
REMARK H PARENT 9 13
REMARK Flexibility Score: inf
ROOT
ATOM      1  C   UNL     1     148.361 159.630 160.141  1.00  0.00     0.016 A 
ATOM      2  C   UNL     1     148.639 160.902 159.633  1.00  0.00     0.047 A 
ATOM      3  C   UNL     1     148.028 162.034 160.184  1.00  0.00     0.119 A 
ATOM      4  C   UNL     1     147.131 161.894 161.253  1.00  0.00     0.094 A 
ATOM      5  C   UNL     1     146.846 160.625 161.769  1.00  0.00     0.142 A 
ATOM      6  C   UNL     1     147.465 159.484 161.209  1.00  0.00     0.018 A 
ATOM      7  C   UNL     1     147.161 158.230 161.746  1.00  0.00     0.019 A 
ATOM      8  C   UNL     1     146.262 158.141 162.810  1.00  0.00     0.094 A 
ATOM      9  C   UNL     1     145.687 159.313 163.313  1.00  0.00     0.336 A 
ATOM     10  O   UNL     1     144.875 159.252 164.272  1.00  0.00    -0.246 OA
ATOM     11  O   UNL     1     145.994 160.494 162.784  1.00  0.00    -0.423 OA
ENDROOT
BRANCH   3  12
ATOM     12  O   UNL     1     148.319 163.293 159.663  1.00  0.00    -0.508 OA
ATOM     13  H   UNL     1     148.079 164.142 160.163  1.00  0.00     0.293 HD
ENDBRANCH   3  12
TORSDOF 1
ENDMDL
MODEL 6
REMARK VINA RESULT:    -2.908     22.434     22.703
REMARK INTER + INTRA:          -2.993
REMARK INTER:                  -2.993
REMARK INTRA:                   0.000
REMARK UNBOUND:                 0.000
REMARK SMILES O=c1ccc2ccc(O)cc2o1
REMARK SMILES IDX 6 1 7 2 8 3 10 4 11 5 5 6 4 7 3 8 2 9 1 10 12 11 9 12
REMARK H PARENT 9 13
REMARK Flexibility Score: inf
ROOT
ATOM      1  C   UNL     1     159.425 164.013 165.150  1.00  0.00     0.016 A 
ATOM      2  C   UNL     1     159.356 163.518 166.455  1.00  0.00     0.047 A 
ATOM      3  C   UNL     1     160.351 162.662 166.941  1.00  0.00     0.119 A 
ATOM      4  C   UNL     1     161.424 162.296 166.115  1.00  0.00     0.094 A 
ATOM      5  C   UNL     1     161.502 162.786 164.808  1.00  0.00     0.142 A 
ATOM      6  C   UNL     1     160.496 163.651 164.320  1.00  0.00     0.018 A 
ATOM      7  C   UNL     1     160.601 164.125 163.009  1.00  0.00     0.019 A 
ATOM      8  C   UNL     1     161.688 163.734 162.226  1.00  0.00     0.094 A 
ATOM      9  C   UNL     1     162.646 162.875 162.775  1.00  0.00     0.336 A 
ATOM     10  O   UNL     1     163.633 162.511 162.084  1.00  0.00    -0.246 OA
ATOM     11  O   UNL     1     162.521 162.438 164.026  1.00  0.00    -0.423 OA
ENDROOT
BRANCH   3  12
ATOM     12  O   UNL     1     160.263 162.179 168.246  1.00  0.00    -0.508 OA
ATOM     13  H   UNL     1     159.921 161.245 168.443  1.00  0.00     0.293 HD
ENDBRANCH   3  12
TORSDOF 1
ENDMDL
MODEL 7
REMARK VINA RESULT:    -2.885     15.240     16.453
REMARK INTER + INTRA:          -2.969
REMARK INTER:                  -2.969
REMARK INTRA:                   0.000
REMARK UNBOUND:                 0.000
REMARK SMILES O=c1ccc2ccc(O)cc2o1
REMARK SMILES IDX 6 1 7 2 8 3 10 4 11 5 5 6 4 7 3 8 2 9 1 10 12 11 9 12
REMARK H PARENT 9 13
REMARK Flexibility Score: inf
ROOT
ATOM      1  C   UNL     1     148.137 147.057 178.125  1.00  0.00     0.016 A 
ATOM      2  C   UNL     1     149.514 146.826 178.054  1.00  0.00     0.047 A 
ATOM      3  C   UNL     1     150.021 145.825 177.217  1.00  0.00     0.119 A 
ATOM      4  C   UNL     1     149.145 145.047 176.446  1.00  0.00     0.094 A 
ATOM      5  C   UNL     1     147.766 145.270 176.510  1.00  0.00     0.142 A 
ATOM      6  C   UNL     1     147.257 146.282 177.356  1.00  0.00     0.018 A 
ATOM      7  C   UNL     1     145.874 146.482 177.399  1.00  0.00     0.019 A 
ATOM      8  C   UNL     1     145.043 145.684 176.613  1.00  0.00     0.094 A 
ATOM      9  C   UNL     1     145.617 144.701 175.799  1.00  0.00     0.336 A 
ATOM     10  O   UNL     1     144.883 143.971 175.083  1.00  0.00    -0.246 OA
ATOM     11  O   UNL     1     146.936 144.532 175.777  1.00  0.00    -0.423 OA
ENDROOT
BRANCH   3  12
ATOM     12  O   UNL     1     151.397 145.610 177.160  1.00  0.00    -0.508 OA
ATOM     13  H   UNL     1     151.934 145.834 176.331  1.00  0.00     0.293 HD
ENDBRANCH   3  12
TORSDOF 1
ENDMDL
MODEL 8
REMARK VINA RESULT:    -2.744     22.291     22.884
REMARK INTER + INTRA:          -2.824
REMARK INTER:                  -2.824
REMARK INTRA:                   0.000
REMARK UNBOUND:                 0.000
REMARK SMILES O=c1ccc2ccc(O)cc2o1
REMARK SMILES IDX 6 1 7 2 8 3 10 4 11 5 5 6 4 7 3 8 2 9 1 10 12 11 9 12
REMARK H PARENT 9 13
REMARK Flexibility Score: inf
ROOT
ATOM      1  C   UNL     1     162.228 162.487 165.152  1.00  0.00     0.016 A 
ATOM      2  C   UNL     1     162.832 162.903 163.962  1.00  0.00     0.047 A 
ATOM      3  C   UNL     1     162.135 163.718 163.062  1.00  0.00     0.119 A 
ATOM      4  C   UNL     1     160.824 164.120 163.354  1.00  0.00     0.094 A 
ATOM      5  C   UNL     1     160.211 163.709 164.542  1.00  0.00     0.142 A 
ATOM      6  C   UNL     1     160.918 162.886 165.448  1.00  0.00     0.018 A 
ATOM      7  C   UNL     1     160.279 162.490 166.627  1.00  0.00     0.019 A 
ATOM      8  C   UNL     1     158.974 162.916 166.873  1.00  0.00     0.094 A 
ATOM      9  C   UNL     1     158.336 163.730 165.931  1.00  0.00     0.336 A 
ATOM     10  O   UNL     1     157.158 164.123 166.136  1.00  0.00    -0.246 OA
ATOM     11  O   UNL     1     158.966 164.091 164.817  1.00  0.00    -0.423 OA
ENDROOT
BRANCH   3  12
ATOM     12  O   UNL     1     162.755 164.123 161.881  1.00  0.00    -0.508 OA
ATOM     13  H   UNL     1     162.522 163.702 160.989  1.00  0.00     0.293 HD
ENDBRANCH   3  12
TORSDOF 1
ENDMDL
