MODEL 1
REMARK VINA RESULT:    -4.661      0.000      0.000
REMARK INTER + INTRA:          -6.930
REMARK INTER:                  -6.569
REMARK INTRA:                  -0.361
REMARK UNBOUND:                -0.361
REMARK SMILES C=CCCCCCCC(=O)[O-]
REMARK SMILES IDX 6 1 7 2 8 3 9 4 10 5 11 6 5 7 4 8 3 9 2 10 1 11
REMARK H PARENT
REMARK Flexibility Score: inf
ROOT
ATOM      1  C   UNL     1     -11.192  11.568   5.571  1.00  0.00     0.000 C 
ENDROOT
BRANCH   1   2
ATOM      2  C   UNL     1     -12.208  10.577   6.160  1.00  0.00     0.006 C 
BRANCH   2   3
ATOM      3  C   UNL     1     -12.073  10.425   7.682  1.00  0.00     0.053 C 
BRANCH   3   4
ATOM      4  C   UNL     1     -12.184  11.758   8.350  1.00  0.00     0.041 C 
ATOM      5  O   UNL     1     -13.283  12.374   8.360  1.00  0.00    -0.550 OA
ATOM      6  O   UNL     1     -11.086  12.300   9.006  1.00  0.00    -0.550 OA
ENDBRANCH   3   4
ENDBRANCH   2   3
ENDBRANCH   1   2
BRANCH   1   7
ATOM      7  C   UNL     1     -10.773  11.202   4.137  1.00  0.00     0.000 C 
BRANCH   7   8
ATOM      8  C   UNL     1     -10.084  12.366   3.402  1.00  0.00     0.004 C 
BRANCH   8   9
ATOM      9  C   UNL     1      -9.298  13.318   4.319  1.00  0.00     0.027 C 
BRANCH   9  10
ATOM     10  C   UNL     1      -7.814  13.211   4.094  1.00  0.00    -0.035 C 
ATOM     11  C   UNL     1      -7.300  12.439   3.132  1.00  0.00     0.004 C 
ENDBRANCH   9  10
ENDBRANCH   8   9
ENDBRANCH   7   8
ENDBRANCH   1   7
TORSDOF 7
ENDMDL
MODEL 2
REMARK VINA RESULT:    -4.655      2.965      5.301
REMARK INTER + INTRA:          -6.921
REMARK INTER:                  -6.549
REMARK INTRA:                  -0.372
REMARK UNBOUND:                -0.361
REMARK SMILES C=CCCCCCCC(=O)[O-]
REMARK SMILES IDX 6 1 7 2 8 3 9 4 10 5 11 6 5 7 4 8 3 9 2 10 1 11
REMARK H PARENT
REMARK Flexibility Score: inf
ROOT
ATOM      1  C   UNL     1     -11.227  11.548   5.258  1.00  0.00     0.000 C 
ENDROOT
BRANCH   1   2
ATOM      2  C   UNL     1     -10.573  11.229   3.904  1.00  0.00     0.006 C 
BRANCH   2   3
ATOM      3  C   UNL     1     -10.773  12.348   2.872  1.00  0.00     0.053 C 
BRANCH   3   4
ATOM      4  C   UNL     1      -9.668  13.352   2.972  1.00  0.00     0.041 C 
ATOM      5  O   UNL     1      -9.810  14.503   2.482  1.00  0.00    -0.550 OA
ATOM      6  O   UNL     1      -8.498  13.032   3.650  1.00  0.00    -0.550 OA
ENDBRANCH   3   4
ENDBRANCH   2   3
ENDBRANCH   1   2
BRANCH   1   7
ATOM      7  C   UNL     1     -12.010  10.354   5.831  1.00  0.00     0.000 C 
BRANCH   7   8
ATOM      8  C   UNL     1     -12.265  10.482   7.344  1.00  0.00     0.004 C 
BRANCH   8   9
ATOM      9  C   UNL     1     -13.083  11.719   7.747  1.00  0.00     0.027 C 
BRANCH   9  10
ATOM     10  C   UNL     1     -12.355  12.564   8.759  1.00  0.00    -0.035 C 
ATOM     11  C   UNL     1     -11.026  12.523   8.887  1.00  0.00     0.004 C 
ENDBRANCH   9  10
ENDBRANCH   8   9
ENDBRANCH   7   8
ENDBRANCH   1   7
TORSDOF 7
ENDMDL
MODEL 3
REMARK VINA RESULT:    -4.614      3.431      5.593
REMARK INTER + INTRA:          -6.863
REMARK INTER:                  -6.544
REMARK INTRA:                  -0.319
REMARK UNBOUND:                -0.361
REMARK SMILES C=CCCCCCCC(=O)[O-]
REMARK SMILES IDX 6 1 7 2 8 3 9 4 10 5 11 6 5 7 4 8 3 9 2 10 1 11
REMARK H PARENT
REMARK Flexibility Score: inf
ROOT
ATOM      1  C   UNL     1     -10.836  11.116   3.625  1.00  0.00     0.000 C 
ENDROOT
BRANCH   1   2
ATOM      2  C   UNL     1      -9.490  11.659   3.119  1.00  0.00     0.006 C 
BRANCH   2   3
ATOM      3  C   UNL     1      -9.212  13.091   3.596  1.00  0.00     0.053 C 
BRANCH   3   4
ATOM      4  C   UNL     1      -9.115  14.019   2.427  1.00  0.00     0.041 C 
ATOM      5  O   UNL     1      -8.519  13.658   1.378  1.00  0.00    -0.550 OA
ATOM      6  O   UNL     1      -9.724  15.267   2.478  1.00  0.00    -0.550 OA
ENDBRANCH   3   4
ENDBRANCH   2   3
ENDBRANCH   1   2
BRANCH   1   7
ATOM      7  C   UNL     1     -11.138  11.540   5.072  1.00  0.00     0.000 C 
BRANCH   7   8
ATOM      8  C   UNL     1     -12.023  10.525   5.818  1.00  0.00     0.004 C 
BRANCH   8   9
ATOM      9  C   UNL     1     -12.058  10.714   7.343  1.00  0.00     0.027 C 
BRANCH   9  10
ATOM     10  C   UNL     1     -11.132  11.814   7.791  1.00  0.00    -0.035 C 
ATOM     11  C   UNL     1     -11.253  12.393   8.988  1.00  0.00     0.004 C 
ENDBRANCH   9  10
ENDBRANCH   8   9
ENDBRANCH   7   8
ENDBRANCH   1   7
TORSDOF 7
ENDMDL
MODEL 4
REMARK VINA RESULT:    -4.567      3.244      5.036
REMARK INTER + INTRA:          -6.797
REMARK INTER:                  -6.497
REMARK INTRA:                  -0.300
REMARK UNBOUND:                -0.361
REMARK SMILES C=CCCCCCCC(=O)[O-]
REMARK SMILES IDX 6 1 7 2 8 3 9 4 10 5 11 6 5 7 4 8 3 9 2 10 1 11
REMARK H PARENT
REMARK Flexibility Score: inf
ROOT
ATOM      1  C   UNL     1     -10.655  12.631   9.400  1.00  0.00     0.000 C 
ENDROOT
BRANCH   1   2
ATOM      2  C   UNL     1     -10.398  14.146   9.367  1.00  0.00     0.006 C 
BRANCH   2   3
ATOM      3  C   UNL     1      -8.907  14.490   9.237  1.00  0.00     0.053 C 
BRANCH   3   4
ATOM      4  C   UNL     1      -8.495  15.435  10.320  1.00  0.00     0.041 C 
ATOM      5  O   UNL     1      -9.190  16.456  10.570  1.00  0.00    -0.550 OA
ATOM      6  O   UNL     1      -7.370  15.164  11.089  1.00  0.00    -0.550 OA
ENDBRANCH   3   4
ENDBRANCH   2   3
ENDBRANCH   1   2
BRANCH   1   7
ATOM      7  C   UNL     1     -11.900  12.225   8.593  1.00  0.00     0.000 C 
BRANCH   7   8
ATOM      8  C   UNL     1     -11.955  10.714   8.302  1.00  0.00     0.004 C 
BRANCH   8   9
ATOM      9  C   UNL     1     -11.991  10.356   6.808  1.00  0.00     0.027 C 
BRANCH   9  10
ATOM     10  C   UNL     1     -11.454  11.474   5.953  1.00  0.00    -0.035 C 
ATOM     11  C   UNL     1     -11.012  11.262   4.711  1.00  0.00     0.004 C 
ENDBRANCH   9  10
ENDBRANCH   8   9
ENDBRANCH   7   8
ENDBRANCH   1   7
TORSDOF 7
ENDMDL
MODEL 5
REMARK VINA RESULT:    -4.555      0.686      1.572
REMARK INTER + INTRA:          -6.781
REMARK INTER:                  -6.424
REMARK INTRA:                  -0.356
REMARK UNBOUND:                -0.361
REMARK SMILES C=CCCCCCCC(=O)[O-]
REMARK SMILES IDX 6 1 7 2 8 3 9 4 10 5 11 6 5 7 4 8 3 9 2 10 1 11
REMARK H PARENT
REMARK Flexibility Score: inf
ROOT
ATOM      1  C   UNL     1     -12.096  10.265   5.829  1.00  0.00     0.000 C 
ENDROOT
BRANCH   1   2
ATOM      2  C   UNL     1     -12.199  10.429   7.354  1.00  0.00     0.006 C 
BRANCH   2   3
ATOM      3  C   UNL     1     -11.269  11.525   7.895  1.00  0.00     0.053 C 
BRANCH   3   4
ATOM      4  C   UNL     1     -12.052  12.532   8.676  1.00  0.00     0.041 C 
ATOM      5  O   UNL     1     -11.466  13.498   9.233  1.00  0.00    -0.550 OA
ATOM      6  O   UNL     1     -13.436  12.432   8.749  1.00  0.00    -0.550 OA
ENDBRANCH   3   4
ENDBRANCH   2   3
ENDBRANCH   1   2
BRANCH   1   7
ATOM      7  C   UNL     1     -11.508  11.507   5.139  1.00  0.00     0.000 C 
BRANCH   7   8
ATOM      8  C   UNL     1     -10.661  11.156   3.902  1.00  0.00     0.004 C 
BRANCH   8   9
ATOM      9  C   UNL     1      -9.957  12.359   3.253  1.00  0.00     0.027 C 
BRANCH   9  10
ATOM     10  C   UNL     1      -9.088  13.095   4.238  1.00  0.00    -0.035 C 
ATOM     11  C   UNL     1      -7.792  13.319   4.005  1.00  0.00     0.004 C 
ENDBRANCH   9  10
ENDBRANCH   8   9
ENDBRANCH   7   8
ENDBRANCH   1   7
TORSDOF 7
ENDMDL
MODEL 6
REMARK VINA RESULT:    -4.544      2.059      2.280
REMARK INTER + INTRA:          -6.765
REMARK INTER:                  -6.442
REMARK INTRA:                  -0.323
REMARK UNBOUND:                -0.361
REMARK SMILES C=CCCCCCCC(=O)[O-]
REMARK SMILES IDX 6 1 7 2 8 3 9 4 10 5 11 6 5 7 4 8 3 9 2 10 1 11
REMARK H PARENT
REMARK Flexibility Score: inf
ROOT
ATOM      1  C   UNL     1     -11.198  11.512   6.275  1.00  0.00     0.000 C 
ENDROOT
BRANCH   1   2
ATOM      2  C   UNL     1     -12.541  11.203   6.955  1.00  0.00     0.006 C 
BRANCH   2   3
ATOM      3  C   UNL     1     -12.443  10.050   7.964  1.00  0.00     0.053 C 
BRANCH   3   4
ATOM      4  C   UNL     1     -13.412   8.966   7.611  1.00  0.00     0.041 C 
ATOM      5  O   UNL     1     -14.149   8.461   8.499  1.00  0.00    -0.550 OA
ATOM      6  O   UNL     1     -13.538   8.548   6.292  1.00  0.00    -0.550 OA
ENDBRANCH   3   4
ENDBRANCH   2   3
ENDBRANCH   1   2
BRANCH   1   7
ATOM      7  C   UNL     1     -11.171  11.081   4.798  1.00  0.00     0.000 C 
BRANCH   7   8
ATOM      8  C   UNL     1     -10.520  12.134   3.883  1.00  0.00     0.004 C 
BRANCH   8   9
ATOM      9  C   UNL     1      -9.426  12.974   4.561  1.00  0.00     0.027 C 
BRANCH   9  10
ATOM     10  C   UNL     1      -8.313  13.317   3.606  1.00  0.00    -0.035 C 
ATOM     11  C   UNL     1      -7.346  12.446   3.309  1.00  0.00     0.004 C 
ENDBRANCH   9  10
ENDBRANCH   8   9
ENDBRANCH   7   8
ENDBRANCH   1   7
TORSDOF 7
ENDMDL
MODEL 7
REMARK VINA RESULT:    -4.525      4.524      5.743
REMARK INTER + INTRA:          -6.738
REMARK INTER:                  -6.498
REMARK INTRA:                  -0.240
REMARK UNBOUND:                -0.361
REMARK SMILES C=CCCCCCCC(=O)[O-]
REMARK SMILES IDX 6 1 7 2 8 3 9 4 10 5 11 6 5 7 4 8 3 9 2 10 1 11
REMARK H PARENT
REMARK Flexibility Score: inf
ROOT
ATOM      1  C   UNL     1     -13.491   8.471   6.715  1.00  0.00     0.000 C 
ENDROOT
BRANCH   1   2
ATOM      2  C   UNL     1     -14.233   7.611   7.750  1.00  0.00     0.006 C 
BRANCH   2   3
ATOM      3  C   UNL     1     -13.473   6.326   8.106  1.00  0.00     0.053 C 
BRANCH   3   4
ATOM      4  C   UNL     1     -14.393   5.147   8.062  1.00  0.00     0.041 C 
ATOM      5  O   UNL     1     -15.008   4.861   7.000  1.00  0.00    -0.550 OA
ATOM      6  O   UNL     1     -14.535   4.334   9.179  1.00  0.00    -0.550 OA
ENDBRANCH   3   4
ENDBRANCH   2   3
ENDBRANCH   1   2
BRANCH   1   7
ATOM      7  C   UNL     1     -12.724   9.638   7.359  1.00  0.00     0.000 C 
BRANCH   7   8
ATOM      8  C   UNL     1     -12.045  10.550   6.320  1.00  0.00     0.004 C 
BRANCH   8   9
ATOM      9  C   UNL     1     -11.155  11.648   6.924  1.00  0.00     0.027 C 
BRANCH   9  10
ATOM     10  C   UNL     1     -11.365  11.782   8.409  1.00  0.00    -0.035 C 
ATOM     11  C   UNL     1     -10.837  12.791   9.107  1.00  0.00     0.004 C 
ENDBRANCH   9  10
ENDBRANCH   8   9
ENDBRANCH   7   8
ENDBRANCH   1   7
TORSDOF 7
ENDMDL
MODEL 8
REMARK VINA RESULT:    -4.391      4.184      5.364
REMARK INTER + INTRA:          -6.549
REMARK INTER:                  -6.180
REMARK INTRA:                  -0.369
REMARK UNBOUND:                -0.361
REMARK SMILES C=CCCCCCCC(=O)[O-]
REMARK SMILES IDX 6 1 7 2 8 3 9 4 10 5 11 6 5 7 4 8 3 9 2 10 1 11
REMARK H PARENT
REMARK Flexibility Score: inf
ROOT
ATOM      1  C   UNL     1     -10.225  13.071   9.713  1.00  0.00     0.000 C 
ENDROOT
BRANCH   1   2
ATOM      2  C   UNL     1     -11.303  12.261   8.976  1.00  0.00     0.006 C 
BRANCH   2   3
ATOM      3  C   UNL     1     -10.945  12.000   7.506  1.00  0.00     0.053 C 
BRANCH   3   4
ATOM      4  C   UNL     1     -11.825  10.932   6.938  1.00  0.00     0.041 C 
ATOM      5  O   UNL     1     -12.730  10.413   7.644  1.00  0.00    -0.550 OA
ATOM      6  O   UNL     1     -11.679  10.544   5.612  1.00  0.00    -0.550 OA
ENDBRANCH   3   4
ENDBRANCH   2   3
ENDBRANCH   1   2
BRANCH   1   7
ATOM      7  C   UNL     1      -9.593  14.158   8.827  1.00  0.00     0.000 C 
BRANCH   7   8
ATOM      8  C   UNL     1      -8.149  14.498   9.240  1.00  0.00     0.004 C 
BRANCH   8   9
ATOM      9  C   UNL     1      -7.819  14.183  10.708  1.00  0.00     0.027 C 
BRANCH   9  10
ATOM     10  C   UNL     1      -7.569  15.436  11.505  1.00  0.00    -0.035 C 
ATOM     11  C   UNL     1      -7.845  16.649  11.017  1.00  0.00     0.004 C 
ENDBRANCH   9  10
ENDBRANCH   8   9
ENDBRANCH   7   8
ENDBRANCH   1   7
TORSDOF 7
ENDMDL
MODEL 9
REMARK VINA RESULT:    -4.359      3.722      4.930
REMARK INTER + INTRA:          -6.505
REMARK INTER:                  -6.390
REMARK INTRA:                  -0.115
REMARK UNBOUND:                -0.361
REMARK SMILES C=CCCCCCCC(=O)[O-]
REMARK SMILES IDX 6 1 7 2 8 3 9 4 10 5 11 6 5 7 4 8 3 9 2 10 1 11
REMARK H PARENT
REMARK Flexibility Score: inf
ROOT
ATOM      1  C   UNL     1     -11.177  11.820   7.727  1.00  0.00     0.000 C 
ENDROOT
BRANCH   1   2
ATOM      2  C   UNL     1     -12.503  11.051   7.835  1.00  0.00     0.006 C 
BRANCH   2   3
ATOM      3  C   UNL     1     -12.541   9.808   6.934  1.00  0.00     0.053 C 
BRANCH   3   4
ATOM      4  C   UNL     1     -13.468   8.780   7.504  1.00  0.00     0.041 C 
ATOM      5  O   UNL     1     -13.663   7.695   6.896  1.00  0.00    -0.550 OA
ATOM      6  O   UNL     1     -14.078   9.001   8.733  1.00  0.00    -0.550 OA
ENDBRANCH   3   4
ENDBRANCH   2   3
ENDBRANCH   1   2
BRANCH   1   7
ATOM      7  C   UNL     1     -10.865  12.639   8.991  1.00  0.00     0.000 C 
BRANCH   7   8
ATOM      8  C   UNL     1      -9.769  13.696   8.760  1.00  0.00     0.004 C 
BRANCH   8   9
ATOM      9  C   UNL     1      -9.725  14.806   9.823  1.00  0.00     0.027 C 
BRANCH   9  10
ATOM     10  C   UNL     1      -8.318  15.084  10.281  1.00  0.00    -0.035 C 
ATOM     11  C   UNL     1      -7.930  16.303  10.665  1.00  0.00     0.004 C 
ENDBRANCH   9  10
ENDBRANCH   8   9
ENDBRANCH   7   8
ENDBRANCH   1   7
TORSDOF 7
ENDMDL
