MODEL 1
REMARK VINA RESULT:    -4.925      0.000      0.000
REMARK INTER + INTRA:          -5.483
REMARK INTER:                  -5.357
REMARK INTRA:                  -0.127
REMARK UNBOUND:                -0.127
REMARK SMILES Cc1ccc(C(C)C)cc1O
REMARK SMILES IDX 1 1 2 2 10 3 9 4 5 5 4 6 3 7 11 8 6 10 7 11 8 12
REMARK H PARENT 11 9
REMARK Flexibility Score: inf
ROOT
ATOM      1  C   UNL     1      30.446  29.726  11.154  1.00  0.00     0.048 C 
ATOM      2  C   UNL     1      30.074  28.301  11.456  1.00  0.00    -0.009 A 
ATOM      3  C   UNL     1      28.759  27.851  11.241  1.00  0.00     0.118 A 
ATOM      4  C   UNL     1      28.419  26.521  11.524  1.00  0.00     0.050 A 
ATOM      5  C   UNL     1      29.380  25.625  12.024  1.00  0.00    -0.042 A 
ATOM      6  C   UNL     1      30.692  26.084  12.236  1.00  0.00     0.004 A 
ATOM      7  C   UNL     1      31.035  27.409  11.955  1.00  0.00     0.007 A 
ENDROOT
BRANCH   3   8
ATOM      8  O   UNL     1      27.795  28.728  10.745  1.00  0.00    -0.508 OA
ATOM      9  H   UNL     1      27.616  29.626  11.181  1.00  0.00     0.293 HD
ENDBRANCH   3   8
BRANCH   5  10
ATOM     10  C   UNL     1      28.994  24.189  12.325  1.00  0.00     0.013 C 
ATOM     11  C   UNL     1      30.058  23.500  13.189  1.00  0.00     0.012 C 
ATOM     12  C   UNL     1      27.612  24.115  12.987  1.00  0.00     0.012 C 
ENDBRANCH   5  10
TORSDOF 2
ENDMDL
MODEL 2
REMARK VINA RESULT:    -4.768      2.030      4.474
REMARK INTER + INTRA:          -5.313
REMARK INTER:                  -5.188
REMARK INTRA:                  -0.126
REMARK UNBOUND:                -0.127
REMARK SMILES Cc1ccc(C(C)C)cc1O
REMARK SMILES IDX 1 1 2 2 10 3 9 4 5 5 4 6 3 7 11 8 6 10 7 11 8 12
REMARK H PARENT 11 9
REMARK Flexibility Score: inf
ROOT
ATOM      1  C   UNL     1      29.752  22.287  13.391  1.00  0.00     0.048 C 
ATOM      2  C   UNL     1      29.611  23.606  12.684  1.00  0.00    -0.009 A 
ATOM      3  C   UNL     1      28.443  24.373  12.842  1.00  0.00     0.118 A 
ATOM      4  C   UNL     1      28.317  25.603  12.180  1.00  0.00     0.050 A 
ATOM      5  C   UNL     1      29.349  26.081  11.355  1.00  0.00    -0.042 A 
ATOM      6  C   UNL     1      30.513  25.307  11.202  1.00  0.00     0.004 A 
ATOM      7  C   UNL     1      30.642  24.081  11.860  1.00  0.00     0.007 A 
ENDROOT
BRANCH   3   8
ATOM      8  O   UNL     1      27.410  23.911  13.659  1.00  0.00    -0.508 OA
ATOM      9  H   UNL     1      27.414  24.067  14.661  1.00  0.00     0.293 HD
ENDBRANCH   3   8
BRANCH   5  10
ATOM     10  C   UNL     1      29.196  27.414  10.646  1.00  0.00     0.013 C 
ATOM     11  C   UNL     1      28.251  28.345  11.415  1.00  0.00     0.012 C 
ATOM     12  C   UNL     1      30.560  28.078  10.416  1.00  0.00     0.012 C 
ENDBRANCH   5  10
TORSDOF 2
ENDMDL
MODEL 3
REMARK VINA RESULT:    -4.745      1.502      2.070
REMARK INTER + INTRA:          -5.288
REMARK INTER:                  -5.162
REMARK INTRA:                  -0.126
REMARK UNBOUND:                -0.127
REMARK SMILES Cc1ccc(C(C)C)cc1O
REMARK SMILES IDX 1 1 2 2 10 3 9 4 5 5 4 6 3 7 11 8 6 10 7 11 8 12
REMARK H PARENT 11 9
REMARK Flexibility Score: inf
ROOT
ATOM      1  C   UNL     1      30.088  29.710  11.548  1.00  0.00     0.048 C 
ATOM      2  C   UNL     1      29.696  28.265  11.671  1.00  0.00    -0.009 A 
ATOM      3  C   UNL     1      30.683  27.264  11.713  1.00  0.00     0.118 A 
ATOM      4  C   UNL     1      30.310  25.917  11.829  1.00  0.00     0.050 A 
ATOM      5  C   UNL     1      28.955  25.551  11.901  1.00  0.00    -0.042 A 
ATOM      6  C   UNL     1      27.975  26.559  11.857  1.00  0.00     0.004 A 
ATOM      7  C   UNL     1      28.343  27.902  11.743  1.00  0.00     0.007 A 
ENDROOT
BRANCH   3   8
ATOM      8  O   UNL     1      32.032  27.611  11.643  1.00  0.00    -0.508 OA
ATOM      9  H   UNL     1      32.669  27.426  12.409  1.00  0.00     0.293 HD
ENDBRANCH   3   8
BRANCH   5  10
ATOM     10  C   UNL     1      28.570  24.089  12.025  1.00  0.00     0.013 C 
ATOM     11  C   UNL     1      29.076  23.493  13.345  1.00  0.00     0.012 C 
ATOM     12  C   UNL     1      27.054  23.902  11.880  1.00  0.00     0.012 C 
ENDBRANCH   5  10
TORSDOF 2
ENDMDL
MODEL 4
REMARK VINA RESULT:    -4.526      2.400      4.864
REMARK INTER + INTRA:          -5.050
REMARK INTER:                  -4.941
REMARK INTRA:                  -0.109
REMARK UNBOUND:                -0.127
REMARK SMILES Cc1ccc(C(C)C)cc1O
REMARK SMILES IDX 1 1 2 2 10 3 9 4 5 5 4 6 3 7 11 8 6 10 7 11 8 12
REMARK H PARENT 11 9
REMARK Flexibility Score: inf
ROOT
ATOM      1  C   UNL     1      29.868  21.965  13.709  1.00  0.00     0.048 C 
ATOM      2  C   UNL     1      29.649  23.294  13.043  1.00  0.00    -0.009 A 
ATOM      3  C   UNL     1      30.747  24.083  12.657  1.00  0.00     0.118 A 
ATOM      4  C   UNL     1      30.536  25.322  12.035  1.00  0.00     0.050 A 
ATOM      5  C   UNL     1      29.233  25.790  11.792  1.00  0.00    -0.042 A 
ATOM      6  C   UNL     1      28.141  24.995  12.183  1.00  0.00     0.004 A 
ATOM      7  C   UNL     1      28.348  23.759  12.803  1.00  0.00     0.007 A 
ENDROOT
BRANCH   3   8
ATOM      8  O   UNL     1      32.046  23.632  12.890  1.00  0.00    -0.508 OA
ATOM      9  H   UNL     1      32.228  22.761  13.376  1.00  0.00     0.293 HD
ENDBRANCH   3   8
BRANCH   5  10
ATOM     10  C   UNL     1      29.022  27.133  11.119  1.00  0.00     0.013 C 
ATOM     11  C   UNL     1      28.644  28.211  12.142  1.00  0.00     0.012 C 
ATOM     12  C   UNL     1      30.260  27.547  10.313  1.00  0.00     0.012 C 
ENDBRANCH   5  10
TORSDOF 2
ENDMDL
MODEL 5
REMARK VINA RESULT:    -4.459      2.326      3.867
REMARK INTER + INTRA:          -4.977
REMARK INTER:                  -4.850
REMARK INTRA:                  -0.127
REMARK UNBOUND:                -0.127
REMARK SMILES Cc1ccc(C(C)C)cc1O
REMARK SMILES IDX 1 1 2 2 10 3 9 4 5 5 4 6 3 7 11 8 6 10 7 11 8 12
REMARK H PARENT 11 9
REMARK Flexibility Score: inf
ROOT
ATOM      1  C   UNL     1      27.985  26.281  11.851  1.00  0.00     0.048 C 
ATOM      2  C   UNL     1      28.809  25.065  12.169  1.00  0.00    -0.009 A 
ATOM      3  C   UNL     1      30.057  24.873  11.551  1.00  0.00     0.118 A 
ATOM      4  C   UNL     1      30.822  23.737  11.853  1.00  0.00     0.050 A 
ATOM      5  C   UNL     1      30.352  22.780  12.769  1.00  0.00    -0.042 A 
ATOM      6  C   UNL     1      29.102  22.979  13.381  1.00  0.00     0.004 A 
ATOM      7  C   UNL     1      28.338  24.111  13.083  1.00  0.00     0.007 A 
ENDROOT
BRANCH   3   8
ATOM      8  O   UNL     1      30.537  25.815  10.641  1.00  0.00    -0.508 OA
ATOM      9  H   UNL     1      30.048  26.686  10.469  1.00  0.00     0.293 HD
ENDBRANCH   3   8
BRANCH   5  10
ATOM     10  C   UNL     1      31.191  21.555  13.083  1.00  0.00     0.013 C 
ATOM     11  C   UNL     1      30.375  20.507  13.850  1.00  0.00     0.012 C 
ATOM     12  C   UNL     1      31.797  20.958  11.807  1.00  0.00     0.012 C 
ENDBRANCH   5  10
TORSDOF 2
ENDMDL
MODEL 6
REMARK VINA RESULT:    -4.404      1.738      2.868
REMARK INTER + INTRA:          -4.917
REMARK INTER:                  -4.790
REMARK INTRA:                  -0.127
REMARK UNBOUND:                -0.127
REMARK SMILES Cc1ccc(C(C)C)cc1O
REMARK SMILES IDX 1 1 2 2 10 3 9 4 5 5 4 6 3 7 11 8 6 10 7 11 8 12
REMARK H PARENT 11 9
REMARK Flexibility Score: inf
ROOT
ATOM      1  C   UNL     1      28.043  27.587  11.528  1.00  0.00     0.048 C 
ATOM      2  C   UNL     1      28.771  26.319  11.878  1.00  0.00    -0.009 A 
ATOM      3  C   UNL     1      30.176  26.282  11.867  1.00  0.00     0.118 A 
ATOM      4  C   UNL     1      30.849  25.096  12.195  1.00  0.00     0.050 A 
ATOM      5  C   UNL     1      30.132  23.936  12.536  1.00  0.00    -0.042 A 
ATOM      6  C   UNL     1      28.726  23.982  12.544  1.00  0.00     0.004 A 
ATOM      7  C   UNL     1      28.053  25.162  12.218  1.00  0.00     0.007 A 
ENDROOT
BRANCH   3   8
ATOM      8  O   UNL     1      30.901  27.425  11.531  1.00  0.00    -0.508 OA
ATOM      9  H   UNL     1      30.758  27.907  10.651  1.00  0.00     0.293 HD
ENDBRANCH   3   8
BRANCH   5  10
ATOM     10  C   UNL     1      30.875  22.661  12.888  1.00  0.00     0.013 C 
ATOM     11  C   UNL     1      32.123  22.962  13.728  1.00  0.00     0.012 C 
ATOM     12  C   UNL     1      29.955  21.664  13.603  1.00  0.00     0.012 C 
ENDBRANCH   5  10
TORSDOF 2
ENDMDL
MODEL 7
REMARK VINA RESULT:    -4.332      1.730      2.867
REMARK INTER + INTRA:          -4.838
REMARK INTER:                  -4.731
REMARK INTRA:                  -0.108
REMARK UNBOUND:                -0.127
REMARK SMILES Cc1ccc(C(C)C)cc1O
REMARK SMILES IDX 1 1 2 2 10 3 9 4 5 5 4 6 3 7 11 8 6 10 7 11 8 12
REMARK H PARENT 11 9
REMARK Flexibility Score: inf
ROOT
ATOM      1  C   UNL     1      28.776  27.477  11.346  1.00  0.00     0.048 C 
ATOM      2  C   UNL     1      29.374  26.173  11.795  1.00  0.00    -0.009 A 
ATOM      3  C   UNL     1      28.578  25.016  11.864  1.00  0.00     0.118 A 
ATOM      4  C   UNL     1      29.142  23.802  12.284  1.00  0.00     0.050 A 
ATOM      5  C   UNL     1      30.500  23.727  12.641  1.00  0.00    -0.042 A 
ATOM      6  C   UNL     1      31.287  24.891  12.570  1.00  0.00     0.004 A 
ATOM      7  C   UNL     1      30.729  26.101  12.151  1.00  0.00     0.007 A 
ENDROOT
BRANCH   3   8
ATOM      8  O   UNL     1      27.230  25.074  11.513  1.00  0.00    -0.508 OA
ATOM      9  H   UNL     1      26.779  25.951  11.277  1.00  0.00     0.293 HD
ENDBRANCH   3   8
BRANCH   5  10
ATOM     10  C   UNL     1      31.093  22.406  13.093  1.00  0.00     0.013 C 
ATOM     11  C   UNL     1      30.013  21.485  13.674  1.00  0.00     0.012 C 
ATOM     12  C   UNL     1      31.849  21.719  11.949  1.00  0.00     0.012 C 
ENDBRANCH   5  10
TORSDOF 2
ENDMDL
MODEL 8
REMARK VINA RESULT:    -4.260      1.619      4.232
REMARK INTER + INTRA:          -4.760
REMARK INTER:                  -4.660
REMARK INTRA:                  -0.101
REMARK UNBOUND:                -0.127
REMARK SMILES Cc1ccc(C(C)C)cc1O
REMARK SMILES IDX 1 1 2 2 10 3 9 4 5 5 4 6 3 7 11 8 6 10 7 11 8 12
REMARK H PARENT 11 9
REMARK Flexibility Score: inf
ROOT
ATOM      1  C   UNL     1      29.414  22.942  13.000  1.00  0.00     0.048 C 
ATOM      2  C   UNL     1      29.813  24.338  12.611  1.00  0.00    -0.009 A 
ATOM      3  C   UNL     1      28.907  25.170  11.930  1.00  0.00     0.118 A 
ATOM      4  C   UNL     1      29.285  26.472  11.570  1.00  0.00     0.050 A 
ATOM      5  C   UNL     1      30.567  26.958  11.882  1.00  0.00    -0.042 A 
ATOM      6  C   UNL     1      31.467  26.118  12.562  1.00  0.00     0.004 A 
ATOM      7  C   UNL     1      31.093  24.820  12.923  1.00  0.00     0.007 A 
ENDROOT
BRANCH   3   8
ATOM      8  O   UNL     1      27.631  24.702  11.615  1.00  0.00    -0.508 OA
ATOM      9  H   UNL     1      26.849  25.334  11.487  1.00  0.00     0.293 HD
ENDBRANCH   3   8
BRANCH   5  10
ATOM     10  C   UNL     1      30.960  28.368  11.485  1.00  0.00     0.013 C 
ATOM     11  C   UNL     1      31.233  28.463   9.978  1.00  0.00     0.012 C 
ATOM     12  C   UNL     1      29.894  29.382  11.917  1.00  0.00     0.012 C 
ENDBRANCH   5  10
TORSDOF 2
ENDMDL
MODEL 9
REMARK VINA RESULT:    -4.258      2.007      4.518
REMARK INTER + INTRA:          -4.758
REMARK INTER:                  -4.631
REMARK INTRA:                  -0.127
REMARK UNBOUND:                -0.127
REMARK SMILES Cc1ccc(C(C)C)cc1O
REMARK SMILES IDX 1 1 2 2 10 3 9 4 5 5 4 6 3 7 11 8 6 10 7 11 8 12
REMARK H PARENT 11 9
REMARK Flexibility Score: inf
ROOT
ATOM      1  C   UNL     1      27.284  23.854  12.138  1.00  0.00     0.048 C 
ATOM      2  C   UNL     1      28.226  25.024  12.078  1.00  0.00    -0.009 A 
ATOM      3  C   UNL     1      29.612  24.826  12.210  1.00  0.00     0.118 A 
ATOM      4  C   UNL     1      30.485  25.922  12.153  1.00  0.00     0.050 A 
ATOM      5  C   UNL     1      29.990  27.224  11.965  1.00  0.00    -0.042 A 
ATOM      6  C   UNL     1      28.603  27.412  11.835  1.00  0.00     0.004 A 
ATOM      7  C   UNL     1      27.730  26.323  11.891  1.00  0.00     0.007 A 
ENDROOT
BRANCH   3   8
ATOM      8  O   UNL     1      30.118  23.539  12.396  1.00  0.00    -0.508 OA
ATOM      9  H   UNL     1      31.045  23.382  12.776  1.00  0.00     0.293 HD
ENDBRANCH   3   8
BRANCH   5  10
ATOM     10  C   UNL     1      30.949  28.398  11.906  1.00  0.00     0.013 C 
ATOM     11  C   UNL     1      32.109  28.117  10.943  1.00  0.00     0.012 C 
ATOM     12  C   UNL     1      30.217  29.691  11.526  1.00  0.00     0.012 C 
ENDBRANCH   5  10
TORSDOF 2
ENDMDL
