MODEL 1
REMARK VINA RESULT:    22.246      0.000      0.000
REMARK INTER + INTRA:          38.169
REMARK INTER:                  32.651
REMARK INTRA:                   5.518
REMARK UNBOUND:                 5.518
REMARK SMILES O=c1c(O[C@@H]2O[C@H](CO)[C@@H](O)[C@H](O)[C@@H]2O)c(-c2ccc(O)c(O)c2)oc2cc(O)cc(O)c12
REMARK SMILES IDX 4 1 3 2 16 3 25 4 2 5 26 6 1 7 33 8 27 9 31 10 28 11 30 12
REMARK SMILES IDX 17 13 18 14 19 15 20 16 24 17 22 18 21 19 23 21 32 23 29 25
REMARK SMILES IDX 5 27 14 28 6 29 12 30 7 31 10 32 15 33 13 35 8 37 9 38 11 40
REMARK H PARENT 21 20 23 22 32 24 29 26 15 34 13 36 9 39 11 41
REMARK Flexibility Score: inf
ROOT
ATOM      1  O   UNL     1     110.153 108.489 109.372  1.00  0.00    -0.454 OA
ENDROOT
BRANCH   1   2
ATOM      2  C   UNL     1     110.341 109.249 108.209  1.00  0.00     0.214 A 
ATOM      3  C   UNL     1     109.953 108.775 106.939  1.00  0.00     0.180 A 
ATOM      4  O   UNL     1     110.260 109.476 105.855  1.00  0.00    -0.452 OA
ATOM      5  C   UNL     1     110.943 110.508 108.305  1.00  0.00     0.239 A 
ATOM      6  C   UNL     1     110.864 110.658 105.895  1.00  0.00     0.146 A 
ATOM      7  O   UNL     1     111.292 110.917 109.444  1.00  0.00    -0.285 OA
ATOM      8  C   UNL     1     111.193 111.265 107.137  1.00  0.00     0.111 A 
ATOM      9  C   UNL     1     111.167 111.295 104.690  1.00  0.00     0.094 A 
ATOM     10  C   UNL     1     111.788 112.563 107.123  1.00  0.00     0.134 A 
ATOM     11  C   UNL     1     111.803 112.539 104.689  1.00  0.00     0.123 A 
ATOM     12  C   UNL     1     112.110 113.161 105.898  1.00  0.00     0.093 A 
BRANCH   3  13
ATOM     13  C   UNL     1     109.199 107.516 106.763  1.00  0.00     0.025 A 
ATOM     14  C   UNL     1     109.889 106.297 106.669  1.00  0.00     0.016 A 
ATOM     15  C   UNL     1     109.188 105.101 106.501  1.00  0.00     0.051 A 
ATOM     16  C   UNL     1     107.789 105.107 106.412  1.00  0.00     0.157 A 
ATOM     17  C   UNL     1     107.799 107.522 106.645  1.00  0.00     0.062 A 
ATOM     18  C   UNL     1     107.092 106.326 106.481  1.00  0.00     0.158 A 
BRANCH  16  19
ATOM     19  O   UNL     1     107.091 103.911 106.252  1.00  0.00    -0.504 OA
ATOM     20  H   UNL     1     107.425 103.180 105.633  1.00  0.00     0.293 HD
ENDBRANCH  16  19
BRANCH  18  21
ATOM     21  O   UNL     1     105.701 106.367 106.387  1.00  0.00    -0.504 OA
ATOM     22  H   UNL     1     105.214 106.147 105.527  1.00  0.00     0.293 HD
ENDBRANCH  18  21
ENDBRANCH   3  13
BRANCH  10  23
ATOM     23  O   UNL     1     112.055 113.310 108.272  1.00  0.00    -0.507 OA
ATOM     24  H   UNL     1     111.972 114.313 108.340  1.00  0.00     0.293 HD
ENDBRANCH  10  23
BRANCH  11  25
ATOM     25  O   UNL     1     112.125 113.169 103.489  1.00  0.00    -0.508 OA
ATOM     26  H   UNL     1     112.159 112.659 102.615  1.00  0.00     0.293 HD
ENDBRANCH  11  25
ENDBRANCH   1   2
BRANCH   1  27
ATOM     27  C   UNL     1     108.872 108.287 109.978  1.00  0.00     0.339 C 
ATOM     28  C   UNL     1     108.981 108.154 111.507  1.00  0.00     0.214 C 
ATOM     29  O   UNL     1     107.962 109.302 109.591  1.00  0.00    -0.332 OA
ATOM     30  C   UNL     1     109.419 109.478 112.141  1.00  0.00     0.180 C 
ATOM     31  C   UNL     1     108.247 110.591 110.122  1.00  0.00     0.179 C 
ATOM     32  C   UNL     1     108.512 110.626 111.655  1.00  0.00     0.177 C 
BRANCH  28  33
ATOM     33  O   UNL     1     109.886 107.136 111.853  1.00  0.00    -0.384 OA
ATOM     34  H   UNL     1     110.599 107.140 111.162  1.00  0.00     0.211 HD
ENDBRANCH  28  33
BRANCH  30  35
ATOM     35  O   UNL     1     110.762 109.761 111.845  1.00  0.00    -0.387 OA
ATOM     36  H   UNL     1     111.113 110.327 112.580  1.00  0.00     0.211 HD
ENDBRANCH  30  35
BRANCH  31  37
ATOM     37  C   UNL     1     109.238 111.396 109.250  1.00  0.00     0.191 C 
BRANCH  37  38
ATOM     38  O   UNL     1     108.605 112.358 108.453  1.00  0.00    -0.394 OA
ATOM     39  H   UNL     1     107.633 112.153 108.464  1.00  0.00     0.210 HD
ENDBRANCH  37  38
ENDBRANCH  31  37
BRANCH  32  40
ATOM     40  O   UNL     1     107.277 110.548 112.324  1.00  0.00    -0.387 OA
ATOM     41  H   UNL     1     107.193 111.366 112.879  1.00  0.00     0.211 HD
ENDBRANCH  32  40
ENDBRANCH   1  27
TORSDOF 12
ENDMDL
MODEL 2
REMARK VINA RESULT:    25.201      1.811      6.411
REMARK INTER + INTRA:          42.505
REMARK INTER:                  41.257
REMARK INTRA:                   1.249
REMARK UNBOUND:                 5.518
REMARK SMILES O=c1c(O[C@@H]2O[C@H](CO)[C@@H](O)[C@H](O)[C@@H]2O)c(-c2ccc(O)c(O)c2)oc2cc(O)cc(O)c12
REMARK SMILES IDX 4 1 3 2 16 3 25 4 2 5 26 6 1 7 33 8 27 9 31 10 28 11 30 12
REMARK SMILES IDX 17 13 18 14 19 15 20 16 24 17 22 18 21 19 23 21 32 23 29 25
REMARK SMILES IDX 5 27 14 28 6 29 12 30 7 31 10 32 15 33 13 35 8 37 9 38 11 40
REMARK H PARENT 21 20 23 22 32 24 29 26 15 34 13 36 9 39 11 41
REMARK Flexibility Score: inf
ROOT
ATOM      1  O   UNL     1     109.362 109.694 106.791  1.00  0.00    -0.454 OA
ENDROOT
BRANCH   1   2
ATOM      2  C   UNL     1     108.395 108.681 106.855  1.00  0.00     0.214 A 
ATOM      3  C   UNL     1     107.973 108.131 108.083  1.00  0.00     0.180 A 
ATOM      4  O   UNL     1     107.146 107.093 108.088  1.00  0.00    -0.452 OA
ATOM      5  C   UNL     1     107.840 108.189 105.668  1.00  0.00     0.239 A 
ATOM      6  C   UNL     1     106.625 106.569 106.985  1.00  0.00     0.146 A 
ATOM      7  O   UNL     1     108.230 108.682 104.578  1.00  0.00    -0.285 OA
ATOM      8  C   UNL     1     106.905 107.128 105.710  1.00  0.00     0.111 A 
ATOM      9  C   UNL     1     105.789 105.456 107.105  1.00  0.00     0.094 A 
ATOM     10  C   UNL     1     106.270 106.561 104.564  1.00  0.00     0.134 A 
ATOM     11  C   UNL     1     105.220 104.875 105.970  1.00  0.00     0.123 A 
ATOM     12  C   UNL     1     105.465 105.425 104.713  1.00  0.00     0.093 A 
BRANCH   3  13
ATOM     13  C   UNL     1     108.412 108.677 109.385  1.00  0.00     0.025 A 
ATOM     14  C   UNL     1     109.683 108.351 109.884  1.00  0.00     0.016 A 
ATOM     15  C   UNL     1     110.109 108.860 111.114  1.00  0.00     0.051 A 
ATOM     16  C   UNL     1     109.266 109.691 111.865  1.00  0.00     0.157 A 
ATOM     17  C   UNL     1     107.560 109.487 110.154  1.00  0.00     0.062 A 
ATOM     18  C   UNL     1     107.984 110.002 111.383  1.00  0.00     0.158 A 
BRANCH  16  19
ATOM     19  O   UNL     1     109.697 110.202 113.089  1.00  0.00    -0.504 OA
ATOM     20  H   UNL     1     110.683 110.277 113.316  1.00  0.00     0.293 HD
ENDBRANCH  16  19
BRANCH  18  21
ATOM     21  O   UNL     1     107.118 110.818 112.111  1.00  0.00    -0.504 OA
ATOM     22  H   UNL     1     106.823 110.586 113.052  1.00  0.00     0.293 HD
ENDBRANCH  18  21
ENDBRANCH   3  13
BRANCH  10  23
ATOM     23  O   UNL     1     106.377 107.086 103.274  1.00  0.00    -0.507 OA
ATOM     24  H   UNL     1     106.961 106.708 102.544  1.00  0.00     0.293 HD
ENDBRANCH  10  23
BRANCH  11  25
ATOM     25  O   UNL     1     104.402 103.753 106.082  1.00  0.00    -0.508 OA
ATOM     26  H   UNL     1     103.427 103.778 105.808  1.00  0.00     0.293 HD
ENDBRANCH  11  25
ENDBRANCH   1   2
BRANCH   1  27
ATOM     27  C   UNL     1     110.244 110.006 107.873  1.00  0.00     0.339 C 
ATOM     28  C   UNL     1     111.694 110.187 107.392  1.00  0.00     0.214 C 
ATOM     29  O   UNL     1     109.776 111.129 108.601  1.00  0.00    -0.332 OA
ATOM     30  C   UNL     1     111.827 111.435 106.514  1.00  0.00     0.180 C 
ATOM     31  C   UNL     1     109.853 112.366 107.902  1.00  0.00     0.179 C 
ATOM     32  C   UNL     1     111.228 112.659 107.235  1.00  0.00     0.177 C 
BRANCH  28  33
ATOM     33  O   UNL     1     112.125 109.054 106.681  1.00  0.00    -0.384 OA
ATOM     34  H   UNL     1     112.658 109.384 105.912  1.00  0.00     0.211 HD
ENDBRANCH  28  33
BRANCH  30  35
ATOM     35  O   UNL     1     111.200 111.248 105.271  1.00  0.00    -0.387 OA
ATOM     36  H   UNL     1     110.323 111.709 105.312  1.00  0.00     0.211 HD
ENDBRANCH  30  35
BRANCH  31  37
ATOM     37  C   UNL     1     108.609 112.640 107.026  1.00  0.00     0.191 C 
BRANCH  37  38
ATOM     38  O   UNL     1     107.454 112.009 107.506  1.00  0.00    -0.394 OA
ATOM     39  H   UNL     1     107.643 111.729 108.440  1.00  0.00     0.210 HD
ENDBRANCH  37  38
ENDBRANCH  31  37
BRANCH  32  40
ATOM     40  O   UNL     1     112.125 113.087 108.231  1.00  0.00    -0.387 OA
ATOM     41  H   UNL     1     112.841 113.604 107.777  1.00  0.00     0.211 HD
ENDBRANCH  32  40
ENDBRANCH   1  27
TORSDOF 12
ENDMDL
