MODEL 1
REMARK VINA RESULT:    -3.574      0.000      0.000
REMARK INTER + INTRA:          -3.805
REMARK INTER:                  -3.783
REMARK INTRA:                  -0.022
REMARK UNBOUND:                -0.022
REMARK SMILES O=C([O-])c1cccnc1
REMARK SMILES IDX 4 1 5 2 9 3 6 4 8 5 7 6 2 7 1 8 3 9
REMARK H PARENT
REMARK Flexibility Score: inf
ROOT
ATOM      1  C   UNL     1      26.692   8.238  25.709  1.00  0.00     0.016 A 
ATOM      2  C   UNL     1      25.494   7.508  25.625  1.00  0.00     0.013 A 
ATOM      3  C   UNL     1      26.695   9.570  25.257  1.00  0.00     0.120 A 
ATOM      4  C   UNL     1      24.345   8.104  25.103  1.00  0.00     0.021 A 
ATOM      5  N   UNL     1      25.562  10.125  24.752  1.00  0.00    -0.264 NA
ATOM      6  C   UNL     1      24.398   9.428  24.666  1.00  0.00     0.111 A 
ENDROOT
BRANCH   1   7
ATOM      7  C   UNL     1      27.921   7.626  26.259  1.00  0.00     0.073 C 
ATOM      8  O   UNL     1      28.117   6.385  26.162  1.00  0.00    -0.545 OA
ATOM      9  O   UNL     1      28.876   8.413  26.893  1.00  0.00    -0.545 OA
ENDBRANCH   1   7
TORSDOF 1
ENDMDL
MODEL 2
REMARK VINA RESULT:    -3.555     16.868     17.666
REMARK INTER + INTRA:          -3.785
REMARK INTER:                  -3.764
REMARK INTRA:                  -0.021
REMARK UNBOUND:                -0.022
REMARK SMILES O=C([O-])c1cccnc1
REMARK SMILES IDX 4 1 5 2 9 3 6 4 8 5 7 6 2 7 1 8 3 9
REMARK H PARENT
REMARK Flexibility Score: inf
ROOT
ATOM      1  C   UNL     1      25.787  -8.620  30.047  1.00  0.00     0.016 A 
ATOM      2  C   UNL     1      24.927  -7.836  29.259  1.00  0.00     0.013 A 
ATOM      3  C   UNL     1      26.788  -9.366  29.403  1.00  0.00     0.120 A 
ATOM      4  C   UNL     1      25.077  -7.810  27.871  1.00  0.00     0.021 A 
ATOM      5  N   UNL     1      26.912  -9.324  28.049  1.00  0.00    -0.264 NA
ATOM      6  C   UNL     1      26.086  -8.568  27.278  1.00  0.00     0.111 A 
ENDROOT
BRANCH   1   7
ATOM      7  C   UNL     1      25.645  -8.661  31.519  1.00  0.00     0.073 C 
ATOM      8  O   UNL     1      25.913  -9.713  32.159  1.00  0.00    -0.545 OA
ATOM      9  O   UNL     1      25.212  -7.539  32.216  1.00  0.00    -0.545 OA
ENDBRANCH   1   7
TORSDOF 1
ENDMDL
MODEL 3
REMARK VINA RESULT:    -3.543      3.235      3.978
REMARK INTER + INTRA:          -3.772
REMARK INTER:                  -3.751
REMARK INTRA:                  -0.022
REMARK UNBOUND:                -0.022
REMARK SMILES O=C([O-])c1cccnc1
REMARK SMILES IDX 4 1 5 2 9 3 6 4 8 5 7 6 2 7 1 8 3 9
REMARK H PARENT
REMARK Flexibility Score: inf
ROOT
ATOM      1  C   UNL     1      25.382   9.225  26.372  1.00  0.00     0.016 A 
ATOM      2  C   UNL     1      25.989   8.306  25.499  1.00  0.00     0.013 A 
ATOM      3  C   UNL     1      26.119   9.683  27.478  1.00  0.00     0.120 A 
ATOM      4  C   UNL     1      27.293   7.869  25.738  1.00  0.00     0.021 A 
ATOM      5  N   UNL     1      27.387   9.239  27.688  1.00  0.00    -0.264 NA
ATOM      6  C   UNL     1      27.984   8.351  26.849  1.00  0.00     0.111 A 
ENDROOT
BRANCH   1   7
ATOM      7  C   UNL     1      24.001   9.701  26.137  1.00  0.00     0.073 C 
ATOM      8  O   UNL     1      23.268  10.043  27.103  1.00  0.00    -0.545 OA
ATOM      9  O   UNL     1      23.494   9.777  24.845  1.00  0.00    -0.545 OA
ENDBRANCH   1   7
TORSDOF 1
ENDMDL
MODEL 4
REMARK VINA RESULT:    -3.502      1.397      1.764
REMARK INTER + INTRA:          -3.729
REMARK INTER:                  -3.708
REMARK INTRA:                  -0.021
REMARK UNBOUND:                -0.022
REMARK SMILES O=C([O-])c1cccnc1
REMARK SMILES IDX 4 1 5 2 9 3 6 4 8 5 7 6 2 7 1 8 3 9
REMARK H PARENT
REMARK Flexibility Score: inf
ROOT
ATOM      1  C   UNL     1      26.352   8.735  26.300  1.00  0.00     0.016 A 
ATOM      2  C   UNL     1      25.467   8.318  25.292  1.00  0.00     0.013 A 
ATOM      3  C   UNL     1      25.889   9.655  27.256  1.00  0.00     0.120 A 
ATOM      4  C   UNL     1      24.163   8.815  25.254  1.00  0.00     0.021 A 
ATOM      5  N   UNL     1      24.615  10.124  27.195  1.00  0.00    -0.264 NA
ATOM      6  C   UNL     1      23.750   9.727  26.224  1.00  0.00     0.111 A 
ENDROOT
BRANCH   1   7
ATOM      7  C   UNL     1      27.738   8.220  26.359  1.00  0.00     0.073 C 
ATOM      8  O   UNL     1      28.680   8.961  26.747  1.00  0.00    -0.545 OA
ATOM      9  O   UNL     1      28.018   6.910  25.985  1.00  0.00    -0.545 OA
ENDBRANCH   1   7
TORSDOF 1
ENDMDL
MODEL 5
REMARK VINA RESULT:    -3.449     17.329     18.154
REMARK INTER + INTRA:          -3.672
REMARK INTER:                  -3.649
REMARK INTRA:                  -0.023
REMARK UNBOUND:                -0.022
REMARK SMILES O=C([O-])c1cccnc1
REMARK SMILES IDX 4 1 5 2 9 3 6 4 8 5 7 6 2 7 1 8 3 9
REMARK H PARENT
REMARK Flexibility Score: inf
ROOT
ATOM      1  C   UNL     1      25.728  -8.711  30.159  1.00  0.00     0.016 A 
ATOM      2  C   UNL     1      25.329  -7.668  31.011  1.00  0.00     0.013 A 
ATOM      3  C   UNL     1      26.239  -9.887  30.735  1.00  0.00     0.120 A 
ATOM      4  C   UNL     1      25.444  -7.812  32.395  1.00  0.00     0.021 A 
ATOM      5  N   UNL     1      26.341  -9.999  32.086  1.00  0.00    -0.264 NA
ATOM      6  C   UNL     1      25.958  -8.997  32.920  1.00  0.00     0.111 A 
ENDROOT
BRANCH   1   7
ATOM      7  C   UNL     1      25.614  -8.580  28.690  1.00  0.00     0.073 C 
ATOM      8  O   UNL     1      24.914  -7.664  28.181  1.00  0.00    -0.545 OA
ATOM      9  O   UNL     1      26.278  -9.468  27.850  1.00  0.00    -0.545 OA
ENDBRANCH   1   7
TORSDOF 1
ENDMDL
MODEL 6
REMARK VINA RESULT:    -3.361      1.956      2.425
REMARK INTER + INTRA:          -3.579
REMARK INTER:                  -3.562
REMARK INTRA:                  -0.018
REMARK UNBOUND:                -0.022
REMARK SMILES O=C([O-])c1cccnc1
REMARK SMILES IDX 4 1 5 2 9 3 6 4 8 5 7 6 2 7 1 8 3 9
REMARK H PARENT
REMARK Flexibility Score: inf
ROOT
ATOM      1  C   UNL     1      28.249   7.214  26.497  1.00  0.00     0.016 A 
ATOM      2  C   UNL     1      27.149   7.194  25.623  1.00  0.00     0.013 A 
ATOM      3  C   UNL     1      28.476   8.374  27.259  1.00  0.00     0.120 A 
ATOM      4  C   UNL     1      26.312   8.306  25.524  1.00  0.00     0.021 A 
ATOM      5  N   UNL     1      27.645   9.444  27.142  1.00  0.00    -0.264 NA
ATOM      6  C   UNL     1      26.579   9.434  26.300  1.00  0.00     0.111 A 
ENDROOT
BRANCH   1   7
ATOM      7  C   UNL     1      29.149   6.046  26.617  1.00  0.00     0.073 C 
ATOM      8  O   UNL     1      28.704   4.932  27.006  1.00  0.00    -0.545 OA
ATOM      9  O   UNL     1      30.498   6.161  26.304  1.00  0.00    -0.545 OA
ENDBRANCH   1   7
TORSDOF 1
ENDMDL
MODEL 7
REMARK VINA RESULT:    -3.340     16.339     16.957
REMARK INTER + INTRA:          -3.557
REMARK INTER:                  -3.540
REMARK INTRA:                  -0.017
REMARK UNBOUND:                -0.022
REMARK SMILES O=C([O-])c1cccnc1
REMARK SMILES IDX 4 1 5 2 9 3 6 4 8 5 7 6 2 7 1 8 3 9
REMARK H PARENT
REMARK Flexibility Score: inf
ROOT
ATOM      1  C   UNL     1      26.788  -8.255  26.630  1.00  0.00     0.016 A 
ATOM      2  C   UNL     1      25.622  -7.534  26.939  1.00  0.00     0.013 A 
ATOM      3  C   UNL     1      27.288  -9.157  27.585  1.00  0.00     0.120 A 
ATOM      4  C   UNL     1      24.988  -7.720  28.168  1.00  0.00     0.021 A 
ATOM      5  N   UNL     1      26.651  -9.319  28.775  1.00  0.00    -0.264 NA
ATOM      6  C   UNL     1      25.522  -8.627  29.084  1.00  0.00     0.111 A 
ENDROOT
BRANCH   1   7
ATOM      7  C   UNL     1      27.475  -8.073  25.333  1.00  0.00     0.073 C 
ATOM      8  O   UNL     1      26.909  -8.401  24.256  1.00  0.00    -0.545 OA
ATOM      9  O   UNL     1      28.757  -7.537  25.285  1.00  0.00    -0.545 OA
ENDBRANCH   1   7
TORSDOF 1
ENDMDL
MODEL 8
REMARK VINA RESULT:    -3.312      2.780      3.751
REMARK INTER + INTRA:          -3.527
REMARK INTER:                  -3.511
REMARK INTRA:                  -0.016
REMARK UNBOUND:                -0.022
REMARK SMILES O=C([O-])c1cccnc1
REMARK SMILES IDX 4 1 5 2 9 3 6 4 8 5 7 6 2 7 1 8 3 9
REMARK H PARENT
REMARK Flexibility Score: inf
ROOT
ATOM      1  C   UNL     1      25.771   8.744  26.035  1.00  0.00     0.016 A 
ATOM      2  C   UNL     1      27.038   8.184  25.800  1.00  0.00     0.013 A 
ATOM      3  C   UNL     1      25.613   9.598  27.140  1.00  0.00     0.120 A 
ATOM      4  C   UNL     1      28.104   8.479  26.652  1.00  0.00     0.021 A 
ATOM      5  N   UNL     1      26.667   9.868  27.955  1.00  0.00    -0.264 NA
ATOM      6  C   UNL     1      27.897   9.332  27.736  1.00  0.00     0.111 A 
ENDROOT
BRANCH   1   7
ATOM      7  C   UNL     1      24.629   8.444  25.144  1.00  0.00     0.073 C 
ATOM      8  O   UNL     1      24.238   9.292  24.297  1.00  0.00    -0.545 OA
ATOM      9  O   UNL     1      23.970   7.223  25.231  1.00  0.00    -0.545 OA
ENDBRANCH   1   7
TORSDOF 1
ENDMDL
MODEL 9
REMARK VINA RESULT:    -3.261      3.330      5.009
REMARK INTER + INTRA:          -3.474
REMARK INTER:                  -3.451
REMARK INTRA:                  -0.023
REMARK UNBOUND:                -0.022
REMARK SMILES O=C([O-])c1cccnc1
REMARK SMILES IDX 4 1 5 2 9 3 6 4 8 5 7 6 2 7 1 8 3 9
REMARK H PARENT
REMARK Flexibility Score: inf
ROOT
ATOM      1  C   UNL     1      28.642   6.559  26.965  1.00  0.00     0.016 A 
ATOM      2  C   UNL     1      29.169   5.279  27.205  1.00  0.00     0.013 A 
ATOM      3  C   UNL     1      29.203   7.651  27.649  1.00  0.00     0.120 A 
ATOM      4  C   UNL     1      30.224   5.112  28.104  1.00  0.00     0.021 A 
ATOM      5  N   UNL     1      30.229   7.461  28.521  1.00  0.00    -0.264 NA
ATOM      6  C   UNL     1      30.747   6.227  28.760  1.00  0.00     0.111 A 
ENDROOT
BRANCH   1   7
ATOM      7  C   UNL     1      27.525   6.758  26.016  1.00  0.00     0.073 C 
ATOM      8  O   UNL     1      27.254   7.908  25.577  1.00  0.00    -0.545 OA
ATOM      9  O   UNL     1      26.759   5.677  25.595  1.00  0.00    -0.545 OA
ENDBRANCH   1   7
TORSDOF 1
ENDMDL
