MODEL 1
REMARK VINA RESULT:     0.000      0.000      0.000
REMARK INTER + INTRA:          -1.850
REMARK INTER:                   0.000
REMARK INTRA:                  -1.850
REMARK UNBOUND:                -1.850
REMARK SMILES CCCCCCCCCCCC(=O)[O-]
REMARK SMILES IDX 7 1 8 2 9 3 10 4 11 5 12 6 13 7 14 8 6 9 5 10 4 11 3 12 2 13
REMARK SMILES IDX 1 14
REMARK H PARENT
REMARK Flexibility Score: inf
ROOT
ATOM      1  C   UNL     1     172.321 188.202 184.492  1.00  0.00     0.000 C 
ENDROOT
BRANCH   1   2
ATOM      2  C   UNL     1     173.739 187.652 184.256  1.00  0.00     0.000 C 
BRANCH   2   3
ATOM      3  C   UNL     1     174.823 188.185 185.217  1.00  0.00     0.000 C 
BRANCH   3   4
ATOM      4  C   UNL     1     174.289 188.937 186.449  1.00  0.00     0.006 C 
BRANCH   4   5
ATOM      5  C   UNL     1     174.282 188.074 187.717  1.00  0.00     0.053 C 
BRANCH   5   6
ATOM      6  C   UNL     1     172.943 188.132 188.380  1.00  0.00     0.041 C 
ATOM      7  O   UNL     1     172.068 188.942 187.974  1.00  0.00    -0.550 OA
ATOM      8  O   UNL     1     172.642 187.258 189.417  1.00  0.00    -0.550 OA
ENDBRANCH   5   6
ENDBRANCH   4   5
ENDBRANCH   3   4
ENDBRANCH   2   3
ENDBRANCH   1   2
BRANCH   1   9
ATOM      9  C   UNL     1     171.336 187.125 184.977  1.00  0.00     0.000 C 
BRANCH   9  10
ATOM     10  C   UNL     1     171.988 185.737 185.117  1.00  0.00    -0.000 C 
BRANCH  10  11
ATOM     11  C   UNL     1     171.922 185.116 186.528  1.00  0.00    -0.000 C 
BRANCH  11  12
ATOM     12  C   UNL     1     173.256 184.566 187.063  1.00  0.00    -0.000 C 
BRANCH  12  13
ATOM     13  C   UNL     1     174.319 184.412 185.966  1.00  0.00    -0.003 C 
ATOM     14  C   UNL     1     175.701 184.801 186.482  1.00  0.00     0.004 C 
ENDBRANCH  12  13
ENDBRANCH  11  12
ENDBRANCH  10  11
ENDBRANCH   9  10
ENDBRANCH   1   9
TORSDOF 10
ENDMDL
MODEL 2
REMARK VINA RESULT:     0.001      7.839      9.561
REMARK INTER + INTRA:          -1.849
REMARK INTER:                   0.000
REMARK INTRA:                  -1.849
REMARK UNBOUND:                -1.850
REMARK SMILES CCCCCCCCCCCC(=O)[O-]
REMARK SMILES IDX 7 1 8 2 9 3 10 4 11 5 12 6 13 7 14 8 6 9 5 10 4 11 3 12 2 13
REMARK SMILES IDX 1 14
REMARK H PARENT
REMARK Flexibility Score: inf
ROOT
ATOM      1  C   UNL     1     167.235 193.164 188.391  1.00  0.00     0.000 C 
ENDROOT
BRANCH   1   2
ATOM      2  C   UNL     1     165.716 193.403 188.441  1.00  0.00     0.000 C 
BRANCH   2   3
ATOM      3  C   UNL     1     165.042 193.658 187.075  1.00  0.00     0.000 C 
BRANCH   3   4
ATOM      4  C   UNL     1     165.913 193.335 185.848  1.00  0.00     0.006 C 
BRANCH   4   5
ATOM      5  C   UNL     1     165.571 191.982 185.214  1.00  0.00     0.053 C 
BRANCH   5   6
ATOM      6  C   UNL     1     166.810 191.165 185.025  1.00  0.00     0.041 C 
ATOM      7  O   UNL     1     167.943 191.677 185.225  1.00  0.00    -0.550 OA
ATOM      8  O   UNL     1     166.713 189.825 184.674  1.00  0.00    -0.550 OA
ENDBRANCH   5   6
ENDBRANCH   4   5
ENDBRANCH   3   4
ENDBRANCH   2   3
ENDBRANCH   1   2
BRANCH   1   9
ATOM      9  C   UNL     1     167.627 191.732 188.791  1.00  0.00     0.000 C 
BRANCH   9  10
ATOM     10  C   UNL     1     166.413 190.858 189.155  1.00  0.00    -0.000 C 
BRANCH  10  11
ATOM     11  C   UNL     1     166.240 189.581 188.308  1.00  0.00    -0.000 C 
BRANCH  11  12
ATOM     12  C   UNL     1     164.827 189.362 187.738  1.00  0.00    -0.000 C 
BRANCH  12  13
ATOM     13  C   UNL     1     163.769 190.248 188.411  1.00  0.00    -0.003 C 
ATOM     14  C   UNL     1     162.748 190.752 187.396  1.00  0.00     0.004 C 
ENDBRANCH  12  13
ENDBRANCH  11  12
ENDBRANCH  10  11
ENDBRANCH   9  10
ENDBRANCH   1   9
TORSDOF 10
ENDMDL
MODEL 3
REMARK VINA RESULT:     0.001      8.544     10.088
REMARK INTER + INTRA:          -1.849
REMARK INTER:                   0.000
REMARK INTRA:                  -1.849
REMARK UNBOUND:                -1.850
REMARK SMILES CCCCCCCCCCCC(=O)[O-]
REMARK SMILES IDX 7 1 8 2 9 3 10 4 11 5 12 6 13 7 14 8 6 9 5 10 4 11 3 12 2 13
REMARK SMILES IDX 1 14
REMARK H PARENT
REMARK Flexibility Score: inf
ROOT
ATOM      1  C   UNL     1     163.156 190.216 191.693  1.00  0.00     0.000 C 
ENDROOT
BRANCH   1   2
ATOM      2  C   UNL     1     163.389 190.369 190.180  1.00  0.00     0.000 C 
BRANCH   2   3
ATOM      3  C   UNL     1     163.946 191.738 189.733  1.00  0.00     0.000 C 
BRANCH   3   4
ATOM      4  C   UNL     1     164.479 192.628 190.869  1.00  0.00     0.006 C 
BRANCH   4   5
ATOM      5  C   UNL     1     166.007 192.586 190.991  1.00  0.00     0.053 C 
BRANCH   5   6
ATOM      6  C   UNL     1     166.410 192.315 192.406  1.00  0.00     0.041 C 
ATOM      7  O   UNL     1     165.546 192.311 193.322  1.00  0.00    -0.550 OA
ATOM      8  O   UNL     1     167.733 192.018 192.707  1.00  0.00    -0.550 OA
ENDBRANCH   5   6
ENDBRANCH   4   5
ENDBRANCH   3   4
ENDBRANCH   2   3
ENDBRANCH   1   2
BRANCH   1   9
ATOM      9  C   UNL     1     164.097 189.187 192.342  1.00  0.00     0.000 C 
BRANCH   9  10
ATOM     10  C   UNL     1     165.057 188.533 191.330  1.00  0.00    -0.000 C 
BRANCH  10  11
ATOM     11  C   UNL     1     166.558 188.712 191.634  1.00  0.00    -0.000 C 
BRANCH  11  12
ATOM     12  C   UNL     1     167.412 189.192 190.447  1.00  0.00    -0.000 C 
BRANCH  12  13
ATOM     13  C   UNL     1     166.688 189.058 189.100  1.00  0.00    -0.003 C 
ATOM     14  C   UNL     1     166.984 190.250 188.195  1.00  0.00     0.004 C 
ENDBRANCH  12  13
ENDBRANCH  11  12
ENDBRANCH  10  11
ENDBRANCH   9  10
ENDBRANCH   1   9
TORSDOF 10
ENDMDL
MODEL 4
REMARK VINA RESULT:     0.001      9.397     11.131
REMARK INTER + INTRA:          -1.848
REMARK INTER:                   0.000
REMARK INTRA:                  -1.848
REMARK UNBOUND:                -1.850
REMARK SMILES CCCCCCCCCCCC(=O)[O-]
REMARK SMILES IDX 7 1 8 2 9 3 10 4 11 5 12 6 13 7 14 8 6 9 5 10 4 11 3 12 2 13
REMARK SMILES IDX 1 14
REMARK H PARENT
REMARK Flexibility Score: inf
ROOT
ATOM      1  C   UNL     1     167.956 191.824 193.053  1.00  0.00     0.000 C 
ENDROOT
BRANCH   1   2
ATOM      2  C   UNL     1     167.876 190.680 192.026  1.00  0.00     0.000 C 
BRANCH   2   3
ATOM      3  C   UNL     1     167.588 189.283 192.615  1.00  0.00     0.000 C 
BRANCH   3   4
ATOM      4  C   UNL     1     167.124 189.276 194.082  1.00  0.00     0.006 C 
BRANCH   4   5
ATOM      5  C   UNL     1     165.606 189.109 194.226  1.00  0.00     0.053 C 
BRANCH   5   6
ATOM      6  C   UNL     1     165.048 190.164 195.128  1.00  0.00     0.041 C 
ATOM      7  O   UNL     1     165.821 190.923 195.770  1.00  0.00    -0.550 OA
ATOM      8  O   UNL     1     163.673 190.342 195.223  1.00  0.00    -0.550 OA
ENDBRANCH   5   6
ENDBRANCH   4   5
ENDBRANCH   3   4
ENDBRANCH   2   3
ENDBRANCH   1   2
BRANCH   1   9
ATOM      9  C   UNL     1     166.807 192.836 192.910  1.00  0.00     0.000 C 
BRANCH   9  10
ATOM     10  C   UNL     1     165.837 192.483 191.767  1.00  0.00    -0.000 C 
BRANCH  10  11
ATOM     11  C   UNL     1     164.367 192.281 192.187  1.00  0.00    -0.000 C 
BRANCH  11  12
ATOM     12  C   UNL     1     163.705 190.998 191.652  1.00  0.00    -0.000 C 
BRANCH  12  13
ATOM     13  C   UNL     1     164.508 190.343 190.519  1.00  0.00    -0.003 C 
ATOM     14  C   UNL     1     164.479 188.821 190.635  1.00  0.00     0.004 C 
ENDBRANCH  12  13
ENDBRANCH  11  12
ENDBRANCH  10  11
ENDBRANCH   9  10
ENDBRANCH   1   9
TORSDOF 10
ENDMDL
MODEL 5
REMARK VINA RESULT:     0.001      7.590      9.375
REMARK INTER + INTRA:          -1.848
REMARK INTER:                   0.000
REMARK INTRA:                  -1.848
REMARK UNBOUND:                -1.850
REMARK SMILES CCCCCCCCCCCC(=O)[O-]
REMARK SMILES IDX 7 1 8 2 9 3 10 4 11 5 12 6 13 7 14 8 6 9 5 10 4 11 3 12 2 13
REMARK SMILES IDX 1 14
REMARK H PARENT
REMARK Flexibility Score: inf
ROOT
ATOM      1  C   UNL     1     170.894 194.512 187.052  1.00  0.00     0.000 C 
ENDROOT
BRANCH   1   2
ATOM      2  C   UNL     1     170.264 195.041 188.353  1.00  0.00     0.000 C 
BRANCH   2   3
ATOM      3  C   UNL     1     169.151 196.094 188.167  1.00  0.00     0.000 C 
BRANCH   3   4
ATOM      4  C   UNL     1     168.621 196.236 186.729  1.00  0.00     0.006 C 
BRANCH   4   5
ATOM      5  C   UNL     1     167.293 195.503 186.509  1.00  0.00     0.053 C 
BRANCH   5   6
ATOM      6  C   UNL     1     167.374 194.628 185.298  1.00  0.00     0.041 C 
ATOM      7  O   UNL     1     168.371 194.697 184.532  1.00  0.00    -0.550 OA
ATOM      8  O   UNL     1     166.371 193.702 185.041  1.00  0.00    -0.550 OA
ENDBRANCH   5   6
ENDBRANCH   4   5
ENDBRANCH   3   4
ENDBRANCH   2   3
ENDBRANCH   1   2
BRANCH   1   9
ATOM      9  C   UNL     1     170.582 193.027 186.799  1.00  0.00     0.000 C 
BRANCH   9  10
ATOM     10  C   UNL     1     169.719 192.399 187.909  1.00  0.00    -0.000 C 
BRANCH  10  11
ATOM     11  C   UNL     1     168.378 191.797 187.441  1.00  0.00    -0.000 C 
BRANCH  11  12
ATOM     12  C   UNL     1     167.147 192.230 188.258  1.00  0.00    -0.000 C 
BRANCH  12  13
ATOM     13  C   UNL     1     167.521 192.880 189.597  1.00  0.00    -0.003 C 
ATOM     14  C   UNL     1     166.592 194.047 189.920  1.00  0.00     0.004 C 
ENDBRANCH  12  13
ENDBRANCH  11  12
ENDBRANCH  10  11
ENDBRANCH   9  10
ENDBRANCH   1   9
TORSDOF 10
ENDMDL
MODEL 6
REMARK VINA RESULT:     0.002     11.804     13.602
REMARK INTER + INTRA:          -1.848
REMARK INTER:                   0.000
REMARK INTRA:                  -1.848
REMARK UNBOUND:                -1.850
REMARK SMILES CCCCCCCCCCCC(=O)[O-]
REMARK SMILES IDX 7 1 8 2 9 3 10 4 11 5 12 6 13 7 14 8 6 9 5 10 4 11 3 12 2 13
REMARK SMILES IDX 1 14
REMARK H PARENT
REMARK Flexibility Score: inf
ROOT
ATOM      1  C   UNL     1     164.429 193.142 188.953  1.00  0.00     0.000 C 
ENDROOT
BRANCH   1   2
ATOM      2  C   UNL     1     164.174 194.623 189.282  1.00  0.00     0.000 C 
BRANCH   2   3
ATOM      3  C   UNL     1     162.706 195.083 189.161  1.00  0.00     0.000 C 
BRANCH   3   4
ATOM      4  C   UNL     1     161.676 193.948 189.027  1.00  0.00     0.006 C 
BRANCH   4   5
ATOM      5  C   UNL     1     160.939 193.654 190.339  1.00  0.00     0.053 C 
BRANCH   5   6
ATOM      6  C   UNL     1     160.987 192.192 190.649  1.00  0.00     0.041 C 
ATOM      7  O   UNL     1     161.453 191.380 189.806  1.00  0.00    -0.550 OA
ATOM      8  O   UNL     1     160.562 191.728 191.888  1.00  0.00    -0.550 OA
ENDBRANCH   5   6
ENDBRANCH   4   5
ENDBRANCH   3   4
ENDBRANCH   2   3
ENDBRANCH   1   2
BRANCH   1   9
ATOM      9  C   UNL     1     164.880 192.326 190.177  1.00  0.00     0.000 C 
BRANCH   9  10
ATOM     10  C   UNL     1     164.952 193.169 191.464  1.00  0.00    -0.000 C 
BRANCH  10  11
ATOM     11  C   UNL     1     164.043 192.695 192.616  1.00  0.00    -0.000 C 
BRANCH  11  12
ATOM     12  C   UNL     1     163.214 193.802 193.292  1.00  0.00    -0.000 C 
BRANCH  12  13
ATOM     13  C   UNL     1     163.673 195.213 192.898  1.00  0.00    -0.003 C 
ATOM     14  C   UNL     1     162.480 196.147 192.713  1.00  0.00     0.004 C 
ENDBRANCH  12  13
ENDBRANCH  11  12
ENDBRANCH  10  11
ENDBRANCH   9  10
ENDBRANCH   1   9
TORSDOF 10
ENDMDL
MODEL 7
REMARK VINA RESULT:     0.003     12.910     14.532
REMARK INTER + INTRA:          -1.846
REMARK INTER:                   0.000
REMARK INTRA:                  -1.846
REMARK UNBOUND:                -1.850
REMARK SMILES CCCCCCCCCCCC(=O)[O-]
REMARK SMILES IDX 7 1 8 2 9 3 10 4 11 5 12 6 13 7 14 8 6 9 5 10 4 11 3 12 2 13
REMARK SMILES IDX 1 14
REMARK H PARENT
REMARK Flexibility Score: inf
ROOT
ATOM      1  C   UNL     1     161.560 193.684 189.927  1.00  0.00     0.000 C 
ENDROOT
BRANCH   1   2
ATOM      2  C   UNL     1     162.026 193.281 191.337  1.00  0.00     0.000 C 
BRANCH   2   3
ATOM      3  C   UNL     1     161.515 194.180 192.483  1.00  0.00     0.000 C 
BRANCH   3   4
ATOM      4  C   UNL     1     160.904 195.521 192.038  1.00  0.00     0.006 C 
BRANCH   4   5
ATOM      5  C   UNL     1     161.875 196.698 192.190  1.00  0.00     0.053 C 
BRANCH   5   6
ATOM      6  C   UNL     1     161.950 197.480 190.917  1.00  0.00     0.041 C 
ATOM      7  O   UNL     1     161.152 197.236 189.975  1.00  0.00    -0.550 OA
ATOM      8  O   UNL     1     162.870 198.513 190.789  1.00  0.00    -0.550 OA
ENDBRANCH   5   6
ENDBRANCH   4   5
ENDBRANCH   3   4
ENDBRANCH   2   3
ENDBRANCH   1   2
BRANCH   1   9
ATOM      9  C   UNL     1     162.714 194.156 189.028  1.00  0.00     0.000 C 
BRANCH   9  10
ATOM     10  C   UNL     1     164.079 194.124 189.740  1.00  0.00    -0.000 C 
BRANCH  10  11
ATOM     11  C   UNL     1     164.811 195.479 189.828  1.00  0.00    -0.000 C 
BRANCH  11  12
ATOM     12  C   UNL     1     165.371 195.829 191.219  1.00  0.00    -0.000 C 
BRANCH  12  13
ATOM     13  C   UNL     1     165.377 194.630 192.177  1.00  0.00    -0.003 C 
ATOM     14  C   UNL     1     164.948 195.048 193.581  1.00  0.00     0.004 C 
ENDBRANCH  12  13
ENDBRANCH  11  12
ENDBRANCH  10  11
ENDBRANCH   9  10
ENDBRANCH   1   9
TORSDOF 10
ENDMDL
MODEL 8
REMARK VINA RESULT:     0.006      7.628      9.747
REMARK INTER + INTRA:          -1.841
REMARK INTER:                   0.000
REMARK INTRA:                  -1.841
REMARK UNBOUND:                -1.850
REMARK SMILES CCCCCCCCCCCC(=O)[O-]
REMARK SMILES IDX 7 1 8 2 9 3 10 4 11 5 12 6 13 7 14 8 6 9 5 10 4 11 3 12 2 13
REMARK SMILES IDX 1 14
REMARK H PARENT
REMARK Flexibility Score: inf
ROOT
ATOM      1  C   UNL     1     166.159 189.371 190.495  1.00  0.00     0.000 C 
ENDROOT
BRANCH   1   2
ATOM      2  C   UNL     1     166.786 190.646 189.905  1.00  0.00     0.000 C 
BRANCH   2   3
ATOM      3  C   UNL     1     168.317 190.764 190.064  1.00  0.00     0.000 C 
BRANCH   3   4
ATOM      4  C   UNL     1     168.949 189.766 191.050  1.00  0.00     0.006 C 
BRANCH   4   5
ATOM      5  C   UNL     1     169.204 190.376 192.433  1.00  0.00     0.053 C 
BRANCH   5   6
ATOM      6  C   UNL     1     168.637 189.498 193.504  1.00  0.00     0.041 C 
ATOM      7  O   UNL     1     168.509 189.933 194.678  1.00  0.00    -0.550 OA
ATOM      8  O   UNL     1     168.205 188.215 193.194  1.00  0.00    -0.550 OA
ENDBRANCH   5   6
ENDBRANCH   4   5
ENDBRANCH   3   4
ENDBRANCH   2   3
ENDBRANCH   1   2
BRANCH   1   9
ATOM      9  C   UNL     1     165.270 189.652 191.717  1.00  0.00     0.000 C 
BRANCH   9  10
ATOM     10  C   UNL     1     165.140 191.155 192.029  1.00  0.00    -0.000 C 
BRANCH  10  11
ATOM     11  C   UNL     1     165.548 191.570 193.458  1.00  0.00    -0.000 C 
BRANCH  11  12
ATOM     12  C   UNL     1     166.556 192.730 193.539  1.00  0.00    -0.000 C 
BRANCH  12  13
ATOM     13  C   UNL     1     166.647 193.531 192.232  1.00  0.00    -0.003 C 
ATOM     14  C   UNL     1     168.085 193.954 191.946  1.00  0.00     0.004 C 
ENDBRANCH  12  13
ENDBRANCH  11  12
ENDBRANCH  10  11
ENDBRANCH   9  10
ENDBRANCH   1   9
TORSDOF 10
ENDMDL
MODEL 9
REMARK VINA RESULT:     0.006      5.736      7.470
REMARK INTER + INTRA:          -1.840
REMARK INTER:                   0.000
REMARK INTRA:                  -1.840
REMARK UNBOUND:                -1.850
REMARK SMILES CCCCCCCCCCCC(=O)[O-]
REMARK SMILES IDX 7 1 8 2 9 3 10 4 11 5 12 6 13 7 14 8 6 9 5 10 4 11 3 12 2 13
REMARK SMILES IDX 1 14
REMARK H PARENT
REMARK Flexibility Score: inf
ROOT
ATOM      1  C   UNL     1     167.530 191.870 184.164  1.00  0.00     0.000 C 
ENDROOT
BRANCH   1   2
ATOM      2  C   UNL     1     169.055 192.013 184.014  1.00  0.00     0.000 C 
BRANCH   2   3
ATOM      3  C   UNL     1     169.887 190.854 184.601  1.00  0.00     0.000 C 
BRANCH   3   4
ATOM      4  C   UNL     1     169.083 189.594 184.967  1.00  0.00     0.006 C 
BRANCH   4   5
ATOM      5  C   UNL     1     169.165 188.502 183.893  1.00  0.00     0.053 C 
BRANCH   5   6
ATOM      6  C   UNL     1     167.794 188.039 183.514  1.00  0.00     0.041 C 
ATOM      7  O   UNL     1     167.632 187.291 182.514  1.00  0.00    -0.550 OA
ATOM      8  O   UNL     1     166.700 188.393 184.293  1.00  0.00    -0.550 OA
ENDBRANCH   5   6
ENDBRANCH   4   5
ENDBRANCH   3   4
ENDBRANCH   2   3
ENDBRANCH   1   2
BRANCH   1   9
ATOM      9  C   UNL     1     166.814 191.671 182.817  1.00  0.00     0.000 C 
BRANCH   9  10
ATOM     10  C   UNL     1     167.777 191.706 181.616  1.00  0.00    -0.000 C 
BRANCH  10  11
ATOM     11  C   UNL     1     167.757 190.454 180.717  1.00  0.00    -0.000 C 
BRANCH  11  12
ATOM     12  C   UNL     1     169.138 189.841 180.420  1.00  0.00    -0.000 C 
BRANCH  12  13
ATOM     13  C   UNL     1     170.295 190.796 180.744  1.00  0.00    -0.003 C 
ATOM     14  C   UNL     1     171.479 190.042 181.342  1.00  0.00     0.004 C 
ENDBRANCH  12  13
ENDBRANCH  11  12
ENDBRANCH  10  11
ENDBRANCH   9  10
ENDBRANCH   1   9
TORSDOF 10
ENDMDL
