MODEL 1
REMARK VINA RESULT:    -6.630      0.000      0.000
REMARK INTER + INTRA:          -8.057
REMARK INTER:                  -7.793
REMARK INTRA:                  -0.264
REMARK UNBOUND:                -0.264
REMARK SMILES O=c1cc(-c2ccc(O)c(O)c2)oc2cc(O)cc(O)c12
REMARK SMILES IDX 4 1 3 2 2 3 1 4 21 5 19 6 18 7 16 8 15 9 14 10 13 11 5 12
REMARK SMILES IDX 6 13 7 14 8 15 12 16 10 17 9 18 11 20 20 22 17 24
REMARK H PARENT 9 19 11 21 20 23 17 25
REMARK Flexibility Score: inf
ROOT
ATOM      1  C   UNL     1      10.031  12.183 -16.928  1.00  0.00     0.138 A 
ATOM      2  C   UNL     1      10.874  13.219 -16.503  1.00  0.00     0.100 A 
ATOM      3  C   UNL     1      10.950  14.396 -17.249  1.00  0.00     0.197 A 
ATOM      4  O   UNL     1      11.758  15.285 -16.872  1.00  0.00    -0.289 OA
ATOM      5  C   UNL     1      10.151  14.550 -18.406  1.00  0.00     0.107 A 
ATOM      6  C   UNL     1      10.120  15.719 -19.226  1.00  0.00     0.134 A 
ATOM      7  C   UNL     1       9.361  15.715 -20.404  1.00  0.00     0.093 A 
ATOM      8  C   UNL     1       8.588  14.608 -20.760  1.00  0.00     0.123 A 
ATOM      9  C   UNL     1       8.572  13.482 -19.942  1.00  0.00     0.094 A 
ATOM     10  C   UNL     1       9.345  13.441 -18.779  1.00  0.00     0.146 A 
ATOM     11  O   UNL     1       9.315  12.339 -18.036  1.00  0.00    -0.456 OA
ENDROOT
BRANCH   1  12
ATOM     12  C   UNL     1       9.909  10.911 -16.172  1.00  0.00     0.021 A 
ATOM     13  C   UNL     1      10.793   9.835 -16.384  1.00  0.00     0.016 A 
ATOM     14  C   UNL     1      10.646   8.646 -15.665  1.00  0.00     0.051 A 
ATOM     15  C   UNL     1       9.617   8.505 -14.730  1.00  0.00     0.157 A 
ATOM     16  C   UNL     1       8.867  10.758 -15.240  1.00  0.00     0.062 A 
ATOM     17  C   UNL     1       8.721   9.566 -14.516  1.00  0.00     0.158 A 
BRANCH  15  18
ATOM     18  O   UNL     1       9.499   7.307 -14.027  1.00  0.00    -0.504 OA
ATOM     19  H   UNL     1       8.597   6.907 -13.793  1.00  0.00     0.293 HD
ENDBRANCH  15  18
BRANCH  17  20
ATOM     20  O   UNL     1       7.689   9.431 -13.589  1.00  0.00    -0.504 OA
ATOM     21  H   UNL     1       7.149  10.229 -13.275  1.00  0.00     0.293 HD
ENDBRANCH  17  20
ENDBRANCH   1  12
BRANCH   6  22
ATOM     22  O   UNL     1      10.791  16.907 -18.922  1.00  0.00    -0.507 OA
ATOM     23  H   UNL     1      10.574  17.513 -18.147  1.00  0.00     0.293 HD
ENDBRANCH   6  22
BRANCH   8  24
ATOM     24  O   UNL     1       7.824  14.621 -21.926  1.00  0.00    -0.508 OA
ATOM     25  H   UNL     1       8.167  15.047 -22.780  1.00  0.00     0.293 HD
ENDBRANCH   8  24
TORSDOF 5
ENDMDL
MODEL 2
REMARK VINA RESULT:    -6.564      1.994      7.239
REMARK INTER + INTRA:          -7.979
REMARK INTER:                  -7.667
REMARK INTRA:                  -0.312
REMARK UNBOUND:                -0.264
REMARK SMILES O=c1cc(-c2ccc(O)c(O)c2)oc2cc(O)cc(O)c12
REMARK SMILES IDX 4 1 3 2 2 3 1 4 21 5 19 6 18 7 16 8 15 9 14 10 13 11 5 12
REMARK SMILES IDX 6 13 7 14 8 15 12 16 10 17 9 18 11 20 20 22 17 24
REMARK H PARENT 9 19 11 21 20 23 17 25
REMARK Flexibility Score: inf
ROOT
ATOM      1  C   UNL     1       9.026  13.132 -18.844  1.00  0.00     0.138 A 
ATOM      2  C   UNL     1       9.576  11.885 -19.170  1.00  0.00     0.100 A 
ATOM      3  C   UNL     1       9.684  10.900 -18.189  1.00  0.00     0.197 A 
ATOM      4  O   UNL     1      10.234   9.811 -18.500  1.00  0.00    -0.289 OA
ATOM      5  C   UNL     1       9.204  11.152 -16.881  1.00  0.00     0.107 A 
ATOM      6  C   UNL     1       9.230  10.211 -15.807  1.00  0.00     0.134 A 
ATOM      7  C   UNL     1       8.817  10.611 -14.530  1.00  0.00     0.093 A 
ATOM      8  C   UNL     1       8.324  11.897 -14.301  1.00  0.00     0.123 A 
ATOM      9  C   UNL     1       8.248  12.807 -15.352  1.00  0.00     0.094 A 
ATOM     10  C   UNL     1       8.686  12.450 -16.630  1.00  0.00     0.146 A 
ATOM     11  O   UNL     1       8.612  13.356 -17.601  1.00  0.00    -0.456 OA
ENDROOT
BRANCH   1  12
ATOM     12  C   UNL     1       8.885  14.216 -19.849  1.00  0.00     0.021 A 
ATOM     13  C   UNL     1       8.895  13.950 -21.232  1.00  0.00     0.016 A 
ATOM     14  C   UNL     1       8.770  14.992 -22.154  1.00  0.00     0.051 A 
ATOM     15  C   UNL     1       8.640  16.313 -21.718  1.00  0.00     0.157 A 
ATOM     16  C   UNL     1       8.767  15.549 -19.416  1.00  0.00     0.062 A 
ATOM     17  C   UNL     1       8.641  16.595 -20.342  1.00  0.00     0.158 A 
BRANCH  15  18
ATOM     18  O   UNL     1       8.516  17.331 -22.663  1.00  0.00    -0.504 OA
ATOM     19  H   UNL     1       8.351  17.136 -23.644  1.00  0.00     0.293 HD
ENDBRANCH  15  18
BRANCH  17  20
ATOM     20  O   UNL     1       8.517  17.911 -19.899  1.00  0.00    -0.504 OA
ATOM     21  H   UNL     1       7.962  18.147 -19.084  1.00  0.00     0.293 HD
ENDBRANCH  17  20
ENDBRANCH   1  12
BRANCH   6  22
ATOM     22  O   UNL     1       9.628   8.878 -15.944  1.00  0.00    -0.507 OA
ATOM     23  H   UNL     1      10.331   8.422 -15.383  1.00  0.00     0.293 HD
ENDBRANCH   6  22
BRANCH   8  24
ATOM     24  O   UNL     1       7.900  12.279 -13.030  1.00  0.00    -0.508 OA
ATOM     25  H   UNL     1       7.409  13.152 -12.874  1.00  0.00     0.293 HD
ENDBRANCH   8  24
TORSDOF 5
ENDMDL
MODEL 3
REMARK VINA RESULT:    -6.407      1.198      2.758
REMARK INTER + INTRA:          -7.794
REMARK INTER:                  -7.531
REMARK INTRA:                  -0.264
REMARK UNBOUND:                -0.264
REMARK SMILES O=c1cc(-c2ccc(O)c(O)c2)oc2cc(O)cc(O)c12
REMARK SMILES IDX 4 1 3 2 2 3 1 4 21 5 19 6 18 7 16 8 15 9 14 10 13 11 5 12
REMARK SMILES IDX 6 13 7 14 8 15 12 16 10 17 9 18 11 20 20 22 17 24
REMARK H PARENT 9 19 11 21 20 23 17 25
REMARK Flexibility Score: inf
ROOT
ATOM      1  C   UNL     1       9.203  11.829 -18.060  1.00  0.00     0.138 A 
ATOM      2  C   UNL     1       8.417  11.546 -19.186  1.00  0.00     0.100 A 
ATOM      3  C   UNL     1       8.176  12.546 -20.129  1.00  0.00     0.197 A 
ATOM      4  O   UNL     1       7.421  12.277 -21.099  1.00  0.00    -0.289 OA
ATOM      5  C   UNL     1       8.755  13.827 -19.961  1.00  0.00     0.107 A 
ATOM      6  C   UNL     1       8.608  14.915 -20.874  1.00  0.00     0.134 A 
ATOM      7  C   UNL     1       9.148  16.166 -20.550  1.00  0.00     0.093 A 
ATOM      8  C   UNL     1       9.879  16.353 -19.375  1.00  0.00     0.123 A 
ATOM      9  C   UNL     1      10.072  15.287 -18.502  1.00  0.00     0.094 A 
ATOM     10  C   UNL     1       9.516  14.035 -18.779  1.00  0.00     0.146 A 
ATOM     11  O   UNL     1       9.709  13.049 -17.909  1.00  0.00    -0.456 OA
ENDROOT
BRANCH   1  12
ATOM     12  C   UNL     1       9.493  10.803 -17.027  1.00  0.00     0.021 A 
ATOM     13  C   UNL     1      10.593   9.930 -17.139  1.00  0.00     0.016 A 
ATOM     14  C   UNL     1      10.835   8.967 -16.156  1.00  0.00     0.051 A 
ATOM     15  C   UNL     1       9.986   8.852 -15.052  1.00  0.00     0.157 A 
ATOM     16  C   UNL     1       8.635  10.673 -15.920  1.00  0.00     0.062 A 
ATOM     17  C   UNL     1       8.879   9.708 -14.933  1.00  0.00     0.158 A 
BRANCH  15  18
ATOM     18  O   UNL     1      10.256   7.882 -14.087  1.00  0.00    -0.504 OA
ATOM     19  H   UNL     1      10.057   8.031 -13.104  1.00  0.00     0.293 HD
ENDBRANCH  15  18
BRANCH  17  20
ATOM     20  O   UNL     1       8.025   9.596 -13.837  1.00  0.00    -0.504 OA
ATOM     21  H   UNL     1       8.333   9.823 -12.898  1.00  0.00     0.293 HD
ENDBRANCH  17  20
ENDBRANCH   1  12
BRANCH   6  22
ATOM     22  O   UNL     1       7.964  14.816 -22.112  1.00  0.00    -0.507 OA
ATOM     23  H   UNL     1       8.378  14.443 -22.952  1.00  0.00     0.293 HD
ENDBRANCH   6  22
BRANCH   8  24
ATOM     24  O   UNL     1      10.426  17.598 -19.070  1.00  0.00    -0.508 OA
ATOM     25  H   UNL     1       9.840  18.400 -18.869  1.00  0.00     0.293 HD
ENDBRANCH   8  24
TORSDOF 5
ENDMDL
MODEL 4
REMARK VINA RESULT:    -6.293      2.332      3.447
REMARK INTER + INTRA:          -7.661
REMARK INTER:                  -7.343
REMARK INTRA:                  -0.317
REMARK UNBOUND:                -0.264
REMARK SMILES O=c1cc(-c2ccc(O)c(O)c2)oc2cc(O)cc(O)c12
REMARK SMILES IDX 4 1 3 2 2 3 1 4 21 5 19 6 18 7 16 8 15 9 14 10 13 11 5 12
REMARK SMILES IDX 6 13 7 14 8 15 12 16 10 17 9 18 11 20 20 22 17 24
REMARK H PARENT 9 19 11 21 20 23 17 25
REMARK Flexibility Score: inf
ROOT
ATOM      1  C   UNL     1       7.870  12.846 -17.391  1.00  0.00     0.138 A 
ATOM      2  C   UNL     1       7.361  12.400 -18.618  1.00  0.00     0.100 A 
ATOM      3  C   UNL     1       7.525  13.185 -19.760  1.00  0.00     0.197 A 
ATOM      4  O   UNL     1       7.008  12.784 -20.835  1.00  0.00    -0.289 OA
ATOM      5  C   UNL     1       8.236  14.407 -19.678  1.00  0.00     0.107 A 
ATOM      6  C   UNL     1       8.496  15.274 -20.783  1.00  0.00     0.134 A 
ATOM      7  C   UNL     1       9.124  16.505 -20.560  1.00  0.00     0.093 A 
ATOM      8  C   UNL     1       9.555  16.875 -19.284  1.00  0.00     0.123 A 
ATOM      9  C   UNL     1       9.351  16.015 -18.208  1.00  0.00     0.094 A 
ATOM     10  C   UNL     1       8.695  14.794 -18.391  1.00  0.00     0.146 A 
ATOM     11  O   UNL     1       8.505  14.012 -17.334  1.00  0.00    -0.456 OA
ENDROOT
BRANCH   1  12
ATOM     12  C   UNL     1       7.726  12.050 -16.146  1.00  0.00     0.021 A 
ATOM     13  C   UNL     1       7.178  10.753 -16.154  1.00  0.00     0.016 A 
ATOM     14  C   UNL     1       7.046  10.032 -14.965  1.00  0.00     0.051 A 
ATOM     15  C   UNL     1       7.449  10.591 -13.749  1.00  0.00     0.157 A 
ATOM     16  C   UNL     1       8.118  12.612 -14.917  1.00  0.00     0.062 A 
ATOM     17  C   UNL     1       7.987  11.888 -13.723  1.00  0.00     0.158 A 
BRANCH  15  18
ATOM     18  O   UNL     1       7.306   9.845 -12.579  1.00  0.00    -0.504 OA
ATOM     19  H   UNL     1       7.961   9.920 -11.809  1.00  0.00     0.293 HD
ENDBRANCH  15  18
BRANCH  17  20
ATOM     20  O   UNL     1       8.387  12.454 -12.514  1.00  0.00    -0.504 OA
ATOM     21  H   UNL     1       8.795  11.893 -11.774  1.00  0.00     0.293 HD
ENDBRANCH  17  20
ENDBRANCH   1  12
BRANCH   6  22
ATOM     22  O   UNL     1       8.179  14.968 -22.110  1.00  0.00    -0.507 OA
ATOM     23  H   UNL     1       8.614  14.242 -22.657  1.00  0.00     0.293 HD
ENDBRANCH   6  22
BRANCH   8  24
ATOM     24  O   UNL     1      10.194  18.096 -19.075  1.00  0.00    -0.508 OA
ATOM     25  H   UNL     1       9.705  18.889 -18.676  1.00  0.00     0.293 HD
ENDBRANCH   8  24
TORSDOF 5
ENDMDL
MODEL 5
REMARK VINA RESULT:    -6.255      2.004      7.321
REMARK INTER + INTRA:          -7.615
REMARK INTER:                  -7.336
REMARK INTRA:                  -0.279
REMARK UNBOUND:                -0.264
REMARK SMILES O=c1cc(-c2ccc(O)c(O)c2)oc2cc(O)cc(O)c12
REMARK SMILES IDX 4 1 3 2 2 3 1 4 21 5 19 6 18 7 16 8 15 9 14 10 13 11 5 12
REMARK SMILES IDX 6 13 7 14 8 15 12 16 10 17 9 18 11 20 20 22 17 24
REMARK H PARENT 9 19 11 21 20 23 17 25
REMARK Flexibility Score: inf
ROOT
ATOM      1  C   UNL     1       9.083  13.282 -18.706  1.00  0.00     0.138 A 
ATOM      2  C   UNL     1       9.559  12.016 -19.070  1.00  0.00     0.100 A 
ATOM      3  C   UNL     1       9.627  11.002 -18.113  1.00  0.00     0.197 A 
ATOM      4  O   UNL     1      10.111   9.893 -18.458  1.00  0.00    -0.289 OA
ATOM      5  C   UNL     1       9.183  11.250 -16.793  1.00  0.00     0.107 A 
ATOM      6  C   UNL     1       9.174  10.283 -15.741  1.00  0.00     0.134 A 
ATOM      7  C   UNL     1       8.803  10.675 -14.448  1.00  0.00     0.093 A 
ATOM      8  C   UNL     1       8.386  11.980 -14.181  1.00  0.00     0.123 A 
ATOM      9  C   UNL     1       8.343  12.918 -15.210  1.00  0.00     0.094 A 
ATOM     10  C   UNL     1       8.740  12.568 -16.503  1.00  0.00     0.146 A 
ATOM     11  O   UNL     1       8.702  13.499 -17.452  1.00  0.00    -0.456 OA
ENDROOT
BRANCH   1  12
ATOM     12  C   UNL     1       8.986  14.396 -19.684  1.00  0.00     0.021 A 
ATOM     13  C   UNL     1       9.303  15.722 -19.331  1.00  0.00     0.016 A 
ATOM     14  C   UNL     1       9.192  16.750 -20.270  1.00  0.00     0.051 A 
ATOM     15  C   UNL     1       8.760  16.478 -21.571  1.00  0.00     0.157 A 
ATOM     16  C   UNL     1       8.539  14.131 -20.991  1.00  0.00     0.062 A 
ATOM     17  C   UNL     1       8.429  15.163 -21.934  1.00  0.00     0.158 A 
BRANCH  15  18
ATOM     18  O   UNL     1       8.662  17.526 -22.486  1.00  0.00    -0.504 OA
ATOM     19  H   UNL     1       9.440  18.146 -22.679  1.00  0.00     0.293 HD
ENDBRANCH  15  18
BRANCH  17  20
ATOM     20  O   UNL     1       7.993  14.884 -23.228  1.00  0.00    -0.504 OA
ATOM     21  H   UNL     1       8.642  14.804 -24.002  1.00  0.00     0.293 HD
ENDBRANCH  17  20
ENDBRANCH   1  12
BRANCH   6  22
ATOM     22  O   UNL     1       9.496   8.934 -15.915  1.00  0.00    -0.507 OA
ATOM     23  H   UNL     1       9.275   8.197 -15.264  1.00  0.00     0.293 HD
ENDBRANCH   6  22
BRANCH   8  24
ATOM     24  O   UNL     1       8.003  12.355 -12.895  1.00  0.00    -0.508 OA
ATOM     25  H   UNL     1       7.037  12.556 -12.666  1.00  0.00     0.293 HD
ENDBRANCH   8  24
TORSDOF 5
ENDMDL
MODEL 6
REMARK VINA RESULT:    -6.240      2.094      2.971
REMARK INTER + INTRA:          -7.598
REMARK INTER:                  -7.287
REMARK INTRA:                  -0.312
REMARK UNBOUND:                -0.264
REMARK SMILES O=c1cc(-c2ccc(O)c(O)c2)oc2cc(O)cc(O)c12
REMARK SMILES IDX 4 1 3 2 2 3 1 4 21 5 19 6 18 7 16 8 15 9 14 10 13 11 5 12
REMARK SMILES IDX 6 13 7 14 8 15 12 16 10 17 9 18 11 20 20 22 17 24
REMARK H PARENT 9 19 11 21 20 23 17 25
REMARK Flexibility Score: inf
ROOT
ATOM      1  C   UNL     1       8.233  11.425 -15.328  1.00  0.00     0.138 A 
ATOM      2  C   UNL     1       8.276  12.789 -15.010  1.00  0.00     0.100 A 
ATOM      3  C   UNL     1       8.588  13.720 -16.002  1.00  0.00     0.197 A 
ATOM      4  O   UNL     1       8.674  14.931 -15.672  1.00  0.00    -0.289 OA
ATOM      5  C   UNL     1       8.823  13.284 -17.328  1.00  0.00     0.107 A 
ATOM      6  C   UNL     1       9.116  14.144 -18.429  1.00  0.00     0.134 A 
ATOM      7  C   UNL     1       9.427  13.587 -19.676  1.00  0.00     0.093 A 
ATOM      8  C   UNL     1       9.398  12.205 -19.876  1.00  0.00     0.123 A 
ATOM      9  C   UNL     1       9.065  11.360 -18.821  1.00  0.00     0.094 A 
ATOM     10  C   UNL     1       8.784  11.882 -17.556  1.00  0.00     0.146 A 
ATOM     11  O   UNL     1       8.488  11.038 -16.573  1.00  0.00    -0.456 OA
ENDROOT
BRANCH   1  12
ATOM     12  C   UNL     1       7.904  10.392 -14.313  1.00  0.00     0.021 A 
ATOM     13  C   UNL     1       7.213  10.711 -13.127  1.00  0.00     0.016 A 
ATOM     14  C   UNL     1       6.926   9.720 -12.186  1.00  0.00     0.051 A 
ATOM     15  C   UNL     1       7.327   8.399 -12.404  1.00  0.00     0.157 A 
ATOM     16  C   UNL     1       8.315   9.063 -14.520  1.00  0.00     0.062 A 
ATOM     17  C   UNL     1       8.026   8.067 -13.576  1.00  0.00     0.158 A 
BRANCH  15  18
ATOM     18  O   UNL     1       7.023   7.432 -11.446  1.00  0.00    -0.504 OA
ATOM     19  H   UNL     1       7.688   7.153 -10.734  1.00  0.00     0.293 HD
ENDBRANCH  15  18
BRANCH  17  20
ATOM     20  O   UNL     1       8.432   6.753 -13.798  1.00  0.00    -0.504 OA
ATOM     21  H   UNL     1       9.129   6.306 -13.213  1.00  0.00     0.293 HD
ENDBRANCH  17  20
ENDBRANCH   1  12
BRANCH   6  22
ATOM     22  O   UNL     1       9.094  15.540 -18.359  1.00  0.00    -0.507 OA
ATOM     23  H   UNL     1       8.809  16.076 -17.554  1.00  0.00     0.293 HD
ENDBRANCH   6  22
BRANCH   8  24
ATOM     24  O   UNL     1       9.694  11.662 -21.125  1.00  0.00    -0.508 OA
ATOM     25  H   UNL     1      10.510  11.079 -21.270  1.00  0.00     0.293 HD
ENDBRANCH   8  24
TORSDOF 5
ENDMDL
MODEL 7
REMARK VINA RESULT:    -6.194      1.154      1.682
REMARK INTER + INTRA:          -7.545
REMARK INTER:                  -7.279
REMARK INTRA:                  -0.266
REMARK UNBOUND:                -0.264
REMARK SMILES O=c1cc(-c2ccc(O)c(O)c2)oc2cc(O)cc(O)c12
REMARK SMILES IDX 4 1 3 2 2 3 1 4 21 5 19 6 18 7 16 8 15 9 14 10 13 11 5 12
REMARK SMILES IDX 6 13 7 14 8 15 12 16 10 17 9 18 11 20 20 22 17 24
REMARK H PARENT 9 19 11 21 20 23 17 25
REMARK Flexibility Score: inf
ROOT
ATOM      1  C   UNL     1       9.523  12.503 -17.670  1.00  0.00     0.138 A 
ATOM      2  C   UNL     1      10.258  13.529 -17.062  1.00  0.00     0.100 A 
ATOM      3  C   UNL     1      10.426  14.745 -17.725  1.00  0.00     0.197 A 
ATOM      4  O   UNL     1      11.139  15.626 -17.177  1.00  0.00    -0.289 OA
ATOM      5  C   UNL     1       9.824  14.947 -18.989  1.00  0.00     0.107 A 
ATOM      6  C   UNL     1       9.898  16.157 -19.744  1.00  0.00     0.134 A 
ATOM      7  C   UNL     1       9.343  16.203 -21.029  1.00  0.00     0.093 A 
ATOM      8  C   UNL     1       8.666  15.104 -21.563  1.00  0.00     0.123 A 
ATOM      9  C   UNL     1       8.544  13.936 -20.815  1.00  0.00     0.094 A 
ATOM     10  C   UNL     1       9.118  13.846 -19.544  1.00  0.00     0.146 A 
ATOM     11  O   UNL     1       8.994  12.706 -18.872  1.00  0.00    -0.456 OA
ENDROOT
BRANCH   1  12
ATOM     12  C   UNL     1       9.310  11.191 -17.009  1.00  0.00     0.021 A 
ATOM     13  C   UNL     1       8.020  10.708 -16.717  1.00  0.00     0.016 A 
ATOM     14  C   UNL     1       7.852   9.473 -16.085  1.00  0.00     0.051 A 
ATOM     15  C   UNL     1       8.962   8.703 -15.727  1.00  0.00     0.157 A 
ATOM     16  C   UNL     1      10.424  10.417 -16.635  1.00  0.00     0.062 A 
ATOM     17  C   UNL     1      10.256   9.177 -16.002  1.00  0.00     0.158 A 
BRANCH  15  18
ATOM     18  O   UNL     1       8.761   7.474 -15.099  1.00  0.00    -0.504 OA
ATOM     19  H   UNL     1       7.847   7.178 -14.777  1.00  0.00     0.293 HD
ENDBRANCH  15  18
BRANCH  17  20
ATOM     20  O   UNL     1      11.367   8.417 -15.644  1.00  0.00    -0.504 OA
ATOM     21  H   UNL     1      11.704   7.660 -16.228  1.00  0.00     0.293 HD
ENDBRANCH  17  20
ENDBRANCH   1  12
BRANCH   6  22
ATOM     22  O   UNL     1      10.481  17.338 -19.275  1.00  0.00    -0.507 OA
ATOM     23  H   UNL     1      10.981  17.431 -18.405  1.00  0.00     0.293 HD
ENDBRANCH   6  22
BRANCH   8  24
ATOM     24  O   UNL     1       8.103  15.167 -22.836  1.00  0.00    -0.508 OA
ATOM     25  H   UNL     1       8.617  14.870 -23.658  1.00  0.00     0.293 HD
ENDBRANCH   8  24
TORSDOF 5
ENDMDL
MODEL 8
REMARK VINA RESULT:    -6.134      1.844      2.109
REMARK INTER + INTRA:          -7.474
REMARK INTER:                  -7.164
REMARK INTRA:                  -0.310
REMARK UNBOUND:                -0.264
REMARK SMILES O=c1cc(-c2ccc(O)c(O)c2)oc2cc(O)cc(O)c12
REMARK SMILES IDX 4 1 3 2 2 3 1 4 21 5 19 6 18 7 16 8 15 9 14 10 13 11 5 12
REMARK SMILES IDX 6 13 7 14 8 15 12 16 10 17 9 18 11 20 20 22 17 24
REMARK H PARENT 9 19 11 21 20 23 17 25
REMARK Flexibility Score: inf
ROOT
ATOM      1  C   UNL     1       9.064  12.409 -17.980  1.00  0.00     0.138 A 
ATOM      2  C   UNL     1       9.848  13.333 -17.276  1.00  0.00     0.100 A 
ATOM      3  C   UNL     1      10.156  14.563 -17.858  1.00  0.00     0.197 A 
ATOM      4  O   UNL     1      10.908  15.348 -17.223  1.00  0.00    -0.289 OA
ATOM      5  C   UNL     1       9.645  14.884 -19.138  1.00  0.00     0.107 A 
ATOM      6  C   UNL     1       9.864  16.122 -19.817  1.00  0.00     0.134 A 
ATOM      7  C   UNL     1       9.388  16.284 -21.124  1.00  0.00     0.093 A 
ATOM      8  C   UNL     1       8.653  15.279 -21.755  1.00  0.00     0.123 A 
ATOM      9  C   UNL     1       8.391  14.087 -21.084  1.00  0.00     0.094 A 
ATOM     10  C   UNL     1       8.881  13.880 -19.792  1.00  0.00     0.146 A 
ATOM     11  O   UNL     1       8.623  12.721 -19.194  1.00  0.00    -0.456 OA
ENDROOT
BRANCH   1  12
ATOM     12  C   UNL     1       8.705  11.087 -17.408  1.00  0.00     0.021 A 
ATOM     13  C   UNL     1       8.671  10.865 -16.018  1.00  0.00     0.016 A 
ATOM     14  C   UNL     1       8.339   9.607 -15.509  1.00  0.00     0.051 A 
ATOM     15  C   UNL     1       8.042   8.549 -16.372  1.00  0.00     0.157 A 
ATOM     16  C   UNL     1       8.418  10.015 -18.272  1.00  0.00     0.062 A 
ATOM     17  C   UNL     1       8.082   8.752 -17.762  1.00  0.00     0.158 A 
BRANCH  15  18
ATOM     18  O   UNL     1       7.712   7.306 -15.834  1.00  0.00    -0.504 OA
ATOM     19  H   UNL     1       7.553   6.493 -16.416  1.00  0.00     0.293 HD
ENDBRANCH  15  18
BRANCH  17  20
ATOM     20  O   UNL     1       7.792   7.701 -18.629  1.00  0.00    -0.504 OA
ATOM     21  H   UNL     1       6.842   7.377 -18.772  1.00  0.00     0.293 HD
ENDBRANCH  17  20
ENDBRANCH   1  12
BRANCH   6  22
ATOM     22  O   UNL     1      10.517  17.220 -19.250  1.00  0.00    -0.507 OA
ATOM     23  H   UNL     1      10.538  18.148 -19.643  1.00  0.00     0.293 HD
ENDBRANCH   6  22
BRANCH   8  24
ATOM     24  O   UNL     1       8.171  15.458 -23.050  1.00  0.00    -0.508 OA
ATOM     25  H   UNL     1       8.192  14.708 -23.732  1.00  0.00     0.293 HD
ENDBRANCH   8  24
TORSDOF 5
ENDMDL
MODEL 9
REMARK VINA RESULT:    -4.518      3.086      7.653
REMARK INTER + INTRA:          -5.574
REMARK INTER:                  -5.309
REMARK INTRA:                  -0.265
REMARK UNBOUND:                -0.264
REMARK SMILES O=c1cc(-c2ccc(O)c(O)c2)oc2cc(O)cc(O)c12
REMARK SMILES IDX 4 1 3 2 2 3 1 4 21 5 19 6 18 7 16 8 15 9 14 10 13 11 5 12
REMARK SMILES IDX 6 13 7 14 8 15 12 16 10 17 9 18 11 20 20 22 17 24
REMARK H PARENT 9 19 11 21 20 23 17 25
REMARK Flexibility Score: inf
ROOT
ATOM      1  C   UNL     1       8.590  16.156 -18.856  1.00  0.00     0.138 A 
ATOM      2  C   UNL     1       8.580  15.830 -20.219  1.00  0.00     0.100 A 
ATOM      3  C   UNL     1       8.897  14.532 -20.620  1.00  0.00     0.197 A 
ATOM      4  O   UNL     1       8.934  14.285 -21.854  1.00  0.00    -0.289 OA
ATOM      5  C   UNL     1       9.191  13.546 -19.648  1.00  0.00     0.107 A 
ATOM      6  C   UNL     1       9.495  12.181 -19.937  1.00  0.00     0.134 A 
ATOM      7  C   UNL     1       9.867  11.322 -18.895  1.00  0.00     0.093 A 
ATOM      8  C   UNL     1       9.888  11.762 -17.570  1.00  0.00     0.123 A 
ATOM      9  C   UNL     1       9.545  13.077 -17.271  1.00  0.00     0.094 A 
ATOM     10  C   UNL     1       9.204  13.969 -18.292  1.00  0.00     0.146 A 
ATOM     11  O   UNL     1       8.900  15.221 -17.964  1.00  0.00    -0.456 OA
ENDROOT
BRANCH   1  12
ATOM     12  C   UNL     1       8.258  17.520 -18.373  1.00  0.00     0.021 A 
ATOM     13  C   UNL     1       7.169  17.758 -17.511  1.00  0.00     0.016 A 
ATOM     14  C   UNL     1       6.875  19.054 -17.082  1.00  0.00     0.051 A 
ATOM     15  C   UNL     1       7.653  20.135 -17.506  1.00  0.00     0.157 A 
ATOM     16  C   UNL     1       9.028  18.614 -18.807  1.00  0.00     0.062 A 
ATOM     17  C   UNL     1       8.734  19.916 -18.375  1.00  0.00     0.158 A 
BRANCH  15  18
ATOM     18  O   UNL     1       7.335  21.416 -17.058  1.00  0.00    -0.504 OA
ATOM     19  H   UNL     1       7.537  22.244 -17.607  1.00  0.00     0.293 HD
ENDBRANCH  15  18
BRANCH  17  20
ATOM     20  O   UNL     1       9.512  20.989 -18.806  1.00  0.00    -0.504 OA
ATOM     21  H   UNL     1       9.389  21.920 -18.425  1.00  0.00     0.293 HD
ENDBRANCH  17  20
ENDBRANCH   1  12
BRANCH   6  22
ATOM     22  O   UNL     1       9.428  11.617 -21.215  1.00  0.00    -0.507 OA
ATOM     23  H   UNL     1       9.215  12.123 -22.060  1.00  0.00     0.293 HD
ENDBRANCH   6  22
BRANCH   8  24
ATOM     24  O   UNL     1      10.244  10.894 -16.539  1.00  0.00    -0.508 OA
ATOM     25  H   UNL     1       9.590  10.645 -15.806  1.00  0.00     0.293 HD
ENDBRANCH   8  24
TORSDOF 5
ENDMDL
