MODEL 1
REMARK VINA RESULT:    -3.199      0.000      0.000
REMARK INTER + INTRA:          -5.385
REMARK INTER:                  -4.602
REMARK INTRA:                  -0.783
REMARK UNBOUND:                -0.783
REMARK SMILES CCCCCCCCCO
REMARK SMILES IDX 6 1 5 2 4 3 3 4 2 5 1 6 7 7 8 8 9 9 10 10
REMARK H PARENT 10 11
REMARK Flexibility Score: inf
ROOT
ATOM      1  C   UNL     1     107.013 105.038 103.088  1.00  0.00     0.000 C 
ENDROOT
BRANCH   1   2
ATOM      2  C   UNL     1     107.161 106.110 101.999  1.00  0.00     0.000 C 
BRANCH   2   3
ATOM      3  C   UNL     1     106.931 107.513 102.574  1.00  0.00    -0.000 C 
BRANCH   3   4
ATOM      4  C   UNL     1     105.720 108.188 101.913  1.00  0.00    -0.000 C 
BRANCH   4   5
ATOM      5  C   UNL     1     104.568 108.431 102.900  1.00  0.00    -0.003 C 
ATOM      6  C   UNL     1     104.970 108.178 104.352  1.00  0.00     0.004 C 
ENDBRANCH   4   5
ENDBRANCH   3   4
ENDBRANCH   2   3
ENDBRANCH   1   2
BRANCH   1   7
ATOM      7  C   UNL     1     105.554 104.596 103.300  1.00  0.00     0.002 C 
BRANCH   7   8
ATOM      8  C   UNL     1     104.694 104.545 102.023  1.00  0.00     0.028 C 
BRANCH   8   9
ATOM      9  C   UNL     1     103.225 104.914 102.255  1.00  0.00     0.156 C 
BRANCH   9  10
ATOM     10  O   UNL     1     102.605 103.959 103.071  1.00  0.00    -0.396 OA
ATOM     11  H   UNL     1     102.381 104.425 103.918  1.00  0.00     0.210 HD
ENDBRANCH   9  10
ENDBRANCH   8   9
ENDBRANCH   7   8
ENDBRANCH   1   7
TORSDOF 8
ENDMDL
MODEL 2
REMARK VINA RESULT:    -3.165      2.118      3.949
REMARK INTER + INTRA:          -5.335
REMARK INTER:                  -4.692
REMARK INTRA:                  -0.643
REMARK UNBOUND:                -0.783
REMARK SMILES CCCCCCCCCO
REMARK SMILES IDX 6 1 5 2 4 3 3 4 2 5 1 6 7 7 8 8 9 9 10 10
REMARK H PARENT 10 11
REMARK Flexibility Score: inf
ROOT
ATOM      1  C   UNL     1     103.730 105.137 104.378  1.00  0.00     0.000 C 
ENDROOT
BRANCH   1   2
ATOM      2  C   UNL     1     105.067 104.950 105.108  1.00  0.00     0.000 C 
BRANCH   2   3
ATOM      3  C   UNL     1     106.012 104.050 104.302  1.00  0.00    -0.000 C 
BRANCH   3   4
ATOM      4  C   UNL     1     107.249 104.831 103.832  1.00  0.00    -0.000 C 
BRANCH   4   5
ATOM      5  C   UNL     1     107.583 104.574 102.354  1.00  0.00    -0.003 C 
ATOM      6  C   UNL     1     107.197 103.169 101.896  1.00  0.00     0.004 C 
ENDBRANCH   4   5
ENDBRANCH   3   4
ENDBRANCH   2   3
ENDBRANCH   1   2
BRANCH   1   7
ATOM      7  C   UNL     1     103.795 104.731 102.895  1.00  0.00     0.002 C 
BRANCH   7   8
ATOM      8  C   UNL     1     103.756 105.902 101.894  1.00  0.00     0.028 C 
BRANCH   8   9
ATOM      9  C   UNL     1     104.640 107.087 102.298  1.00  0.00     0.156 C 
BRANCH   9  10
ATOM     10  O   UNL     1     104.004 108.297 101.989  1.00  0.00    -0.396 OA
ATOM     11  H   UNL     1     104.729 108.956 101.832  1.00  0.00     0.210 HD
ENDBRANCH   9  10
ENDBRANCH   8   9
ENDBRANCH   7   8
ENDBRANCH   1   7
TORSDOF 8
ENDMDL
MODEL 3
REMARK VINA RESULT:    -3.157      2.066      3.168
REMARK INTER + INTRA:          -5.324
REMARK INTER:                  -4.547
REMARK INTRA:                  -0.777
REMARK UNBOUND:                -0.783
REMARK SMILES CCCCCCCCCO
REMARK SMILES IDX 6 1 5 2 4 3 3 4 2 5 1 6 7 7 8 8 9 9 10 10
REMARK H PARENT 10 11
REMARK Flexibility Score: inf
ROOT
ATOM      1  C   UNL     1     104.669 104.574 103.067  1.00  0.00     0.000 C 
ENDROOT
BRANCH   1   2
ATOM      2  C   UNL     1     104.410 106.073 102.860  1.00  0.00     0.000 C 
BRANCH   2   3
ATOM      3  C   UNL     1     104.611 106.851 104.167  1.00  0.00    -0.000 C 
BRANCH   3   4
ATOM      4  C   UNL     1     105.795 107.823 104.052  1.00  0.00    -0.000 C 
BRANCH   4   5
ATOM      5  C   UNL     1     106.513 107.721 102.698  1.00  0.00    -0.003 C 
ATOM      6  C   UNL     1     107.986 107.338 102.836  1.00  0.00     0.004 C 
ENDBRANCH   4   5
ENDBRANCH   3   4
ENDBRANCH   2   3
ENDBRANCH   1   2
BRANCH   1   7
ATOM      7  C   UNL     1     105.884 104.061 102.273  1.00  0.00     0.002 C 
BRANCH   7   8
ATOM      8  C   UNL     1     107.114 103.693 103.125  1.00  0.00     0.028 C 
BRANCH   8   9
ATOM      9  C   UNL     1     106.920 103.939 104.626  1.00  0.00     0.156 C 
BRANCH   9  10
ATOM     10  O   UNL     1     107.164 102.763 105.347  1.00  0.00    -0.396 OA
ATOM     11  H   UNL     1     106.580 102.068 104.946  1.00  0.00     0.210 HD
ENDBRANCH   9  10
ENDBRANCH   8   9
ENDBRANCH   7   8
ENDBRANCH   1   7
TORSDOF 8
ENDMDL
MODEL 4
REMARK VINA RESULT:    -3.156      2.780      4.690
REMARK INTER + INTRA:          -5.323
REMARK INTER:                  -4.559
REMARK INTRA:                  -0.764
REMARK UNBOUND:                -0.783
REMARK SMILES CCCCCCCCCO
REMARK SMILES IDX 6 1 5 2 4 3 3 4 2 5 1 6 7 7 8 8 9 9 10 10
REMARK H PARENT 10 11
REMARK Flexibility Score: inf
ROOT
ATOM      1  C   UNL     1     105.651 107.695 103.089  1.00  0.00     0.000 C 
ENDROOT
BRANCH   1   2
ATOM      2  C   UNL     1     104.660 106.570 102.761  1.00  0.00     0.000 C 
BRANCH   2   3
ATOM      3  C   UNL     1     104.371 105.713 104.000  1.00  0.00    -0.000 C 
BRANCH   3   4
ATOM      4  C   UNL     1     105.350 104.533 104.094  1.00  0.00    -0.000 C 
BRANCH   4   5
ATOM      5  C   UNL     1     105.889 104.103 102.721  1.00  0.00    -0.003 C 
ATOM      6  C   UNL     1     107.370 103.728 102.757  1.00  0.00     0.004 C 
ENDBRANCH   4   5
ENDBRANCH   3   4
ENDBRANCH   2   3
ENDBRANCH   1   2
BRANCH   1   7
ATOM      7  C   UNL     1     106.949 107.610 102.267  1.00  0.00     0.002 C 
BRANCH   7   8
ATOM      8  C   UNL     1     108.240 107.460 103.096  1.00  0.00     0.028 C 
BRANCH   8   9
ATOM      9  C   UNL     1     107.992 107.052 104.552  1.00  0.00     0.156 C 
BRANCH   9  10
ATOM     10  O   UNL     1     109.174 107.162 105.296  1.00  0.00    -0.396 OA
ATOM     11  H   UNL     1     109.361 108.133 105.374  1.00  0.00     0.210 HD
ENDBRANCH   9  10
ENDBRANCH   8   9
ENDBRANCH   7   8
ENDBRANCH   1   7
TORSDOF 8
ENDMDL
MODEL 5
REMARK VINA RESULT:    -3.150      2.064      3.918
REMARK INTER + INTRA:          -5.314
REMARK INTER:                  -4.602
REMARK INTRA:                  -0.712
REMARK UNBOUND:                -0.783
REMARK SMILES CCCCCCCCCO
REMARK SMILES IDX 6 1 5 2 4 3 3 4 2 5 1 6 7 7 8 8 9 9 10 10
REMARK H PARENT 10 11
REMARK Flexibility Score: inf
ROOT
ATOM      1  C   UNL     1     107.306 107.504 102.858  1.00  0.00     0.000 C 
ENDROOT
BRANCH   1   2
ATOM      2  C   UNL     1     107.580 106.070 102.383  1.00  0.00     0.000 C 
BRANCH   2   3
ATOM      3  C   UNL     1     107.212 105.052 103.470  1.00  0.00    -0.000 C 
BRANCH   3   4
ATOM      4  C   UNL     1     106.316 103.941 102.903  1.00  0.00    -0.000 C 
BRANCH   4   5
ATOM      5  C   UNL     1     105.140 104.494 102.081  1.00  0.00    -0.003 C 
ATOM      6  C   UNL     1     103.840 104.561 102.880  1.00  0.00     0.004 C 
ENDBRANCH   4   5
ENDBRANCH   3   4
ENDBRANCH   2   3
ENDBRANCH   1   2
BRANCH   1   7
ATOM      7  C   UNL     1     105.997 108.082 102.293  1.00  0.00     0.002 C 
BRANCH   7   8
ATOM      8  C   UNL     1     104.822 108.135 103.289  1.00  0.00     0.028 C 
BRANCH   8   9
ATOM      9  C   UNL     1     105.260 108.160 104.757  1.00  0.00     0.156 C 
BRANCH   9  10
ATOM     10  O   UNL     1     104.784 109.317 105.388  1.00  0.00    -0.396 OA
ATOM     11  H   UNL     1     105.432 110.036 105.168  1.00  0.00     0.210 HD
ENDBRANCH   9  10
ENDBRANCH   8   9
ENDBRANCH   7   8
ENDBRANCH   1   7
TORSDOF 8
ENDMDL
MODEL 6
REMARK VINA RESULT:    -3.135      1.464      3.071
REMARK INTER + INTRA:          -5.292
REMARK INTER:                  -4.573
REMARK INTRA:                  -0.719
REMARK UNBOUND:                -0.783
REMARK SMILES CCCCCCCCCO
REMARK SMILES IDX 6 1 5 2 4 3 3 4 2 5 1 6 7 7 8 8 9 9 10 10
REMARK H PARENT 10 11
REMARK Flexibility Score: inf
ROOT
ATOM      1  C   UNL     1     104.525 107.201 102.601  1.00  0.00     0.000 C 
ENDROOT
BRANCH   1   2
ATOM      2  C   UNL     1     105.916 107.341 101.966  1.00  0.00     0.000 C 
BRANCH   2   3
ATOM      3  C   UNL     1     107.005 106.806 102.904  1.00  0.00    -0.000 C 
BRANCH   3   4
ATOM      4  C   UNL     1     107.910 105.799 102.178  1.00  0.00    -0.000 C 
BRANCH   4   5
ATOM      5  C   UNL     1     107.404 104.353 102.303  1.00  0.00    -0.003 C 
ATOM      6  C   UNL     1     107.236 103.909 103.755  1.00  0.00     0.004 C 
ENDBRANCH   4   5
ENDBRANCH   3   4
ENDBRANCH   2   3
ENDBRANCH   1   2
BRANCH   1   7
ATOM      7  C   UNL     1     103.774 105.945 102.127  1.00  0.00     0.002 C 
BRANCH   7   8
ATOM      8  C   UNL     1     103.731 104.786 103.142  1.00  0.00     0.028 C 
BRANCH   8   9
ATOM      9  C   UNL     1     103.776 105.247 104.603  1.00  0.00     0.156 C 
BRANCH   9  10
ATOM     10  O   UNL     1     102.641 104.798 105.291  1.00  0.00    -0.396 OA
ATOM     11  H   UNL     1     101.880 105.330 104.942  1.00  0.00     0.210 HD
ENDBRANCH   9  10
ENDBRANCH   8   9
ENDBRANCH   7   8
ENDBRANCH   1   7
TORSDOF 8
ENDMDL
MODEL 7
REMARK VINA RESULT:    -3.115      2.020      3.246
REMARK INTER + INTRA:          -5.264
REMARK INTER:                  -4.670
REMARK INTRA:                  -0.594
REMARK UNBOUND:                -0.783
REMARK SMILES CCCCCCCCCO
REMARK SMILES IDX 6 1 5 2 4 3 3 4 2 5 1 6 7 7 8 8 9 9 10 10
REMARK H PARENT 10 11
REMARK Flexibility Score: inf
ROOT
ATOM      1  C   UNL     1     105.086 104.622 103.701  1.00  0.00     0.000 C 
ENDROOT
BRANCH   1   2
ATOM      2  C   UNL     1     106.177 104.126 102.742  1.00  0.00     0.000 C 
BRANCH   2   3
ATOM      3  C   UNL     1     107.445 104.980 102.864  1.00  0.00    -0.000 C 
BRANCH   3   4
ATOM      4  C   UNL     1     107.584 105.560 104.280  1.00  0.00    -0.000 C 
BRANCH   4   5
ATOM      5  C   UNL     1     107.935 107.056 104.274  1.00  0.00    -0.003 C 
ATOM      6  C   UNL     1     108.656 107.489 102.998  1.00  0.00     0.004 C 
ENDBRANCH   4   5
ENDBRANCH   3   4
ENDBRANCH   2   3
ENDBRANCH   1   2
BRANCH   1   7
ATOM      7  C   UNL     1     103.879 105.237 102.970  1.00  0.00     0.002 C 
BRANCH   7   8
ATOM      8  C   UNL     1     104.219 106.379 101.992  1.00  0.00     0.028 C 
BRANCH   8   9
ATOM      9  C   UNL     1     104.659 107.673 102.686  1.00  0.00     0.156 C 
BRANCH   9  10
ATOM     10  O   UNL     1     103.859 108.745 102.269  1.00  0.00    -0.396 OA
ATOM     11  H   UNL     1     103.361 108.423 101.473  1.00  0.00     0.210 HD
ENDBRANCH   9  10
ENDBRANCH   8   9
ENDBRANCH   7   8
ENDBRANCH   1   7
TORSDOF 8
ENDMDL
MODEL 8
REMARK VINA RESULT:    -3.092      1.791      2.847
REMARK INTER + INTRA:          -5.231
REMARK INTER:                  -4.617
REMARK INTRA:                  -0.614
REMARK UNBOUND:                -0.783
REMARK SMILES CCCCCCCCCO
REMARK SMILES IDX 6 1 5 2 4 3 3 4 2 5 1 6 7 7 8 8 9 9 10 10
REMARK H PARENT 10 11
REMARK Flexibility Score: inf
ROOT
ATOM      1  C   UNL     1     104.184 106.098 102.342  1.00  0.00     0.000 C 
ENDROOT
BRANCH   1   2
ATOM      2  C   UNL     1     104.497 107.486 102.920  1.00  0.00     0.000 C 
BRANCH   2   3
ATOM      3  C   UNL     1     105.641 108.157 102.149  1.00  0.00    -0.000 C 
BRANCH   3   4
ATOM      4  C   UNL     1     106.780 107.162 101.878  1.00  0.00    -0.000 C 
BRANCH   4   5
ATOM      5  C   UNL     1     108.058 107.499 102.661  1.00  0.00    -0.003 C 
ATOM      6  C   UNL     1     108.121 106.803 104.020  1.00  0.00     0.004 C 
ENDBRANCH   4   5
ENDBRANCH   3   4
ENDBRANCH   2   3
ENDBRANCH   1   2
BRANCH   1   7
ATOM      7  C   UNL     1     103.939 105.037 103.429  1.00  0.00     0.002 C 
BRANCH   7   8
ATOM      8  C   UNL     1     104.638 105.306 104.775  1.00  0.00     0.028 C 
BRANCH   8   9
ATOM      9  C   UNL     1     103.758 105.011 105.995  1.00  0.00     0.156 C 
BRANCH   9  10
ATOM     10  O   UNL     1     102.474 104.626 105.588  1.00  0.00    -0.396 OA
ATOM     11  H   UNL     1     102.203 105.272 104.885  1.00  0.00     0.210 HD
ENDBRANCH   9  10
ENDBRANCH   8   9
ENDBRANCH   7   8
ENDBRANCH   1   7
TORSDOF 8
ENDMDL
MODEL 9
REMARK VINA RESULT:    -3.050      1.355      3.264
REMARK INTER + INTRA:          -5.170
REMARK INTER:                  -4.477
REMARK INTRA:                  -0.692
REMARK UNBOUND:                -0.783
REMARK SMILES CCCCCCCCCO
REMARK SMILES IDX 6 1 5 2 4 3 3 4 2 5 1 6 7 7 8 8 9 9 10 10
REMARK H PARENT 10 11
REMARK Flexibility Score: inf
ROOT
ATOM      1  C   UNL     1     106.166 107.793 102.598  1.00  0.00     0.000 C 
ENDROOT
BRANCH   1   2
ATOM      2  C   UNL     1     106.688 107.479 104.007  1.00  0.00     0.000 C 
BRANCH   2   3
ATOM      3  C   UNL     1     107.828 106.455 103.956  1.00  0.00    -0.000 C 
BRANCH   3   4
ATOM      4  C   UNL     1     107.495 105.218 104.804  1.00  0.00    -0.000 C 
BRANCH   4   5
ATOM      5  C   UNL     1     107.006 104.034 103.955  1.00  0.00    -0.003 C 
ATOM      6  C   UNL     1     107.384 104.167 102.480  1.00  0.00     0.004 C 
ENDBRANCH   4   5
ENDBRANCH   3   4
ENDBRANCH   2   3
ENDBRANCH   1   2
BRANCH   1   7
ATOM      7  C   UNL     1     104.643 107.613 102.468  1.00  0.00     0.002 C 
BRANCH   7   8
ATOM      8  C   UNL     1     104.192 106.264 101.875  1.00  0.00     0.028 C 
BRANCH   8   9
ATOM      9  C   UNL     1     103.740 105.249 102.930  1.00  0.00     0.156 C 
BRANCH   9  10
ATOM     10  O   UNL     1     103.403 104.032 102.322  1.00  0.00    -0.396 OA
ATOM     11  H   UNL     1     103.927 103.991 101.480  1.00  0.00     0.210 HD
ENDBRANCH   9  10
ENDBRANCH   8   9
ENDBRANCH   7   8
ENDBRANCH   1   7
TORSDOF 8
ENDMDL
