MODEL 1
REMARK VINA RESULT:    -4.132      0.000      0.000
REMARK INTER + INTRA:          -6.858
REMARK INTER:                  -5.944
REMARK INTRA:                  -0.915
REMARK UNBOUND:                -0.915
REMARK SMILES O=C(CO)[C@@H](O)[C@@H](O)[C@@H](O)CO
REMARK SMILES IDX 7 1 9 2 11 3 12 4 10 6 5 8 2 9 1 10 3 11 4 12 6 14 8 16
REMARK H PARENT 12 5 10 7 4 13 6 15 8 17
REMARK Flexibility Score: inf
ROOT
ATOM      1  C   UNL     1      64.449  50.479  37.819  1.00  0.00     0.181 C 
ENDROOT
BRANCH   1   2
ATOM      2  C   UNL     1      65.147  51.163  36.606  1.00  0.00     0.171 C 
BRANCH   2   3
ATOM      3  C   UNL     1      64.237  51.212  35.365  1.00  0.00     0.190 C 
BRANCH   3   4
ATOM      4  O   UNL     1      62.902  50.997  35.729  1.00  0.00    -0.394 OA
ATOM      5  H   UNL     1      62.594  50.218  35.196  1.00  0.00     0.210 HD
ENDBRANCH   3   4
ENDBRANCH   2   3
BRANCH   2   6
ATOM      6  O   UNL     1      66.348  50.505  36.283  1.00  0.00    -0.388 OA
ATOM      7  H   UNL     1      66.288  49.581  36.644  1.00  0.00     0.211 HD
ENDBRANCH   2   6
ENDBRANCH   1   2
BRANCH   1   8
ATOM      8  C   UNL     1      65.289  49.331  38.453  1.00  0.00     0.214 C 
BRANCH   8   9
ATOM      9  C   UNL     1      66.083  49.772  39.669  1.00  0.00     0.189 C 
ATOM     10  O   UNL     1      67.128  50.385  39.506  1.00  0.00    -0.294 OA
BRANCH   9  11
ATOM     11  C   UNL     1      65.657  49.429  41.073  1.00  0.00     0.234 C 
BRANCH  11  12
ATOM     12  O   UNL     1      64.271  49.571  41.210  1.00  0.00    -0.388 OA
ATOM     13  H   UNL     1      63.951  50.027  40.387  1.00  0.00     0.211 HD
ENDBRANCH  11  12
ENDBRANCH   9  11
ENDBRANCH   8   9
BRANCH   8  14
ATOM     14  O   UNL     1      64.476  48.220  38.745  1.00  0.00    -0.382 OA
ATOM     15  H   UNL     1      64.340  47.704  37.908  1.00  0.00     0.211 HD
ENDBRANCH   8  14
ENDBRANCH   1   8
BRANCH   1  16
ATOM     16  O   UNL     1      64.082  51.426  38.794  1.00  0.00    -0.387 OA
ATOM     17  H   UNL     1      63.537  50.960  39.480  1.00  0.00     0.211 HD
ENDBRANCH   1  16
TORSDOF 10
ENDMDL
MODEL 2
REMARK VINA RESULT:    -4.107      0.701      1.555
REMARK INTER + INTRA:          -6.822
REMARK INTER:                  -5.631
REMARK INTRA:                  -1.191
REMARK UNBOUND:                -0.915
REMARK SMILES O=C(CO)[C@@H](O)[C@@H](O)[C@@H](O)CO
REMARK SMILES IDX 7 1 9 2 11 3 12 4 10 6 5 8 2 9 1 10 3 11 4 12 6 14 8 16
REMARK H PARENT 12 5 10 7 4 13 6 15 8 17
REMARK Flexibility Score: inf
ROOT
ATOM      1  C   UNL     1      64.148  50.486  37.861  1.00  0.00     0.181 C 
ENDROOT
BRANCH   1   2
ATOM      2  C   UNL     1      64.383  50.918  36.384  1.00  0.00     0.171 C 
BRANCH   2   3
ATOM      3  C   UNL     1      65.063  52.296  36.283  1.00  0.00     0.190 C 
BRANCH   3   4
ATOM      4  O   UNL     1      66.334  52.258  36.869  1.00  0.00    -0.394 OA
ATOM      5  H   UNL     1      66.768  51.430  36.533  1.00  0.00     0.210 HD
ENDBRANCH   3   4
ENDBRANCH   2   3
BRANCH   2   6
ATOM      6  O   UNL     1      63.172  50.938  35.668  1.00  0.00    -0.388 OA
ATOM      7  H   UNL     1      63.397  50.932  34.701  1.00  0.00     0.211 HD
ENDBRANCH   2   6
ENDBRANCH   1   2
BRANCH   1   8
ATOM      8  C   UNL     1      65.156  49.411  38.363  1.00  0.00     0.214 C 
BRANCH   8   9
ATOM      9  C   UNL     1      65.993  49.879  39.540  1.00  0.00     0.189 C 
ATOM     10  O   UNL     1      66.995  50.547  39.329  1.00  0.00    -0.294 OA
BRANCH   9  11
ATOM     11  C   UNL     1      65.663  49.501  40.961  1.00  0.00     0.234 C 
BRANCH  11  12
ATOM     12  O   UNL     1      64.280  49.567  41.173  1.00  0.00    -0.388 OA
ATOM     13  H   UNL     1      64.077  50.509  41.419  1.00  0.00     0.211 HD
ENDBRANCH  11  12
ENDBRANCH   9  11
ENDBRANCH   8   9
BRANCH   8  14
ATOM     14  O   UNL     1      64.496  48.202  38.651  1.00  0.00    -0.382 OA
ATOM     15  H   UNL     1      65.181  47.505  38.823  1.00  0.00     0.211 HD
ENDBRANCH   8  14
ENDBRANCH   1   8
BRANCH   1  16
ATOM     16  O   UNL     1      64.136  51.601  38.721  1.00  0.00    -0.387 OA
ATOM     17  H   UNL     1      63.828  52.385  38.198  1.00  0.00     0.211 HD
ENDBRANCH   1  16
TORSDOF 10
ENDMDL
MODEL 3
REMARK VINA RESULT:    -4.055      1.175      4.287
REMARK INTER + INTRA:          -6.747
REMARK INTER:                  -5.509
REMARK INTRA:                  -1.238
REMARK UNBOUND:                -0.915
REMARK SMILES O=C(CO)[C@@H](O)[C@@H](O)[C@@H](O)CO
REMARK SMILES IDX 7 1 9 2 11 3 12 4 10 6 5 8 2 9 1 10 3 11 4 12 6 14 8 16
REMARK H PARENT 12 5 10 7 4 13 6 15 8 17
REMARK Flexibility Score: inf
ROOT
ATOM      1  C   UNL     1      64.923  49.927  39.624  1.00  0.00     0.181 C 
ENDROOT
BRANCH   1   2
ATOM      2  C   UNL     1      66.016  49.679  40.704  1.00  0.00     0.171 C 
BRANCH   2   3
ATOM      3  C   UNL     1      67.421  49.544  40.089  1.00  0.00     0.190 C 
BRANCH   3   4
ATOM      4  O   UNL     1      67.453  48.487  39.171  1.00  0.00    -0.394 OA
ATOM      5  H   UNL     1      68.376  48.121  39.204  1.00  0.00     0.210 HD
ENDBRANCH   3   4
ENDBRANCH   2   3
BRANCH   2   6
ATOM      6  O   UNL     1      65.722  48.529  41.460  1.00  0.00    -0.388 OA
ATOM      7  H   UNL     1      65.591  48.817  42.402  1.00  0.00     0.211 HD
ENDBRANCH   2   6
ENDBRANCH   1   2
BRANCH   1   8
ATOM      8  C   UNL     1      65.247  51.116  38.673  1.00  0.00     0.214 C 
BRANCH   8   9
ATOM      9  C   UNL     1      65.386  50.700  37.219  1.00  0.00     0.189 C 
ATOM     10  O   UNL     1      66.432  50.191  36.844  1.00  0.00    -0.294 OA
BRANCH   9  11
ATOM     11  C   UNL     1      64.297  50.943  36.207  1.00  0.00     0.234 C 
BRANCH  11  12
ATOM     12  O   UNL     1      63.088  50.392  36.650  1.00  0.00    -0.388 OA
ATOM     13  H   UNL     1      62.604  51.117  37.127  1.00  0.00     0.211 HD
ENDBRANCH  11  12
ENDBRANCH   9  11
ENDBRANCH   8   9
BRANCH   8  14
ATOM     14  O   UNL     1      64.302  52.149  38.823  1.00  0.00    -0.382 OA
ATOM     15  H   UNL     1      63.425  51.819  38.498  1.00  0.00     0.211 HD
ENDBRANCH   8  14
ENDBRANCH   1   8
BRANCH   1  16
ATOM     16  O   UNL     1      64.661  48.756  38.888  1.00  0.00    -0.387 OA
ATOM     17  H   UNL     1      65.505  48.479  38.446  1.00  0.00     0.211 HD
ENDBRANCH   1  16
TORSDOF 10
ENDMDL
MODEL 4
REMARK VINA RESULT:    -4.016      1.272      4.316
REMARK INTER + INTRA:          -6.692
REMARK INTER:                  -5.906
REMARK INTRA:                  -0.786
REMARK UNBOUND:                -0.915
REMARK SMILES O=C(CO)[C@@H](O)[C@@H](O)[C@@H](O)CO
REMARK SMILES IDX 7 1 9 2 11 3 12 4 10 6 5 8 2 9 1 10 3 11 4 12 6 14 8 16
REMARK H PARENT 12 5 10 7 4 13 6 15 8 17
REMARK Flexibility Score: inf
ROOT
ATOM      1  C   UNL     1      65.173  50.554  39.592  1.00  0.00     0.181 C 
ENDROOT
BRANCH   1   2
ATOM      2  C   UNL     1      64.935  49.719  40.885  1.00  0.00     0.171 C 
BRANCH   2   3
ATOM      3  C   UNL     1      66.200  49.623  41.757  1.00  0.00     0.190 C 
BRANCH   3   4
ATOM      4  O   UNL     1      66.938  48.481  41.423  1.00  0.00    -0.394 OA
ATOM      5  H   UNL     1      66.350  47.935  40.838  1.00  0.00     0.210 HD
ENDBRANCH   3   4
ENDBRANCH   2   3
BRANCH   2   6
ATOM      6  O   UNL     1      64.483  48.424  40.568  1.00  0.00    -0.388 OA
ATOM      7  H   UNL     1      65.275  47.825  40.562  1.00  0.00     0.211 HD
ENDBRANCH   2   6
ENDBRANCH   1   2
BRANCH   1   8
ATOM      8  C   UNL     1      65.275  49.688  38.302  1.00  0.00     0.214 C 
BRANCH   8   9
ATOM      9  C   UNL     1      65.459  50.513  37.041  1.00  0.00     0.189 C 
ATOM     10  O   UNL     1      66.561  50.977  36.789  1.00  0.00    -0.294 OA
BRANCH   9  11
ATOM     11  C   UNL     1      64.313  50.829  36.115  1.00  0.00     0.234 C 
BRANCH  11  12
ATOM     12  O   UNL     1      63.096  50.455  36.699  1.00  0.00    -0.388 OA
ATOM     13  H   UNL     1      62.454  50.322  35.953  1.00  0.00     0.211 HD
ENDBRANCH  11  12
ENDBRANCH   9  11
ENDBRANCH   8   9
BRANCH   8  14
ATOM     14  O   UNL     1      66.283  48.715  38.431  1.00  0.00    -0.382 OA
ATOM     15  H   UNL     1      66.866  48.968  39.193  1.00  0.00     0.211 HD
ENDBRANCH   8  14
ENDBRANCH   1   8
BRANCH   1  16
ATOM     16  O   UNL     1      64.194  51.555  39.446  1.00  0.00    -0.387 OA
ATOM     17  H   UNL     1      64.409  52.286  40.082  1.00  0.00     0.211 HD
ENDBRANCH   1  16
TORSDOF 10
ENDMDL
MODEL 5
REMARK VINA RESULT:    -3.869      1.985      2.784
REMARK INTER + INTRA:          -6.480
REMARK INTER:                  -5.494
REMARK INTRA:                  -0.986
REMARK UNBOUND:                -0.915
REMARK SMILES O=C(CO)[C@@H](O)[C@@H](O)[C@@H](O)CO
REMARK SMILES IDX 7 1 9 2 11 3 12 4 10 6 5 8 2 9 1 10 3 11 4 12 6 14 8 16
REMARK H PARENT 12 5 10 7 4 13 6 15 8 17
REMARK Flexibility Score: inf
ROOT
ATOM      1  C   UNL     1      64.705  50.434  39.736  1.00  0.00     0.181 C 
ENDROOT
BRANCH   1   2
ATOM      2  C   UNL     1      65.042  49.596  38.468  1.00  0.00     0.171 C 
BRANCH   2   3
ATOM      3  C   UNL     1      64.680  50.337  37.168  1.00  0.00     0.190 C 
BRANCH   3   4
ATOM      4  O   UNL     1      63.302  50.262  36.931  1.00  0.00    -0.394 OA
ATOM      5  H   UNL     1      62.866  50.722  37.696  1.00  0.00     0.210 HD
ENDBRANCH   3   4
ENDBRANCH   2   3
BRANCH   2   6
ATOM      6  O   UNL     1      64.384  48.352  38.499  1.00  0.00    -0.388 OA
ATOM      7  H   UNL     1      63.542  48.447  37.981  1.00  0.00     0.211 HD
ENDBRANCH   2   6
ENDBRANCH   1   2
BRANCH   1   8
ATOM      8  C   UNL     1      65.916  50.626  40.695  1.00  0.00     0.214 C 
BRANCH   8   9
ATOM      9  C   UNL     1      66.607  51.967  40.525  1.00  0.00     0.189 C 
ATOM     10  O   UNL     1      67.301  52.158  39.537  1.00  0.00    -0.294 OA
BRANCH   9  11
ATOM     11  C   UNL     1      66.513  53.055  41.564  1.00  0.00     0.234 C 
BRANCH  11  12
ATOM     12  O   UNL     1      65.183  53.461  41.726  1.00  0.00    -0.388 OA
ATOM     13  H   UNL     1      64.950  53.293  42.677  1.00  0.00     0.211 HD
ENDBRANCH  11  12
ENDBRANCH   9  11
ENDBRANCH   8   9
BRANCH   8  14
ATOM     14  O   UNL     1      65.534  50.410  42.032  1.00  0.00    -0.382 OA
ATOM     15  H   UNL     1      66.299  50.649  42.618  1.00  0.00     0.211 HD
ENDBRANCH   8  14
ENDBRANCH   1   8
BRANCH   1  16
ATOM     16  O   UNL     1      64.141  51.676  39.388  1.00  0.00    -0.387 OA
ATOM     17  H   UNL     1      64.541  52.367  39.977  1.00  0.00     0.211 HD
ENDBRANCH   1  16
TORSDOF 10
ENDMDL
MODEL 6
REMARK VINA RESULT:    -3.865      1.420      4.027
REMARK INTER + INTRA:          -6.474
REMARK INTER:                  -5.493
REMARK INTRA:                  -0.981
REMARK UNBOUND:                -0.915
REMARK SMILES O=C(CO)[C@@H](O)[C@@H](O)[C@@H](O)CO
REMARK SMILES IDX 7 1 9 2 11 3 12 4 10 6 5 8 2 9 1 10 3 11 4 12 6 14 8 16
REMARK H PARENT 12 5 10 7 4 13 6 15 8 17
REMARK Flexibility Score: inf
ROOT
ATOM      1  C   UNL     1      65.383  51.371  39.371  1.00  0.00     0.181 C 
ENDROOT
BRANCH   1   2
ATOM      2  C   UNL     1      65.464  49.920  39.930  1.00  0.00     0.171 C 
BRANCH   2   3
ATOM      3  C   UNL     1      65.607  48.873  38.810  1.00  0.00     0.190 C 
BRANCH   3   4
ATOM      4  O   UNL     1      64.369  48.280  38.536  1.00  0.00    -0.394 OA
ATOM      5  H   UNL     1      64.549  47.311  38.414  1.00  0.00     0.210 HD
ENDBRANCH   3   4
ENDBRANCH   2   3
BRANCH   2   6
ATOM      6  O   UNL     1      64.333  49.621  40.712  1.00  0.00    -0.388 OA
ATOM      7  H   UNL     1      64.532  49.901  41.644  1.00  0.00     0.211 HD
ENDBRANCH   2   6
ENDBRANCH   1   2
BRANCH   1   8
ATOM      8  C   UNL     1      66.005  51.527  37.952  1.00  0.00     0.214 C 
BRANCH   8   9
ATOM      9  C   UNL     1      65.003  51.986  36.907  1.00  0.00     0.189 C 
ATOM     10  O   UNL     1      64.766  53.180  36.795  1.00  0.00    -0.294 OA
BRANCH   9  11
ATOM     11  C   UNL     1      64.247  51.014  36.039  1.00  0.00     0.234 C 
BRANCH  11  12
ATOM     12  O   UNL     1      63.226  50.397  36.773  1.00  0.00    -0.388 OA
ATOM     13  H   UNL     1      62.461  50.280  36.150  1.00  0.00     0.211 HD
ENDBRANCH  11  12
ENDBRANCH   9  11
ENDBRANCH   8   9
BRANCH   8  14
ATOM     14  O   UNL     1      67.131  52.370  37.990  1.00  0.00    -0.382 OA
ATOM     15  H   UNL     1      67.182  52.783  38.890  1.00  0.00     0.211 HD
ENDBRANCH   8  14
ENDBRANCH   1   8
BRANCH   1  16
ATOM     16  O   UNL     1      64.059  51.851  39.392  1.00  0.00    -0.387 OA
ATOM     17  H   UNL     1      64.083  52.821  39.187  1.00  0.00     0.211 HD
ENDBRANCH   1  16
TORSDOF 10
ENDMDL
MODEL 7
REMARK VINA RESULT:    -3.802      1.231      4.693
REMARK INTER + INTRA:          -6.384
REMARK INTER:                  -5.651
REMARK INTRA:                  -0.733
REMARK UNBOUND:                -0.915
REMARK SMILES O=C(CO)[C@@H](O)[C@@H](O)[C@@H](O)CO
REMARK SMILES IDX 7 1 9 2 11 3 12 4 10 6 5 8 2 9 1 10 3 11 4 12 6 14 8 16
REMARK H PARENT 12 5 10 7 4 13 6 15 8 17
REMARK Flexibility Score: inf
ROOT
ATOM      1  C   UNL     1      65.502  50.319  37.682  1.00  0.00     0.181 C 
ENDROOT
BRANCH   1   2
ATOM      2  C   UNL     1      64.830  49.628  38.905  1.00  0.00     0.171 C 
BRANCH   2   3
ATOM      3  C   UNL     1      65.745  49.621  40.144  1.00  0.00     0.190 C 
BRANCH   3   4
ATOM      4  O   UNL     1      65.250  48.738  41.111  1.00  0.00    -0.394 OA
ATOM      5  H   UNL     1      66.041  48.265  41.482  1.00  0.00     0.210 HD
ENDBRANCH   3   4
ENDBRANCH   2   3
BRANCH   2   6
ATOM      6  O   UNL     1      64.455  48.308  38.591  1.00  0.00    -0.388 OA
ATOM      7  H   UNL     1      64.046  48.322  37.686  1.00  0.00     0.211 HD
ENDBRANCH   2   6
ENDBRANCH   1   2
BRANCH   1   8
ATOM      8  C   UNL     1      64.487  51.006  36.722  1.00  0.00     0.214 C 
BRANCH   8   9
ATOM      9  C   UNL     1      65.009  51.151  35.304  1.00  0.00     0.189 C 
ATOM     10  O   UNL     1      66.211  51.066  35.101  1.00  0.00    -0.294 OA
BRANCH   9  11
ATOM     11  C   UNL     1      64.099  51.453  34.141  1.00  0.00     0.234 C 
BRANCH  11  12
ATOM     12  O   UNL     1      63.155  50.431  33.983  1.00  0.00    -0.388 OA
ATOM     13  H   UNL     1      63.384  49.963  33.137  1.00  0.00     0.211 HD
ENDBRANCH  11  12
ENDBRANCH   9  11
ENDBRANCH   8   9
BRANCH   8  14
ATOM     14  O   UNL     1      63.246  50.343  36.748  1.00  0.00    -0.382 OA
ATOM     15  H   UNL     1      63.079  50.029  37.674  1.00  0.00     0.211 HD
ENDBRANCH   8  14
ENDBRANCH   1   8
BRANCH   1  16
ATOM     16  O   UNL     1      66.494  51.229  38.094  1.00  0.00    -0.387 OA
ATOM     17  H   UNL     1      66.715  51.030  39.041  1.00  0.00     0.211 HD
ENDBRANCH   1  16
TORSDOF 10
ENDMDL
MODEL 8
REMARK VINA RESULT:    -3.792      1.616      2.913
REMARK INTER + INTRA:          -6.369
REMARK INTER:                  -5.396
REMARK INTRA:                  -0.973
REMARK UNBOUND:                -0.915
REMARK SMILES O=C(CO)[C@@H](O)[C@@H](O)[C@@H](O)CO
REMARK SMILES IDX 7 1 9 2 11 3 12 4 10 6 5 8 2 9 1 10 3 11 4 12 6 14 8 16
REMARK H PARENT 12 5 10 7 4 13 6 15 8 17
REMARK Flexibility Score: inf
ROOT
ATOM      1  C   UNL     1      66.165  49.776  39.494  1.00  0.00     0.181 C 
ENDROOT
BRANCH   1   2
ATOM      2  C   UNL     1      65.311  49.332  38.271  1.00  0.00     0.171 C 
BRANCH   2   3
ATOM      3  C   UNL     1      64.486  50.493  37.685  1.00  0.00     0.190 C 
BRANCH   3   4
ATOM      4  O   UNL     1      64.131  51.397  38.694  1.00  0.00    -0.394 OA
ATOM      5  H   UNL     1      64.895  51.416  39.328  1.00  0.00     0.210 HD
ENDBRANCH   3   4
ENDBRANCH   2   3
BRANCH   2   6
ATOM      6  O   UNL     1      64.452  48.273  38.617  1.00  0.00    -0.388 OA
ATOM      7  H   UNL     1      64.664  47.509  38.019  1.00  0.00     0.211 HD
ENDBRANCH   2   6
ENDBRANCH   1   2
BRANCH   1   8
ATOM      8  C   UNL     1      65.623  49.249  40.855  1.00  0.00     0.214 C 
BRANCH   8   9
ATOM      9  C   UNL     1      66.494  49.635  42.037  1.00  0.00     0.189 C 
ATOM     10  O   UNL     1      67.611  49.147  42.137  1.00  0.00    -0.294 OA
BRANCH   9  11
ATOM     11  C   UNL     1      66.008  50.558  43.124  1.00  0.00     0.234 C 
BRANCH  11  12
ATOM     12  O   UNL     1      65.808  51.848  42.615  1.00  0.00    -0.388 OA
ATOM     13  H   UNL     1      66.693  52.300  42.635  1.00  0.00     0.211 HD
ENDBRANCH  11  12
ENDBRANCH   9  11
ENDBRANCH   8   9
BRANCH   8  14
ATOM     14  O   UNL     1      64.287  49.647  41.050  1.00  0.00    -0.382 OA
ATOM     15  H   UNL     1      64.168  50.547  40.649  1.00  0.00     0.211 HD
ENDBRANCH   8  14
ENDBRANCH   1   8
BRANCH   1  16
ATOM     16  O   UNL     1      67.518  49.424  39.325  1.00  0.00    -0.387 OA
ATOM     17  H   UNL     1      67.563  48.441  39.201  1.00  0.00     0.211 HD
ENDBRANCH   1  16
TORSDOF 10
ENDMDL
MODEL 9
REMARK VINA RESULT:    -3.788      1.833      4.477
REMARK INTER + INTRA:          -6.364
REMARK INTER:                  -5.213
REMARK INTRA:                  -1.151
REMARK UNBOUND:                -0.915
REMARK SMILES O=C(CO)[C@@H](O)[C@@H](O)[C@@H](O)CO
REMARK SMILES IDX 7 1 9 2 11 3 12 4 10 6 5 8 2 9 1 10 3 11 4 12 6 14 8 16
REMARK H PARENT 12 5 10 7 4 13 6 15 8 17
REMARK Flexibility Score: inf
ROOT
ATOM      1  C   UNL     1      64.970  49.824  40.786  1.00  0.00     0.181 C 
ENDROOT
BRANCH   1   2
ATOM      2  C   UNL     1      66.257  49.696  41.653  1.00  0.00     0.171 C 
BRANCH   2   3
ATOM      3  C   UNL     1      67.304  50.767  41.300  1.00  0.00     0.190 C 
BRANCH   3   4
ATOM      4  O   UNL     1      68.365  50.196  40.585  1.00  0.00    -0.394 OA
ATOM      5  H   UNL     1      68.081  49.270  40.365  1.00  0.00     0.210 HD
ENDBRANCH   3   4
ENDBRANCH   2   3
BRANCH   2   6
ATOM      6  O   UNL     1      66.828  48.417  41.517  1.00  0.00    -0.388 OA
ATOM      7  H   UNL     1      66.687  47.935  42.374  1.00  0.00     0.211 HD
ENDBRANCH   2   6
ENDBRANCH   1   2
BRANCH   1   8
ATOM      8  C   UNL     1      65.138  50.766  39.558  1.00  0.00     0.214 C 
BRANCH   8   9
ATOM      9  C   UNL     1      65.206  50.020  38.237  1.00  0.00     0.189 C 
ATOM     10  O   UNL     1      64.170  49.798  37.626  1.00  0.00    -0.294 OA
BRANCH   9  11
ATOM     11  C   UNL     1      66.502  49.493  37.678  1.00  0.00     0.234 C 
BRANCH  11  12
ATOM     12  O   UNL     1      67.005  48.472  38.495  1.00  0.00    -0.388 OA
ATOM     13  H   UNL     1      66.855  48.762  39.433  1.00  0.00     0.211 HD
ENDBRANCH  11  12
ENDBRANCH   9  11
ENDBRANCH   8   9
BRANCH   8  14
ATOM     14  O   UNL     1      64.133  51.751  39.541  1.00  0.00    -0.382 OA
ATOM     15  H   UNL     1      63.807  51.848  38.610  1.00  0.00     0.211 HD
ENDBRANCH   8  14
ENDBRANCH   1   8
BRANCH   1  16
ATOM     16  O   UNL     1      64.500  48.559  40.384  1.00  0.00    -0.387 OA
ATOM     17  H   UNL     1      65.221  48.117  39.866  1.00  0.00     0.211 HD
ENDBRANCH   1  16
TORSDOF 10
ENDMDL
