MODEL 1
REMARK VINA RESULT:    -4.240      0.000      0.000
REMARK INTER + INTRA:          -7.303
REMARK INTER:                  -6.471
REMARK INTRA:                  -0.832
REMARK UNBOUND:                -0.832
REMARK SMILES CCCCCCCCCCC(=O)[O-]
REMARK SMILES IDX 7 1 8 2 9 3 10 4 11 5 12 6 13 7 6 8 5 9 4 10 3 11 2 12 1 13
REMARK H PARENT
REMARK Flexibility Score: inf
ROOT
ATOM      1  C   UNL     1      26.877   3.543   7.307  1.00  0.00     0.000 C 
ENDROOT
BRANCH   1   2
ATOM      2  C   UNL     1      27.877   2.658   8.061  1.00  0.00     0.000 C 
BRANCH   2   3
ATOM      3  C   UNL     1      27.613   1.170   7.784  1.00  0.00     0.006 C 
BRANCH   3   4
ATOM      4  C   UNL     1      28.366   0.255   8.759  1.00  0.00     0.053 C 
BRANCH   4   5
ATOM      5  C   UNL     1      27.495  -0.850   9.272  1.00  0.00     0.041 C 
ATOM      6  O   UNL     1      26.398  -1.104   8.711  1.00  0.00    -0.550 OA
ATOM      7  O   UNL     1      27.880  -1.577  10.393  1.00  0.00    -0.550 OA
ENDBRANCH   4   5
ENDBRANCH   3   4
ENDBRANCH   2   3
ENDBRANCH   1   2
BRANCH   1   8
ATOM      8  C   UNL     1      26.598   4.840   8.080  1.00  0.00     0.000 C 
BRANCH   8   9
ATOM      9  C   UNL     1      25.845   4.602   9.401  1.00  0.00    -0.000 C 
BRANCH   9  10
ATOM     10  C   UNL     1      26.467   5.280  10.636  1.00  0.00    -0.000 C 
BRANCH  10  11
ATOM     11  C   UNL     1      27.939   5.670  10.428  1.00  0.00    -0.000 C 
BRANCH  11  12
ATOM     12  C   UNL     1      28.822   5.086  11.536  1.00  0.00    -0.003 C 
ATOM     13  C   UNL     1      28.829   3.561  11.490  1.00  0.00     0.004 C 
ENDBRANCH  11  12
ENDBRANCH  10  11
ENDBRANCH   9  10
ENDBRANCH   8   9
ENDBRANCH   1   8
TORSDOF 9
ENDMDL
MODEL 2
REMARK VINA RESULT:    -4.111      3.241      4.910
REMARK INTER + INTRA:          -7.105
REMARK INTER:                  -5.971
REMARK INTRA:                  -1.134
REMARK UNBOUND:                -0.832
REMARK SMILES CCCCCCCCCCC(=O)[O-]
REMARK SMILES IDX 7 1 8 2 9 3 10 4 11 5 12 6 13 7 6 8 5 9 4 10 3 11 2 12 1 13
REMARK H PARENT
REMARK Flexibility Score: inf
ROOT
ATOM      1  C   UNL     1      26.463   3.833   7.091  1.00  0.00     0.000 C 
ENDROOT
BRANCH   1   2
ATOM      2  C   UNL     1      27.397   4.252   8.234  1.00  0.00     0.000 C 
BRANCH   2   3
ATOM      3  C   UNL     1      26.648   4.285   9.574  1.00  0.00     0.006 C 
BRANCH   3   4
ATOM      4  C   UNL     1      27.247   5.306  10.550  1.00  0.00     0.053 C 
BRANCH   4   5
ATOM      5  C   UNL     1      28.334   4.705  11.387  1.00  0.00     0.041 C 
ATOM      6  O   UNL     1      28.534   3.462  11.369  1.00  0.00    -0.550 OA
ATOM      7  O   UNL     1      29.106   5.514  12.213  1.00  0.00    -0.550 OA
ENDBRANCH   4   5
ENDBRANCH   3   4
ENDBRANCH   2   3
ENDBRANCH   1   2
BRANCH   1   8
ATOM      8  C   UNL     1      24.999   3.819   7.555  1.00  0.00     0.000 C 
BRANCH   8   9
ATOM      9  C   UNL     1      24.108   4.790   6.760  1.00  0.00    -0.000 C 
BRANCH   9  10
ATOM     10  C   UNL     1      24.403   6.284   6.994  1.00  0.00    -0.000 C 
BRANCH  10  11
ATOM     11  C   UNL     1      25.061   6.961   5.782  1.00  0.00    -0.000 C 
BRANCH  11  12
ATOM     12  C   UNL     1      26.491   7.403   6.110  1.00  0.00    -0.003 C 
ATOM     13  C   UNL     1      26.611   7.846   7.565  1.00  0.00     0.004 C 
ENDBRANCH  11  12
ENDBRANCH  10  11
ENDBRANCH   9  10
ENDBRANCH   8   9
ENDBRANCH   1   8
TORSDOF 9
ENDMDL
MODEL 3
REMARK VINA RESULT:    -4.104      3.698      5.924
REMARK INTER + INTRA:          -7.095
REMARK INTER:                  -5.997
REMARK INTRA:                  -1.098
REMARK UNBOUND:                -0.832
REMARK SMILES CCCCCCCCCCC(=O)[O-]
REMARK SMILES IDX 7 1 8 2 9 3 10 4 11 5 12 6 13 7 6 8 5 9 4 10 3 11 2 12 1 13
REMARK H PARENT
REMARK Flexibility Score: inf
ROOT
ATOM      1  C   UNL     1      26.319   5.454  10.806  1.00  0.00     0.000 C 
ENDROOT
BRANCH   1   2
ATOM      2  C   UNL     1      25.664   6.372   9.767  1.00  0.00     0.000 C 
BRANCH   2   3
ATOM      3  C   UNL     1      26.710   6.940   8.796  1.00  0.00     0.006 C 
BRANCH   3   4
ATOM      4  C   UNL     1      26.079   7.827   7.714  1.00  0.00     0.053 C 
BRANCH   4   5
ATOM      5  C   UNL     1      26.046   7.143   6.382  1.00  0.00     0.041 C 
ATOM      6  O   UNL     1      25.534   7.719   5.387  1.00  0.00    -0.550 OA
ATOM      7  O   UNL     1      26.551   5.855   6.248  1.00  0.00    -0.550 OA
ENDBRANCH   4   5
ENDBRANCH   3   4
ENDBRANCH   2   3
ENDBRANCH   1   2
BRANCH   1   8
ATOM      8  C   UNL     1      27.849   5.573  10.758  1.00  0.00     0.000 C 
BRANCH   8   9
ATOM      9  C   UNL     1      28.561   4.214  10.890  1.00  0.00    -0.000 C 
BRANCH   9  10
ATOM     10  C   UNL     1      28.000   3.096   9.992  1.00  0.00    -0.000 C 
BRANCH  10  11
ATOM     11  C   UNL     1      28.093   3.426   8.494  1.00  0.00    -0.000 C 
BRANCH  11  12
ATOM     12  C   UNL     1      27.089   2.596   7.686  1.00  0.00    -0.003 C 
ATOM     13  C   UNL     1      25.654   2.916   8.095  1.00  0.00     0.004 C 
ENDBRANCH  11  12
ENDBRANCH  10  11
ENDBRANCH   9  10
ENDBRANCH   8   9
ENDBRANCH   1   8
TORSDOF 9
ENDMDL
MODEL 4
REMARK VINA RESULT:    -4.101      3.446      5.152
REMARK INTER + INTRA:          -7.091
REMARK INTER:                  -5.912
REMARK INTRA:                  -1.179
REMARK UNBOUND:                -0.832
REMARK SMILES CCCCCCCCCCC(=O)[O-]
REMARK SMILES IDX 7 1 8 2 9 3 10 4 11 5 12 6 13 7 6 8 5 9 4 10 3 11 2 12 1 13
REMARK H PARENT
REMARK Flexibility Score: inf
ROOT
ATOM      1  C   UNL     1      25.082   5.549  10.975  1.00  0.00     0.000 C 
ENDROOT
BRANCH   1   2
ATOM      2  C   UNL     1      25.526   4.293  10.215  1.00  0.00     0.000 C 
BRANCH   2   3
ATOM      3  C   UNL     1      26.948   4.458   9.659  1.00  0.00     0.006 C 
BRANCH   3   4
ATOM      4  C   UNL     1      27.751   5.519  10.422  1.00  0.00     0.053 C 
BRANCH   4   5
ATOM      5  C   UNL     1      28.618   4.908  11.480  1.00  0.00     0.041 C 
ATOM      6  O   UNL     1      29.109   5.626  12.389  1.00  0.00    -0.550 OA
ATOM      7  O   UNL     1      28.910   3.549  11.442  1.00  0.00    -0.550 OA
ENDBRANCH   4   5
ENDBRANCH   3   4
ENDBRANCH   2   3
ENDBRANCH   1   2
BRANCH   1   8
ATOM      8  C   UNL     1      23.864   6.198  10.301  1.00  0.00     0.000 C 
BRANCH   8   9
ATOM      9  C   UNL     1      23.932   7.735  10.291  1.00  0.00    -0.000 C 
BRANCH   9  10
ATOM     10  C   UNL     1      24.369   8.358   8.952  1.00  0.00    -0.000 C 
BRANCH  10  11
ATOM     11  C   UNL     1      25.884   8.265   8.714  1.00  0.00    -0.000 C 
BRANCH  11  12
ATOM     12  C   UNL     1      26.188   7.885   7.260  1.00  0.00    -0.003 C 
ATOM     13  C   UNL     1      25.625   6.507   6.921  1.00  0.00     0.004 C 
ENDBRANCH  11  12
ENDBRANCH  10  11
ENDBRANCH   9  10
ENDBRANCH   8   9
ENDBRANCH   1   8
TORSDOF 9
ENDMDL
MODEL 5
REMARK VINA RESULT:    -4.077      2.989      4.827
REMARK INTER + INTRA:          -7.053
REMARK INTER:                  -5.969
REMARK INTRA:                  -1.084
REMARK UNBOUND:                -0.832
REMARK SMILES CCCCCCCCCCC(=O)[O-]
REMARK SMILES IDX 7 1 8 2 9 3 10 4 11 5 12 6 13 7 6 8 5 9 4 10 3 11 2 12 1 13
REMARK H PARENT
REMARK Flexibility Score: inf
ROOT
ATOM      1  C   UNL     1      25.007   6.586   9.705  1.00  0.00     0.000 C 
ENDROOT
BRANCH   1   2
ATOM      2  C   UNL     1      25.984   5.628  10.398  1.00  0.00     0.000 C 
BRANCH   2   3
ATOM      3  C   UNL     1      27.437   5.961  10.030  1.00  0.00     0.006 C 
BRANCH   3   4
ATOM      4  C   UNL     1      28.446   5.205  10.904  1.00  0.00     0.053 C 
BRANCH   4   5
ATOM      5  C   UNL     1      28.421   3.731  10.636  1.00  0.00     0.041 C 
ATOM      6  O   UNL     1      28.683   2.915  11.557  1.00  0.00    -0.550 OA
ATOM      7  O   UNL     1      28.142   3.260   9.358  1.00  0.00    -0.550 OA
ENDBRANCH   4   5
ENDBRANCH   3   4
ENDBRANCH   2   3
ENDBRANCH   1   2
BRANCH   1   8
ATOM      8  C   UNL     1      25.696   7.910   9.347  1.00  0.00     0.000 C 
BRANCH   8   9
ATOM      9  C   UNL     1      25.777   8.154   7.829  1.00  0.00    -0.000 C 
BRANCH   9  10
ATOM     10  C   UNL     1      25.230   7.010   6.956  1.00  0.00    -0.000 C 
BRANCH  10  11
ATOM     11  C   UNL     1      26.330   6.269   6.180  1.00  0.00    -0.000 C 
BRANCH  11  12
ATOM     12  C   UNL     1      26.454   4.817   6.656  1.00  0.00    -0.003 C 
ATOM     13  C   UNL     1      25.081   4.175   6.830  1.00  0.00     0.004 C 
ENDBRANCH  11  12
ENDBRANCH  10  11
ENDBRANCH   9  10
ENDBRANCH   8   9
ENDBRANCH   1   8
TORSDOF 9
ENDMDL
MODEL 6
REMARK VINA RESULT:    -4.017      2.654      4.699
REMARK INTER + INTRA:          -6.962
REMARK INTER:                  -5.805
REMARK INTRA:                  -1.157
REMARK UNBOUND:                -0.832
REMARK SMILES CCCCCCCCCCC(=O)[O-]
REMARK SMILES IDX 7 1 8 2 9 3 10 4 11 5 12 6 13 7 6 8 5 9 4 10 3 11 2 12 1 13
REMARK H PARENT
REMARK Flexibility Score: inf
ROOT
ATOM      1  C   UNL     1      24.622   5.397   9.566  1.00  0.00     0.000 C 
ENDROOT
BRANCH   1   2
ATOM      2  C   UNL     1      25.878   4.978  10.340  1.00  0.00     0.000 C 
BRANCH   2   3
ATOM      3  C   UNL     1      27.044   5.937  10.060  1.00  0.00     0.006 C 
BRANCH   3   4
ATOM      4  C   UNL     1      28.396   5.214  10.024  1.00  0.00     0.053 C 
BRANCH   4   5
ATOM      5  C   UNL     1      28.749   4.626  11.356  1.00  0.00     0.041 C 
ATOM      6  O   UNL     1      29.083   5.375  12.311  1.00  0.00    -0.550 OA
ATOM      7  O   UNL     1      28.742   3.247  11.533  1.00  0.00    -0.550 OA
ENDBRANCH   4   5
ENDBRANCH   3   4
ENDBRANCH   2   3
ENDBRANCH   1   2
BRANCH   1   8
ATOM      8  C   UNL     1      24.766   5.079   8.071  1.00  0.00     0.000 C 
BRANCH   8   9
ATOM      9  C   UNL     1      25.268   3.648   7.807  1.00  0.00    -0.000 C 
BRANCH   9  10
ATOM     10  C   UNL     1      26.458   3.545   6.835  1.00  0.00    -0.000 C 
BRANCH  10  11
ATOM     11  C   UNL     1      27.631   2.734   7.406  1.00  0.00    -0.000 C 
BRANCH  11  12
ATOM     12  C   UNL     1      27.152   1.775   8.502  1.00  0.00    -0.003 C 
ATOM     13  C   UNL     1      28.211   0.723   8.816  1.00  0.00     0.004 C 
ENDBRANCH  11  12
ENDBRANCH  10  11
ENDBRANCH   9  10
ENDBRANCH   8   9
ENDBRANCH   1   8
TORSDOF 9
ENDMDL
MODEL 7
REMARK VINA RESULT:    -3.996      2.491      3.681
REMARK INTER + INTRA:          -6.930
REMARK INTER:                  -5.435
REMARK INTRA:                  -1.495
REMARK UNBOUND:                -0.832
REMARK SMILES CCCCCCCCCCC(=O)[O-]
REMARK SMILES IDX 7 1 8 2 9 3 10 4 11 5 12 6 13 7 6 8 5 9 4 10 3 11 2 12 1 13
REMARK H PARENT
REMARK Flexibility Score: inf
ROOT
ATOM      1  C   UNL     1      26.158   6.454   6.666  1.00  0.00     0.000 C 
ENDROOT
BRANCH   1   2
ATOM      2  C   UNL     1      24.840   5.669   6.654  1.00  0.00     0.000 C 
BRANCH   2   3
ATOM      3  C   UNL     1      25.094   4.164   6.823  1.00  0.00     0.006 C 
BRANCH   3   4
ATOM      4  C   UNL     1      26.589   3.835   6.935  1.00  0.00     0.053 C 
BRANCH   4   5
ATOM      5  C   UNL     1      26.846   2.740   7.924  1.00  0.00     0.041 C 
ATOM      6  O   UNL     1      27.964   2.652   8.495  1.00  0.00    -0.550 OA
ATOM      7  O   UNL     1      25.861   1.795   8.189  1.00  0.00    -0.550 OA
ENDBRANCH   4   5
ENDBRANCH   3   4
ENDBRANCH   2   3
ENDBRANCH   1   2
BRANCH   1   8
ATOM      8  C   UNL     1      26.014   7.758   7.465  1.00  0.00     0.000 C 
BRANCH   8   9
ATOM      9  C   UNL     1      26.107   7.542   8.986  1.00  0.00    -0.000 C 
BRANCH   9  10
ATOM     10  C   UNL     1      27.163   6.514   9.435  1.00  0.00    -0.000 C 
BRANCH  10  11
ATOM     11  C   UNL     1      26.620   5.506  10.460  1.00  0.00    -0.000 C 
BRANCH  11  12
ATOM     12  C   UNL     1      25.093   5.598  10.563  1.00  0.00    -0.003 C 
ATOM     13  C   UNL     1      24.456   4.212  10.539  1.00  0.00     0.004 C 
ENDBRANCH  11  12
ENDBRANCH  10  11
ENDBRANCH   9  10
ENDBRANCH   8   9
ENDBRANCH   1   8
TORSDOF 9
ENDMDL
MODEL 8
REMARK VINA RESULT:    -3.982      2.428      4.197
REMARK INTER + INTRA:          -6.909
REMARK INTER:                  -5.717
REMARK INTRA:                  -1.193
REMARK UNBOUND:                -0.832
REMARK SMILES CCCCCCCCCCC(=O)[O-]
REMARK SMILES IDX 7 1 8 2 9 3 10 4 11 5 12 6 13 7 6 8 5 9 4 10 3 11 2 12 1 13
REMARK H PARENT
REMARK Flexibility Score: inf
ROOT
ATOM      1  C   UNL     1      25.957   4.921  10.561  1.00  0.00     0.000 C 
ENDROOT
BRANCH   1   2
ATOM      2  C   UNL     1      27.409   5.413  10.564  1.00  0.00     0.000 C 
BRANCH   2   3
ATOM      3  C   UNL     1      28.281   4.565   9.625  1.00  0.00     0.006 C 
BRANCH   3   4
ATOM      4  C   UNL     1      27.510   4.089   8.388  1.00  0.00     0.053 C 
BRANCH   4   5
ATOM      5  C   UNL     1      27.620   2.607   8.199  1.00  0.00     0.041 C 
ATOM      6  O   UNL     1      28.009   1.875   9.146  1.00  0.00    -0.550 OA
ATOM      7  O   UNL     1      27.327   2.038   6.965  1.00  0.00    -0.550 OA
ENDBRANCH   4   5
ENDBRANCH   3   4
ENDBRANCH   2   3
ENDBRANCH   1   2
BRANCH   1   8
ATOM      8  C   UNL     1      24.982   6.085  10.337  1.00  0.00     0.000 C 
BRANCH   8   9
ATOM      9  C   UNL     1      24.136   5.924   9.061  1.00  0.00    -0.000 C 
BRANCH   9  10
ATOM     10  C   UNL     1      24.362   7.007   7.990  1.00  0.00    -0.000 C 
BRANCH  10  11
ATOM     11  C   UNL     1      25.492   7.982   8.352  1.00  0.00    -0.000 C 
BRANCH  11  12
ATOM     12  C   UNL     1      26.690   7.805   7.413  1.00  0.00    -0.003 C 
ATOM     13  C   UNL     1      26.282   7.093   6.126  1.00  0.00     0.004 C 
ENDBRANCH  11  12
ENDBRANCH  10  11
ENDBRANCH   9  10
ENDBRANCH   8   9
ENDBRANCH   1   8
TORSDOF 9
ENDMDL
MODEL 9
REMARK VINA RESULT:    -3.955      2.320      4.219
REMARK INTER + INTRA:          -6.868
REMARK INTER:                  -5.615
REMARK INTRA:                  -1.253
REMARK UNBOUND:                -0.832
REMARK SMILES CCCCCCCCCCC(=O)[O-]
REMARK SMILES IDX 7 1 8 2 9 3 10 4 11 5 12 6 13 7 6 8 5 9 4 10 3 11 2 12 1 13
REMARK H PARENT
REMARK Flexibility Score: inf
ROOT
ATOM      1  C   UNL     1      27.186   6.396   9.641  1.00  0.00     0.000 C 
ENDROOT
BRANCH   1   2
ATOM      2  C   UNL     1      26.527   5.136  10.215  1.00  0.00     0.000 C 
BRANCH   2   3
ATOM      3  C   UNL     1      27.432   3.908  10.034  1.00  0.00     0.006 C 
BRANCH   3   4
ATOM      4  C   UNL     1      27.890   3.734   8.580  1.00  0.00     0.053 C 
BRANCH   4   5
ATOM      5  C   UNL     1      27.673   2.334   8.092  1.00  0.00     0.041 C 
ATOM      6  O   UNL     1      27.136   2.131   6.972  1.00  0.00    -0.550 OA
ATOM      7  O   UNL     1      28.033   1.255   8.889  1.00  0.00    -0.550 OA
ENDBRANCH   4   5
ENDBRANCH   3   4
ENDBRANCH   2   3
ENDBRANCH   1   2
BRANCH   1   8
ATOM      8  C   UNL     1      26.149   7.296   8.954  1.00  0.00     0.000 C 
BRANCH   8   9
ATOM      9  C   UNL     1      26.571   7.726   7.538  1.00  0.00    -0.000 C 
BRANCH   9  10
ATOM     10  C   UNL     1      26.270   6.699   6.430  1.00  0.00    -0.000 C 
BRANCH  10  11
ATOM     11  C   UNL     1      24.820   6.193   6.459  1.00  0.00    -0.000 C 
BRANCH  11  12
ATOM     12  C   UNL     1      24.775   4.669   6.626  1.00  0.00    -0.003 C 
ATOM     13  C   UNL     1      23.968   4.274   7.859  1.00  0.00     0.004 C 
ENDBRANCH  11  12
ENDBRANCH  10  11
ENDBRANCH   9  10
ENDBRANCH   8   9
ENDBRANCH   1   8
TORSDOF 9
ENDMDL
