MODEL 1
REMARK VINA RESULT:    -6.344      0.000      0.000
REMARK INTER + INTRA:          -8.020
REMARK INTER:                  -7.642
REMARK INTRA:                  -0.378
REMARK UNBOUND:                -0.378
REMARK SMILES Oc1cc(O)c2c(c1)O[C@@H](c1ccc(O)c(O)c1)[C@H](O)C2
REMARK SMILES IDX 21 1 19 2 10 3 9 4 7 5 8 6 2 7 3 8 4 9 6 10 20 11 11 13
REMARK SMILES IDX 18 14 12 15 16 16 13 17 14 18 17 19 15 21 5 23 1 25
REMARK H PARENT 20 12 17 20 15 22 5 24 1 26
REMARK Flexibility Score: inf
ROOT
ATOM      1  C   UNL     1       9.628  -5.635  -8.015  1.00  0.00     0.079 C 
ATOM      2  C   UNL     1       9.375  -6.197  -9.426  1.00  0.00     0.164 C 
ATOM      3  C   UNL     1       9.633  -7.716  -9.433  1.00  0.00     0.232 C 
ATOM      4  O   UNL     1       8.826  -8.358  -8.445  1.00  0.00    -0.482 OA
ATOM      5  C   UNL     1       8.550  -7.771  -7.204  1.00  0.00     0.131 A 
ATOM      6  C   UNL     1       7.899  -8.521  -6.221  1.00  0.00     0.093 A 
ATOM      7  C   UNL     1       7.614  -7.955  -4.976  1.00  0.00     0.122 A 
ATOM      8  C   UNL     1       7.985  -6.630  -4.711  1.00  0.00     0.092 A 
ATOM      9  C   UNL     1       8.636  -5.867  -5.692  1.00  0.00     0.126 A 
ATOM     10  C   UNL     1       8.903  -6.430  -6.954  1.00  0.00     0.039 A 
ENDROOT
BRANCH   2  11
ATOM     11  O   UNL     1      10.227  -5.567 -10.348  1.00  0.00    -0.389 OA
ATOM     12  H   UNL     1      11.079  -5.387  -9.872  1.00  0.00     0.211 HD
ENDBRANCH   2  11
BRANCH   3  13
ATOM     13  C   UNL     1       9.341  -8.311 -10.791  1.00  0.00    -0.001 A 
ATOM     14  C   UNL     1       8.047  -8.236 -11.334  1.00  0.00     0.057 A 
ATOM     15  C   UNL     1      10.344  -8.988 -11.504  1.00  0.00     0.012 A 
ATOM     16  C   UNL     1       7.763  -8.811 -12.581  1.00  0.00     0.157 A 
ATOM     17  C   UNL     1      10.064  -9.561 -12.747  1.00  0.00     0.050 A 
ATOM     18  C   UNL     1       8.779  -9.476 -13.290  1.00  0.00     0.157 A 
BRANCH  16  19
ATOM     19  O   UNL     1       6.478  -8.729 -13.115  1.00  0.00    -0.504 OA
ATOM     20  H   UNL     1       5.895  -7.913 -12.970  1.00  0.00     0.293 HD
ENDBRANCH  16  19
BRANCH  18  21
ATOM     21  O   UNL     1       8.529 -10.057 -14.533  1.00  0.00    -0.504 OA
ATOM     22  H   UNL     1       8.477 -11.061 -14.657  1.00  0.00     0.293 HD
ENDBRANCH  18  21
ENDBRANCH   3  13
BRANCH   9  23
ATOM     23  O   UNL     1       9.014  -4.553  -5.415  1.00  0.00    -0.507 OA
ATOM     24  H   UNL     1       9.917  -4.190  -5.698  1.00  0.00     0.293 HD
ENDBRANCH   9  23
BRANCH   7  25
ATOM     25  O   UNL     1       6.966  -8.717  -4.007  1.00  0.00    -0.508 OA
ATOM     26  H   UNL     1       7.334  -9.612  -3.702  1.00  0.00     0.293 HD
ENDBRANCH   7  25
TORSDOF 6
ENDMDL
MODEL 2
REMARK VINA RESULT:    -6.297      1.480      6.837
REMARK INTER + INTRA:          -7.964
REMARK INTER:                  -7.660
REMARK INTRA:                  -0.304
REMARK UNBOUND:                -0.378
REMARK SMILES Oc1cc(O)c2c(c1)O[C@@H](c1ccc(O)c(O)c1)[C@H](O)C2
REMARK SMILES IDX 21 1 19 2 10 3 9 4 7 5 8 6 2 7 3 8 4 9 6 10 20 11 11 13
REMARK SMILES IDX 18 14 12 15 16 16 13 17 14 18 17 19 15 21 5 23 1 25
REMARK H PARENT 20 12 17 20 15 22 5 24 1 26
REMARK Flexibility Score: inf
ROOT
ATOM      1  C   UNL     1      11.166  -7.198 -10.347  1.00  0.00     0.079 C 
ATOM      2  C   UNL     1      10.735  -7.208  -8.870  1.00  0.00     0.164 C 
ATOM      3  C   UNL     1       9.292  -6.684  -8.746  1.00  0.00     0.232 C 
ATOM      4  O   UNL     1       8.415  -7.456  -9.568  1.00  0.00    -0.482 OA
ATOM      5  C   UNL     1       8.801  -7.951 -10.819  1.00  0.00     0.131 A 
ATOM      6  C   UNL     1       7.845  -8.550 -11.644  1.00  0.00     0.093 A 
ATOM      7  C   UNL     1       8.209  -9.050 -12.897  1.00  0.00     0.122 A 
ATOM      8  C   UNL     1       9.538  -8.948 -13.329  1.00  0.00     0.092 A 
ATOM      9  C   UNL     1      10.506  -8.352 -12.508  1.00  0.00     0.126 A 
ATOM     10  C   UNL     1      10.145  -7.868 -11.237  1.00  0.00     0.039 A 
ENDROOT
BRANCH   2  11
ATOM     11  O   UNL     1      11.600  -6.397  -8.117  1.00  0.00    -0.389 OA
ATOM     12  H   UNL     1      11.621  -6.777  -7.200  1.00  0.00     0.211 HD
ENDBRANCH   2  11
BRANCH   3  13
ATOM     13  C   UNL     1       8.816  -6.733  -7.312  1.00  0.00    -0.001 A 
ATOM     14  C   UNL     1       8.803  -5.566  -6.530  1.00  0.00     0.057 A 
ATOM     15  C   UNL     1       8.429  -7.951  -6.731  1.00  0.00     0.012 A 
ATOM     16  C   UNL     1       8.389  -5.610  -5.191  1.00  0.00     0.157 A 
ATOM     17  C   UNL     1       8.016  -7.997  -5.397  1.00  0.00     0.050 A 
ATOM     18  C   UNL     1       7.992  -6.834  -4.623  1.00  0.00     0.157 A 
BRANCH  16  19
ATOM     19  O   UNL     1       8.374  -4.447  -4.423  1.00  0.00    -0.504 OA
ATOM     20  H   UNL     1       7.985  -3.581  -4.779  1.00  0.00     0.293 HD
ENDBRANCH  16  19
BRANCH  18  21
ATOM     21  O   UNL     1       7.574  -6.910  -3.295  1.00  0.00    -0.504 OA
ATOM     22  H   UNL     1       6.603  -6.799  -3.030  1.00  0.00     0.293 HD
ENDBRANCH  18  21
ENDBRANCH   3  13
BRANCH   9  23
ATOM     23  O   UNL     1      11.824  -8.242 -12.952  1.00  0.00    -0.507 OA
ATOM     24  H   UNL     1      12.069  -7.670 -13.751  1.00  0.00     0.293 HD
ENDBRANCH   9  23
BRANCH   7  25
ATOM     25  O   UNL     1       7.243  -9.643 -13.707  1.00  0.00    -0.508 OA
ATOM     26  H   UNL     1       7.197  -9.455 -14.702  1.00  0.00     0.293 HD
ENDBRANCH   7  25
TORSDOF 6
ENDMDL
MODEL 3
REMARK VINA RESULT:    -6.050      1.849      7.217
REMARK INTER + INTRA:          -7.665
REMARK INTER:                  -7.914
REMARK INTRA:                   0.248
REMARK UNBOUND:                -0.378
REMARK SMILES Oc1cc(O)c2c(c1)O[C@@H](c1ccc(O)c(O)c1)[C@H](O)C2
REMARK SMILES IDX 21 1 19 2 10 3 9 4 7 5 8 6 2 7 3 8 4 9 6 10 20 11 11 13
REMARK SMILES IDX 18 14 12 15 16 16 13 17 14 18 17 19 15 21 5 23 1 25
REMARK H PARENT 20 12 17 20 15 22 5 24 1 26
REMARK Flexibility Score: inf
ROOT
ATOM      1  C   UNL     1       8.863  -9.052 -10.947  1.00  0.00     0.079 C 
ATOM      2  C   UNL     1       8.439  -8.173  -9.757  1.00  0.00     0.164 C 
ATOM      3  C   UNL     1       9.551  -8.169  -8.692  1.00  0.00     0.232 C 
ATOM      4  O   UNL     1      10.784  -7.736  -9.268  1.00  0.00    -0.482 OA
ATOM      5  C   UNL     1      11.162  -8.074 -10.573  1.00  0.00     0.131 A 
ATOM      6  C   UNL     1      12.450  -7.762 -11.016  1.00  0.00     0.093 A 
ATOM      7  C   UNL     1      12.848  -8.091 -12.314  1.00  0.00     0.122 A 
ATOM      8  C   UNL     1      11.952  -8.736 -13.176  1.00  0.00     0.092 A 
ATOM      9  C   UNL     1      10.655  -9.049 -12.743  1.00  0.00     0.126 A 
ATOM     10  C   UNL     1      10.246  -8.700 -11.443  1.00  0.00     0.039 A 
ENDROOT
BRANCH   2  11
ATOM     11  O   UNL     1       7.249  -8.671  -9.198  1.00  0.00    -0.389 OA
ATOM     12  H   UNL     1       7.284  -9.659  -9.288  1.00  0.00     0.211 HD
ENDBRANCH   2  11
BRANCH   3  13
ATOM     13  C   UNL     1       9.191  -7.270  -7.531  1.00  0.00    -0.001 A 
ATOM     14  C   UNL     1      10.091  -6.286  -7.092  1.00  0.00     0.057 A 
ATOM     15  C   UNL     1       7.975  -7.439  -6.849  1.00  0.00     0.012 A 
ATOM     16  C   UNL     1       9.775  -5.467  -5.998  1.00  0.00     0.157 A 
ATOM     17  C   UNL     1       7.657  -6.625  -5.760  1.00  0.00     0.050 A 
ATOM     18  C   UNL     1       8.549  -5.638  -5.330  1.00  0.00     0.157 A 
BRANCH  16  19
ATOM     19  O   UNL     1      10.671  -4.489  -5.570  1.00  0.00    -0.504 OA
ATOM     20  H   UNL     1      11.630  -4.717  -5.332  1.00  0.00     0.293 HD
ENDBRANCH  16  19
BRANCH  18  21
ATOM     21  O   UNL     1       8.204  -4.839  -4.240  1.00  0.00    -0.504 OA
ATOM     22  H   UNL     1       8.845  -4.160  -3.847  1.00  0.00     0.293 HD
ENDBRANCH  18  21
ENDBRANCH   3  13
BRANCH   9  23
ATOM     23  O   UNL     1       9.773  -9.705 -13.603  1.00  0.00    -0.507 OA
ATOM     24  H   UNL     1       9.124  -9.193 -14.189  1.00  0.00     0.293 HD
ENDBRANCH   9  23
BRANCH   7  25
ATOM     25  O   UNL     1      14.137  -7.775 -12.738  1.00  0.00    -0.508 OA
ATOM     26  H   UNL     1      14.802  -8.495 -12.994  1.00  0.00     0.293 HD
ENDBRANCH   7  25
TORSDOF 6
ENDMDL
MODEL 4
REMARK VINA RESULT:    -5.878      2.028      7.068
REMARK INTER + INTRA:          -7.458
REMARK INTER:                  -7.739
REMARK INTRA:                   0.280
REMARK UNBOUND:                -0.378
REMARK SMILES Oc1cc(O)c2c(c1)O[C@@H](c1ccc(O)c(O)c1)[C@H](O)C2
REMARK SMILES IDX 21 1 19 2 10 3 9 4 7 5 8 6 2 7 3 8 4 9 6 10 20 11 11 13
REMARK SMILES IDX 18 14 12 15 16 16 13 17 14 18 17 19 15 21 5 23 1 25
REMARK H PARENT 20 12 17 20 15 22 5 24 1 26
REMARK Flexibility Score: inf
ROOT
ATOM      1  C   UNL     1       8.613  -8.197 -10.549  1.00  0.00     0.079 C 
ATOM      2  C   UNL     1       8.348  -8.133  -9.034  1.00  0.00     0.164 C 
ATOM      3  C   UNL     1       8.980  -6.855  -8.450  1.00  0.00     0.232 C 
ATOM      4  O   UNL     1       8.483  -5.703  -9.134  1.00  0.00    -0.482 OA
ATOM      5  C   UNL     1       8.215  -5.703 -10.508  1.00  0.00     0.131 A 
ATOM      6  C   UNL     1       7.895  -4.500 -11.143  1.00  0.00     0.093 A 
ATOM      7  C   UNL     1       7.624  -4.478 -12.513  1.00  0.00     0.122 A 
ATOM      8  C   UNL     1       7.675  -5.666 -13.254  1.00  0.00     0.092 A 
ATOM      9  C   UNL     1       7.991  -6.879 -12.626  1.00  0.00     0.126 A 
ATOM     10  C   UNL     1       8.243  -6.906 -11.241  1.00  0.00     0.039 A 
ENDROOT
BRANCH   2  11
ATOM     11  O   UNL     1       8.898  -9.263  -8.407  1.00  0.00    -0.389 OA
ATOM     12  H   UNL     1       8.904  -9.990  -9.083  1.00  0.00     0.211 HD
ENDBRANCH   2  11
BRANCH   3  13
ATOM     13  C   UNL     1       8.691  -6.732  -6.972  1.00  0.00    -0.001 A 
ATOM     14  C   UNL     1       8.015  -7.759  -6.294  1.00  0.00     0.057 A 
ATOM     15  C   UNL     1       9.052  -5.570  -6.270  1.00  0.00     0.012 A 
ATOM     16  C   UNL     1       7.719  -7.638  -4.928  1.00  0.00     0.157 A 
ATOM     17  C   UNL     1       8.759  -5.447  -4.910  1.00  0.00     0.050 A 
ATOM     18  C   UNL     1       8.096  -6.475  -4.234  1.00  0.00     0.157 A 
BRANCH  16  19
ATOM     19  O   UNL     1       7.052  -8.664  -4.261  1.00  0.00    -0.504 OA
ATOM     20  H   UNL     1       7.432  -9.602  -4.216  1.00  0.00     0.293 HD
ENDBRANCH  16  19
BRANCH  18  21
ATOM     21  O   UNL     1       7.818  -6.324  -2.875  1.00  0.00    -0.504 OA
ATOM     22  H   UNL     1       8.273  -5.620  -2.308  1.00  0.00     0.293 HD
ENDBRANCH  18  21
ENDBRANCH   3  13
BRANCH   9  23
ATOM     23  O   UNL     1       8.054  -8.055 -13.373  1.00  0.00    -0.507 OA
ATOM     24  H   UNL     1       7.538  -8.163 -14.238  1.00  0.00     0.293 HD
ENDBRANCH   9  23
BRANCH   7  25
ATOM     25  O   UNL     1       7.308  -3.270 -13.131  1.00  0.00    -0.508 OA
ATOM     26  H   UNL     1       6.493  -2.732 -12.859  1.00  0.00     0.293 HD
ENDBRANCH   7  25
TORSDOF 6
ENDMDL
MODEL 5
REMARK VINA RESULT:    -5.775      2.145      2.862
REMARK INTER + INTRA:          -7.335
REMARK INTER:                  -6.975
REMARK INTRA:                  -0.360
REMARK UNBOUND:                -0.378
REMARK SMILES Oc1cc(O)c2c(c1)O[C@@H](c1ccc(O)c(O)c1)[C@H](O)C2
REMARK SMILES IDX 21 1 19 2 10 3 9 4 7 5 8 6 2 7 3 8 4 9 6 10 20 11 11 13
REMARK SMILES IDX 18 14 12 15 16 16 13 17 14 18 17 19 15 21 5 23 1 25
REMARK H PARENT 20 12 17 20 15 22 5 24 1 26
REMARK Flexibility Score: inf
ROOT
ATOM      1  C   UNL     1      10.674  -6.011  -8.061  1.00  0.00     0.079 C 
ATOM      2  C   UNL     1      11.039  -6.510  -9.471  1.00  0.00     0.164 C 
ATOM      3  C   UNL     1      11.198  -8.041  -9.455  1.00  0.00     0.232 C 
ATOM      4  O   UNL     1      10.008  -8.656  -8.958  1.00  0.00    -0.482 OA
ATOM      5  C   UNL     1       9.245  -8.090  -7.929  1.00  0.00     0.131 A 
ATOM      6  C   UNL     1       8.192  -8.823  -7.376  1.00  0.00     0.093 A 
ATOM      7  C   UNL     1       7.418  -8.278  -6.348  1.00  0.00     0.122 A 
ATOM      8  C   UNL     1       7.701  -6.992  -5.869  1.00  0.00     0.092 A 
ATOM      9  C   UNL     1       8.753  -6.246  -6.421  1.00  0.00     0.126 A 
ATOM     10  C   UNL     1       9.519  -6.786  -7.471  1.00  0.00     0.039 A 
ENDROOT
BRANCH   2  11
ATOM     11  O   UNL     1      12.240  -5.912  -9.891  1.00  0.00    -0.389 OA
ATOM     12  H   UNL     1      12.966  -6.553  -9.676  1.00  0.00     0.211 HD
ENDBRANCH   2  11
BRANCH   3  13
ATOM     13  C   UNL     1      11.503  -8.572 -10.838  1.00  0.00    -0.001 A 
ATOM     14  C   UNL     1      12.766  -9.115 -11.125  1.00  0.00     0.057 A 
ATOM     15  C   UNL     1      10.545  -8.484 -11.862  1.00  0.00     0.012 A 
ATOM     16  C   UNL     1      13.063  -9.583 -12.413  1.00  0.00     0.157 A 
ATOM     17  C   UNL     1      10.840  -8.950 -13.145  1.00  0.00     0.050 A 
ATOM     18  C   UNL     1      12.093  -9.500 -13.427  1.00  0.00     0.157 A 
BRANCH  16  19
ATOM     19  O   UNL     1      14.318 -10.125 -12.690  1.00  0.00    -0.504 OA
ATOM     20  H   UNL     1      14.752 -10.800 -12.072  1.00  0.00     0.293 HD
ENDBRANCH  16  19
BRANCH  18  21
ATOM     21  O   UNL     1      12.358  -9.958 -14.718  1.00  0.00    -0.504 OA
ATOM     22  H   UNL     1      12.865  -9.399 -15.394  1.00  0.00     0.293 HD
ENDBRANCH  18  21
ENDBRANCH   3  13
BRANCH   9  23
ATOM     23  O   UNL     1       9.036  -4.972  -5.930  1.00  0.00    -0.507 OA
ATOM     24  H   UNL     1       8.359  -4.449  -5.387  1.00  0.00     0.293 HD
ENDBRANCH   9  23
BRANCH   7  25
ATOM     25  O   UNL     1       6.373  -9.023  -5.806  1.00  0.00    -0.508 OA
ATOM     26  H   UNL     1       5.865  -9.703  -6.359  1.00  0.00     0.293 HD
ENDBRANCH   7  25
TORSDOF 6
ENDMDL
MODEL 6
REMARK VINA RESULT:    -5.720      2.789      4.210
REMARK INTER + INTRA:          -7.269
REMARK INTER:                  -7.012
REMARK INTRA:                  -0.257
REMARK UNBOUND:                -0.378
REMARK SMILES Oc1cc(O)c2c(c1)O[C@@H](c1ccc(O)c(O)c1)[C@H](O)C2
REMARK SMILES IDX 21 1 19 2 10 3 9 4 7 5 8 6 2 7 3 8 4 9 6 10 20 11 11 13
REMARK SMILES IDX 18 14 12 15 16 16 13 17 14 18 17 19 15 21 5 23 1 25
REMARK H PARENT 20 12 17 20 15 22 5 24 1 26
REMARK Flexibility Score: inf
ROOT
ATOM      1  C   UNL     1       9.500  -8.492  -7.590  1.00  0.00     0.079 C 
ATOM      2  C   UNL     1      10.756  -8.563  -8.476  1.00  0.00     0.164 C 
ATOM      3  C   UNL     1      10.364  -8.356  -9.951  1.00  0.00     0.232 C 
ATOM      4  O   UNL     1       9.664  -7.120 -10.106  1.00  0.00    -0.482 OA
ATOM      5  C   UNL     1       8.771  -6.637  -9.142  1.00  0.00     0.131 A 
ATOM      6  C   UNL     1       7.994  -5.512  -9.431  1.00  0.00     0.093 A 
ATOM      7  C   UNL     1       7.097  -5.013  -8.483  1.00  0.00     0.122 A 
ATOM      8  C   UNL     1       6.974  -5.645  -7.239  1.00  0.00     0.092 A 
ATOM      9  C   UNL     1       7.752  -6.772  -6.937  1.00  0.00     0.126 A 
ATOM     10  C   UNL     1       8.672  -7.263  -7.883  1.00  0.00     0.039 A 
ENDROOT
BRANCH   2  11
ATOM     11  O   UNL     1      11.377  -9.814  -8.322  1.00  0.00    -0.389 OA
ATOM     12  H   UNL     1      12.112  -9.688  -7.668  1.00  0.00     0.211 HD
ENDBRANCH   2  11
BRANCH   3  13
ATOM     13  C   UNL     1      11.582  -8.364 -10.845  1.00  0.00    -0.001 A 
ATOM     14  C   UNL     1      12.293  -7.177 -11.085  1.00  0.00     0.057 A 
ATOM     15  C   UNL     1      11.989  -9.547 -11.485  1.00  0.00     0.012 A 
ATOM     16  C   UNL     1      13.408  -7.173 -11.936  1.00  0.00     0.157 A 
ATOM     17  C   UNL     1      13.099  -9.545 -12.333  1.00  0.00     0.050 A 
ATOM     18  C   UNL     1      13.812  -8.365 -12.561  1.00  0.00     0.157 A 
BRANCH  16  19
ATOM     19  O   UNL     1      14.111  -5.991 -12.165  1.00  0.00    -0.504 OA
ATOM     20  H   UNL     1      13.653  -5.087 -12.137  1.00  0.00     0.293 HD
ENDBRANCH  16  19
BRANCH  18  21
ATOM     21  O   UNL     1      14.917  -8.394 -13.412  1.00  0.00    -0.504 OA
ATOM     22  H   UNL     1      14.921  -8.930 -14.271  1.00  0.00     0.293 HD
ENDBRANCH  18  21
ENDBRANCH   3  13
BRANCH   9  23
ATOM     23  O   UNL     1       7.614  -7.404  -5.702  1.00  0.00    -0.507 OA
ATOM     24  H   UNL     1       7.577  -6.877  -4.837  1.00  0.00     0.293 HD
ENDBRANCH   9  23
BRANCH   7  25
ATOM     25  O   UNL     1       6.329  -3.892  -8.788  1.00  0.00    -0.508 OA
ATOM     26  H   UNL     1       6.757  -3.000  -9.008  1.00  0.00     0.293 HD
ENDBRANCH   7  25
TORSDOF 6
ENDMDL
MODEL 7
REMARK VINA RESULT:    -5.703      2.707      4.463
REMARK INTER + INTRA:          -7.248
REMARK INTER:                  -7.449
REMARK INTRA:                   0.202
REMARK UNBOUND:                -0.378
REMARK SMILES Oc1cc(O)c2c(c1)O[C@@H](c1ccc(O)c(O)c1)[C@H](O)C2
REMARK SMILES IDX 21 1 19 2 10 3 9 4 7 5 8 6 2 7 3 8 4 9 6 10 20 11 11 13
REMARK SMILES IDX 18 14 12 15 16 16 13 17 14 18 17 19 15 21 5 23 1 25
REMARK H PARENT 20 12 17 20 15 22 5 24 1 26
REMARK Flexibility Score: inf
ROOT
ATOM      1  C   UNL     1       9.232  -9.052  -8.407  1.00  0.00     0.079 C 
ATOM      2  C   UNL     1      10.536  -8.748  -9.166  1.00  0.00     0.164 C 
ATOM      3  C   UNL     1      10.485  -7.317  -9.733  1.00  0.00     0.232 C 
ATOM      4  O   UNL     1      10.242  -6.379  -8.683  1.00  0.00    -0.482 OA
ATOM      5  C   UNL     1       9.393  -6.662  -7.607  1.00  0.00     0.131 A 
ATOM      6  C   UNL     1       9.066  -5.643  -6.707  1.00  0.00     0.093 A 
ATOM      7  C   UNL     1       8.220  -5.903  -5.625  1.00  0.00     0.122 A 
ATOM      8  C   UNL     1       7.696  -7.190  -5.443  1.00  0.00     0.092 A 
ATOM      9  C   UNL     1       8.021  -8.220  -6.338  1.00  0.00     0.126 A 
ATOM     10  C   UNL     1       8.890  -7.964  -7.415  1.00  0.00     0.039 A 
ENDROOT
BRANCH   2  11
ATOM     11  O   UNL     1      10.700  -9.668 -10.215  1.00  0.00    -0.389 OA
ATOM     12  H   UNL     1      11.201  -9.197 -10.931  1.00  0.00     0.211 HD
ENDBRANCH   2  11
BRANCH   3  13
ATOM     13  C   UNL     1      11.774  -6.965 -10.439  1.00  0.00    -0.001 A 
ATOM     14  C   UNL     1      12.501  -5.825 -10.058  1.00  0.00     0.057 A 
ATOM     15  C   UNL     1      12.234  -7.743 -11.514  1.00  0.00     0.012 A 
ATOM     16  C   UNL     1      13.684  -5.477 -10.727  1.00  0.00     0.157 A 
ATOM     17  C   UNL     1      13.412  -7.399 -12.182  1.00  0.00     0.050 A 
ATOM     18  C   UNL     1      14.140  -6.271 -11.794  1.00  0.00     0.157 A 
BRANCH  16  19
ATOM     19  O   UNL     1      14.403  -4.348 -10.340  1.00  0.00    -0.504 OA
ATOM     20  H   UNL     1      13.979  -3.615  -9.782  1.00  0.00     0.293 HD
ENDBRANCH  16  19
BRANCH  18  21
ATOM     21  O   UNL     1      15.313  -5.952 -12.479  1.00  0.00    -0.504 OA
ATOM     22  H   UNL     1      16.125  -5.572 -12.008  1.00  0.00     0.293 HD
ENDBRANCH  18  21
ENDBRANCH   3  13
BRANCH   9  23
ATOM     23  O   UNL     1       7.484  -9.495  -6.158  1.00  0.00    -0.507 OA
ATOM     24  H   UNL     1       6.531  -9.712  -6.423  1.00  0.00     0.293 HD
ENDBRANCH   9  23
BRANCH   7  25
ATOM     25  O   UNL     1       7.903  -4.876  -4.739  1.00  0.00    -0.508 OA
ATOM     26  H   UNL     1       7.029  -4.369  -4.807  1.00  0.00     0.293 HD
ENDBRANCH   7  25
TORSDOF 6
ENDMDL
MODEL 8
REMARK VINA RESULT:    -5.684     12.549     15.178
REMARK INTER + INTRA:          -7.226
REMARK INTER:                  -6.883
REMARK INTRA:                  -0.343
REMARK UNBOUND:                -0.378
REMARK SMILES Oc1cc(O)c2c(c1)O[C@@H](c1ccc(O)c(O)c1)[C@H](O)C2
REMARK SMILES IDX 21 1 19 2 10 3 9 4 7 5 8 6 2 7 3 8 4 9 6 10 20 11 11 13
REMARK SMILES IDX 18 14 12 15 16 16 13 17 14 18 17 19 15 21 5 23 1 25
REMARK H PARENT 20 12 17 20 15 22 5 24 1 26
REMARK Flexibility Score: inf
ROOT
ATOM      1  C   UNL     1       4.235   7.896 -10.479  1.00  0.00     0.079 C 
ATOM      2  C   UNL     1       4.793   7.033  -9.333  1.00  0.00     0.164 C 
ATOM      3  C   UNL     1       4.039   5.691  -9.280  1.00  0.00     0.232 C 
ATOM      4  O   UNL     1       4.122   5.028 -10.542  1.00  0.00    -0.482 OA
ATOM      5  C   UNL     1       4.089   5.723 -11.758  1.00  0.00     0.131 A 
ATOM      6  C   UNL     1       4.003   5.005 -12.954  1.00  0.00     0.093 A 
ATOM      7  C   UNL     1       3.969   5.678 -14.178  1.00  0.00     0.122 A 
ATOM      8  C   UNL     1       4.019   7.078 -14.206  1.00  0.00     0.092 A 
ATOM      9  C   UNL     1       4.109   7.807 -13.011  1.00  0.00     0.126 A 
ATOM     10  C   UNL     1       4.166   7.130 -11.779  1.00  0.00     0.039 A 
ENDROOT
BRANCH   2  11
ATOM     11  O   UNL     1       4.642   7.710  -8.111  1.00  0.00    -0.389 OA
ATOM     12  H   UNL     1       3.739   7.482  -7.768  1.00  0.00     0.211 HD
ENDBRANCH   2  11
BRANCH   3  13
ATOM     13  C   UNL     1       4.598   4.794  -8.199  1.00  0.00    -0.001 A 
ATOM     14  C   UNL     1       5.815   4.121  -8.397  1.00  0.00     0.057 A 
ATOM     15  C   UNL     1       3.887   4.586  -7.006  1.00  0.00     0.012 A 
ATOM     16  C   UNL     1       6.325   3.266  -7.410  1.00  0.00     0.157 A 
ATOM     17  C   UNL     1       4.394   3.735  -6.021  1.00  0.00     0.050 A 
ATOM     18  C   UNL     1       5.610   3.074  -6.215  1.00  0.00     0.157 A 
BRANCH  16  19
ATOM     19  O   UNL     1       7.536   2.605  -7.612  1.00  0.00    -0.504 OA
ATOM     20  H   UNL     1       7.872   2.385  -8.543  1.00  0.00     0.293 HD
ENDBRANCH  16  19
BRANCH  18  21
ATOM     21  O   UNL     1       6.091   2.231  -5.213  1.00  0.00    -0.504 OA
ATOM     22  H   UNL     1       5.710   2.239  -4.275  1.00  0.00     0.293 HD
ENDBRANCH  18  21
ENDBRANCH   3  13
BRANCH   9  23
ATOM     23  O   UNL     1       4.144   9.201 -13.047  1.00  0.00    -0.507 OA
ATOM     24  H   UNL     1       4.131   9.755 -12.198  1.00  0.00     0.293 HD
ENDBRANCH   9  23
BRANCH   7  25
ATOM     25  O   UNL     1       3.881   4.948 -15.361  1.00  0.00    -0.508 OA
ATOM     26  H   UNL     1       4.704   4.725 -15.909  1.00  0.00     0.293 HD
ENDBRANCH   7  25
TORSDOF 6
ENDMDL
MODEL 9
REMARK VINA RESULT:    -5.680      3.709      7.270
REMARK INTER + INTRA:          -7.221
REMARK INTER:                  -6.945
REMARK INTRA:                  -0.276
REMARK UNBOUND:                -0.378
REMARK SMILES Oc1cc(O)c2c(c1)O[C@@H](c1ccc(O)c(O)c1)[C@H](O)C2
REMARK SMILES IDX 21 1 19 2 10 3 9 4 7 5 8 6 2 7 3 8 4 9 6 10 20 11 11 13
REMARK SMILES IDX 18 14 12 15 16 16 13 17 14 18 17 19 15 21 5 23 1 25
REMARK H PARENT 20 12 17 20 15 22 5 24 1 26
REMARK Flexibility Score: inf
ROOT
ATOM      1  C   UNL     1      12.184  -7.972 -11.819  1.00  0.00     0.079 C 
ATOM      2  C   UNL     1      10.842  -7.401 -11.327  1.00  0.00     0.164 C 
ATOM      3  C   UNL     1      11.055  -6.633 -10.010  1.00  0.00     0.232 C 
ATOM      4  O   UNL     1      12.041  -5.614 -10.188  1.00  0.00    -0.482 OA
ATOM      5  C   UNL     1      13.164  -5.791 -11.004  1.00  0.00     0.131 A 
ATOM      6  C   UNL     1      14.173  -4.823 -11.001  1.00  0.00     0.093 A 
ATOM      7  C   UNL     1      15.302  -4.980 -11.808  1.00  0.00     0.122 A 
ATOM      8  C   UNL     1      15.425  -6.114 -12.622  1.00  0.00     0.092 A 
ATOM      9  C   UNL     1      14.417  -7.089 -12.636  1.00  0.00     0.126 A 
ATOM     10  C   UNL     1      13.269  -6.921 -11.840  1.00  0.00     0.039 A 
ENDROOT
BRANCH   2  11
ATOM     11  O   UNL     1       9.926  -8.448 -11.122  1.00  0.00    -0.389 OA
ATOM     12  H   UNL     1       9.518  -8.298 -10.231  1.00  0.00     0.211 HD
ENDBRANCH   2  11
BRANCH   3  13
ATOM     13  C   UNL     1       9.765  -6.011  -9.526  1.00  0.00    -0.001 A 
ATOM     14  C   UNL     1       9.410  -6.081  -8.169  1.00  0.00     0.057 A 
ATOM     15  C   UNL     1       8.885  -5.399 -10.434  1.00  0.00     0.012 A 
ATOM     16  C   UNL     1       8.202  -5.530  -7.719  1.00  0.00     0.157 A 
ATOM     17  C   UNL     1       7.680  -4.850  -9.988  1.00  0.00     0.050 A 
ATOM     18  C   UNL     1       7.334  -4.910  -8.635  1.00  0.00     0.157 A 
BRANCH  16  19
ATOM     19  O   UNL     1       7.858  -5.600  -6.370  1.00  0.00    -0.504 OA
ATOM     20  H   UNL     1       7.516  -4.789  -5.867  1.00  0.00     0.293 HD
ENDBRANCH  16  19
BRANCH  18  21
ATOM     21  O   UNL     1       6.125  -4.353  -8.219  1.00  0.00    -0.504 OA
ATOM     22  H   UNL     1       5.837  -3.423  -8.500  1.00  0.00     0.293 HD
ENDBRANCH  18  21
ENDBRANCH   3  13
BRANCH   9  23
ATOM     23  O   UNL     1      14.554  -8.221 -13.440  1.00  0.00    -0.507 OA
ATOM     24  H   UNL     1      14.775  -9.128 -13.046  1.00  0.00     0.293 HD
ENDBRANCH   9  23
BRANCH   7  25
ATOM     25  O   UNL     1      16.299  -4.007 -11.791  1.00  0.00    -0.508 OA
ATOM     26  H   UNL     1      17.013  -3.967 -12.509  1.00  0.00     0.293 HD
ENDBRANCH   7  25
TORSDOF 6
ENDMDL
